#------------------------------------------------------------------------------
#$Date: 2015-10-06 16:12:01 +0300 (Tue, 06 Oct 2015) $
#$Revision: 160532 $
#$URL: svn://www.crystallography.net/cod/cif/4/12/43/4124310.cif $
#------------------------------------------------------------------------------
#
# This file is available in the Crystallography Open Database (COD),
# http://www.crystallography.net/
#
# All data on this site have been placed in the public domain by the
# contributors.
#
data_4124310
loop_
_publ_author_name
'Metternich, Jan B.'
'Gilmour, Ryan'
_publ_section_title
;
 A Bio-Inspired, Catalytic E \\rightarrow Z Isomerization of Activated
 Olefins.
;
_journal_issue                   35
_journal_name_full               'Journal of the American Chemical Society'
_journal_page_first              11254
_journal_page_last               11257
_journal_paper_doi               10.1021/jacs.5b07136
_journal_volume                  137
_journal_year                    2015
_chemical_formula_sum            'C11 H10 O2'
_chemical_formula_weight         174.19
_space_group_crystal_system      triclinic
_space_group_IT_number           2
_space_group_name_Hall           '-P 1'
_space_group_name_H-M_alt        'P -1'
_symmetry_space_group_name_Hall  '-P 1'
_symmetry_space_group_name_H-M   'P -1'
_atom_sites_solution_hydrogens   geom
_cell_angle_alpha                79.408(2)
_cell_angle_beta                 78.421(2)
_cell_angle_gamma                72.627(2)
_cell_formula_units_Z            2
_cell_length_a                   6.8381(3)
_cell_length_b                   7.5909(3)
_cell_length_c                   8.7535(4)
_cell_measurement_reflns_used    2567
_cell_measurement_temperature    100.(2)
_cell_measurement_theta_max      68.1034
_cell_measurement_theta_min      5.2038
_cell_volume                     421.07(3)
_computing_cell_refinement       'SAINT V8.34A (Bruker AXS Inc., 2013)'
_computing_data_collection
;
APEX2 v.2014.1-1 (Bruker AXS Inc., 2014)

;
_computing_data_reduction        'SAINT V8.34A (Bruker AXS Inc., 2013)'
_computing_molecular_graphics    'XP (Sheldrick, 2014)'
_computing_publication_material  'SHELXL-2014 (Sheldrick, 2014)'
_computing_structure_refinement  'SHELXL-2014 (Sheldrick, 2014)'
_computing_structure_solution    'SHELXL-2014 (Sheldrick, 2014)'
_diffrn_ambient_temperature      100.(2)
_diffrn_detector_area_resol_mean 10.4167
_diffrn_measured_fraction_theta_full 0.992
_diffrn_measured_fraction_theta_max 0.992
_diffrn_measurement_device_type  'Bruker D8 Venture PHOTON 100 CMOS'
_diffrn_measurement_method       'omega and phi scans'
_diffrn_radiation_monochromator  'MX mirror'
_diffrn_radiation_type           'Cu K\a'
_diffrn_radiation_wavelength     1.54178
_diffrn_reflns_av_R_equivalents  0.0310
_diffrn_reflns_av_unetI/netI     0.0349
_diffrn_reflns_limit_h_max       8
_diffrn_reflns_limit_h_min       -8
_diffrn_reflns_limit_k_max       9
_diffrn_reflns_limit_k_min       -9
_diffrn_reflns_limit_l_max       10
_diffrn_reflns_limit_l_min       -10
_diffrn_reflns_number            4809
_diffrn_reflns_theta_full        68.30
_diffrn_reflns_theta_max         68.30
_diffrn_reflns_theta_min         5.20
_diffrn_source                   'Cu ImS'
_diffrn_source_type              'micro focus tube'
_exptl_absorpt_coefficient_mu    0.762
_exptl_absorpt_correction_T_max  0.96
_exptl_absorpt_correction_T_min  0.86
_exptl_absorpt_correction_type   multi-scan
_exptl_absorpt_process_details
;
Bruker AXS (2014). SADABS, Version 2014/2, Bruker AXS Inc., Madison, Wisconsin,
USA.
;
_exptl_crystal_colour            colourless
_exptl_crystal_density_diffrn    1.374
_exptl_crystal_density_method    'not measured'
_exptl_crystal_description       plate
_exptl_crystal_F_000             184
_exptl_crystal_size_max          0.210
_exptl_crystal_size_mid          0.162
_exptl_crystal_size_min          0.054
_refine_diff_density_max         0.226
_refine_diff_density_min         -0.196
_refine_ls_extinction_method     none
_refine_ls_goodness_of_fit_ref   1.037
_refine_ls_hydrogen_treatment    constr
_refine_ls_matrix_type           full
_refine_ls_number_parameters     119
_refine_ls_number_reflns         1539
_refine_ls_number_restraints     0
_refine_ls_restrained_S_all      1.037
_refine_ls_R_factor_all          0.0499
_refine_ls_R_factor_gt           0.0389
_refine_ls_shift/su_max          0.000
_refine_ls_shift/su_mean         0.000
_refine_ls_structure_factor_coef Fsqd
_refine_ls_weighting_details
'w=1/[\s^2^(Fo^2^)+(0.0595P)^2^+0.0893P] where P=(Fo^2^+2Fc^2^)/3'
_refine_ls_weighting_scheme      calc
_refine_ls_wR_factor_gt          0.1027
_refine_ls_wR_factor_ref         0.1106
_reflns_number_gt                1249
_reflns_number_total             1539
_reflns_threshold_expression     'I > 2\s(I)'
_cod_data_source_file            ja5b07136_si_002.cif
_cod_data_source_block           I
_cod_depositor_comments          'Adding full bibliography for 4124310.cif.'
_cod_database_code               4124310
_shelx_res_file
;
TITL gil7805.res in P-1
CELL  1.54178   6.8381   7.5909   8.7535   79.408   78.421   72.627
ZERR    2.000   0.0003   0.0003   0.0004    0.002    0.002    0.002
LATT 1
SFAC C  H  O
UNIT 22  20  4
SIZE 0.054 0.162 0.21
TEMP -173.130
ACTA
CONF

L.S. 10
BOND $H
FMAP 2
PLAN 10

OMIT     0  -7   1
OMIT    -4   4   6

EQIV $1 -x+1, -y, -z+1
HTAB C8 O2_$1

WGHT    0.059500    0.089300
FVAR       1.03441
O1    3    0.354097    0.234620    0.449794    11.00000    0.02165    0.01268 =
         0.01800   -0.00208   -0.00415   -0.00334
O2    3    0.426751    0.199926    0.197967    11.00000    0.03201    0.01700 =
         0.02262   -0.00736   -0.00677   -0.00269
C1    1    0.364068    0.309048    0.293553    11.00000    0.01635    0.01735 =
         0.02067   -0.00262   -0.00587   -0.00459
C2    1    0.298993    0.510013    0.257437    11.00000    0.01633    0.01508 =
         0.01653   -0.00022   -0.00449   -0.00424
AFIX  43
H2    2    0.302612    0.563286    0.150194    11.00000   -1.20000
AFIX   0
C3    1    0.233475    0.625100    0.368966    11.00000    0.01056    0.01384 =
         0.01897   -0.00110   -0.00380   -0.00359
C4    1    0.230301    0.541628    0.533071    11.00000    0.01054    0.01509 =
         0.01643   -0.00109   -0.00297   -0.00347
C5    1    0.172088    0.644397    0.660901    11.00000    0.01497    0.01444 =
         0.02006   -0.00197   -0.00251   -0.00274
AFIX  43
H5    2    0.128628    0.776539    0.642097    11.00000   -1.20000
AFIX   0
C6    1    0.177091    0.556225    0.813455    11.00000    0.01579    0.02200 =
         0.01821   -0.00544   -0.00163   -0.00334
AFIX  43
H6    2    0.136642    0.627798    0.898525    11.00000   -1.20000
AFIX   0
C7    1    0.241449    0.362213    0.842855    11.00000    0.01539    0.02545 =
         0.01537    0.00285   -0.00327   -0.00673
AFIX  43
H7    2    0.245887    0.302153    0.947859    11.00000   -1.20000
AFIX   0
C8    1    0.298856    0.256938    0.719547    11.00000    0.01397    0.01445 =
         0.02202    0.00170   -0.00286   -0.00466
AFIX  43
H8    2    0.342137    0.124827    0.739006    11.00000   -1.20000
AFIX   0
C9    1    0.292123    0.347366    0.567571    11.00000    0.01173    0.01438 =
         0.01882   -0.00350   -0.00269   -0.00406
C10   1    0.166507    0.833965    0.330319    11.00000    0.01718    0.01367 =
         0.01779   -0.00188   -0.00259   -0.00310
AFIX  23
H10A  2    0.257206    0.886685    0.372950    11.00000   -1.20000
H10B  2    0.023343    0.880130    0.385185    11.00000   -1.20000
AFIX   0
C11   1    0.171557    0.908004    0.156033    11.00000    0.02216    0.01322 =
         0.02043    0.00116   -0.00543   -0.00288
AFIX 137
H11A  2    0.313362    0.866913    0.100396    11.00000   -1.50000
H11B  2    0.125650    1.044401    0.142901    11.00000   -1.50000
H11C  2    0.078908    0.860337    0.112661    11.00000   -1.50000
AFIX   0
HKLF 4

REM  gil7805.res in P-1
REM R1 =  0.0389 for    1249 Fo > 4sig(Fo)  and  0.0499 for all    1539 data
REM    119 parameters refined using      0 restraints

END

WGHT      0.0595      0.0892

REM Highest difference peak  0.226,  deepest hole -0.196,  1-sigma level  0.045
Q1    1   0.2835  0.4564  0.5390  11.00000  0.05    0.23
Q2    1   0.2603  0.5787  0.5888  11.00000  0.05    0.22
Q3    1   0.1936  0.5619  0.3126  11.00000  0.05    0.20
Q4    1   0.1614  0.5749  0.5951  11.00000  0.05    0.20
Q5    1   0.2076  0.5914  0.4521  11.00000  0.05    0.20
Q6    1   0.3328  0.3041  0.7709  11.00000  0.05    0.19
Q7    1   0.3254  0.5596  0.3056  11.00000  0.05    0.17
Q8    1   0.2321  0.7169  0.3516  11.00000  0.05    0.17
Q9    1   0.3582  0.4216  0.2773  11.00000  0.05    0.16
Q10   1   0.2081  0.3059  0.7847  11.00000  0.05    0.16
;
_shelx_res_checksum              72992
_shelx_hkl_file
;
  -1   0   0  125.49    6.10
  -1   0   0  104.59    6.20
  -1   0   0  123.09    6.10
   1   0   0  128.59    6.10
   1   0   0  125.39    6.10
   1   0   0  125.59    6.10
  -2   0   0 4601.94  214.88
  -2   0   0 4469.65  215.08
   2   0   0 4703.83  214.88
   2   0   0 4574.64  215.18
   2   0   0 4590.54  214.88
  -3   0   0    3.30    0.80
   3   0   0    3.60    0.70
   3   0   0    4.20    0.90
   3   0   0    1.00    0.80
  -4   0   0    1.10    1.70
  -4   0   0    1.20    1.20
  -4   0   0   -0.80    1.10
   4   0   0    0.00    1.30
   4   0   0    2.60    2.00
  -5   0   0   50.79    3.40
  -5   0   0   48.60    3.20
   5   0   0   47.80    3.30
  -6   0   0   35.90    2.60
  -6   0   0   31.90    3.10
   6   0   0   36.00    2.70
  -7   0   0    4.90    1.30
  -7   0   0    2.60    1.10
   7   0   0    4.20    0.80
   7  -1   0    3.50    0.90
  -7   1   0    2.70    1.00
  -7   1   0    3.30    1.00
   6  -1   0   -0.90    1.00
  -6   1   0    0.30    1.50
  -6   1   0    0.90    1.30
   5  -1   0    8.50    1.40
  -5   1   0    7.70    1.40
   4  -1   0   15.20    2.10
  -4   1   0   13.70    1.70
  -4   1   0   17.50    2.00
  -4   1   0   13.50    3.00
   3  -1   0   32.60    3.00
   3  -1   0   37.60    2.40
   3  -1   0   36.30    2.80
  -3   1   0   31.00    2.70
  -3   1   0   37.30    2.40
  -3   1   0   38.30    2.60
   2  -1   0  462.45   21.30
   2  -1   0  466.75   21.40
   2  -1   0  446.36   21.40
   2  -1   0  444.86   21.30
  -2   1   0  437.06   21.40
  -2   1   0  434.36   21.30
  -2   1   0  463.35   21.40
   1  -1   0  223.68   10.90
   1  -1   0  240.78   10.90
   1  -1   0  229.28   10.90
   1  -1   0  229.78   10.90
  -1   1   0  223.48   10.90
  -1   1   0  226.18   10.90
  -1   1   0  229.28   10.90
   0  -1   0 1520.45   71.79
   0  -1   0 1528.05   71.79
   0  -1   0 1511.55   71.79
   0  -1   0 1561.04   71.99
   0   1   0 1492.35   71.79
   0   1   0 1523.05   71.89
   0   1   0 1528.45   71.69
   0   1   0 1586.64   71.99
  -1  -1   0  183.18    8.60
  -1  -1   0  175.58    8.60
   1   1   0  201.78    8.60
   1   1   0  174.78    8.60
   1   1   0  179.08    8.60
  -2  -1   0 9795.22  457.55
  -2  -1   0 9719.23  457.55
   2   1   0 9599.44  457.45
   2   1   0 9999.00  457.55
  -3  -1   0  152.58    7.30
  -3  -1   0  146.99    7.30
   3   1   0  152.68    7.30
   3   1   0  149.99    7.30
  -4  -1   0  943.11   44.80
  -4  -1   0  931.11   45.00
   4   1   0  981.00   44.90
  -5  -1   0    3.50    1.50
  -5  -1   0    1.80    1.30
   5   1   0    2.60    2.00
  -6  -1   0   42.90    3.10
  -6  -1   0   44.30    3.20
  -6  -1   0   39.80    3.00
   6   1   0   41.10    3.20
  -7  -1   0   35.00    3.10
  -7  -1   0   27.90    3.20
   7   1   0   36.90    2.60
   7  -2   0    0.80    1.10
  -7   2   0    0.60    1.40
  -7   2   0    1.80    0.90
   6  -2   0    1.70    0.90
  -6   2   0    4.10    1.10
  -6   2   0    1.70    1.30
   5  -2   0    8.90    2.90
   5  -2   0   10.90    1.30
  -5   2   0   12.70    1.80
   4  -2   0    2.40    1.20
   4  -2   0    4.80    2.20
  -4   2   0    2.60    1.30
   3  -2   0   77.19    4.60
   3  -2   0   76.69    4.30
   3  -2   0   78.69    4.70
  -3   2   0   80.29    4.50
  -3   2   0   71.59    4.60
  -3   2   0   75.59    4.60
  -3   2   0   75.29    4.50
   2  -2   0   27.90    1.90
   2  -2   0   25.70    2.00
   2  -2   0   28.20    2.00
   2  -2   0   28.60    2.10
  -2   2   0   25.20    1.90
  -2   2   0   25.70    1.90
  -2   2   0   26.10    2.00
   1  -2   0  351.16   16.40
   1  -2   0  342.17   16.40
   1  -2   0  332.77   16.40
   1  -2   0  347.47   16.50
  -1   2   0  343.87   16.40
  -1   2   0  331.77   16.40
  -1   2   0  368.16   16.50
   0  -2   0  552.74   27.30
   0  -2   0  601.34   27.40
   0  -2   0  613.54   27.30
   0  -2   0  602.64   27.30
   0   2   0  595.94   27.30
   0   2   0  566.44   27.40
   0   2   0  534.45   27.30
   0   2   0  582.84   27.30
  -1  -2   0  882.71   40.50
   1   2   0  877.21   40.40
   1   2   0  801.82   40.50
   1   2   0  864.81   40.50
   1   2   0  891.11   40.40
   2   2   0   68.89    3.40
   3   2   0  439.96   20.70
  -4  -2   0  545.05   26.30
  -4  -2   0  542.45   26.20
   4   2   0  556.84   25.90
  -5  -2   0    8.10    1.70
  -5  -2   0    9.40    1.50
  -6  -2   0   28.60    3.20
  -6  -2   0   24.60    2.70
   6   2   0   25.00    3.40
  -7  -2   0    0.50    1.10
  -7  -2   0   -0.40    1.00
   7   2   0    0.40    1.40
  -8  -2   0    3.70    1.10
   6  -3   0   39.00    5.00
  -6   3   0   30.60    2.10
  -6   3   0   26.20    2.40
   5  -3   0   16.70    2.40
   5  -3   0   14.50    1.60
  -5   3   0   13.70    1.60
   4  -3   0   72.09    4.70
   4  -3   0   70.99    4.10
  -4   3   0   71.19    4.50
   3  -3   0   21.40    2.10
   3  -3   0   21.60    2.70
  -3   3   0   23.00    2.80
  -3   3   0   20.30    2.10
   2  -3   0    1.40    1.40
   2  -3   0    4.50    1.40
  -2   3   0   -0.20    1.50
  -2   3   0   -1.50    1.30
  -2   3   0    2.10    1.70
   1  -3   0 1090.99   53.99
   1  -3   0 1118.49   53.79
  -1   3   0 1200.08   53.89
  -1   3   0 1105.49   53.89
  -1   3   0 1207.48   53.99
   0  -3   0   45.70    2.60
   0  -3   0   47.40    2.50
   0  -3   0   47.60    2.50
   0   3   0   48.00    2.60
   0   3   0   48.60    2.60
   0   3   0   48.70    2.50
   0   3   0   48.10    2.80
  -1  -3   0 2203.58  101.89
  -1  -3   0 2139.09  101.79
  -1  -3   0 2015.80  101.79
   1   3   0 2185.18  101.99
   1   3   0 2235.88  101.79
   1   3   0 2261.77  102.09
   1   3   0 2181.18  101.79
   2   3   0  269.37   13.00
   2   3   0  270.17   12.80
   3   3   0    4.10    0.80
   3   3   0    5.90    0.80
  -4  -3   0   -1.60    2.50
  -4  -3   0    0.90    1.50
  -4  -3   0    1.20    1.70
   4   3   0   -1.90    1.30
  -5  -3   0   69.29    4.00
  -5  -3   0   65.39    4.40
  -6  -3   0    5.90    1.70
  -6  -3   0    0.30    1.60
  -7  -3   0    2.20    1.70
  -7  -3   0    0.60    1.50
   7   3   0    2.10    1.90
  -8  -3   0   24.10    1.90
   8   3   0   18.30    2.00
   5  -4   0   42.80    3.60
  -5   4   0   51.49    3.10
   4  -4   0    3.30    1.20
  -4   4   0    4.30    1.80
  -4   4   0    1.10    1.50
   3  -4   0   18.80    2.50
  -3   4   0   18.00    2.00
  -3   4   0   18.00    2.40
   2  -4   0   92.99    5.10
   2  -4   0   89.79    7.10
  -2   4   0   96.79    5.00
  -2   4   0   87.59    6.30
   1  -4   0    2.30    1.60
   1  -4   0    2.40    1.20
   1  -4   0    0.70    2.20
  -1   4   0   -2.20    1.90
  -1   4   0   -1.20    1.60
  -1   4   0   -0.60    2.80
  -1   4   0    0.70    1.50
   0  -4   0   10.80    1.30
   0   4   0    8.20    1.50
   0   4   0   13.40    1.30
   0   4   0   11.60    1.70
  -1  -4   0 1138.69   50.59
   1   4   0 1012.00   50.89
  -2  -4   0    3.50    1.30
   2   4   0    1.30    1.20
   2   4   0    1.50    0.70
  -3  -4   0 1088.09   51.19
  -3  -4   0 1058.09   51.09
   3   4   0 1100.49   51.19
  -4  -4   0  132.29    7.50
  -4  -4   0  142.09    7.50
  -4  -4   0  136.69    7.60
  -5  -4   0   37.00    3.50
  -5  -4   0   27.40    4.00
  -5  -4   0   32.10    3.30
  -6  -4   0   -0.10    1.70
  -6  -4   0    1.90    1.90
  -7  -4   0    0.50    1.70
  -7  -4   0   -0.80    1.30
   5  -5   0    4.40    1.40
  -5   5   0    4.60    1.10
   4  -5   0    0.40    1.40
  -4   5   0   -2.30    2.00
   3  -5   0   -0.20    1.30
  -3   5   0   -2.20    2.40
  -3   5   0    0.70    1.10
   2  -5   0   10.10    1.50
   2  -5   0   10.00    4.00
  -2   5   0   12.60    1.60
   1  -5   0    5.70    2.20
   1  -5   0    3.30    1.20
   0  -5   0    3.70    3.00
   0  -5   0    5.30    1.20
   0  -5   0    6.90    1.80
   0   5   0    3.70    2.00
  -1  -5   0   17.30    2.00
  -1  -5   0   13.80    1.80
  -1  -5   0   18.80    2.60
  -2  -5   0   37.50    3.00
  -2  -5   0   34.20    3.70
  -2  -5   0   30.20    4.10
  -3  -5   0  217.28   11.60
  -3  -5   0  235.88   11.20
  -3  -5   0  203.78   11.20
  -4  -5   0   -2.00    1.50
  -4  -5   0    2.80    1.80
  -5  -5   0  199.48   10.20
  -5  -5   0  195.68   10.40
  -5  -5   0  196.08   10.30
  -6  -5   0   33.30    2.90
  -7  -5   0   23.60    2.20
   4  -6   0   -0.70    2.90
   4  -6   0   -0.60    0.70
  -4   6   0   -6.30    2.60
   3  -6   0    3.20    1.20
  -3   6   0    1.50    1.00
   2  -6   0   16.70    1.80
  -2   6   0   17.50    2.10
   1  -6   0   57.89    3.50
   1  -6   0   49.80    4.10
  -1   6   0   55.09    3.50
   0  -6   0    7.50    1.40
   0  -6   0   12.80    1.50
   0   6   0    9.00    2.10
  -1  -6   0   65.69    3.70
  -1  -6   0   66.99    4.20
  -1  -6   0   59.99    5.20
  -1  -6   0   50.99    4.80
  -2  -6   0    3.20    2.20
  -2  -6   0    2.30    1.20
  -2  -6   0    3.30    2.30
  -3  -6   0    1.70    1.50
  -3  -6   0    2.50    2.30
  -3  -6   0    2.10    2.20
  -4  -6   0   16.50    3.00
  -4  -6   0   24.70    3.70
  -4  -6   0   25.80    2.90
  -5  -6   0   30.60    3.40
  -5  -6   0   28.60    3.80
  -6  -6   0    1.80    2.20
  -7  -6   0    8.70    1.80
   3  -7   0    7.00    1.00
   3  -7   0    5.10    2.00
   2  -7   0   17.40    1.50
   2  -7   0   17.80    2.30
  -2   7   0   18.40    1.80
   1  -7   0   -0.80    2.30
   1  -7   0   -0.40    2.70
   1  -7   0    0.80    1.10
   0  -7   0  132.49    6.70
   0  -7   0  129.19    7.00
   0  -7   0  138.79    7.60
   0   7   0  134.69    7.00
  -1  -7   0   71.69    4.20
  -1  -7   0   73.09    4.60
   1   7   0   67.19    4.40
  -2  -7   0   42.50    3.30
  -2  -7   0   42.20    3.70
  -2  -7   0   35.50    5.10
  -3  -7   0   34.10    4.20
  -3  -7   0   38.10    4.60
  -3  -7   0   36.10    2.80
  -4  -7   0    4.00    3.00
  -4  -7   0   -0.90    0.90
  -5  -7   0    0.40    1.20
  -5  -7   0    2.40    1.60
  -6  -7   0    2.80    1.40
   1  -8   0   -0.20    1.10
  -1   8   0    0.30    0.90
   0  -8   0    7.40    1.90
   0  -8   0    9.50    1.50
  -1  -8   0    0.40    1.60
  -1  -8   0    0.00    1.50
   1   8   0    0.90    1.00
  -2  -8   0  178.58    8.50
  -2  -8   0  172.68    8.70
   2   8   0  148.99    8.60
  -3  -8   0   75.19    4.60
  -3  -8   0   77.79    5.40
  -4  -8   0   71.29    4.10
  -5  -8   0   22.30    2.40
  -5  -8   1    9.40    2.30
  -5  -8   1    9.50    1.60
  -4  -8   1    5.10    1.10
  -4  -8   1    3.40    3.20
  -3  -8   1    9.30    1.30
  -3  -8   1    8.40    3.00
  -3  -8   1    8.40    1.90
   2   8  -1   16.40    2.10
  -2  -8   1   15.60    1.80
  -2  -8   1   16.60    2.60
   1   8  -1    4.60    1.40
  -1  -8   1    4.20    1.60
  -1  -8   1    6.40    1.90
   0   8  -1   30.20    2.00
   0  -8   1   32.80    3.10
   0  -8   1   27.40    3.10
  -1   8  -1   21.30    1.70
   1  -8   1   22.20    2.10
  -6  -7   1   -0.20    2.00
  -6  -7   1    1.90    1.20
  -5  -7   1    2.80    1.20
  -5  -7   1    0.50    1.40
  -4  -7   1    5.50    1.40
  -4  -7   1    5.50    2.30
  -3  -7   1    0.70    1.10
  -3  -7   1    4.10    3.10
  -2  -7   1    1.30    2.50
  -2  -7   1    2.40    2.30
  -2  -7   1    2.40    1.60
   1   7  -1   70.49    4.50
  -1  -7   1   74.89    4.40
  -1  -7   1   80.69    5.30
   0   7  -1   55.59    4.00
  -1   7  -1    5.70    1.30
   1  -7   1    7.90    1.30
   1  -7   1   13.20    2.60
   1  -7   1   10.80    2.30
  -2   7  -1   58.39    3.20
   2  -7   1   57.89    3.70
   3  -7   1    9.10    1.10
   3  -7   1   12.30    2.20
  -6  -6   1   19.80    2.30
  -6  -6   1   12.00    2.30
  -5  -6   1   16.00    2.40
  -4  -6   1    9.00    1.50
  -4  -6   1   12.80    2.40
  -3  -6   1   21.60    2.60
  -3  -6   1   22.70    2.80
  -3  -6   1   13.80    2.90
  -2  -6   1   -0.50    1.90
  -2  -6   1    4.70    2.40
  -2  -6   1    2.00    1.50
   1   6  -1   10.80    2.20
  -1  -6   1   11.00    1.60
  -1  -6   1   11.80    2.00
  -1  -6   1   18.40    2.50
  -1  -6   1   13.80    2.60
   0   6  -1    0.00    1.50
   0  -6   1    0.30    1.50
   0  -6   1    2.10    1.80
  -1   6  -1   85.69    4.80
   1  -6   1   76.99    5.40
   1  -6   1   86.19    4.70
  -2   6  -1  176.98    8.90
   2  -6   1  182.18    9.10
  -3   6  -1   23.80    2.00
   3  -6   1   23.00    2.20
  -4   6  -1   78.19    5.80
   4  -6   1   92.29    5.20
  -7  -5   1    2.70    1.20
  -6  -5   1    0.80    3.00
  -6  -5   1    1.30    2.00
  -5  -5   1   12.80    2.30
  -5  -5   1    9.00    1.90
  -4  -5   1   19.10    2.80
  -4  -5   1   18.80    2.50
  -3  -5   1    8.40    3.80
  -3  -5   1    8.20    1.50
  -3  -5   1    7.20    1.60
  -2  -5   1   14.70    2.10
  -2  -5   1   13.80    2.00
  -2  -5   1   10.50    2.70
   1   5  -1    7.20    2.40
  -1  -5   1    6.20    1.60
  -1  -5   1    4.10    1.80
  -1  -5   1    7.20    1.70
   0   5  -1   10.60    2.00
   0  -5   1   16.20    2.10
   0  -5   1   11.00    1.50
   0  -5   1   17.10    2.00
  -1   5  -1    2.10    1.40
   1  -5   1    4.10    1.20
  -2   5  -1    2.50    1.30
   2  -5   1    1.30    1.30
  -3   5  -1   55.49    4.80
   3  -5   1   57.39    3.70
  -4   5  -1   89.39    5.70
   4  -5   1   98.29    5.30
  -5   5  -1    8.80    1.40
  -7  -4   1    1.20    1.20
  -6  -4   1    1.10    1.50
  -5  -4   1   -3.40    2.00
  -5  -4   1    1.10    2.00
  -4  -4   1   -2.50    1.00
  -3  -4   1    0.40    1.60
  -3  -4   1    3.90    1.50
   2   4  -1   39.50    3.40
   2   4  -1   46.80    2.40
   2   4  -1   45.10    2.30
  -2  -4   1   40.00    3.50
  -2  -4   1   46.80    3.50
   1   4  -1  244.88   11.10
   1   4  -1  235.08   11.50
   1   4  -1  241.28   11.00
  -1  -4   1  224.58   11.40
  -1  -4   1  192.08   11.50
   0   4  -1  128.59    7.00
   0   4  -1  132.49    6.60
   0   4  -1  131.59    7.00
   0  -4   1  128.39    6.50
   0  -4   1  120.39    7.00
   0  -4   1  114.89    7.00
  -1   4  -1    0.80    1.50
  -1   4  -1    0.90    1.70
   1  -4   1   -0.80    2.40
   1  -4   1    0.10    2.00
   1  -4   1    1.70    1.10
   1  -4   1   -1.00    2.10
  -2   4  -1   37.50    4.00
  -2   4  -1   56.49    3.60
  -3   4  -1    2.50    2.10
   3  -4   1    0.90    1.40
  -4   4  -1   -1.40    1.40
  -4   4  -1    2.10    1.90
   4  -4   1    1.00    1.60
  -5   4  -1   22.00    2.10
   5  -4   1   23.90    2.90
   7   3  -1    2.60    1.60
  -7  -3   1    3.80    1.40
  -6  -3   1   21.20    3.10
  -6  -3   1   22.20    3.10
  -5  -3   1   20.70    3.30
  -5  -3   1   13.70    2.20
  -5  -3   1   22.60    2.30
  -4  -3   1    4.40    2.10
  -4  -3   1    4.40    1.10
  -4  -3   1    3.50    2.50
   3   3  -1    3.70    0.80
   3   3  -1    3.90    0.70
   3   3  -1    3.40    0.60
  -3  -3   1    6.30    2.10
  -3  -3   1    3.80    1.20
   2   3  -1   40.50    2.10
   2   3  -1   42.00    2.60
   1   3  -1  323.87   16.00
   1   3  -1  331.27   15.80
   1   3  -1  331.97   15.80
  -1  -3   1  333.67   15.80
  -1  -3   1  316.87   16.00
  -1  -3   1  361.56   15.80
   0   3  -1  242.68   11.30
   0   3  -1  241.68   11.30
   0  -3   1  212.38   11.10
   0  -3   1  242.18   11.30
  -1   3  -1 1435.56   65.19
  -1   3  -1 1368.96   65.09
  -1   3  -1 1365.96   65.09
   1  -3   1 1364.86   65.29
   1  -3   1 1421.76   64.99
   1  -3   1 1311.77   65.09
   1  -3   1 1412.56   64.99
  -2   3  -1   67.89    4.10
  -2   3  -1   71.49    4.30
  -2   3  -1   67.89    4.70
   2  -3   1   76.29    4.40
   2  -3   1   69.49    4.30
   2  -3   1   64.09    4.10
  -3   3  -1   73.19    4.60
  -3   3  -1   76.29    4.30
   3  -3   1   72.39    4.50
   3  -3   1   71.59    4.10
  -4   3  -1    6.20    1.70
  -4   3  -1    5.60    1.90
   4  -3   1    6.10    1.90
   4  -3   1    2.70    1.10
  -5   3  -1    3.30    1.50
   5  -3   1   -2.00    2.10
   5  -3   1    0.20    0.90
  -6   3  -1    0.60    1.30
   6  -3   1    3.90    2.90
   7   2  -1    1.20    0.80
  -7  -2   1   -1.90    1.50
   6   2  -1   64.29    4.20
  -6  -2   1   63.39    4.20
  -6  -2   1   67.39    4.50
  -5  -2   1    1.00    1.50
  -5  -2   1    2.40    1.50
   4   2  -1  120.39    6.30
  -4  -2   1  119.59    6.80
  -4  -2   1  133.59    7.90
  -4  -2   1  119.49    6.50
  -4  -2   1  123.19    6.60
   3   2  -1   18.70    1.30
   3   2  -1   16.20    1.60
   3   2  -1   18.60    1.30
  -3  -2   1   17.00    1.30
  -3  -2   1   16.70    1.30
   2   2  -1   68.19    3.30
   2   2  -1   68.59    3.40
   2   2  -1   68.99    3.30
   2   2  -1   66.49    3.30
   2   2  -1   67.49    3.30
  -2  -2   1   66.49    3.30
  -2  -2   1   67.29    3.30
   1   2  -1   44.80    2.50
   1   2  -1   48.50    2.40
   1   2  -1   48.20    2.40
  -1  -2   1   48.70    2.40
  -1  -2   1   48.40    2.40
  -1  -2   1   46.10    2.50
   0   2  -1   28.00    1.50
   0   2  -1   27.30    1.60
   0   2  -1   28.10    1.60
   0  -2   1   27.80    1.40
   0  -2   1   25.90    1.70
   0  -2   1   27.90    1.60
   0  -2   1   27.90    1.50
  -1   2  -1  831.62   37.60
  -1   2  -1  817.12   37.70
  -1   2  -1  782.22   37.60
   1  -2   1  818.42   37.60
   1  -2   1  833.72   37.70
   1  -2   1  685.33   37.50
   1  -2   1  826.42   37.70
  -2   2  -1  116.69    6.00
  -2   2  -1  113.39    5.80
   2  -2   1  107.79    5.90
   2  -2   1  117.59    5.80
   2  -2   1  110.89    6.00
  -3   2  -1 1362.56   61.99
  -3   2  -1 1384.66   62.19
  -3   2  -1 1238.48   62.09
  -3   2  -1 1253.77   61.89
   3  -2   1 1274.17   62.19
   3  -2   1 1391.66   62.09
   3  -2   1 1236.78   61.99
   3  -2   1 1374.56   61.79
  -4   2  -1   18.90    2.30
   4  -2   1   24.60    2.80
   4  -2   1   23.10    2.20
  -5   2  -1  137.09    7.00
   5  -2   1  127.99    8.10
   5  -2   1  140.09    6.90
  -6   2  -1    5.70    1.50
   6  -2   1    6.40    1.20
  -7   2  -1    1.20    0.70
  -7   2  -1    0.60    0.90
   7  -2   1   -0.10    1.00
   7   1  -1    7.20    0.90
  -7  -1   1    4.30    1.50
   6   1  -1   -0.10    1.30
  -6  -1   1    2.00    1.30
  -6  -1   1    1.60    1.70
  -5  -1   1    9.80    1.40
  -5  -1   1   10.40    1.60
  -5  -1   1   10.80    1.80
   4   1  -1  138.29    7.20
  -4  -1   1  140.59    7.10
  -4  -1   1  140.89    7.20
  -4  -1   1  136.19    7.30
   3   1  -1   18.50    1.50
   3   1  -1   18.80    1.70
   3   1  -1   18.70    1.70
  -3  -1   1   17.70    1.60
   2   1  -1  239.08   11.50
   2   1  -1  246.98   11.50
   2   1  -1  248.08   11.50
  -2  -1   1  238.38   11.50
  -2  -1   1  234.98   11.50
   1   1  -1   21.40    1.10
   1   1  -1   21.30    1.20
   1   1  -1   21.30    1.10
   1   1  -1   21.30    1.10
  -1  -1   1   21.90    1.10
  -1  -1   1   20.30    1.10
  -1  -1   1   22.00    1.10
   0   1  -1  216.68   10.30
   0   1  -1  216.98   10.30
   0   1  -1  218.08   10.30
   0  -1   1  216.58   10.20
   0  -1   1  215.78   10.30
   0  -1   1  217.18   10.30
  -1   1  -1 1454.85   65.89
  -1   1  -1 1436.36   65.99
  -1   1  -1 1441.16   65.89
   1  -1   1 1444.66   65.99
   1  -1   1 1254.17   65.99
   1  -1   1 1410.26   65.89
  -2   1  -1   69.29    3.80
  -2   1  -1   78.89    3.90
  -2   1  -1   74.29    3.90
   2  -1   1   74.79    3.80
   2  -1   1   75.69    3.90
   2  -1   1   74.59    3.90
  -3   1  -1   71.99    4.10
  -3   1  -1   84.99    4.60
   3  -1   1   71.89    4.50
   3  -1   1   69.59    4.30
   3  -1   1   70.29    4.00
   3  -1   1   70.29    4.30
  -4   1  -1   46.10    3.10
  -4   1  -1   46.90    3.00
  -4   1  -1   34.00    3.70
   4  -1   1   45.50    3.10
  -5   1  -1  384.76   19.30
  -5   1  -1  414.46   19.50
   5  -1   1  404.66   19.30
  -6   1  -1    6.20    1.40
   6  -1   1    3.90    1.20
  -7   1  -1   96.19    4.80
  -7   1  -1   84.29    4.90
   7  -1   1   95.39    4.70
   7   0  -1    6.20    0.90
  -7   0   1    3.60    1.50
  -7   0   1    7.50    1.10
   6   0  -1    0.30    0.80
  -6   0   1    1.20    1.30
  -6   0   1    1.20    1.60
   5   0  -1    3.20    1.40
  -5   0   1    2.50    1.30
  -5   0   1    0.90    1.50
  -5   0   1    4.10    1.30
   4   0  -1   14.90    2.00
   4   0  -1   16.40    2.10
  -4   0   1   15.70    2.20
  -4   0   1   15.90    2.00
   3   0  -1   23.10    2.10
   3   0  -1   25.50    1.70
  -3   0   1   20.80    1.90
  -3   0   1   21.30    1.90
   2   0  -1    3.90    0.50
   2   0  -1    3.70    0.50
   2   0  -1    4.00    0.50
  -2   0   1    3.00    0.50
  -2   0   1    3.10    0.50
   1   0  -1  282.37   13.30
   1   0  -1  283.27   13.30
   1   0  -1  285.87   13.30
  -1   0   1  286.47   13.30
  -1   0   1  274.37   13.30
   0   0  -1 1273.77   56.79
   0   0  -1 1193.68   56.89
   0   0  -1 1206.38   56.79
   0   0   1 1181.98   56.79
   0   0   1 1214.58   56.69
   0   0   1 1180.98   56.69
  -1   0  -1   12.70    0.80
  -1   0  -1   13.10    0.80
   1   0   1   13.60    0.80
   1   0   1   12.60    0.80
   1   0   1   13.80    0.80
  -2   0  -1 1661.73   79.99
  -2   0  -1 1641.54   79.99
   2   0   1 1710.83   79.99
   2   0   1 1766.12   79.99
   2   0   1 1762.62   80.09
  -3   0  -1  889.91   42.70
   3   0   1  940.71   42.70
   3   0   1  900.91   42.60
   3   0   1  892.41   42.70
  -4   0  -1    7.30    1.30
  -4   0  -1    9.40    1.60
  -4   0  -1    5.80    2.10
   4   0   1    6.20    1.40
   4   0   1   11.30    3.10
  -5   0  -1    8.10    1.30
  -5   0  -1    7.00    1.50
   5   0   1    9.10    2.20
  -6   0  -1   22.50    2.10
  -6   0  -1   20.00    2.20
   6   0   1   26.40    2.50
  -7   0  -1   19.40    2.00
  -7   0  -1   20.70    1.90
   7   0   1   20.80    2.00
   7  -1  -1    9.90    1.00
  -7   1   1   11.00    1.10
  -7   1   1    8.20    1.30
   6  -1  -1    0.20    0.90
  -6   1   1    2.00    1.30
   5  -1  -1    2.10    1.20
  -5   1   1    2.20    1.20
  -5   1   1    1.70    1.40
   4  -1  -1   74.79    4.20
  -4   1   1   76.69    4.30
  -4   1   1   71.39    4.30
   3  -1  -1   22.10    2.00
   3  -1  -1   19.20    2.00
   3  -1  -1   18.50    2.20
  -3   1   1   21.20    1.70
  -3   1   1   19.90    1.90
   2  -1  -1   30.80    1.80
   2  -1  -1   31.00    1.90
   2  -1  -1   30.80    1.90
  -2   1   1   28.10    1.80
  -2   1   1   29.60    1.90
  -2   1   1   27.80    1.70
   1  -1  -1  875.61   40.40
   1  -1  -1  813.02   40.40
   1  -1  -1  863.91   40.40
  -1   1   1  910.21   40.40
  -1   1   1  853.51   40.40
  -1   1   1  883.91   40.40
  -1   1   1  827.72   40.40
   0  -1  -1  511.45   24.70
   0  -1  -1  546.25   24.80
   0  -1  -1  520.95   24.70
   0   1   1  533.25   24.80
   0   1   1  541.65   24.80
   0   1   1  511.85   24.70
  -1  -1  -1    4.00    0.30
   1   1   1    3.90    0.30
   1   1   1    4.40    0.30
   1   1   1    4.90    0.40
  -2  -1  -1 7302.67  340.77
  -2  -1  -1 7081.59  340.77
   2   1   1 7249.48  340.77
   2   1   1 7489.75  340.87
  -3  -1  -1    6.50    0.80
  -3  -1  -1    5.80    0.80
   3   1   1    6.80    0.90
   3   1   1    6.40    0.70
   3   1   1    6.20    0.90
  -4  -1  -1 2634.94  126.89
  -4  -1  -1 2685.03  126.99
   4   1   1 2804.52  126.89
  -5  -1  -1  188.98    8.80
  -5  -1  -1  161.48    9.90
  -5  -1  -1  190.68    9.10
   5   1   1  161.88    9.20
  -6  -1  -1   38.70    3.50
  -6  -1  -1   40.20    2.80
  -6  -1  -1   41.80    2.90
   6   1   1   43.40    3.20
  -7  -1  -1   -2.90    1.40
  -7  -1  -1    2.80    1.20
  -7  -1  -1    0.50    0.90
   7   1   1    1.30    1.30
   6  -2  -1   40.70    2.50
  -6   2   1   35.50    2.90
  -6   2   1   42.00    2.60
   5  -2  -1    7.80    1.20
   5  -2  -1   11.30    3.00
  -5   2   1   10.30    1.60
   4  -2  -1    9.90    1.30
   4  -2  -1   12.60    2.70
  -4   2   1   12.70    1.70
   3  -2  -1   92.29    5.50
   3  -2  -1   97.59    5.70
   3  -2  -1  101.19    5.20
  -3   2   1  100.49    5.50
  -3   2   1   96.79    5.20
  -3   2   1  102.39    5.60
  -3   2   1   98.79    5.70
   2  -2  -1   49.40    3.40
   2  -2  -1   54.19    3.20
  -2   2   1   53.99    3.40
  -2   2   1   56.89    3.10
  -2   2   1   58.29    3.30
   1  -2  -1   33.70    1.90
   1  -2  -1   34.00    2.00
   1  -2  -1   37.80    2.00
  -1   2   1   36.00    2.00
  -1   2   1   33.40    2.00
  -1   2   1   36.80    2.10
  -1   2   1   36.10    2.00
   0  -2  -1  534.15   26.10
   0  -2  -1  538.55   26.10
   0  -2  -1  583.24   26.10
   0   2   1  558.14   26.10
   0   2   1  551.54   26.10
   0   2   1  576.54   26.20
   0   2   1  542.65   26.10
  -1  -2  -1  424.56   19.80
  -1  -2  -1  436.26   19.90
  -1  -2  -1  436.26   19.80
   1   2   1  428.86   19.80
   1   2   1  376.36   19.80
   1   2   1  419.86   19.80
   1   2   1  428.46   19.90
   2   2   1    5.10    0.60
   3   2   1   14.30    0.90
  -4  -2  -1 2433.56  117.49
  -4  -2  -1 2577.64  117.39
   4   2   1 2493.65  117.09
   4   2   1 2503.95  117.19
  -5  -2  -1   21.40    2.00
  -5  -2  -1   25.80    3.10
  -6  -2  -1 1617.54   75.69
  -6  -2  -1 1685.73   75.59
   6   2   1 1505.35   75.39
  -7  -2  -1   20.80    2.50
  -7  -2  -1   27.50    3.40
   7   2   1   33.70    2.80
  -8  -2  -1  134.59    6.80
   8   2   1  134.39    6.60
  -6   3   1   35.30    2.60
   5  -3  -1   22.40    2.00
  -5   3   1   20.80    2.10
   4  -3  -1   18.70    2.30
   4  -3  -1   21.50    1.90
  -4   3   1   22.90    2.80
   3  -3  -1    1.90    1.50
   3  -3  -1    3.40    1.30
  -3   3   1    4.30    1.70
  -3   3   1    1.50    1.10
   2  -3  -1   33.70    3.00
   2  -3  -1   28.40    2.90
   2  -3  -1   34.90    2.90
  -2   3   1   41.30    3.30
  -2   3   1   36.60    3.00
   1  -3  -1   98.89    5.10
   1  -3  -1   98.59    5.10
  -1   3   1  101.09    5.30
  -1   3   1   93.89    5.20
  -1   3   1  100.59    5.10
   0  -3  -1  122.49    5.70
   0  -3  -1  121.79    5.80
   0  -3  -1  111.59    5.70
   0   3   1  119.19    5.80
   0   3   1  114.29    5.70
   0   3   1  108.79    5.90
   0   3   1  114.19    5.80
  -1  -3  -1   11.60    1.00
  -1  -3  -1   10.60    0.80
   1   3   1   10.60    0.80
   1   3   1   12.00    0.80
   1   3   1    9.40    1.10
   1   3   1   10.90    0.90
   2   3   1  107.99    5.60
   2   3   1  115.79    5.50
   3   3   1   12.10    1.20
   3   3   1   13.00    1.40
  -4  -3  -1   50.69    3.80
  -4  -3  -1   49.80    3.70
  -4  -3  -1   51.89    5.40
  -5  -3  -1   78.49    7.30
  -5  -3  -1   82.79    4.70
  -5  -3  -1   85.29    4.80
  -6  -3  -1  375.86   18.40
  -6  -3  -1  378.86   18.60
  -7  -3  -1    1.10    1.20
  -7  -3  -1    3.20    1.50
   7   3   1    2.50    2.40
  -8  -3  -1  330.37   15.90
   8   3   1  329.17   15.70
   5  -4  -1    2.30    1.70
  -5   4   1    2.30    1.60
   4  -4  -1   85.09    4.70
  -4   4   1   82.59    4.80
  -4   4   1   82.29    5.00
   3  -4  -1   17.80    2.40
  -3   4   1   15.60    1.90
  -3   4   1   18.90    2.40
   2  -4  -1   30.70    4.10
   2  -4  -1   31.90    2.60
   2  -4  -1   24.60    4.00
  -2   4   1   34.90    3.40
   1  -4  -1    8.90    1.40
   1  -4  -1   10.00    1.80
   1  -4  -1    6.90    2.00
  -1   4   1    8.30    1.30
  -1   4   1    7.30    2.10
  -1   4   1    9.50    3.20
  -1   4   1   12.00    2.20
   0  -4  -1   15.90    1.80
   0  -4  -1   19.90    2.30
   0   4   1   16.70    1.70
   0   4   1   18.80    1.90
   0   4   1   13.60    1.60
   0   4   1   15.80    1.80
  -1  -4  -1   18.40    2.10
  -1  -4  -1   17.30    1.50
   1   4   1   16.90    1.60
   1   4   1   17.30    2.10
   1   4   1   19.10    1.60
   1   4   1   17.10    1.30
   2   4   1   87.39    4.60
   2   4   1   91.59    4.90
  -3  -4  -1  256.37   13.00
  -3  -4  -1  270.87   13.10
  -3  -4  -1  236.38   13.50
  -3  -4  -1  267.57   13.50
   3   4   1  275.97   13.10
   3   4   1  274.37   12.90
  -4  -4  -1   22.30    3.20
  -4  -4  -1   23.50    2.80
  -4  -4  -1   17.40    2.40
  -4  -4  -1   20.20    2.80
  -5  -4  -1   27.30    2.90
  -5  -4  -1   28.60    3.90
  -5  -4  -1   29.90    3.30
  -6  -4  -1   30.00    3.00
  -6  -4  -1   25.50    3.40
  -7  -4  -1   55.89    3.80
  -7  -4  -1   63.29    4.30
   5  -5  -1   22.10    1.90
  -5   5   1   23.00    2.00
   4  -5  -1    1.60    2.00
   4  -5  -1    0.80    1.30
  -4   5   1    4.00    2.00
   3  -5  -1   38.40    3.10
  -3   5   1   44.00    3.00
  -3   5   1   41.00    4.20
   2  -5  -1   14.40    2.60
   2  -5  -1   11.80    1.50
  -2   5   1    9.60    1.40
   1  -5  -1  173.88    9.60
  -1   5   1  214.68   10.00
   0  -5  -1   85.79    4.70
   0  -5  -1   87.29    4.60
   0   5   1   72.59    5.10
  -1  -5  -1   16.60    2.00
  -1  -5  -1   19.70    3.30
  -1  -5  -1   18.50    2.40
   1   5   1   12.60    2.30
  -2  -5  -1  122.89    7.50
  -2  -5  -1  124.39    6.70
  -2  -5  -1  111.99    7.10
  -2  -5  -1  126.89    6.60
  -3  -5  -1   27.40    3.10
  -3  -5  -1   28.00    3.00
  -3  -5  -1   27.00    2.90
  -3  -5  -1   31.10    3.90
  -4  -5  -1    1.20    1.90
  -4  -5  -1    3.60    2.10
  -4  -5  -1    0.10    1.70
  -4  -5  -1    1.00    1.60
  -5  -5  -1  363.86   17.80
  -5  -5  -1  356.26   17.80
  -5  -5  -1  380.66   17.70
  -5  -5  -1  347.07   18.20
  -6  -5  -1   24.50    2.90
  -6  -5  -1   20.00    2.90
  -7  -5  -1   82.29    4.80
  -7  -5  -1   85.09    4.90
   4  -6  -1    1.10    0.80
  -4   6   1    2.40    1.70
   3  -6  -1   34.70    2.60
   3  -6  -1   33.50    3.80
  -3   6   1   35.90    2.40
   2  -6  -1    6.00    1.30
   2  -6  -1    8.00    2.50
   1  -6  -1   10.10    2.00
   1  -6  -1   11.70    1.50
  -1   6   1   11.10    1.60
   0  -6  -1   18.40    2.60
   0  -6  -1   15.90    2.10
   0  -6  -1   18.80    1.90
   0   6   1   15.70    2.00
  -1  -6  -1   46.40    3.40
  -1  -6  -1   35.80    3.50
  -1  -6  -1   40.10    4.00
  -1  -6  -1   37.90    2.90
  -2  -6  -1    5.10    1.50
  -2  -6  -1    3.40    2.10
  -2  -6  -1    4.20    2.00
  -3  -6  -1   25.20    2.80
  -3  -6  -1   19.40    2.60
  -3  -6  -1   17.30    3.10
  -3  -6  -1   17.80    2.40
  -4  -6  -1   18.80    3.00
  -4  -6  -1   26.00    3.00
  -4  -6  -1   28.40    3.20
  -4  -6  -1   25.60    4.00
  -5  -6  -1    9.10    1.50
  -5  -6  -1    8.30    2.60
  -5  -6  -1    2.90    2.80
  -5  -6  -1    6.40    2.10
  -6  -6  -1    6.00    1.80
  -6  -6  -1    1.50    2.00
  -7  -6  -1  160.98    8.20
   3  -7  -1    9.40    1.80
   3  -7  -1    8.20    1.10
   2  -7  -1    5.70    1.50
   2  -7  -1    6.10    0.90
  -2   7   1    6.90    0.90
   1  -7  -1    6.90    1.30
   0  -7  -1   22.50    2.80
   0  -7  -1   26.90    3.30
   0  -7  -1   20.90    2.30
   0  -7  -1   19.10    2.00
   0   7   1   22.50    2.30
  -1  -7  -1    3.40    2.00
  -1  -7  -1    1.30    2.10
  -1  -7  -1   -1.10    1.50
   1   7   1    1.60    1.90
  -2  -7  -1   13.20    1.90
  -2  -7  -1   13.80    1.90
  -3  -7  -1    6.60    2.40
  -3  -7  -1   15.10    2.00
  -3  -7  -1   13.50    1.60
  -4  -7  -1   -1.60    2.30
  -4  -7  -1   -0.80    1.50
  -5  -7  -1    3.90    3.10
  -5  -7  -1    5.80    2.80
  -6  -7  -1    2.50    2.40
   1  -8  -1    2.20    1.30
  -1   8   1    2.60    0.90
   0  -8  -1    3.90    1.40
   0  -8  -1    7.10    1.40
   0   8   1    3.30    0.90
  -1  -8  -1    1.20    1.00
  -1  -8  -1    1.10    1.50
  -2  -8  -1    2.70    1.70
  -2  -8  -1   -0.60    1.50
   2   8   1    0.20    2.40
  -3  -8  -1    3.50    1.50
  -3  -8  -1    2.80    1.50
  -4  -8  -1   31.40    2.90
  -4  -8  -1   31.80    4.10
  -5  -8  -1   37.90    2.60
  -2  -9  -1    8.30    1.40
  -2  -9  -1    9.50    1.20
   2   9   1    8.60    1.60
  -3  -9  -1    1.90    2.50
  -3  -9  -1    2.60    0.90
  -4  -8   2    4.10    1.00
  -4  -8   2    7.80    2.20
  -3  -8   2   22.80    2.00
  -3  -8   2   21.50    3.10
   2   8  -2    0.90    1.50
  -2  -8   2    0.40    1.10
   1   8  -2    8.40    1.40
  -1  -8   2    9.30    1.70
  -1  -8   2    9.20    1.40
   0   8  -2   45.40    2.70
   0  -8   2   43.00    3.10
  -5  -7   2   59.89    3.60
  -5  -7   2   57.89    3.50
  -4  -7   2   -0.20    1.30
  -4  -7   2    0.10    1.00
  -3  -7   2   40.40    3.70
  -3  -7   2   27.10    3.00
   2   7  -2   33.80    3.50
  -2  -7   2   31.20    4.50
   1   7  -2    2.30    1.60
  -1  -7   2    2.80    2.00
  -1  -7   2    3.50    3.00
   0   7  -2   15.20    1.80
   0  -7   2   12.80    2.40
   0  -7   2   17.80    2.40
   0  -7   2   18.30    2.10
  -1   7  -2    4.10    1.20
   1  -7   2    8.50    1.70
   1  -7   2    5.70    1.20
  -2   7  -2   41.20    2.40
   2  -7   2   42.20    2.40
   2  -7   2   44.50    3.00
  -6  -6   2   60.69    4.30
  -6  -6   2   79.09    4.10
  -5  -6   2    0.50    1.70
  -5  -6   2   -2.30    1.80
  -4  -6   2   22.60    3.30
  -4  -6   2   21.90    2.80
  -3  -6   2   13.60    1.90
  -3  -6   2   15.30    2.00
  -2  -6   2    7.10    1.60
  -2  -6   2    4.70    2.80
  -2  -6   2    6.10    1.80
   1   6  -2   25.00    2.80
  -1  -6   2   23.30    3.10
  -1  -6   2   25.60    2.50
  -1  -6   2   26.40    3.60
  -1  -6   2   20.10    2.90
   0   6  -2    4.30    1.40
   0  -6   2    5.20    2.00
   0  -6   2    4.30    1.30
   0  -6   2    4.20    2.00
  -1   6  -2   16.30    2.20
   1  -6   2   16.90    2.80
   1  -6   2   15.90    2.10
  -2   6  -2    4.50    1.20
   2  -6   2    1.10    1.50
  -3   6  -2   13.50    1.70
   3  -6   2   11.40    1.50
   4  -6   2   34.40    2.10
  -7  -5   2    0.40    1.00
  -6  -5   2   -1.10    1.80
  -6  -5   2    0.00    2.20
  -5  -5   2    4.60    1.80
  -5  -5   2    4.80    2.10
  -4  -5   2    0.50    2.00
  -4  -5   2    1.40    1.60
  -3  -5   2   25.60    2.90
  -3  -5   2   24.30    3.40
  -2  -5   2   37.00    3.60
  -2  -5   2   33.30    4.90
  -2  -5   2   35.90    3.20
  -1  -5   2    6.30    1.80
  -1  -5   2    7.70    1.70
  -1  -5   2   10.20    1.70
   0  -5   2   -0.40    1.70
   0  -5   2    0.80    1.10
   0  -5   2   -2.30    1.70
  -1   5  -2   23.20    2.20
   1  -5   2   20.00    2.20
   1  -5   2   24.60    2.90
  -2   5  -2   -1.10    1.20
   2  -5   2   -1.00    1.30
  -3   5  -2   12.90    2.70
   3  -5   2    7.70    1.60
  -4   5  -2   24.80    3.20
   4  -5   2   19.60    2.00
  -5   5  -2   49.40    3.10
   5  -5   2   47.40    3.20
   7   4  -2  158.18    7.60
  -7  -4   2  141.79    7.60
  -6  -4   2   -0.90    2.80
  -6  -4   2    1.40    3.00
  -5  -4   2    7.90    2.10
  -5  -4   2    9.30    2.20
  -4  -4   2    4.60    1.80
  -4  -4   2    7.40    1.50
  -3  -4   2    1.40    1.60
  -3  -4   2    2.80    1.20
   2   4  -2   13.00    2.70
   2   4  -2    9.00    1.40
  -2  -4   2   14.50    2.00
  -2  -4   2   12.00    1.90
  -2  -4   2   13.20    2.00
   1   4  -2   26.90    3.70
   1   4  -2   25.50    2.20
  -1  -4   2   26.40    2.80
  -1  -4   2   19.50    2.40
  -1  -4   2   21.40    3.00
   0   4  -2  110.29    6.00
   0   4  -2  112.09    6.50
   0   4  -2  106.59    6.80
   0  -4   2  109.19    6.20
   0  -4   2  106.59    5.80
   0  -4   2  109.59    6.30
  -1   4  -2    2.20    1.40
   1  -4   2    4.30    2.70
   1  -4   2    1.10    1.60
   1  -4   2    1.20    1.10
  -2   4  -2    0.50    2.70
  -2   4  -2   -0.80    1.20
   2  -4   2    0.50    1.20
  -3   4  -2   52.09    3.30
  -3   4  -2   51.19    4.30
   3  -4   2   53.69    3.80
  -4   4  -2    0.60    1.80
  -4   4  -2    0.50    1.20
   4  -4   2    2.30    1.60
  -5   4  -2    0.80    1.50
   5  -4   2   -0.30    1.20
   7   3  -2   65.69    3.90
  -7  -3   2   73.09    4.10
  -6  -3   2   12.30    2.30
  -5  -3   2  195.08   10.50
  -5  -3   2  208.38   10.60
  -4  -3   2    2.30    1.60
  -4  -3   2    2.30    1.80
   3   3  -2   21.00    2.10
  -3  -3   2   22.60    2.70
  -3  -3   2   24.30    2.90
   2   3  -2   38.80    2.60
   2   3  -2   41.10    2.50
   2   3  -2   43.20    2.80
  -2  -3   2   36.80    3.40
  -2  -3   2   41.00    2.70
  -2  -3   2   35.40    2.70
  -2  -3   2   41.20    2.40
   1   3  -2   75.99    3.80
  -1  -3   2   63.19    4.00
  -1  -3   2   73.29    3.70
   0   3  -2   35.60    2.20
   0   3  -2   33.30    2.40
   0   3  -2   35.10    2.60
   0  -3   2   35.70    2.80
   0  -3   2   31.90    2.60
   0  -3   2   34.40    2.20
   0  -3   2   34.80    1.90
  -1   3  -2    2.00    1.70
  -1   3  -2    1.30    0.80
  -1   3  -2    2.70    1.20
   1  -3   2    1.70    1.00
   1  -3   2   -1.20    1.80
   1  -3   2    2.30    1.40
   1  -3   2   -2.90    1.80
   1  -3   2    0.10    1.00
  -2   3  -2   22.60    2.70
  -2   3  -2   29.40    3.00
  -2   3  -2   30.20    2.60
  -2   3  -2   27.60    2.40
   2  -3   2   24.70    2.60
   2  -3   2   23.00    2.50
   2  -3   2   25.90    3.20
  -3   3  -2   23.70    3.00
  -4   3  -2   15.50    2.00
  -4   3  -2    7.60    2.30
   4  -3   2   15.80    1.70
   4  -3   2   14.30    2.10
  -5   3  -2    7.90    1.60
   5  -3   2    5.80    1.10
   5  -3   2   12.50    2.70
  -6   3  -2    1.00    0.90
   6  -3   2   -5.00    3.70
   7   2  -2    0.60    1.10
  -7  -2   2    0.10    1.20
   6   2  -2   29.30    2.60
  -6  -2   2   29.70    2.70
   5   2  -2   24.90    3.40
  -5  -2   2   26.80    3.90
  -5  -2   2   29.30    3.10
  -5  -2   2   28.30    2.50
  -5  -2   2   28.70    4.20
   4   2  -2    7.00    2.00
  -4  -2   2   11.40    1.80
  -4  -2   2   12.70    1.70
   3   2  -2   45.30    2.50
   3   2  -2   44.80    2.60
  -3  -2   2   40.60    2.90
  -3  -2   2   42.60    2.80
   2   2  -2   12.40    1.10
   2   2  -2   13.30    1.10
  -2  -2   2   10.20    1.30
  -2  -2   2   11.90    1.00
  -2  -2   2   12.80    1.10
   1   2  -2    2.50    0.60
   1   2  -2    2.20    0.60
   1   2  -2    3.20    0.50
  -1  -2   2    3.20    0.60
  -1  -2   2    3.00    0.50
  -1  -2   2    2.50    0.50
   0   2  -2   40.00    2.50
   0   2  -2   42.50    2.40
   0   2  -2   40.00    2.60
   0  -2   2   42.30    2.20
   0  -2   2   44.10    2.50
   0  -2   2   41.20    2.40
   0  -2   2   44.80    2.50
  -1   2  -2   69.69    3.80
  -1   2  -2   67.59    3.80
  -1   2  -2   70.89    3.80
   1  -2   2   74.49    3.70
   1  -2   2   66.59    3.70
  -2   2  -2  103.49    5.50
  -2   2  -2   96.09    5.70
  -2   2  -2  109.89    5.50
   2  -2   2   93.19    5.90
   2  -2   2  109.19    5.80
   2  -2   2  104.89    5.50
   2  -2   2  104.69    5.40
  -3   2  -2   61.99    4.80
  -3   2  -2   67.19    4.20
  -3   2  -2   69.09    4.60
  -3   2  -2   66.99    4.30
   3  -2   2   69.39    4.70
   3  -2   2   78.79    4.00
   3  -2   2   69.29    4.70
  -4   2  -2   -0.10    1.30
   4  -2   2    0.90    1.20
  -5   2  -2   90.19    5.10
   5  -2   2   78.69    6.10
   5  -2   2   88.39    4.80
  -6   2  -2   31.10    2.30
   6  -2   2   31.70    2.20
  -7   2  -2    0.30    1.20
  -7   2  -2   -0.10    0.70
   7  -2   2    0.90    1.00
   7   1  -2    0.10    0.70
  -7  -1   2    1.50    1.20
   6   1  -2    3.00    1.20
  -6  -1   2    3.10    1.80
  -6  -1   2    1.00    1.20
   5   1  -2   15.60    1.80
  -5  -1   2   15.10    2.20
  -5  -1   2   16.80    2.00
   4   1  -2    0.10    2.00
  -4  -1   2    2.40    1.60
  -4  -1   2    3.80    1.40
  -4  -1   2    3.50    1.80
   3   1  -2   24.70    1.90
   3   1  -2   21.60    1.80
   3   1  -2   18.10    2.10
  -3  -1   2   20.50    2.10
  -3  -1   2   22.20    1.90
   2   1  -2   63.69    3.30
   2   1  -2   64.79    3.20
   2   1  -2   62.29    3.30
  -2  -1   2   62.99    3.00
  -2  -1   2   64.29    3.30
  -2  -1   2   64.29    3.30
   1   1  -2   46.60    2.20
   1   1  -2   44.70    2.40
  -1  -1   2   45.90    2.40
  -1  -1   2   45.20    2.40
  -1  -1   2   45.30    2.40
   0   1  -2   13.70    0.90
   0   1  -2   12.70    1.00
   0   1  -2   14.00    1.00
   0  -1   2   12.70    1.00
   0  -1   2   13.00    0.70
   0  -1   2   14.50    1.10
  -1   1  -2  143.79    7.00
  -1   1  -2  144.39    7.10
  -1   1  -2  145.79    7.00
   1  -1   2  150.08    7.00
   1  -1   2  140.99    7.00
   1  -1   2  137.99    7.10
  -2   1  -2   52.69    2.90
  -2   1  -2   51.09    2.80
  -2   1  -2   49.70    2.90
   2  -1   2   51.19    3.00
   2  -1   2   49.99    2.90
   2  -1   2   51.99    2.80
  -3   1  -2    1.10    1.10
   3  -1   2   -2.10    0.90
   3  -1   2    1.80    1.50
   3  -1   2    2.80    2.00
  -4   1  -2   79.19    4.80
  -4   1  -2   77.49    6.20
  -4   1  -2   79.79    4.50
   4  -1   2   79.89    4.50
  -5   1  -2  219.48   10.70
  -5   1  -2  214.38   10.90
   5  -1   2  212.68   10.70
  -6   1  -2   -0.50    1.30
   6  -1   2    0.00    1.10
  -7   1  -2  143.79    7.00
  -7   1  -2  137.39    7.20
   7  -1   2  140.49    6.90
   7   0  -2    3.30    0.70
  -7   0   2    2.70    1.10
  -7   0   2    3.10    1.20
   6   0  -2  157.48    7.80
  -6   0   2  152.78    7.80
   5   0  -2    1.60    1.20
  -5   0   2    0.40    1.70
  -5   0   2    2.50    1.30
   4   0  -2   17.40    2.20
  -4   0   2   20.10    2.20
  -4   0   2   22.80    3.00
   3   0  -2  189.28    9.20
   3   0  -2  177.78    9.30
   3   0  -2  185.98    9.50
  -3   0   2  178.08    9.30
  -3   0   2  194.68    9.30
   2   0  -2   33.40    2.00
   2   0  -2   31.90    1.90
   2   0  -2   33.50    2.00
  -2   0   2   33.20    2.00
  -2   0   2   32.40    1.60
  -2   0   2   32.60    1.60
   1   0  -2    3.70    0.50
   1   0  -2    3.20    0.40
   1   0  -2    3.00    0.50
  -1   0   2    3.30    0.50
  -1   0   2    3.50    0.50
  -1   0   2    3.90    0.50
   0   0  -2 1312.37   59.79
   0   0   2 1270.27   59.79
   0   0   2 1279.17   59.89
   0   0   2 1246.88   59.79
  -1   0  -2  149.09    7.10
  -1   0  -2  146.99    7.10
   1   0   2  144.89    7.10
   1   0   2  143.79    7.10
   1   0   2  155.08    7.20
  -2   0  -2   20.70    1.40
  -2   0  -2   21.70    1.40
   2   0   2   20.60    1.50
   2   0   2   22.60    1.50
   2   0   2   22.10    1.30
  -3   0  -2    0.00    0.90
  -3   0  -2    0.30    0.80
   3   0   2   -0.50    0.90
   3   0   2   -0.20    0.60
   3   0   2   -0.40    1.10
  -4   0  -2   20.00    2.40
  -4   0  -2   23.10    2.60
  -4   0  -2   27.50    3.70
  -4   0  -2   23.20    2.20
   4   0   2   25.10    2.60
   4   0   2   20.70    2.60
  -5   0  -2    4.50    1.50
  -5   0  -2    6.90    1.30
   5   0   2    5.50    1.50
  -6   0  -2   18.90    2.20
  -6   0  -2   19.70    2.60
   6   0   2   21.80    1.90
  -7   0  -2  147.59    7.40
  -7   0  -2  148.89    7.70
   7   0   2  148.79    7.50
   7  -1  -2    4.20    0.60
  -7   1   2    5.40    1.20
  -6   1   2  101.79    6.00
  -6   1   2  102.89    5.50
   5  -1  -2   28.40    2.40
  -5   1   2   35.50    3.60
  -5   1   2   29.80    2.70
  -4   1   2  155.28    8.50
  -4   1   2  164.28    8.20
   3  -1  -2   10.80    2.70
   3  -1  -2    9.40    1.50
   3  -1  -2   10.20    1.60
  -3   1   2   11.70    1.60
  -3   1   2    9.70    1.80
   2  -1  -2   94.39    4.80
   2  -1  -2   94.89    4.80
   2  -1  -2   91.69    4.90
  -2   1   2   90.09    4.80
  -2   1   2   87.49    4.80
  -2   1   2   93.99    4.60
   1  -1  -2  169.38    8.20
   1  -1  -2  171.88    8.10
   1  -1  -2  174.88    8.20
  -1   1   2  169.28    8.20
  -1   1   2  166.98    8.20
  -1   1   2  161.38    8.30
   0  -1  -2    8.00    0.70
   0  -1  -2    7.10    0.70
   0  -1  -2    7.40    0.70
   0   1   2    7.40    0.70
   0   1   2    8.10    0.70
   0   1   2    7.50    0.70
  -1  -1  -2  146.89    7.00
  -1  -1  -2  145.59    7.00
   1   1   2  147.29    7.00
   1   1   2  143.89    7.00
   1   1   2  145.69    7.00
  -2  -1  -2  654.83   31.50
  -2  -1  -2  667.23   31.60
   2   1   2  702.33   31.50
   2   1   2  661.13   31.60
  -3  -1  -2  222.48   10.70
  -3  -1  -2  228.78   10.70
   3   1   2  222.88   10.80
   3   1   2  214.18   10.80
   3   1   2  229.68   10.70
  -4  -1  -2   18.50    2.70
  -4  -1  -2   19.50    1.90
  -4  -1  -2   16.20    1.90
  -4  -1  -2   17.10    1.90
   4   1   2   16.90    1.80
   4   1   2   11.10    1.70
  -5  -1  -2   39.10    3.10
  -5  -1  -2   43.50    4.10
   5   1   2   30.20    3.50
  -6  -1  -2   12.70    1.60
  -6  -1  -2   16.90    1.80
   6   1   2   14.20    1.90
  -7  -1  -2   54.09    4.00
  -7  -1  -2   55.49    3.50
  -7  -1  -2   59.69    3.40
   7   1   2   61.89    3.60
  -8  -1  -2    2.80    0.90
   6  -2  -2   15.10    1.20
  -6   2   2   13.50    1.80
  -6   2   2    8.30    3.00
   5  -2  -2   29.40    2.20
   5  -2  -2   31.50    3.60
  -5   2   2   26.80    2.80
  -5   2   2   29.80    3.00
   4  -2  -2   41.90    4.10
   4  -2  -2   43.10    2.70
  -4   2   2   40.00    3.10
  -4   2   2   35.90    3.90
   3  -2  -2   17.10    2.50
   3  -2  -2   19.40    2.40
   3  -2  -2   20.00    2.00
  -3   2   2   23.60    2.50
  -3   2   2   18.10    2.30
  -3   2   2   17.80    3.20
   2  -2  -2   -0.80    1.00
   2  -2  -2    0.40    1.20
   2  -2  -2    1.60    1.50
  -2   2   2    1.40    1.10
  -2   2   2   -0.60    1.60
  -2   2   2    0.00    0.80
   1  -2  -2   13.10    1.20
   1  -2  -2   10.50    1.30
  -1   2   2   11.60    1.20
  -1   2   2   12.60    1.20
  -1   2   2   10.80    1.40
  -1   2   2   12.30    1.10
   0  -2  -2    0.40    0.40
   0  -2  -2    0.00    0.40
   0  -2  -2    0.30    0.40
   0   2   2    0.60    0.40
   0   2   2   -0.10    0.40
   0   2   2   -0.20    0.40
  -1  -2  -2   44.30    2.40
  -1  -2  -2   46.50    2.30
   1   2   2   41.90    2.40
   1   2   2   45.40    2.30
   1   2   2   43.80    2.30
  -2  -2  -2    7.40    0.60
  -2  -2  -2    7.20    0.60
   2   2   2    7.60    0.60
   2   2   2    6.20    0.60
   2   2   2    5.70    0.80
  -3  -2  -2    0.90    0.40
  -3  -2  -2    0.10    0.40
   3   2   2    1.00    0.50
  -4  -2  -2   14.50    2.00
  -4  -2  -2   15.70    1.90
   4   2   2   16.30    1.50
   4   2   2    9.80    1.60
  -5  -2  -2   44.60    3.90
  -5  -2  -2   53.99    3.60
  -5  -2  -2   57.49    4.80
  -6  -2  -2  323.97   14.80
  -6  -2  -2  303.17   14.50
  -6  -2  -2  287.97   15.00
  -6  -2  -2  276.07   14.10
   6   2   2  274.77   14.50
  -7  -2  -2   32.80    4.10
   7   2   2   24.80    2.70
   8   2   2   51.19    3.00
  -6   3   2   49.40    2.80
   5  -3  -2  191.58    8.80
   5  -3  -2  159.28    9.30
   4  -3  -2    2.50    1.00
   4  -3  -2    0.60    1.70
  -4   3   2    1.20    1.60
   2  -3  -2   88.19    5.70
   2  -3  -2   91.09    5.30
   2  -3  -2   91.89    5.10
   2  -3  -2   92.59    5.00
  -2   3   2   95.29    5.70
  -2   3   2   94.89    4.90
  -2   3   2   90.99    5.70
  -2   3   2   91.49    5.80
   1  -3  -2    6.60    1.20
   1  -3  -2    3.30    1.50
   1  -3  -2    7.50    1.10
  -1   3   2    6.40    1.60
  -1   3   2    6.40    1.20
  -1   3   2    5.60    1.10
  -1   3   2    4.30    1.10
   0  -3  -2   39.70    2.30
   0   3   2   36.20    2.50
   0   3   2   42.50    2.50
   0   3   2   41.30    2.30
  -1  -3  -2   68.39    3.60
  -1  -3  -2   62.99    3.50
  -1  -3  -2   68.29    3.40
   1   3   2   67.29    3.50
   1   3   2   71.99    3.50
   1   3   2   70.19    3.70
   1   3   2   70.89    3.60
   2   3   2  108.49    5.20
   2   3   2  107.59    5.40
   3   3   2   95.19    5.00
  -4  -3  -2   31.90    2.80
  -4  -3  -2   34.00    3.60
  -4  -3  -2   26.50    3.80
   4   3   2   27.70    3.10
  -5  -3  -2   45.00    3.60
  -5  -3  -2   43.90    3.40
  -6  -3  -2  107.89    7.40
  -6  -3  -2  125.19    6.50
  -6  -3  -2  117.29    6.30
  -7  -3  -2    1.60    1.50
  -7  -3  -2   -0.90    1.70
   7   3   2    1.00    2.20
  -8  -3  -2  416.36   21.20
  -8  -3  -2  457.25   21.10
   8   3   2  454.65   21.20
   5  -4  -2  831.62   39.20
  -5   4   2  822.62   39.10
   4  -4  -2  154.38    7.90
  -4   4   2  145.79    8.00
   3  -4  -2  417.26   19.70
  -3   4   2  396.16   19.40
  -3   4   2  406.66   19.80
   2  -4  -2    2.70    2.10
   2  -4  -2    2.40    1.20
  -2   4   2   -1.50    2.60
  -2   4   2    0.30    1.20
   1  -4  -2   10.40    2.20
   1  -4  -2   10.40    1.90
   1  -4  -2   11.30    1.40
  -1   4   2    6.90    2.40
  -1   4   2    6.60    2.00
   0  -4  -2  163.58    8.60
   0  -4  -2  169.88    8.40
   0  -4  -2  165.58    8.40
   0   4   2  158.08    8.70
   0   4   2  172.28    8.60
   0   4   2  165.58    8.60
   0   4   2  171.08    8.50
  -1  -4  -2   20.90    1.90
  -1  -4  -2   23.80    2.80
   1   4   2   24.20    2.40
   1   4   2   23.60    2.10
   1   4   2   21.50    1.70
   1   4   2   21.10    2.00
  -2  -4  -2   11.60    2.20
   2   4   2   10.60    0.80
   2   4   2   11.60    1.60
   2   4   2   10.90    0.80
   2   4   2    9.90    1.30
  -3  -4  -2  133.59    7.20
  -3  -4  -2  127.69    7.40
  -3  -4  -2  125.09    6.70
   3   4   2  133.19    7.10
   3   4   2  138.19    7.20
  -4  -4  -2    2.90    2.20
  -4  -4  -2    5.90    2.00
  -4  -4  -2    7.80    1.60
  -4  -4  -2    6.00    2.70
   4   4   2    2.10    2.70
  -5  -4  -2    6.70    1.70
  -5  -4  -2    6.30    2.30
  -5  -4  -2    7.10    2.00
  -6  -4  -2   64.59    4.70
  -6  -4  -2   67.69    4.30
  -6  -4  -2   58.59    5.40
  -7  -4  -2    7.50    1.30
  -7  -4  -2    7.10    2.10
  -8  -4  -2   30.60    2.00
  -8  -4  -2   29.60    2.40
   5  -5  -2   41.80    2.50
  -5   5   2   40.80    2.60
   4  -5  -2   -1.40    1.30
  -4   5   2   -0.40    1.90
   3  -5  -2  447.16   20.20
   3  -5  -2  361.46   20.40
  -3   5   2  413.36   20.40
  -3   5   2  446.36   19.90
   2  -5  -2  232.78   11.20
   2  -5  -2  211.98   11.40
  -2   5   2  225.58   11.00
   1  -5  -2  135.09    6.90
   1  -5  -2  133.09    7.30
   0  -5  -2   37.80    3.20
   0  -5  -2   37.50    3.80
   0  -5  -2   35.70    2.60
   0   5   2   34.10    3.70
  -1  -5  -2   28.00    2.80
  -1  -5  -2   33.00    2.40
  -1  -5  -2   34.20    2.90
   1   5   2   27.60    3.30
   1   5   2   32.00    3.40
  -2  -5  -2   23.90    2.60
  -2  -5  -2   23.20    2.50
  -2  -5  -2   21.20    2.70
   2   5   2   24.00    3.30
  -3  -5  -2    0.00    1.50
  -3  -5  -2    1.50    1.50
  -3  -5  -2   -1.30    1.20
  -4  -5  -2   30.70    3.70
  -4  -5  -2   26.80    2.70
  -4  -5  -2   20.90    2.50
  -5  -5  -2    6.00    1.80
  -5  -5  -2    6.90    2.40
  -5  -5  -2    7.20    2.50
  -6  -5  -2    4.90    2.50
  -6  -5  -2    5.60    1.70
  -6  -5  -2    1.60    2.70
  -7  -5  -2    3.70    1.60
  -7  -5  -2   -0.30    1.40
   4  -6  -2   43.30    2.50
  -4   6   2   33.60    4.20
   3  -6  -2   23.80    3.20
   3  -6  -2   18.80    2.10
  -3   6   2   19.30    2.10
   2  -6  -2   40.80    3.80
   2  -6  -2   44.40    4.10
   2  -6  -2   37.30    2.80
   1  -6  -2   72.69    4.90
   1  -6  -2   75.59    5.50
   1  -6  -2   77.19    4.40
  -1   6   2   84.89    4.50
   0  -6  -2   67.89    4.10
   0  -6  -2   68.19    3.90
   0  -6  -2   70.49    5.00
   0   6   2   69.89    4.40
  -1  -6  -2   26.00    2.80
  -1  -6  -2   21.70    2.40
  -1  -6  -2   22.90    3.50
  -2  -6  -2   39.60    3.70
  -2  -6  -2   39.60    3.20
  -2  -6  -2   38.20    3.30
  -3  -6  -2    4.40    1.90
  -3  -6  -2    7.10    1.80
  -3  -6  -2    5.20    1.20
  -4  -6  -2   19.90    2.80
  -4  -6  -2   21.50    2.80
  -4  -6  -2   26.40    3.60
  -5  -6  -2    1.00    1.80
  -5  -6  -2   -0.20    1.90
  -5  -6  -2    0.60    3.10
  -5  -6  -2    2.60    2.30
  -6  -6  -2   -0.10    1.80
  -6  -6  -2    0.60    2.70
  -6  -6  -2    0.50    1.80
  -7  -6  -2   31.10    3.20
   3  -7  -2   32.60    2.00
   2  -7  -2   -1.90    2.10
   2  -7  -2    0.10    1.00
  -2   7   2   -1.00    0.80
   1  -7  -2   14.30    2.30
   1  -7  -2   15.80    2.50
   1  -7  -2   18.50    2.00
  -1   7   2   22.20    2.00
   0  -7  -2   14.30    1.70
   0  -7  -2    8.00    1.70
   0  -7  -2   12.60    2.40
   0   7   2    9.40    1.50
  -1  -7  -2   12.10    1.60
  -1  -7  -2   15.20    2.20
  -1  -7  -2   14.40    2.10
  -2  -7  -2    0.50    1.80
  -2  -7  -2   -0.20    1.00
  -2  -7  -2    1.90    1.70
  -3  -7  -2   76.49    5.00
  -3  -7  -2   88.69    5.10
  -3  -7  -2   80.09    5.00
  -4  -7  -2    0.40    1.50
  -4  -7  -2   -0.10    2.00
  -5  -7  -2   51.69    3.80
  -5  -7  -2   47.20    3.30
  -5  -7  -2   41.10    3.90
  -6  -7  -2   12.20    2.20
   1  -8  -2  102.79    5.70
   1  -8  -2  110.09    6.30
   0  -8  -2   18.70    2.20
   0  -8  -2   17.70    2.50
   0   8   2   18.40    1.60
  -1  -8  -2    0.40    1.40
  -1  -8  -2    1.50    1.90
  -1  -8  -2    4.30    1.60
   1   8   2    3.00    1.40
  -2  -8  -2   13.00    2.10
  -2  -8  -2    7.60    1.40
  -2  -8  -2   12.40    1.80
   2   8   2   14.90    2.30
  -3  -8  -2    3.00    1.50
  -3  -8  -2    2.10    1.80
  -4  -8  -2    1.20    1.50
  -4  -8  -2    0.80    1.50
  -5  -8  -2   11.60    1.50
  -5  -8  -2   10.90    2.70
  -2  -9  -2    0.70    1.10
  -2  -9  -2    1.20    1.00
   2   9   2    1.20    1.40
  -3  -9  -2    1.60    0.90
  -3  -9  -2    1.60    1.40
   2   8  -3    1.30    1.20
  -2  -8   3   -0.30    1.00
   1   8  -3   27.60    2.10
  -1  -8   3   27.90    2.80
  -5  -7   3    1.00    1.00
  -5  -7   3    1.90    1.40
  -4  -7   3   14.50    1.70
  -4  -7   3   18.00    2.50
   3   7  -3    2.40    2.00
  -3  -7   3    0.90    1.50
  -3  -7   3    3.40    1.80
   2   7  -3    4.90    1.60
  -2  -7   3    1.00    1.70
  -2  -7   3    2.10    1.20
   1   7  -3    4.60    1.50
  -1  -7   3    6.00    2.60
  -1  -7   3    4.90    1.90
   0   7  -3   -1.00    1.20
   0  -7   3    0.00    2.10
   0  -7   3   -1.20    1.40
   0  -7   3   -0.60    1.00
  -1   7  -3    2.20    0.80
   1  -7   3    2.30    1.00
   1  -7   3    1.90    1.40
  -2   7  -3    2.40    0.80
   2  -7   3    2.20    0.90
   2  -7   3    1.80    1.20
  -6  -6   3  418.96   20.00
  -6  -6   3  416.56   19.90
  -5  -6   3  119.69    6.20
  -5  -6   3  115.49    6.40
  -4  -6   3  675.63   33.20
  -4  -6   3  717.83   33.30
  -3  -6   3   39.00    3.30
  -3  -6   3   44.00    3.70
   2   6  -3   59.89    4.30
  -2  -6   3   59.09    4.60
  -2  -6   3   67.79    4.30
   1   6  -3   60.89    4.10
  -1  -6   3   69.69    4.30
  -1  -6   3   60.79    3.70
  -1  -6   3   67.19    5.40
  -1  -6   3   70.09    4.50
   0   6  -3   12.90    1.60
   0  -6   3   15.80    2.00
   0  -6   3   14.00    2.30
  -1   6  -3    3.10    1.20
   1  -6   3    0.80    1.20
  -2   6  -3   30.50    2.40
   2  -6   3   32.70    2.60
  -3   6  -3   19.10    1.80
   3  -6   3   22.40    1.80
  -6  -5   3    3.70    1.20
  -6  -5   3    5.60    2.10
  -5  -5   3   54.69    3.60
  -5  -5   3   57.29    3.80
  -4  -5   3  356.16   17.50
  -4  -5   3  353.46   17.40
  -3  -5   3   62.99    4.60
  -3  -5   3   64.89    4.40
  -2  -5   3  819.82   36.70
  -2  -5   3  750.82   36.70
  -2  -5   3  733.03   36.20
   1   5  -3   33.00    3.30
  -1  -5   3   35.60    2.90
  -1  -5   3   42.80    3.70
  -1  -5   3   41.40    2.80
   0   5  -3  119.59    6.20
   0  -5   3  113.09    6.20
   0  -5   3  120.09    6.50
   0  -5   3  116.39    6.60
  -1   5  -3  174.18    8.50
   1  -5   3  166.78    8.50
   1  -5   3  156.98    9.10
  -2   5  -3    1.20    1.20
   2  -5   3   -0.20    1.30
  -3   5  -3   27.90    2.90
   3  -5   3   27.80    2.60
  -4   5  -3   41.20    3.70
   4  -5   3   42.20    2.80
   6   4  -3   10.90    1.80
  -6  -4   3   10.90    2.00
  -6  -4   3    9.00    2.40
  -5  -4   3   19.80    2.40
  -5  -4   3   20.40    3.10
  -4  -4   3   73.19    4.90
  -4  -4   3   67.49    4.30
  -3  -4   3   77.99    4.80
  -3  -4   3   89.39    5.40
  -3  -4   3   89.49    5.20
  -2  -4   3   71.19    4.10
   1   4  -3    1.20    2.10
  -1  -4   3    4.80    1.60
  -1  -4   3    3.50    1.80
  -1  -4   3    3.50    1.50
   0   4  -3  126.09    6.70
   0  -4   3  132.79    7.10
   0  -4   3  127.69    6.80
   0  -4   3  125.09    7.20
   1  -4   3    0.70    1.60
   1  -4   3    0.60    1.30
   1  -4   3    5.20    3.20
  -2   4  -3   19.60    3.20
  -2   4  -3   17.70    2.20
   2  -4   3   16.30    2.30
  -3   4  -3   28.00    2.40
  -3   4  -3   31.20    3.60
   3  -4   3   29.30    2.50
  -4   4  -3    8.60    1.60
   4  -4   3    4.60    1.70
  -5   4  -3   11.60    1.80
   5  -4   3   13.90    2.00
   7   3  -3   37.90    2.60
  -7  -3   3   46.10    2.80
   6   3  -3   39.70    3.00
  -6  -3   3   39.40    2.90
   5   3  -3  310.57   15.80
  -5  -3   3  341.67   16.10
  -5  -3   3  326.67   16.10
  -4  -3   3    0.70    1.20
  -4  -3   3    1.70    1.40
  -4  -3   3   -0.30    1.20
  -3  -3   3  207.08   10.40
  -3  -3   3  201.08   10.00
   2   3  -3   58.09    3.40
  -2  -3   3   50.39    3.80
  -2  -3   3   52.99    3.80
   1   3  -3  118.79    6.20
   1   3  -3  102.89    6.50
   1   3  -3  112.79    5.80
  -1  -3   3  114.19    6.60
  -1  -3   3  107.79    6.30
  -1  -3   3  111.49    6.20
  -1  -3   3  114.49    5.80
  -1  -3   3  106.09    6.00
   0   3  -3    1.10    1.20
   0   3  -3    0.10    1.80
   0   3  -3   -0.30    1.50
   0  -3   3    0.20    1.60
   0  -3   3    2.80    1.50
   0  -3   3    1.10    1.20
  -1   3  -3   -0.40    1.50
  -1   3  -3    0.20    1.80
  -1   3  -3    2.40    1.90
   1  -3   3   -0.80    1.10
   1  -3   3    0.00    1.20
   1  -3   3   -0.60    1.60
  -2   3  -3   40.00    4.00
  -2   3  -3   46.90    3.00
   2  -3   3   45.80    3.40
   2  -3   3   43.50    2.90
   2  -3   3   41.10    4.80
  -3   3  -3    3.40    1.80
  -3   3  -3    1.60    1.20
   3  -3   3    3.00    1.60
   3  -3   3    4.10    1.50
  -4   3  -3   31.50    3.10
   4  -3   3   36.80    3.60
   4  -3   3   34.20    2.80
   5  -3   3    1.40    1.40
   5  -3   3    2.40    2.20
  -6   3  -3   -0.20    0.80
   6  -3   3   -1.70    4.00
   7   2  -3   -0.90    0.60
  -7  -2   3   -0.40    1.00
   6   2  -3    5.70    1.40
  -6  -2   3    4.80    2.20
   5   2  -3   42.80    3.20
  -5  -2   3   37.40    3.90
  -5  -2   3   40.70    3.00
  -5  -2   3   40.20    4.10
   4   2  -3   69.29    5.10
  -4  -2   3   79.39    5.00
  -4  -2   3   76.69    4.30
   3   2  -3  957.80   44.50
  -3  -2   3  917.31   44.40
  -3  -2   3  949.01   44.60
   2   2  -3   10.20    1.20
   2   2  -3   11.30    1.50
  -2  -2   3    9.00    1.20
  -2  -2   3    9.60    1.20
   1   2  -3  963.00   43.70
   1   2  -3  904.21   43.70
  -1  -2   3  922.91   43.80
  -1  -2   3  896.51   43.70
  -1  -2   3  946.11   43.70
   0   2  -3   12.20    1.50
   0   2  -3   11.00    1.20
   0  -2   3   10.10    2.00
   0  -2   3    9.70    1.30
  -1   2  -3   -0.80    0.60
  -1   2  -3   -0.10    0.80
  -1   2  -3    0.40    0.90
   1  -2   3   -2.30    1.30
   1  -2   3    0.20    0.80
   1  -2   3    0.20    1.20
   1  -2   3   -0.20    0.90
  -2   2  -3   18.60    2.30
  -2   2  -3   19.20    2.00
   2  -2   3   17.30    2.10
   2  -2   3   14.90    1.90
   2  -2   3   15.60    2.40
   2  -2   3   19.90    2.20
  -3   2  -3   18.40    2.50
  -3   2  -3   17.90    2.80
  -3   2  -3   15.00    3.10
   3  -2   3   22.40    2.60
   3  -2   3   22.80    2.40
  -4   2  -3   83.49    4.60
   4  -2   3   70.09    5.00
   4  -2   3   74.09    4.30
  -5   2  -3    1.80    1.40
   5  -2   3    2.80    1.20
   5  -2   3    2.10    2.70
  -6   2  -3   33.00    2.60
   6  -2   3   32.50    2.20
  -7   2  -3    0.10    0.70
  -7   2  -3   -0.50    0.80
   7   1  -3    5.40    0.70
  -7  -1   3    3.50    2.00
   6   1  -3   -0.10    1.20
  -6  -1   3   -0.10    2.00
  -6  -1   3    0.30    1.10
   5   1  -3   -0.70    1.30
  -5  -1   3    0.80    1.90
  -5  -1   3   -0.50    1.40
   4   1  -3    0.30    1.40
  -4  -1   3    2.10    1.40
   3   1  -3    1.90    1.80
  -3  -1   3    0.50    1.90
  -3  -1   3    2.60    1.50
  -3  -1   3    1.90    1.90
   2   1  -3  179.98    8.00
   2   1  -3  155.28    8.50
   2   1  -3  163.68    8.30
  -2  -1   3  165.28    8.30
  -2  -1   3  175.78    8.10
  -2  -1   3  162.88    8.40
   1   1  -3 1211.08   57.19
   1   1  -3 1225.08   57.09
  -1  -1   3 1201.48   57.09
  -1  -1   3 1226.48   57.19
   0   1  -3   16.40    1.10
   0  -1   3   15.70    1.40
   0  -1   3   14.50    1.40
   0  -1   3   15.20    1.10
   0  -1   3   17.00    0.90
  -1   1  -3  671.83   32.00
  -1   1  -3  668.73   32.00
   1  -1   3  696.33   32.10
   1  -1   3  672.63   32.00
  -2   1  -3    7.60    1.30
  -2   1  -3    7.70    1.10
   2  -1   3    7.60    1.00
   2  -1   3    9.60    1.60
   2  -1   3    6.60    1.30
  -3   1  -3   49.50    3.20
  -3   1  -3   48.00    3.30
   3  -1   3   48.90    3.20
   3  -1   3   45.40    3.30
  -4   1  -3    5.90    1.90
   4  -1   3    4.10    1.50
  -5   1  -3   30.30    2.60
  -5   1  -3   31.80    2.60
   5  -1   3   25.70    2.60
  -6   1  -3   26.30    2.40
   6  -1   3   25.90    1.90
  -7   1  -3    4.90    1.20
  -7   1  -3    5.70    1.10
   7  -1   3    7.70    1.00
   7   0  -3    2.10    0.70
   6   0  -3   71.09    3.80
  -6   0   3   66.69    4.70
  -6   0   3   67.89    3.90
   5   0  -3   58.29    3.60
  -5   0   3   65.19    4.70
  -5   0   3   60.09    3.80
   4   0  -3    3.20    1.20
  -4   0   3    4.20    1.20
   3   0  -3    8.10    2.20
   3   0  -3    5.40    1.40
   3   0  -3    6.10    1.60
  -3   0   3    8.50    2.50
  -3   0   3    6.20    2.20
  -3   0   3    6.40    1.50
   2   0  -3   14.80    1.60
   2   0  -3   16.50    2.00
   2   0  -3   18.60    1.50
  -2   0   3   15.30    1.70
  -2   0   3   15.00    1.50
  -2   0   3   16.30    1.20
   1   0  -3   22.50    1.30
   1   0  -3   22.70    1.40
   1   0  -3   22.90    1.70
  -1   0   3   24.60    1.60
  -1   0   3   23.20    1.50
  -1   0   3   20.90    1.60
  -1   0   3   22.10    1.60
   0   0  -3  246.38   11.80
   0   0   3  238.38   11.70
   0   0   3  253.67   11.90
   0   0   3  247.68   11.80
   0   0   3  248.18   11.90
  -1   0  -3  147.69    7.40
  -1   0  -3  150.08    7.40
   1   0   3  153.18    7.30
   1   0   3  147.29    7.50
   1   0   3  153.98    7.50
   1   0   3  158.98    7.40
  -2   0  -3   17.10    1.40
   2   0   3   15.90    1.30
   2   0   3   19.00    1.70
   2   0   3   17.00    1.40
  -3   0  -3    1.80    1.10
   3   0   3    0.30    1.70
   3   0   3    2.60    1.60
   3   0   3    2.50    0.90
  -4   0  -3   14.70    1.90
  -4   0  -3   19.30    2.20
  -4   0  -3   13.20    1.80
   4   0   3   16.50    1.90
  -5   0  -3    1.60    1.10
  -5   0  -3    0.00    1.60
   5   0   3    1.90    1.40
  -6   0  -3   -1.40    1.10
  -6   0  -3    1.50    1.20
   6   0   3    1.40    1.20
  -7   0  -3   -0.30    1.10
  -7   0  -3    1.60    1.40
   7   0   3    1.60    1.10
   6  -1  -3   70.99    3.80
  -6   1   3   70.89    3.80
   5  -1  -3    1.90    1.10
  -5   1   3   -0.60    2.40
  -5   1   3   -0.60    0.90
   4  -1  -3  511.85   23.70
  -4   1   3  480.15   24.10
  -4   1   3  503.55   23.90
   3  -1  -3  117.99    5.80
   3  -1  -3   92.79    6.70
   3  -1  -3  102.89    7.00
  -3   1   3  118.09    5.90
  -3   1   3  108.29    6.90
   2  -1  -3  100.09    5.40
   2  -1  -3  103.59    5.50
   2  -1  -3  101.79    5.70
  -2   1   3  102.79    5.20
  -2   1   3  103.39    5.40
   1  -1  -3    3.00    0.80
   1  -1  -3    3.30    0.70
   1  -1  -3    1.80    0.60
  -1   1   3    3.20    0.70
  -1   1   3    3.20    0.60
  -1   1   3    2.60    0.80
   0  -1  -3   56.69    3.10
   0  -1  -3   59.69    3.10
   0  -1  -3   58.09    3.00
   0   1   3   57.89    3.00
   0   1   3   60.79    3.00
   0   1   3   59.39    3.10
  -1  -1  -3   11.40    1.00
  -1  -1  -3   10.40    1.00
   1   1   3   10.80    0.90
   1   1   3   11.40    0.90
   1   1   3   10.40    1.10
  -2  -1  -3    0.20    0.50
  -2  -1  -3    0.20    0.50
   2   1   3    0.70    0.40
   2   1   3   -0.20    0.50
   2   1   3   -0.90    0.60
  -3  -1  -3    4.10    0.90
  -3  -1  -3    7.00    1.10
   3   1   3    2.60    0.70
   3   1   3    4.20    1.30
   3   1   3    6.00    1.30
  -4  -1  -3   43.00    4.20
  -4  -1  -3   48.70    3.40
  -4  -1  -3   41.70    2.80
   4   1   3   43.20    5.00
   4   1   3   45.20    3.20
  -5  -1  -3   45.60    3.20
  -5  -1  -3   43.70    4.20
  -5  -1  -3   49.60    3.00
  -6  -1  -3   13.20    1.90
  -6  -1  -3    9.70    1.30
   6   1   3   12.10    1.80
  -7  -1  -3    1.40    1.10
  -7  -1  -3    1.20    1.20
  -7  -1  -3    1.10    1.00
   7   1   3    0.60    1.20
  -8  -1  -3    0.60    0.90
   8   1   3    1.30    0.60
   6  -2  -3    6.20    0.90
  -6   2   3    5.60    1.20
   5  -2  -3   11.70    1.50
  -5   2   3    9.90    1.60
   4  -2  -3   98.69    6.30
   4  -2  -3  105.69    5.40
  -4   2   3  104.29    5.80
   3  -2  -3    0.70    1.90
   3  -2  -3    0.80    1.40
  -3   2   3    1.70    1.90
  -3   2   3    0.90    1.50
   2  -2  -3 1088.69   51.69
   2  -2  -3 1084.99   51.29
   2  -2  -3 1066.79   51.59
  -2   2   3 1148.79   51.79
  -2   2   3 1102.49   51.39
  -2   2   3 1065.09   51.59
   1  -2  -3  228.48   11.10
   1  -2  -3  240.48   11.10
   1  -2  -3  229.08   11.20
  -1   2   3  238.98   11.20
  -1   2   3  222.88   11.10
  -1   2   3  203.28   11.30
  -1   2   3  229.38   11.20
   0  -2  -3  341.67   15.90
   0  -2  -3  316.07   15.90
   0   2   3  349.37   15.90
   0   2   3  327.47   15.90
  -1  -2  -3   33.50    2.00
   1   2   3   38.00    2.10
   1   2   3   36.40    2.00
   1   2   3   34.70    2.10
  -2  -2  -3   73.99    3.70
  -2  -2  -3   75.49    3.80
   2   2   3   71.99    3.80
   2   2   3   75.79    3.70
   2   2   3   70.39    3.80
  -3  -2  -3   98.79    5.20
   3   2   3  106.59    5.20
   3   2   3  106.19    5.40
   3   2   3  107.09    5.40
  -4  -2  -3   78.19    4.40
  -4  -2  -3   78.49    5.40
  -4  -2  -3   84.59    4.80
   4   2   3   81.69    4.40
   4   2   3   75.29    6.60
  -5  -2  -3   44.10    4.30
  -5  -2  -3   49.80    3.30
  -5  -2  -3   48.30    3.50
  -6  -2  -3   70.89    4.40
  -6  -2  -3   69.69    5.10
  -6  -2  -3   65.59    4.60
  -6  -2  -3   64.49    3.80
   6   2   3   58.49    4.50
  -7  -2  -3   25.00    2.50
  -7  -2  -3   22.60    2.20
   7   2   3   22.10    2.60
  -8  -2  -3    0.50    1.10
   8   2   3    1.70    0.70
  -6   3   3   12.10    1.20
   5  -3  -3   12.00    1.30
   5  -3  -3    8.10    2.40
  -5   3   3   12.00    1.60
   4  -3  -3  129.59    7.00
   4  -3  -3  131.59    6.60
  -4   3   3  131.59    7.10
   3  -3  -3   49.10    3.00
   3  -3  -3   48.60    3.60
  -3   3   3   50.09    3.10
  -3   3   3   48.20    3.70
   2  -3  -3   21.30    2.40
   2  -3  -3   22.60    3.30
   2  -3  -3   30.50    2.50
  -2   3   3   24.40    2.20
  -2   3   3   24.20    3.30
  -2   3   3   14.50    2.90
   1  -3  -3   10.00    1.50
   1  -3  -3    5.60    1.90
   1  -3  -3    7.50    1.50
  -1   3   3    9.00    1.70
  -1   3   3   10.50    1.50
  -1   3   3    9.90    2.40
  -1   3   3    5.80    1.30
  -1   3   3    5.60    1.60
   0  -3  -3  609.44   31.30
   0  -3  -3  650.93   31.30
   0  -3  -3  637.64   31.30
   0   3   3  667.23   31.30
   0   3   3  688.93   31.50
   0   3   3  654.53   31.30
   0   3   3  712.23   31.30
  -1  -3  -3  163.58    8.30
  -1  -3  -3  157.38    8.20
   1   3   3  167.78    8.20
   1   3   3  167.58    8.30
   1   3   3  182.98    8.30
   2   3   3  151.08    7.00
   2   3   3  134.49    7.10
   2   3   3  142.89    7.00
  -3  -3  -3   -0.10    1.50
  -3  -3  -3    1.50    1.80
   3   3   3   -0.30    1.10
   3   3   3    1.70    0.60
  -4  -3  -3   77.49    4.60
  -4  -3  -3   78.59    6.10
  -4  -3  -3   79.79    5.30
  -5  -3  -3    9.40    2.10
  -5  -3  -3   12.80    1.80
  -5  -3  -3   13.60    2.30
  -6  -3  -3    9.60    2.10
  -6  -3  -3   10.40    2.00
  -6  -3  -3    4.70    2.20
  -7  -3  -3   44.40    2.90
  -7  -3  -3   38.40    3.80
   7   3   3   45.70    3.70
  -8  -3  -3    1.80    1.20
  -8  -3  -3    1.10    0.90
   8   3   3    1.00    1.20
   5  -4  -3  170.68    8.80
  -5   4   3  180.18    8.70
   3  -4  -3  330.57   16.20
  -3   4   3  328.77   16.40
  -3   4   3  336.37   16.00
   2  -4  -3  270.77   13.50
   2  -4  -3  292.57   14.80
   2  -4  -3  264.57   13.60
  -2   4   3  271.87   13.30
   1  -4  -3   13.80    2.80
   1  -4  -3    9.90    3.10
   1  -4  -3   10.70    1.40
   1  -4  -3   14.00    1.90
  -1   4   3    7.90    1.30
   0  -4  -3    2.10    1.10
   0  -4  -3    2.80    1.40
   0  -4  -3    2.00    1.70
   0  -4  -3    2.50    2.00
   0   4   3    0.50    1.90
   0   4   3    0.80    1.50
   0   4   3    2.90    1.40
   0   4   3    3.40    1.90
  -1  -4  -3   14.30    1.90
  -1  -4  -3   15.40    2.00
  -1  -4  -3   18.20    2.00
  -1  -4  -3   20.20    2.40
   1   4   3   17.30    1.80
   1   4   3   14.80    2.00
   1   4   3   20.90    2.30
   1   4   3   18.10    1.90
  -2  -4  -3   39.60    3.70
  -2  -4  -3   39.50    3.30
  -2  -4  -3   37.10    3.10
   2   4   3   43.10    2.40
   2   4   3   38.70    3.40
   2   4   3   31.40    3.20
   2   4   3   40.10    3.10
  -3  -4  -3    7.30    1.60
  -3  -4  -3    9.60    2.10
  -3  -4  -3    7.80    1.80
   3   4   3    8.90    2.30
   3   4   3   11.30    2.10
  -4  -4  -3    2.90    1.30
  -4  -4  -3    2.80    1.40
  -5  -4  -3    3.80    2.40
  -5  -4  -3    0.40    1.60
  -5  -4  -3    0.80    2.00
  -6  -4  -3    2.30    1.50
  -6  -4  -3    2.70    1.30
  -6  -4  -3    5.10    2.40
  -7  -4  -3    5.20    2.60
  -7  -4  -3    2.50    2.10
  -8  -4  -3    0.20    1.30
  -8  -4  -3    0.00    0.90
   4  -5  -3   12.40    1.70
  -4   5   3   19.10    2.20
   3  -5  -3  748.63   35.00
  -3   5   3  721.13   34.70
   2  -5  -3  111.39    6.40
   2  -5  -3  110.49    7.00
   2  -5  -3  113.59    5.80
  -2   5   3   97.59    7.20
  -2   5   3  111.09    5.80
   1  -5  -3 1204.18   56.19
   1  -5  -3 1206.28   56.39
   1  -5  -3 1175.78   56.49
  -1   5   3 1182.68   56.19
   0  -5  -3  355.46   17.00
   0   5   3  337.77   16.70
  -1  -5  -3   49.80    3.30
  -1  -5  -3   63.89    3.80
  -1  -5  -3   52.19    3.70
  -2  -5  -3   11.00    1.40
  -2  -5  -3   10.70    1.90
  -2  -5  -3    8.30    1.60
  -3  -5  -3    6.10    1.70
  -4  -5  -3   18.80    2.40
  -4  -5  -3   14.40    2.20
  -4  -5  -3   18.70    2.70
  -5  -5  -3   21.20    3.60
  -5  -5  -3   33.40    3.90
  -5  -5  -3   33.80    3.10
  -6  -5  -3    4.40    4.10
  -6  -5  -3    2.70    1.50
  -6  -5  -3    1.70    2.20
  -7  -5  -3    0.80    2.30
  -7  -5  -3    3.80    1.10
   3  -6  -3    0.60    1.20
  -3   6   3    0.50    0.90
   2  -6  -3    1.10    0.80
   2  -6  -3   -0.10    2.50
  -2   6   3    1.00    1.00
   1  -6  -3  679.83   32.70
   1  -6  -3  664.03   32.90
   1  -6  -3  701.53   32.50
  -1   6   3  688.83   32.40
   0  -6  -3  153.68    8.10
   0  -6  -3  148.19    8.60
   0  -6  -3  168.48    7.90
   0   6   3  152.78    8.00
  -1  -6  -3 1163.78   54.69
  -1  -6  -3 1166.38   54.99
  -1  -6  -3 1213.88   55.29
   1   6   3 1105.29   54.89
  -2  -6  -3  298.67   15.60
  -2  -6  -3  331.07   15.90
  -2  -6  -3  325.47   15.70
  -3  -6  -3  212.48   10.70
  -3  -6  -3  203.88   10.70
  -3  -6  -3  218.88   10.90
  -4  -6  -3    4.50    1.60
  -4  -6  -3    4.60    1.60
  -4  -6  -3    3.70    1.90
  -5  -6  -3   11.60    2.40
  -5  -6  -3   13.60    1.90
  -5  -6  -3   10.00    2.40
  -6  -6  -3   26.10    3.20
  -6  -6  -3   26.80    2.80
  -7  -6  -3   10.90    1.50
   2  -7  -3    1.30    0.70
   2  -7  -3    1.80    1.70
  -2   7   3    2.10    0.90
   1  -7  -3   19.50    2.00
   1  -7  -3   22.10    3.40
   1  -7  -3   19.90    2.80
  -1   7   3   20.30    2.00
   0  -7  -3   68.89    4.30
   0  -7  -3   78.99    4.30
   0  -7  -3   73.89    4.60
   0   7   3   79.09    4.30
  -1  -7  -3  218.18   11.00
  -1  -7  -3  229.78   11.00
  -1  -7  -3  215.98   10.50
  -1  -7  -3  190.18   11.20
   1   7   3  229.68   10.90
  -2  -7  -3   40.30    3.10
  -2  -7  -3   37.20    3.30
  -2  -7  -3   39.50    2.80
  -3  -7  -3  227.08   12.10
  -3  -7  -3  246.78   12.00
  -3  -7  -3  248.28   12.30
  -4  -7  -3  156.08    8.30
  -4  -7  -3  161.48    8.50
  -4  -7  -3  157.68    8.30
  -5  -7  -3   49.10    3.30
  -5  -7  -3   48.60    4.60
  -5  -7  -3   48.70    3.90
  -6  -7  -3    3.70    1.80
  -6  -7  -3    4.30    2.40
   1  -8  -3   23.70    2.00
   1  -8  -3   17.80    3.40
  -1   8   3   21.00    1.70
   0  -8  -3   20.20    2.90
   0  -8  -3   18.80    1.90
   0  -8  -3   16.00    2.20
   0   8   3   18.40    1.50
  -1  -8  -3   13.40    2.10
  -1  -8  -3    8.60    1.60
  -1  -8  -3   12.70    1.70
   1   8   3   14.00    1.70
  -2  -8  -3   82.39    4.90
  -2  -8  -3   80.89    4.60
  -2  -8  -3   83.79    4.90
   2   8   3   84.09    5.10
  -3  -8  -3   52.59    3.60
  -3  -8  -3   51.99    3.20
  -3  -8  -3   49.00    3.20
  -4  -8  -3    1.40    1.10
  -4  -8  -3    1.20    1.40
  -4  -8  -3    2.90    1.40
  -5  -8  -3    5.10    2.90
  -5  -8  -3    2.70    2.20
  -5  -8  -3    4.60    1.80
  -2  -9  -3  102.19    5.10
   2   9   3   96.09    5.20
  -3  -9  -3   17.50    1.70
  -3  -9  -3   13.90    2.00
   4   7  -4   34.30    4.30
  -4  -7   4   29.50    2.10
  -4  -7   4   32.50    2.20
   3   7  -4   52.39    3.70
  -3  -7   4   48.70    3.10
  -3  -7   4   48.50    3.00
   2   7  -4    4.60    1.30
  -2  -7   4    3.90    1.70
  -2  -7   4    3.70    1.10
   1   7  -4   66.79    3.80
  -1  -7   4   67.39    3.90
   0   7  -4    5.30    0.90
   0  -7   4   -0.10    2.90
  -1   7  -4  142.29    7.00
   1  -7   4  155.18    8.00
   1  -7   4  134.29    7.20
  -5  -6   4   40.00    2.60
   4   6  -4  161.08    8.30
  -4  -6   4  162.08    8.30
  -4  -6   4  168.48    8.50
   3   6  -4   23.80    2.90
  -3  -6   4   19.20    2.30
  -3  -6   4   18.90    2.10
   2   6  -4  135.29    7.60
  -2  -6   4  160.08    8.30
  -1  -6   4  141.19    7.50
   0  -6   4    2.90    2.30
  -1   6  -4    0.60    1.20
   1  -6   4   -0.10    1.20
  -2   6  -4    1.70    0.70
   2  -6   4    2.70    1.20
   3  -6   4   15.60    1.80
   6   5  -4    4.90    1.40
  -6  -5   4    2.60    1.90
  -6  -5   4    1.40    1.10
   5   5  -4    3.40    1.60
  -5  -5   4    4.00    1.20
  -5  -5   4    6.90    1.40
   4   5  -4  126.79    6.70
   3   5  -4  174.08    9.10
  -3  -5   4  186.48    9.40
  -3  -5   4  181.68    9.50
   2   5  -4  941.81   45.60
  -2  -5   4  926.71   45.40
  -2  -5   4  981.70   45.80
  -2  -5   4 1010.60   46.00
   1   5  -4   17.70    2.00
  -1  -5   4   21.70    3.10
  -1  -5   4   20.50    2.20
  -1  -5   4   20.70    2.40
   0   5  -4  411.66   19.80
   0  -5   4  400.66   20.30
   0  -5   4  412.36   19.80
   0  -5   4  426.26   20.20
  -1   5  -4    9.30    1.40
   1  -5   4    9.10    1.60
  -2   5  -4    2.30    1.20
   2  -5   4    2.00    1.00
  -3   5  -4    0.80    2.10
   3  -5   4   -0.10    1.40
  -4   5  -4    3.60    1.50
   4  -5   4    1.50    1.30
   6   4  -4   18.10    2.00
  -6  -4   4   20.20    2.00
  -6  -4   4   15.20    2.50
   5   4  -4   36.30    2.60
  -5  -4   4   36.50    3.50
  -5  -4   4   37.70    3.50
   4   4  -4   21.00    2.70
  -4  -4   4   22.70    2.30
  -4  -4   4   21.90    3.20
   3   4  -4   -1.00    1.70
  -3  -4   4   -0.30    1.80
  -3  -4   4    2.00    1.60
  -3  -4   4   -0.80    1.50
   2   4  -4  131.49    7.30
  -2  -4   4  139.19    7.60
  -2  -4   4  144.89    7.20
  -2  -4   4  146.09    7.70
  -1  -4   4  194.38   10.20
  -1  -4   4  197.88   10.20
  -1  -4   4  196.08    9.80
   0   4  -4 1971.50   91.69
   0  -4   4 1910.91   91.69
   0  -4   4 2029.10   91.99
   0  -4   4 1896.91   91.99
  -1   4  -4   54.99    3.50
   1  -4   4   57.69    3.70
   1  -4   4   52.59    3.60
  -2   4  -4  771.72   36.80
  -2   4  -4  759.72   36.40
   2  -4   4  774.42   36.60
  -3   4  -4   50.29    3.40
  -3   4  -4   57.29    4.20
   3  -4   4   48.00    3.60
  -4   4  -4   39.60    3.50
   4  -4   4   37.60    2.80
  -5   4  -4   35.60    2.80
   5  -4   4   34.20    2.60
   6   3  -4    3.20    1.10
  -6  -3   4    0.70    2.30
  -6  -3   4    3.30    1.80
   5   3  -4   13.10    2.10
  -5  -3   4    9.70    2.20
  -5  -3   4   12.80    1.80
   4   3  -4    1.50    1.50
  -4  -3   4    6.00    1.80
  -4  -3   4    4.90    2.00
  -4  -3   4    4.30    1.50
  -3  -3   4   76.69    4.60
  -3  -3   4   80.99    5.10
   2   3  -4  227.88   11.70
  -2  -3   4  235.38   12.00
  -2  -3   4  247.28   11.70
   1   3  -4   -0.40    1.80
  -1  -3   4    3.20    1.80
  -1  -3   4    0.80    1.30
  -1  -3   4    0.80    1.60
   0   3  -4    1.50    1.70
   0  -3   4    0.40    1.40
   0  -3   4    0.10    2.30
   0  -3   4    2.80    1.60
  -1   3  -4   81.59    6.60
  -1   3  -4   77.19    4.50
   1  -3   4   81.29    4.60
   1  -3   4   83.39    5.00
   1  -3   4   67.39    6.20
  -2   3  -4  846.12   40.70
  -2   3  -4  839.62   40.40
   2  -3   4  882.41   40.60
  -3   3  -4    4.50    1.90
  -3   3  -4    0.40    1.20
   3  -3   4    2.70    1.60
   3  -3   4    2.30    1.60
  -4   3  -4  399.06   17.80
   4  -3   4  319.17   17.20
   4  -3   4  371.46   17.80
  -5   3  -4   45.30    3.30
   5  -3   4   46.10    4.00
  -6   3  -4   49.10    2.90
   6  -3   4   70.29    6.60
   6   2  -4   -0.40    0.70
  -6  -2   4   -2.00    1.90
   5   2  -4    1.30    1.30
  -5  -2   4   -3.30    2.00
  -5  -2   4    3.30    1.40
  -5  -2   4   -0.20    2.10
   4   2  -4   23.90    2.50
  -4  -2   4   26.30    3.40
  -4  -2   4   23.70    2.30
   3   2  -4   31.50    2.80
   2   2  -4   59.79    4.00
   2   2  -4   66.59    4.40
  -2  -2   4   67.09    3.80
  -2  -2   4   65.49    4.40
   1   2  -4  400.36   18.80
   1   2  -4  398.46   19.10
  -1  -2   4  389.46   18.80
  -1  -2   4  388.66   18.70
  -1  -2   4  374.26   19.00
   0   2  -4  268.77   13.50
   0   2  -4  267.57   13.10
   0   2  -4  276.47   13.30
   0  -2   4  267.57   13.20
   0  -2   4  253.07   13.40
   0  -2   4  283.47   13.30
   0  -2   4  272.47   13.70
  -1   2  -4   -0.10    1.40
  -1   2  -4    3.50    1.40
   1  -2   4    4.20    1.10
   1  -2   4    1.80    1.60
   1  -2   4    1.00    0.90
   1  -2   4    3.90    1.80
  -2   2  -4   47.40    3.30
  -2   2  -4   55.49    4.60
  -2   2  -4   50.09    3.90
   2  -2   4   53.39    4.30
   2  -2   4   58.19    3.90
   2  -2   4   57.99    3.60
  -3   2  -4   66.09    4.00
   3  -2   4   64.49    4.50
  -4   2  -4   66.69    4.30
   4  -2   4   68.69    4.00
   4  -2   4   69.79    4.80
  -5   2  -4    2.70    1.40
   5  -2   4   -0.10    1.10
   5  -2   4    5.60    2.70
  -6   2  -4   10.50    1.50
   6  -2   4    9.10    1.10
   6   1  -4   27.20    2.10
  -6  -1   4   28.30    3.40
  -6  -1   4   25.60    2.10
   5   1  -4    4.70    1.20
  -5  -1   4    5.60    1.30
  -5  -1   4    6.50    2.30
   4   1  -4   69.69    4.10
  -4  -1   4   74.59    4.20
  -4  -1   4   69.79    5.20
   3   1  -4   -0.20    1.30
  -3  -1   4    0.70    1.10
  -3  -1   4    1.30    2.00
   2   1  -4    6.70    1.50
   2   1  -4    6.20    1.60
   2   1  -4    7.40    2.50
  -2  -1   4    6.60    1.30
  -2  -1   4    7.60    1.80
   1   1  -4  576.44   29.00
   1   1  -4  633.84   29.00
  -1  -1   4  599.54   28.90
  -1  -1   4  622.74   29.00
   0   1  -4  322.77   15.30
   0   1  -4  314.87   15.40
   0  -1   4  304.87   15.40
   0  -1   4  311.47   15.30
   0  -1   4  327.07   15.50
   0  -1   4  320.67   15.00
  -1   1  -4 1730.63   82.29
  -1   1  -4 1785.52   82.29
   1  -1   4 1674.93   82.39
   1  -1   4 1783.12   81.99
   1  -1   4 1719.93   82.39
   1  -1   4 1804.92   82.29
  -2   1  -4   28.70    2.40
  -2   1  -4   29.40    2.90
  -2   1  -4   28.40    2.90
  -2   1  -4   29.40    3.80
   2  -1   4   31.70    2.60
   2  -1   4   27.90    2.40
  -3   1  -4   47.30    3.30
  -3   1  -4   45.60    4.60
  -3   1  -4   39.90    3.70
   3  -1   4   48.50    3.10
   3  -1   4   48.20    4.60
  -4   1  -4    3.10    1.30
   4  -1   4    1.80    1.30
   4  -1   4   -1.10    2.70
  -5   1  -4    2.60    1.30
  -5   1  -4    5.10    2.10
   5  -1   4    2.50    1.30
  -6   1  -4    0.90    0.90
  -7   1  -4    0.20    1.00
  -7   1  -4   -1.00    0.90
   7  -1   4    0.10    0.80
   6   0  -4    3.50    0.70
  -6   0   4    3.10    1.10
   5   0  -4    7.00    1.20
  -5   0   4   12.90    1.60
  -5   0   4    8.80    2.70
   4   0  -4    3.30    1.20
  -4   0   4    8.50    2.70
  -4   0   4    3.00    1.40
   3   0  -4    3.60    1.20
  -3   0   4    1.30    3.40
  -3   0   4    3.10    1.30
   2   0  -4  156.18    9.00
   2   0  -4  158.68    8.10
   2   0  -4  171.88    8.30
   2   0  -4  159.88    8.10
  -2   0   4  154.18    8.10
  -2   0   4  158.48    8.40
   1   0  -4   99.19    5.10
   1   0  -4   93.39    4.90
  -1   0   4   89.59    5.30
  -1   0   4   94.99    5.10
  -1   0   4   94.89    5.10
  -1   0   4   98.89    4.90
   0   0  -4   14.00    1.80
   0   0  -4   19.10    1.50
   0   0   4   17.60    1.30
   0   0   4   15.70    1.50
   0   0   4   15.40    1.50
   0   0   4   19.90    2.00
  -1   0  -4  583.14   27.60
  -1   0  -4  572.14   27.70
   1   0   4  560.64   27.70
   1   0   4  597.94   27.50
   1   0   4  592.74   27.60
   1   0   4  582.94   27.80
  -2   0  -4   44.10    3.40
  -2   0  -4   54.59    3.20
   2   0   4   54.59    3.70
   2   0   4   52.29    3.00
   2   0   4   50.19    3.40
   2   0   4   53.69    3.10
  -3   0  -4 1258.57   58.69
  -3   0  -4 1198.68   58.29
  -3   0  -4 1232.68   58.49
   3   0   4 1309.07   58.49
   3   0   4 1217.98   58.89
   3   0   4 1214.58   58.29
  -4   0  -4   15.20    2.00
  -4   0  -4   18.40    2.40
   4   0   4   14.20    1.80
  -5   0  -4  110.89    6.10
  -5   0  -4  111.49    6.00
   5   0   4  112.09    6.00
  -6   0  -4    2.80    1.20
  -6   0  -4    4.70    1.30
   6   0   4    5.50    1.40
  -7   0  -4   14.50    1.70
  -7   0  -4   17.40    1.90
   7   0   4   14.70    1.40
   6  -1  -4    7.00    0.90
  -6   1   4    8.10    1.20
   5  -1  -4    6.90    1.20
  -5   1   4    6.20    1.50
   4  -1  -4    2.70    1.10
  -4   1   4    3.50    1.40
   3  -1  -4   26.90    3.20
  -3   1   4   31.10    2.80
   2  -1  -4   39.00    3.50
   2  -1  -4   33.10    3.90
   2  -1  -4   34.90    2.70
  -2   1   4   33.20    3.10
  -2   1   4   41.20    3.80
  -2   1   4   35.80    3.00
  -2   1   4   33.20    3.30
   1  -1  -4  111.29    5.60
   1  -1  -4  110.89    5.70
   1  -1  -4  100.49    6.00
  -1   1   4   96.79    6.00
  -1   1   4  110.89    5.70
  -1   1   4  110.49    5.60
   0  -1  -4   36.50    2.30
   0  -1  -4   34.20    2.20
   0   1   4   37.00    2.20
   0   1   4   35.20    2.30
   0   1   4   37.50    2.70
  -1  -1  -4  151.28    7.80
   1   1   4  163.18    7.80
   1   1   4  160.18    7.80
   1   1   4  158.68    8.00
  -2  -1  -4   38.20    2.50
  -2  -1  -4   37.20    2.60
   2   1   4   39.10    2.90
   2   1   4   36.90    2.30
   2   1   4   38.60    2.30
   2   1   4   34.70    2.90
  -3  -1  -4   74.09    4.20
  -3  -1  -4   76.39    4.50
  -3  -1  -4   76.79    5.10
   3   1   4   71.09    5.10
   3   1   4   90.69    6.10
   3   1   4   76.09    4.40
   3   1   4   78.09    4.20
  -4  -1  -4   28.60    2.70
  -4  -1  -4   25.10    2.40
  -4  -1  -4   21.60    2.20
   4   1   4   23.50    3.10
  -5  -1  -4  187.08    9.70
  -5  -1  -4  170.18    9.30
  -5  -1  -4  189.48    9.20
   5   1   4  187.38    9.30
  -6  -1  -4    3.40    1.20
  -6  -1  -4    2.30    1.60
   6   1   4    5.70    1.10
  -7  -1  -4   24.80    2.10
  -7  -1  -4   26.10    2.20
  -7  -1  -4   29.60    3.00
   7   1   4   27.10    2.00
  -6   2   4    3.90    0.80
   5  -2  -4    0.10    0.90
  -5   2   4    0.90    1.40
   4  -2  -4   -1.20    2.30
   4  -2  -4    1.50    1.10
  -4   2   4   -0.10    1.00
   3  -2  -4    3.10    1.10
   3  -2  -4    1.80    2.00
  -3   2   4    1.70    1.40
   2  -2  -4  187.98    9.10
   2  -2  -4  171.68    9.80
   2  -2  -4  191.28    9.50
  -2   2   4  189.18    9.50
  -2   2   4  185.48   10.40
  -2   2   4  186.18    9.20
   1  -2  -4  174.28    8.60
   1  -2  -4  164.58    8.70
   1  -2  -4  164.98    8.40
  -1   2   4  182.08    8.80
  -1   2   4  163.38    8.50
  -1   2   4  167.68    8.70
  -1   2   4  174.08    8.70
   0  -2  -4  313.17   15.40
   0  -2  -4  322.67   15.50
   0  -2  -4  307.87   15.50
   0   2   4  316.57   15.60
   0   2   4  330.77   15.50
   0   2   4  330.67   15.50
  -1  -2  -4  524.65   25.00
  -1  -2  -4  513.65   25.00
   1   2   4  542.85   25.00
   1   2   4  514.85   25.00
   1   2   4  534.95   25.10
  -2  -2  -4    0.40    0.90
  -2  -2  -4    0.40    1.10
   2   2   4    0.10    0.90
   2   2   4   -1.10    1.20
   2   2   4    1.20    0.80
  -3  -2  -4    2.60    1.30
  -3  -2  -4   -0.30    1.40
  -3  -2  -4    1.60    1.60
  -3  -2  -4    1.10    1.10
   3   2   4    2.90    1.60
   3   2   4   -1.10    1.20
   3   2   4   -1.10    0.90
  -4  -2  -4   24.70    2.70
  -4  -2  -4   20.80    3.30
  -4  -2  -4   21.80    2.20
  -5  -2  -4   19.30    1.90
  -5  -2  -4   21.10    2.30
  -6  -2  -4    2.60    2.10
  -6  -2  -4   -0.40    1.20
  -6  -2  -4    1.00    1.30
  -6  -2  -4    0.70    1.30
   6   2   4   -2.60    1.60
  -7  -2  -4    0.80    1.30
  -7  -2  -4    0.80    1.50
   7   2   4    1.40    1.40
  -8  -2  -4   -0.70    1.40
   8   2   4   -0.50    0.60
   5  -3  -4   21.10    2.60
  -5   3   4   20.70    1.80
   4  -3  -4    7.20    1.30
   4  -3  -4    4.00    1.40
  -4   3   4    5.00    1.30
   3  -3  -4    0.50    1.20
   3  -3  -4    0.60    1.60
  -3   3   4   -1.80    1.60
  -3   3   4    0.00    1.60
   2  -3  -4    2.10    1.10
  -2   3   4    0.30    1.80
   1  -3  -4   68.09    3.90
   1  -3  -4   68.19    4.20
   1  -3  -4   67.39    5.10
  -1   3   4   57.09    5.40
  -1   3   4   60.59    4.80
  -1   3   4   67.99    3.70
  -1   3   4   49.10    5.40
   0  -3  -4  717.23   33.80
   0  -3  -4  754.42   33.80
   0  -3  -4  729.23   33.90
   0   3   4  681.93   33.90
   0   3   4  716.23   34.10
   0   3   4  672.23   34.10
   0   3   4  700.73   33.90
   0   3   4  726.23   33.80
  -1  -3  -4  130.49    6.80
   1   3   4  129.19    7.00
   1   3   4  127.09    6.80
   1   3   4  135.99    6.70
  -2  -3  -4  670.63   32.90
  -2  -3  -4  678.93   32.60
   2   3   4  665.03   32.60
   2   3   4  725.63   32.60
   2   3   4  692.33   32.50
  -3  -3  -4  124.69    6.90
  -3  -3  -4  153.08    7.10
  -3  -3  -4  124.79    6.50
  -3  -3  -4  119.49    7.20
   3   3   4  134.09    6.60
   3   3   4  128.59    6.80
  -4  -3  -4   25.70    2.60
  -4  -3  -4   35.00    2.90
  -4  -3  -4   29.80    2.80
  -5  -3  -4    6.80    2.50
  -5  -3  -4    5.40    1.80
  -5  -3  -4    2.70    1.40
  -6  -3  -4    4.80    2.00
  -6  -3  -4    6.20    2.40
  -6  -3  -4    0.10    1.70
  -7  -3  -4    1.40    2.10
  -7  -3  -4    1.10    1.40
   7   3   4   -0.70    1.70
  -8  -3  -4    5.50    2.00
  -8  -3  -4    6.90    1.00
   8   3   4    4.60    1.10
   5  -4  -4   46.90    3.00
  -5   4   4   46.90    2.80
   4  -4  -4    1.50    1.60
  -4   4   4    4.70    1.70
   3  -4  -4    6.70    1.70
  -3   4   4    6.90    1.60
  -3   4   4   11.30    1.70
   2  -4  -4   16.70    2.40
  -2   4   4   15.40    2.00
  -2   4   4   20.00    2.60
   1  -4  -4    2.10    1.10
   1  -4  -4    1.50    1.50
   1  -4  -4    0.10    4.00
  -1   4   4    1.00    1.10
   0  -4  -4   16.90    2.50
   0  -4  -4   21.60    2.70
   0  -4  -4   17.50    2.00
   0   4   4   17.30    2.20
  -1  -4  -4   98.39    6.40
  -1  -4  -4  113.29    5.70
  -1  -4  -4  111.79    5.90
   1   4   4  102.69    6.20
  -2  -4  -4  573.14   24.40
  -2  -4  -4  477.85   24.30
  -2  -4  -4  469.55   24.50
  -2  -4  -4  527.55   24.20
   2   4   4  492.35   24.20
  -3  -4  -4   80.59    5.50
  -3  -4  -4   83.79    5.40
  -3  -4  -4   86.89    4.90
  -4  -4  -4  483.65   23.10
  -4  -4  -4  458.85   22.70
  -5  -4  -4   45.60    4.20
  -5  -4  -4   42.90    3.10
  -6  -4  -4   76.79    5.00
  -6  -4  -4   78.59    5.80
  -6  -4  -4   78.99    4.50
  -7  -4  -4   -0.40    2.40
  -7  -4  -4    3.60    1.10
  -7  -4  -4    2.70    2.20
  -8  -4  -4    2.60    0.80
   4  -5  -4    1.30    0.90
  -4   5   4    1.60    1.80
   3  -5  -4    9.30    1.20
  -3   5   4    5.60    2.40
  -3   5   4    5.20    1.20
   2  -5  -4    2.30    1.40
  -2   5   4   -1.50    2.90
  -2   5   4    0.50    1.10
   1  -5  -4   60.29    3.70
   1  -5  -4   54.69    5.10
   1  -5  -4   60.49    4.10
  -1   5   4   59.29    3.60
   0  -5  -4  139.69    8.10
   0  -5  -4  141.99    7.50
   0  -5  -4  145.69    7.30
   0   5   4  143.69    7.40
  -1  -5  -4   11.60    1.70
  -1  -5  -4    5.40    2.00
   1   5   4    8.70    1.90
  -2  -5  -4  148.49    8.50
  -2  -5  -4  174.48    8.70
  -2  -5  -4  160.38    8.30
  -2  -5  -4  182.08    8.90
  -3  -5  -4   90.49    5.20
  -3  -5  -4   86.39    4.80
  -3  -5  -4   80.89    5.40
  -4  -5  -4   40.00    4.10
  -4  -5  -4   47.60    3.30
  -4  -5  -4   40.10    4.00
  -5  -5  -4   10.70    2.20
  -5  -5  -4    9.30    1.90
  -6  -5  -4   76.59    5.70
  -6  -5  -4   58.19    4.20
  -7  -5  -4    5.80    2.30
  -7  -5  -4    7.40    1.20
   3  -6  -4    2.10    0.80
   2  -6  -4   22.10    2.30
  -2   6   4   25.20    2.10
   1  -6  -4   29.60    2.60
   1  -6  -4   31.30    3.00
   1  -6  -4   33.40    4.20
  -1   6   4   29.60    2.40
   0  -6  -4    2.70    1.60
   0  -6  -4    2.40    1.20
   0  -6  -4    2.40    2.00
   0   6   4    1.40    1.30
  -1  -6  -4  549.15   26.50
  -1  -6  -4  543.55   25.90
  -1  -6  -4  502.75   26.20
  -1  -6  -4  585.04   26.20
   1   6   4  545.65   26.10
  -2  -6  -4  204.88   10.90
  -2  -6  -4  224.38   11.20
  -2  -6  -4  224.18   11.10
  -3  -6  -4  155.48    7.90
  -3  -6  -4  146.99    8.40
  -3  -6  -4  156.18    8.10
  -4  -6  -4  127.39    7.20
  -4  -6  -4  108.79    6.70
  -4  -6  -4  124.09    6.60
  -5  -6  -4   14.90    2.10
  -5  -6  -4   11.00    2.10
  -6  -6  -4    0.90    1.60
  -6  -6  -4    0.30    2.10
  -7  -6  -4    5.00    1.10
  -7  -6  -4    0.20    2.20
   2  -7  -4    2.00    0.90
  -2   7   4    4.50    1.00
   1  -7  -4   33.00    3.10
   1  -7  -4   25.50    2.30
  -1   7   4   29.90    1.90
   0  -7  -4   19.50    2.10
   0  -7  -4   26.60    2.90
   0  -7  -4   24.40    3.50
  -1  -7  -4   66.39    4.10
  -1  -7  -4   51.59    3.90
  -1  -7  -4   69.29    4.20
   1   7   4   61.99    3.90
  -2  -7  -4   32.20    3.30
  -2  -7  -4   27.90    2.80
  -2  -7  -4   29.30    2.40
   2   7   4   25.70    3.30
  -3  -7  -4  950.20   45.60
  -3  -7  -4  968.10   46.00
  -3  -7  -4  971.30   45.70
  -4  -7  -4  282.47   14.30
  -5  -7  -4  407.96   21.00
  -5  -7  -4  470.35   21.20
  -5  -7  -4  410.96   20.70
  -6  -7  -4   69.19    3.90
  -6  -7  -4   68.89    4.30
   0  -8  -4   -1.30    0.90
   0  -8  -4   -1.70    1.30
   0   8   4    1.10    0.90
  -1  -8  -4   62.19    3.70
  -1  -8  -4   62.59    3.50
  -1  -8  -4   63.39    4.40
   1   8   4   59.99    3.40
  -2  -8  -4    0.40    1.50
  -2  -8  -4    2.30    1.10
  -2  -8  -4   -0.10    1.40
   2   8   4    2.10    1.60
  -3  -8  -4   11.30    1.40
  -3  -8  -4   11.50    1.40
  -3  -8  -4    7.40    1.90
  -4  -8  -4    8.90    1.50
  -4  -8  -4    3.50    1.60
  -4  -8  -4    8.50    1.80
  -5  -8  -4  427.26   20.60
  -5  -8  -4  435.56   20.80
   2   7  -5    7.10    1.30
  -2  -7   5   11.00    1.50
   1   7  -5   16.90    1.30
  -1  -7   5   13.70    2.20
   0   7  -5   67.19    3.50
   4   6  -5   30.80    2.40
  -4  -6   5   32.30    2.60
  -4  -6   5   32.80    2.40
   3   6  -5   -1.10    0.80
  -3  -6   5   -1.30    1.00
  -3  -6   5    1.20    1.40
   2   6  -5   12.20    1.50
  -2  -6   5   14.00    1.90
  -2  -6   5   11.40    1.90
   1   6  -5   27.00    2.30
  -1  -6   5   28.20    3.00
  -1  -6   5   29.00    2.10
  -1  -6   5   25.60    3.10
   0  -6   5    4.50    3.50
  -1   6  -5    9.20    1.20
   1  -6   5    6.90    1.20
   2  -6   5   35.10    2.20
   5   5  -5    9.60    1.30
  -5  -5   5   13.10    1.60
   4   5  -5   42.20    2.60
  -4  -5   5   43.60    3.00
  -4  -5   5   44.10    2.90
   3   5  -5   24.10    2.00
  -3  -5   5   23.60    2.40
  -3  -5   5   20.50    2.30
  -2  -5   5   13.10    2.00
  -2  -5   5   10.90    2.10
   1   5  -5   -0.70    1.20
  -1  -5   5   -0.20    1.00
  -1  -5   5    3.40    1.30
  -1  -5   5    3.00    1.40
   0   5  -5   78.59    4.40
   0  -5   5   80.09    5.00
   0  -5   5   71.69    5.10
   0  -5   5   81.89    4.50
  -1   5  -5  189.58    9.30
   1  -5   5  186.38    9.50
  -2   5  -5   10.70    1.30
   2  -5   5    9.00    1.50
  -3   5  -5   25.80    2.90
  -3   5  -5   16.20    2.00
   3  -5   5   23.70    2.30
  -4   5  -5   -0.70    2.30
   4  -5   5    0.10    1.30
   5   4  -5   -0.40    1.10
  -5  -4   5    1.00    1.20
  -5  -4   5    3.40    1.70
   4   4  -5    9.40    1.40
  -4  -4   5    9.30    2.70
  -4  -4   5    4.10    2.00
   3   4  -5   -1.10    1.20
  -3  -4   5    0.80    1.20
  -3  -4   5   -1.70    1.80
  -3  -4   5   -0.40    1.30
   2   4  -5    2.40    1.30
  -2  -4   5    3.20    1.90
  -2  -4   5   -0.70    1.50
  -2  -4   5    2.00    1.80
   1   4  -5  115.59    6.20
  -1  -4   5  114.49    6.80
  -1  -4   5  116.19    6.30
  -1  -4   5  122.49    6.50
   0   4  -5   72.79    4.20
   0  -4   5   71.59    5.20
   0  -4   5   70.49    4.80
   0  -4   5   74.29    4.40
  -1   4  -5   67.89    4.00
   1  -4   5   71.29    4.30
  -2   4  -5  331.47   17.70
  -2   4  -5  373.36   17.20
   2  -4   5  363.86   17.40
  -3   4  -5   79.79    5.90
   3  -4   5  105.69    5.80
  -4   4  -5   44.80    3.10
   4  -4   5   42.30    3.30
   5  -4   5   40.40    2.70
   6   3  -5    1.20    0.90
  -6  -3   5   -3.90    3.60
  -6  -3   5    0.40    1.70
   5   3  -5    6.70    1.30
  -5  -3   5   11.20    1.60
  -5  -3   5    7.80    1.50
   4   3  -5    8.90    1.40
  -4  -3   5    6.70    1.70
  -4  -3   5    5.60    1.50
  -4  -3   5   10.00    1.90
   3   3  -5    5.90    1.40
  -3  -3   5    3.50    1.60
  -3  -3   5    4.50    1.70
  -3  -3   5    6.30    2.00
   2   3  -5    0.20    1.30
  -2  -3   5    1.40    1.30
  -2  -3   5   -0.60    1.80
   1   3  -5   76.19    4.40
  -1  -3   5   80.49    5.10
  -1  -3   5   81.89    4.90
  -1  -3   5   79.49    4.70
   0   3  -5    0.20    1.20
   0  -3   5   -0.10    1.30
   0  -3   5    0.90    1.60
  -1   3  -5   75.89    4.30
   1  -3   5   76.09    4.50
   1  -3   5   71.39    4.80
  -2   3  -5  497.25   24.30
  -2   3  -5  504.15   23.90
   2  -3   5  506.95   24.20
  -3   3  -5  103.39    5.40
  -3   3  -5   97.19    5.90
   3  -3   5   96.99    5.70
  -5   3  -5    0.50    1.40
   5  -3   5    0.20    1.50
   6   2  -5   40.30    2.40
   5   2  -5    2.30    1.20
  -5  -2   5    3.50    1.40
  -5  -2   5    4.80    1.30
  -5  -2   5    2.70    2.20
   4   2  -5    9.30    1.50
  -4  -2   5   11.80    2.40
  -4  -2   5   11.90    1.70
   3   2  -5  109.49    5.70
  -3  -2   5  106.89    5.70
  -3  -2   5  106.29    6.50
   2   2  -5    2.30    1.50
  -2  -2   5    2.30    1.20
   1   2  -5    2.60    1.20
  -1  -2   5    2.50    1.80
  -1  -2   5    1.90    1.30
   0   2  -5   63.19    3.60
   0  -2   5   52.39    5.40
   0  -2   5   62.49    3.90
   0  -2   5   59.49    4.30
  -1   2  -5  177.18    8.60
  -1   2  -5  166.18    9.20
   1  -2   5  168.48    9.10
   1  -2   5  175.08    8.70
  -2   2  -5   93.89    5.80
   2  -2   5   81.29    4.80
  -3   2  -5   18.80    2.20
  -3   2  -5   19.60    1.90
   3  -2   5   14.50    2.20
   3  -2   5   18.50    1.90
  -4   2  -5  357.76   17.70
   4  -2   5  356.16   17.40
   4  -2   5  377.76   18.00
   5  -2   5   18.10    3.10
   5  -2   5   14.90    1.80
  -6   2  -5  756.42   36.70
   6  -2   5  798.52   36.60
   6   1  -5    1.70    0.60
   5   1  -5   71.69    3.90
  -5  -1   5   70.59    4.00
  -5  -1   5   69.99    5.40
   4   1  -5   39.80    2.70
  -4  -1   5   36.00    4.50
  -4  -1   5   35.40    2.80
   3   1  -5    6.40    1.20
  -3  -1   5   -0.30    2.50
  -3  -1   5    5.70    1.40
   2   1  -5   51.09    3.30
  -2  -1   5   57.39    3.70
  -2  -1   5   46.00    4.70
   1   1  -5  127.19    7.00
   1   1  -5  123.79    6.20
  -1  -1   5  118.39    7.10
  -1  -1   5  118.09    7.80
  -1  -1   5  116.59    6.30
   0   1  -5   87.59    5.30
   0   1  -5   90.89    4.80
   0   1  -5   90.29    6.00
   0  -1   5   91.49    5.10
   0  -1   5   84.59    5.10
   0  -1   5   92.29    5.40
  -1   1  -5    0.40    1.80
  -1   1  -5    2.20    1.20
  -1   1  -5   -0.50    1.90
   1  -1   5    0.60    1.20
   1  -1   5    1.40    1.70
   1  -1   5    0.60    1.50
   1  -1   5    1.30    1.10
   1  -1   5    1.20    2.30
  -2   1  -5   42.80    3.00
  -2   1  -5   38.80    3.10
  -2   1  -5   41.10    4.60
   2  -1   5   35.50    3.60
   2  -1   5   32.90    4.10
   2  -1   5   39.20    3.70
   2  -1   5   38.70    2.80
  -3   1  -5   86.29    4.90
   3  -1   5   87.69    4.90
   3  -1   5   83.59    5.60
  -4   1  -5  175.88    8.50
   4  -1   5  160.48    9.30
   4  -1   5  160.88    8.40
   5  -1   5   10.20    1.40
  -6   1  -5   47.30    3.10
   6  -1   5   45.50    2.60
  -7   1  -5    0.60    1.20
  -7   1  -5    2.90    1.00
   7  -1   5    1.30    0.80
   6   0  -5    2.50    0.80
  -6   0   5    1.20    0.80
   5   0  -5    1.90    1.00
  -5   0   5    2.20    1.30
   4   0  -5   35.90    2.50
  -4   0   5   35.40    2.80
   3   0  -5   -1.10    1.10
  -3   0   5    0.60    1.30
   2   0  -5   13.00    1.40
   2   0  -5   11.00    3.00
  -2   0   5   13.70    1.70
  -2   0   5    8.50    4.00
   1   0  -5   24.70    2.50
   1   0  -5   17.50    2.20
   1   0  -5   16.30    2.80
  -1   0   5   20.80    2.50
  -1   0   5   16.90    2.80
  -1   0   5   21.40    2.20
  -1   0   5   18.20    2.50
   0   0  -5    5.50    1.40
   0   0  -5    3.50    1.40
   0   0   5    2.60    1.30
   0   0   5    2.50    1.00
   0   0   5    2.50    2.10
   0   0   5    2.10    1.70
   0   0   5    0.20    1.00
  -1   0  -5    3.00    1.50
  -1   0  -5    4.60    1.60
  -1   0  -5   -1.90    1.30
   1   0   5    0.50    1.20
   1   0   5   -1.10    1.40
   1   0   5   -0.20    1.00
  -2   0  -5  213.78    9.80
  -2   0  -5  187.58   10.40
  -2   0  -5  194.48    9.80
  -2   0  -5  191.18   10.10
   2   0   5  196.58   10.80
   2   0   5  201.68    9.80
   2   0   5  186.38    9.60
   2   0   5  191.98    9.80
  -3   0  -5  202.08   10.20
  -3   0  -5  208.18   10.80
  -3   0  -5  194.58   10.80
   3   0   5  214.58   10.30
  -4   0  -5   -0.80    1.80
  -4   0  -5   -1.70    1.20
  -4   0  -5   -0.70    3.00
   4   0   5    0.30    1.30
  -5   0  -5   96.29    6.20
  -5   0  -5  113.29    5.80
   5   0   5  109.09    5.80
  -6   0  -5   51.69    3.80
  -7   0  -5    4.70    1.60
  -7   0  -5    5.70    1.00
   7   0   5    6.70    0.80
   6  -1  -5    0.60    1.00
   5  -1  -5    6.50    1.00
  -5   1   5    8.50    1.40
   4  -1  -5    2.20    1.00
  -4   1   5    1.20    1.50
   3  -1  -5   27.80    2.30
   3  -1  -5   29.40    4.10
  -3   1   5   32.30    2.90
   2  -1  -5    3.20    2.10
   2  -1  -5    6.30    1.40
  -2   1   5    7.50    1.60
  -2   1   5    7.00    2.30
   1  -1  -5   72.59    4.70
   1  -1  -5   80.09    4.10
   1  -1  -5   81.09    5.20
  -1   1   5   71.79    4.40
  -1   1   5   72.19    4.90
  -1   1   5   72.49    5.80
  -1   1   5   72.79    4.60
  -1   1   5   77.19    4.60
   0  -1  -5  103.49    5.60
   0  -1  -5   91.89    5.20
   0  -1  -5  100.69    5.50
   0   1   5  100.49    5.30
   0   1   5   99.29    5.20
   0   1   5   95.29    5.50
   0   1   5   92.49    6.10
  -1  -1  -5   23.70    2.00
  -1  -1  -5   22.90    2.50
   1   1   5   22.60    2.20
   1   1   5   21.90    2.40
   1   1   5   23.30    2.80
   1   1   5   25.80    2.30
  -2  -1  -5  192.28    9.50
  -2  -1  -5  165.38    8.50
   2   1   5  168.88    8.60
   2   1   5  172.78    8.70
   2   1   5  151.28    8.50
   2   1   5  172.58    9.70
  -3  -1  -5    0.90    3.00
  -3  -1  -5   -3.10    2.70
  -3  -1  -5    1.10    1.10
  -3  -1  -5    1.20    1.80
   3   1   5   -0.10    1.50
  -4  -1  -5   24.20    3.40
  -4  -1  -5   20.60    2.10
  -5  -1  -5  335.47   16.60
  -5  -1  -5  371.26   17.00
  -5  -1  -5  339.97   16.40
   5   1   5  308.27   16.40
  -6  -1  -5    0.50    1.40
  -6  -1  -5    0.30    1.70
   6   1   5    0.60    1.20
  -7  -1  -5  164.08    8.20
  -7  -1  -5  163.58    7.90
  -7  -1  -5  155.38    7.60
   7   1   5  144.19    7.70
   5  -2  -5    1.20    0.80
  -5   2   5    1.20    1.20
   4  -2  -5   11.60    1.60
  -4   2   5   10.10    1.80
   3  -2  -5   27.10    2.20
   3  -2  -5   25.80    3.40
  -3   2   5   27.00    3.00
   2  -2  -5   23.50    2.80
   2  -2  -5   27.50    2.40
  -2   2   5   22.30    3.00
  -2   2   5   31.60    2.80
   1  -2  -5    4.90    2.90
   1  -2  -5    2.30    1.10
   1  -2  -5    4.30    1.60
  -1   2   5    8.20    2.10
  -1   2   5    4.60    1.20
   0  -2  -5   27.10    3.30
   0  -2  -5   26.10    2.50
   0   2   5   26.70    2.50
   0   2   5   33.00    3.30
   0   2   5   32.20    3.00
  -1  -2  -5    1.80    1.20
  -1  -2  -5   -0.30    1.50
   1   2   5    0.30    2.60
   1   2   5   -0.70    1.60
   1   2   5   -0.50    1.20
   1   2   5    0.10    1.40
  -2  -2  -5   11.00    2.30
  -2  -2  -5   10.60    1.40
  -2  -2  -5    8.40    1.80
  -2  -2  -5   11.10    2.40
   2   2   5   12.20    2.00
   2   2   5    6.90    2.90
   2   2   5    8.70    1.70
   2   2   5   13.40    1.50
  -3  -2  -5   20.20    2.00
  -3  -2  -5   22.40    2.40
  -3  -2  -5   20.40    3.30
   3   2   5   16.00    2.20
   3   2   5   17.90    2.10
  -4  -2  -5   43.40    4.10
   4   2   5   43.00    3.60
  -5  -2  -5    1.00    1.30
  -5  -2  -5    0.80    1.70
  -5  -2  -5    3.40    1.10
   5   2   5    3.10    1.70
  -6  -2  -5    0.20    1.90
  -6  -2  -5    3.10    1.40
  -6  -2  -5    1.70    1.80
  -6  -2  -5    3.00    2.40
   6   2   5    1.70    1.40
  -7  -2  -5  149.19    7.90
  -7  -2  -5  146.39    7.60
   7   2   5  148.69    7.40
   5  -3  -5   28.70    2.90
  -5   3   5   27.90    1.90
   4  -3  -5   12.90    2.20
  -4   3   5   15.00    2.00
   3  -3  -5    6.40    1.30
   3  -3  -5    8.60    1.80
  -3   3   5    8.60    2.00
   2  -3  -5   13.70    1.90
  -2   3   5   17.80    2.30
  -2   3   5   15.20    2.00
  -1   3   5    4.00    2.50
  -1   3   5    2.80    1.30
   0  -3  -5   33.20    3.00
   0  -3  -5   37.90    3.80
   0  -3  -5   34.20    2.70
   0   3   5   33.20    2.70
  -1  -3  -5   -0.90    2.40
  -1  -3  -5    1.60    1.80
  -1  -3  -5    0.70    1.10
  -1  -3  -5    1.90    2.20
  -1  -3  -5    0.00    1.50
   1   3   5    4.20    1.70
   1   3   5    1.80    1.60
  -2  -3  -5   96.49    5.30
  -2  -3  -5   89.39    5.50
  -2  -3  -5  101.19    5.90
  -2  -3  -5   94.69    5.00
   2   3   5   78.99    5.50
   2   3   5   84.09    5.30
  -3  -3  -5  110.69    6.00
  -3  -3  -5  107.39    6.20
  -3  -3  -5  123.89    6.80
  -4  -3  -5   -0.20    1.50
  -4  -3  -5   -0.70    1.70
  -5  -3  -5   13.70    1.60
  -5  -3  -5   13.50    2.20
  -5  -3  -5   12.20    2.20
   5   3   5   13.10    2.40
  -6  -3  -5    0.40    1.90
  -6  -3  -5   -0.80    1.70
   6   3   5    1.30    1.80
  -7  -3  -5    1.00    1.70
  -7  -3  -5   -0.90    1.30
   7   3   5    1.00    1.40
   4  -4  -5    1.50    1.10
  -4   4   5   -0.20    1.60
  -3   4   5   52.39    5.00
   2  -4  -5   15.90    1.90
  -2   4   5   17.80    2.70
  -2   4   5   17.30    2.00
   1  -4  -5   10.10    1.60
  -1   4   5    3.10    3.20
  -1   4   5   10.20    1.40
   0  -4  -5    1.30    1.50
   0  -4  -5    3.40    1.20
   0  -4  -5    4.40    2.60
   0   4   5    1.10    1.30
  -1  -4  -5    9.40    1.60
  -1  -4  -5    7.00    2.20
  -1  -4  -5    9.50    1.40
   1   4   5   10.80    2.10
  -2  -4  -5    4.10    1.80
  -2  -4  -5    5.70    1.60
  -2  -4  -5    1.70    1.60
  -2  -4  -5    3.30    1.20
   2   4   5    7.60    2.40
  -3  -4  -5    4.90    1.80
  -3  -4  -5    1.90    1.30
  -3  -4  -5    5.40    1.50
  -3  -4  -5    3.00    2.20
  -4  -4  -5  224.98   11.30
  -4  -4  -5  210.68   11.00
  -5  -4  -5  102.49    6.50
  -5  -4  -5  105.19    6.00
  -6  -4  -5   23.90    3.40
  -6  -4  -5   22.30    2.10
  -7  -4  -5   29.20    2.20
  -7  -4  -5   32.20    3.60
   7   4   5   23.50    3.20
   3  -5  -5    0.90    0.90
  -3   5   5    3.20    2.30
   2  -5  -5    1.40    1.30
  -2   5   5    6.10    3.20
  -2   5   5    1.20    1.10
   1  -5  -5   62.59    3.90
  -1   5   5   62.99    3.70
   0  -5  -5   40.40    5.40
   0  -5  -5   45.40    3.40
   0  -5  -5   42.40    3.10
   0   5   5   43.00    3.10
  -1  -5  -5    1.30    1.10
  -1  -5  -5    0.50    1.50
  -1  -5  -5    1.00    1.50
  -1  -5  -5   -0.90    1.30
   1   5   5    2.70    1.90
  -2  -5  -5    5.30    1.50
  -2  -5  -5    5.20    1.70
  -2  -5  -5    3.80    1.20
  -2  -5  -5    5.50    1.20
   2   5   5    0.50    2.30
  -3  -5  -5   12.10    2.10
  -3  -5  -5   16.40    2.00
  -4  -5  -5   28.50    3.40
  -4  -5  -5   28.10    2.40
  -5  -5  -5    1.90    1.80
  -5  -5  -5    2.60    1.60
  -6  -5  -5  231.88   11.20
  -6  -5  -5  209.78   11.30
  -7  -5  -5   43.40    2.80
  -7  -5  -5   32.20    3.00
   3  -6  -5    5.00    0.90
   2  -6  -5    0.70    1.10
  -2   6   5    1.10    0.70
   0  -6  -5    7.70    1.40
   0  -6  -5    6.20    2.40
   0  -6  -5    6.20    1.60
   0   6   5    7.50    1.30
  -1  -6  -5   44.00    3.40
  -1  -6  -5   45.00    2.90
  -1  -6  -5   41.70    4.10
  -1  -6  -5   40.40    3.20
   1   6   5   40.70    3.20
  -2  -6  -5   13.80    1.80
  -2  -6  -5   13.40    1.90
  -2  -6  -5   11.50    1.90
   2   6   5   16.30    2.20
  -3  -6  -5    8.10    1.70
  -3  -6  -5    6.50    1.90
  -3  -6  -5    2.10    1.70
  -4  -6  -5   50.69    4.20
  -4  -6  -5   55.09    4.30
  -4  -6  -5   53.89    3.40
  -5  -6  -5    6.30    3.00
  -6  -6  -5    1.70    2.00
  -6  -6  -5    0.20    1.10
  -7  -6  -5    1.60    1.30
   1  -7  -5    4.10    1.10
   1  -7  -5    7.00    1.10
  -1   7   5    4.20    1.00
   0  -7  -5    6.30    2.40
   0  -7  -5    2.20    1.00
   0  -7  -5    3.40    1.10
   0   7   5    2.60    0.80
  -1  -7  -5    9.50    1.40
  -1  -7  -5    6.60    1.90
  -1  -7  -5    9.70    1.40
  -1  -7  -5    9.90    2.20
   1   7   5   13.00    1.30
   2   7   5    4.70    1.80
  -3  -7  -5    4.10    2.00
  -3  -7  -5    1.70    1.20
  -4  -7  -5   -1.50    1.30
  -4  -7  -5   -0.70    1.80
  -4  -7  -5   -1.70    1.50
  -5  -7  -5   55.39    4.30
  -5  -7  -5   54.89    3.40
  -6  -7  -5   90.89    5.20
  -6  -7  -5   92.49    4.90
   0  -8  -5    0.60    1.10
   0   8   5    1.10    0.60
  -1  -8  -5    0.40    1.40
  -1  -8  -5    0.20    0.80
   1   8   5    1.10    0.80
  -2  -8  -5   27.70    3.20
  -2  -8  -5   23.60    2.00
  -2  -8  -5   22.00    1.90
   2   8   5   23.70    1.90
  -3  -8  -5    6.60    1.20
  -3  -8  -5    4.60    1.30
  -3  -8  -5    4.50    1.10
   3   8   5    7.90    2.40
  -4  -8  -5    3.60    1.10
  -4  -8  -5    2.50    1.30
  -4  -8  -5    4.50    1.20
  -5  -8  -5   95.59    5.30
   2   6  -6    1.10    0.70
  -2  -6   6    1.60    1.10
   1   6  -6    2.40    0.70
  -1  -6   6    3.70    2.90
   0   6  -6    3.70    0.90
   0  -6   6    4.90    1.40
  -1   6  -6    3.70    0.80
   1  -6   6    1.50    1.20
   4   5  -6    0.20    0.70
  -4  -5   6    1.20    1.00
  -4  -5   6    1.10    0.90
   3   5  -6    0.00    0.70
  -3  -5   6   -0.30    1.00
  -3  -5   6    1.40    1.10
   2   5  -6   28.80    2.30
  -2  -5   6   27.20    2.90
  -2  -5   6   29.70    2.40
  -2  -5   6   25.50    3.00
   1   5  -6   12.10    1.40
  -1  -5   6   10.50    1.40
  -1  -5   6    7.30    1.70
  -1  -5   6    7.00    2.10
   0   5  -6    4.20    1.10
   0  -5   6    5.20    1.80
   0  -5   6    3.70    1.30
  -1   5  -6   12.70    1.70
   1  -5   6   16.10    2.00
  -2   5  -6    5.90    1.00
   2  -5   6    4.10    1.20
   3  -5   6    0.00    0.80
  -5  -4   6    4.60    1.90
   4   4  -6   17.80    1.70
  -4  -4   6    9.80    1.90
  -4  -4   6   13.20    1.80
   3   4  -6   25.10    2.20
  -3  -4   6   22.00    2.20
  -3  -4   6   24.10    2.50
  -3  -4   6   26.80    2.40
   2   4  -6    8.30    1.20
  -2  -4   6    7.50    1.30
  -2  -4   6    7.50    1.90
  -2  -4   6    7.90    2.10
   1   4  -6    4.70    1.30
  -1  -4   6   10.00    2.20
  -1  -4   6    2.40    1.30
  -1  -4   6    7.10    1.50
   0   4  -6  145.19    7.40
   0  -4   6  149.09    7.60
   0  -4   6  140.89    8.00
   0  -4   6  144.89    8.00
  -1   4  -6   25.70    2.20
   1  -4   6   29.60    2.70
  -2   4  -6   10.70    2.30
  -2   4  -6    7.80    2.20
  -3   4  -6    0.40    2.20
   3  -4   6   -0.10    1.40
  -4   4  -6   19.70    2.70
   4  -4   6   17.50    1.80
   5   3  -6    2.00    0.60
  -5  -3   6   -0.80    2.10
  -5  -3   6    0.60    1.20
   4   3  -6   61.49    3.50
  -4  -3   6   61.39    4.40
  -4  -3   6   65.39    4.10
  -4  -3   6   58.39    3.40
   3   3  -6    2.20    1.10
  -3  -3   6    0.00    1.70
  -3  -3   6    2.20    1.20
  -3  -3   6   -2.00    2.10
   2   3  -6   39.80    2.70
  -2  -3   6   38.40    3.90
  -2  -3   6   40.40    2.90
  -2  -3   6   39.10    3.40
   1   3  -6   19.70    2.00
  -1  -3   6   16.10    2.20
  -1  -3   6   22.10    2.50
  -1  -3   6   14.80    2.30
   0   3  -6    0.70    1.10
   0  -3   6    5.60    1.90
   0  -3   6    0.20    1.30
   0  -3   6    1.00    2.40
  -1   3  -6   16.60    3.10
  -1   3  -6   22.30    2.10
   1  -3   6   20.90    2.40
  -2   3  -6   91.79    5.90
  -2   3  -6   91.69    4.90
   2  -3   6   94.09    5.40
  -3   3  -6   92.99    5.60
   3  -3   6   91.09    5.40
  -4   3  -6    2.90    1.70
   4  -3   6    1.50    1.80
  -5   3  -6    7.30    1.10
   5  -3   6    3.80    1.60
   5   2  -6    1.30    0.70
  -5  -2   6    1.50    1.30
   4   2  -6   -0.10    1.40
  -4  -2   6   -2.00    1.20
  -4  -2   6   -2.60    2.60
   3   2  -6    0.90    1.10
  -3  -2   6    2.90    1.20
  -3  -2   6    1.10    2.50
   2   2  -6    0.40    1.10
  -2  -2   6    2.90    2.40
  -2  -2   6    1.00    1.30
   1   2  -6    0.20    1.10
  -1  -2   6    1.40    2.20
  -1  -2   6    1.10    1.40
   0   2  -6   26.70    2.30
   0  -2   6   24.40    3.60
   0  -2   6   29.10    2.60
  -1   2  -6    4.00    2.30
  -1   2  -6    5.20    1.20
   1  -2   6    6.40    1.60
  -2   2  -6    2.30    1.80
  -2   2  -6    3.20    1.10
   2  -2   6    2.10    1.60
   2  -2   6    1.40    1.60
  -3   2  -6    4.20    1.70
   3  -2   6    2.00    1.50
   3  -2   6    4.40    1.90
  -4   2  -6   -1.50    1.40
   4  -2   6    2.30    1.40
   4  -2   6    2.40    2.00
  -5   2  -6  105.19    5.30
   5  -2   6   95.89    5.00
   5  -2   6   97.39    6.40
  -6   2  -6  131.49    6.50
   5   1  -6  312.47   15.30
  -5  -1   6  318.07   15.30
  -5  -1   6  334.17   15.50
   4   1  -6   -1.40    1.40
  -4  -1   6    1.30    1.40
   3   1  -6    7.60    1.20
  -3  -1   6    7.20    1.40
   2   1  -6   11.70    1.50
  -2  -1   6   10.10    1.50
   1   1  -6   12.10    2.90
   1   1  -6   20.40    1.90
  -1  -1   6   18.80    2.20
   0   1  -6    0.80    2.20
   0   1  -6    4.90    1.30
   0  -1   6    2.20    2.70
  -1   1  -6   47.00    3.80
   1  -1   6   50.39    3.30
  -2   1  -6    0.90    1.60
  -2   1  -6   -1.00    1.30
   2  -1   6    2.40    1.80
   2  -1   6   -0.10    1.20
  -3   1  -6   40.80    3.20
   3  -1   6   38.40    3.90
   3  -1   6   41.40    2.80
  -4   1  -6    8.60    1.60
   4  -1   6    6.20    1.30
   4  -1   6    8.30    2.60
  -6   1  -6   13.50    1.80
   6  -1   6   12.40    1.40
   5   0  -6  651.03   30.70
   4   0  -6    7.90    1.30
  -4   0   6    9.80    1.60
   3   0  -6  685.13   31.70
  -3   0   6  653.03   31.80
   2   0  -6   17.80    1.90
   2   0  -6   15.40    3.00
  -2   0   6   17.20    1.90
   1   0  -6   99.09    5.20
   1   0  -6   98.79    5.90
  -1   0   6   99.69    5.50
   0   0  -6  100.89    5.30
   0   0  -6  104.69    5.90
   0   0   6  100.19    5.60
   0   0   6  103.09    5.30
  -1   0  -6   40.70    3.30
  -1   0  -6   40.90    3.00
   1   0   6   40.90    3.00
   1   0   6   43.20    3.00
  -2   0  -6   13.50    2.00
  -2   0  -6   12.00    2.60
  -2   0  -6   14.80    1.80
   2   0   6   19.40    2.70
  -3   0  -6  157.48    8.30
  -3   0  -6  155.48    8.00
   3   0   6  149.69    8.00
  -4   0  -6   -0.10    1.20
   4   0   6    2.10    1.20
  -5   0  -6    6.20    1.40
  -5   0  -6    8.30    2.70
   5   0   6    8.80    1.10
  -6   0  -6   61.99    3.70
   6   0   6   64.49    3.60
  -7   0  -6    8.70    1.00
  -7   0  -6    8.20    1.30
   7   0   6    7.30    0.90
   5  -1  -6   -0.20    1.00
  -5   1   6    0.20    0.70
   4  -1  -6    4.30    1.20
  -4   1   6    9.40    1.90
   3  -1  -6  256.57   12.00
   3  -1  -6  237.18   12.70
  -3   1   6  247.18   12.30
   2  -1  -6   55.19    4.30
   2  -1  -6   55.59    3.30
  -2   1   6   56.59    3.90
   1  -1  -6  252.17   12.30
  -1   1   6  258.17   12.90
   0  -1  -6    0.30    1.50
   0  -1  -6   -1.60    1.00
   0   1   6   -2.00    1.80
   0   1   6   -0.50    1.40
  -1  -1  -6  136.79    8.10
  -1  -1  -6  154.98    7.50
  -1  -1  -6  140.19    7.40
   1   1   6  163.18    7.40
   1   1   6  133.99    8.30
   1   1   6  140.89    7.70
  -2  -1  -6   37.50    4.40
  -2  -1  -6   37.50    4.40
  -2  -1  -6   41.50    2.90
   2   1   6   35.70    4.90
   2   1   6   39.80    2.80
  -3  -1  -6   -0.70    1.10
  -3  -1  -6   -1.30    2.00
   3   1   6   -0.40    1.20
  -4  -1  -6   64.29    4.70
  -4  -1  -6   52.39    4.60
  -4  -1  -6   56.39    3.60
   4   1   6   57.89    3.70
  -5  -1  -6   27.20    2.60
  -5  -1  -6   24.30    2.40
  -5  -1  -6   24.40    2.80
   5   1   6   30.60    2.60
  -6  -1  -6   19.50    2.00
  -6  -1  -6   25.00    3.00
   6   1   6   24.10    2.30
  -7  -1  -6    7.40    1.50
   7   1   6    6.70    0.80
  -5   2   6   21.60    1.60
   4  -2  -6    4.00    2.70
   4  -2  -6    4.90    1.20
  -4   2   6    2.30    1.40
   3  -2  -6    6.30    2.10
   3  -2  -6    2.50    1.00
  -3   2   6    2.80    1.20
   2  -2  -6   30.30    3.30
   2  -2  -6   36.90    2.60
  -2   2   6   33.90    3.40
  -2   2   6   33.40    2.80
   1  -2  -6   23.10    2.70
   1  -2  -6   21.50    2.10
  -1   2   6   22.60    2.50
  -1   2   6   21.80    2.10
   0  -2  -6   15.30    2.50
  -1  -2  -6   13.50    3.70
  -1  -2  -6   10.40    1.50
  -1  -2  -6   16.70    2.90
   1   2   6    9.40    1.40
  -2  -2  -6   10.30    2.40
  -2  -2  -6   11.40    1.40
  -2  -2  -6   11.10    2.50
   2   2   6    8.70    1.80
  -3  -2  -6    5.40    2.10
  -3  -2  -6    4.50    1.60
  -3  -2  -6    4.60    1.20
  -4  -2  -6   17.00    2.40
  -4  -2  -6   16.80    2.10
  -4  -2  -6   15.10    2.30
   4   2   6   18.80    1.90
  -5  -2  -6    0.80    1.40
  -5  -2  -6   -1.30    1.10
  -5  -2  -6    2.80    1.90
   5   2   6    0.60    1.50
  -6  -2  -6    1.80    1.40
  -6  -2  -6   -1.20    2.80
  -6  -2  -6    1.70    1.80
  -7  -2  -6   11.00    1.60
   7   2   6   14.20    1.40
   4  -3  -6  272.07   13.30
   2  -3  -6   11.60    1.80
  -2   3   6    9.90    1.30
   1  -3  -6    4.10    1.40
  -1   3   6    3.70    2.20
  -1   3   6    1.50    1.20
   0  -3  -6    4.60    1.30
   0   3   6    3.80    3.10
   0   3   6    2.00    1.20
  -1  -3  -6    2.70    2.00
  -1  -3  -6    2.10    1.20
  -1  -3  -6   -1.50    2.80
  -2  -3  -6    1.00    1.70
  -2  -3  -6    2.60    2.10
  -3  -3  -6   85.09    4.90
  -3  -3  -6   80.69    4.50
  -3  -3  -6   71.79    5.40
   3   3   6   86.39    5.90
  -4  -3  -6    1.10    1.80
  -4  -3  -6    0.90    1.30
  -4  -3  -6    2.70    1.70
   4   3   6    2.50    1.70
  -5  -3  -6   21.30    2.30
  -5  -3  -6   24.40    2.70
  -5  -3  -6   21.00    2.80
   5   3   6   24.40    2.80
  -6  -3  -6   27.40    2.40
   6   3   6   25.00    2.70
  -7  -3  -6    9.80    1.30
   7   3   6    9.00    1.10
   4  -4  -6   12.60    1.70
  -4   4   6   18.70    2.00
   3  -4  -6    4.80    1.60
  -3   4   6    4.10    1.90
   2  -4  -6  267.87   12.60
  -2   4   6  253.17   12.30
  -2   4   6  240.98   12.80
   1  -4  -6   78.29    4.50
  -1   4   6   72.39    4.20
  -1   4   6   74.19    5.80
   0  -4  -6   37.00    2.90
   0   4   6   36.20    2.80
  -1  -4  -6    3.10    2.40
  -1  -4  -6    0.80    1.60
  -1  -4  -6    3.20    1.20
   1   4   6    3.30    1.40
  -2  -4  -6   44.10    3.30
  -2  -4  -6   39.40    4.20
   2   4   6   41.90    3.40
  -3  -4  -6    2.90    1.70
  -3  -4  -6   -0.60    1.80
  -3  -4  -6    2.60    1.30
   3   4   6   -1.40    2.20
  -4  -4  -6    1.50    1.20
  -4  -4  -6    0.20    1.40
  -4  -4  -6    0.50    1.80
   4   4   6    0.00    2.00
  -5  -4  -6    7.70    2.00
  -5  -4  -6    6.20    1.90
   5   4   6    1.50    1.90
  -6  -4  -6    8.30    1.60
  -6  -4  -6   12.50    1.80
   6   4   6   12.90    2.00
  -7  -4  -6    0.90    0.90
  -7  -4  -6    2.10    1.30
   7   4   6    2.00    1.00
   3  -5  -6   20.90    1.70
  -3   5   6   19.00    2.60
   2  -5  -6   13.30    1.60
  -2   5   6    8.70    3.00
  -2   5   6   13.20    1.50
   1  -5  -6    1.10    1.30
  -1   5   6    1.50    1.10
   0  -5  -6   42.00    3.00
   0   5   6   43.70    3.00
  -1  -5  -6   75.49    4.40
  -1  -5  -6   70.29    4.50
  -1  -5  -6   74.99    5.70
  -1  -5  -6   73.79    4.40
   1   5   6   76.59    4.50
  -2  -5  -6    2.80    1.50
  -2  -5  -6    3.10    2.00
  -2  -5  -6   -0.80    1.50
   2   5   6    1.50    1.70
  -3  -5  -6   -0.20    1.60
  -3  -5  -6   -1.30    1.80
  -3  -5  -6    1.40    1.90
  -3  -5  -6    0.00    1.60
   3   5   6    0.40    2.00
  -4  -5  -6   37.80    3.10
  -4  -5  -6   37.00    3.20
   4   5   6   37.20    4.00
  -5  -5  -6   -1.00    1.50
  -5  -5  -6   -1.80    1.80
  -6  -5  -6   -0.30    1.20
  -6  -5  -6    0.80    1.10
  -7  -5  -6    0.70    1.20
  -7  -5  -6    2.00    1.30
   2  -6  -6    0.50    0.90
   2  -6  -6    0.50    0.70
   1  -6  -6   36.10    2.50
   1  -6  -6   36.60    2.60
  -1   6   6   35.80    2.50
   0  -6  -6    2.80    2.50
  -1  -6  -6    4.10    1.50
  -1  -6  -6    1.30    1.10
  -1  -6  -6    1.10    1.90
  -1  -6  -6    2.80    1.10
   1   6   6    3.10    1.00
  -2  -6  -6    2.50    1.30
  -2  -6  -6    4.30    1.10
  -2  -6  -6    2.20    1.50
  -2  -6  -6    5.50    1.60
   2   6   6    4.40    1.60
  -3  -6  -6   23.10    2.50
  -3  -6  -6   27.20    3.40
  -3  -6  -6   21.10    3.00
   3   6   6   18.30    2.30
  -4  -6  -6   17.50    2.30
  -4  -6  -6   13.90    1.80
  -5  -6  -6   -0.10    1.10
  -5  -6  -6    0.20    1.90
  -6  -6  -6    1.00    1.20
  -6  -6  -6   -1.90    1.40
   1  -7  -6    8.50    1.20
  -1   7   6    8.60    1.20
   0  -7  -6    0.90    0.90
   0  -7  -6    0.10    0.90
   0   7   6    0.70    0.70
  -1  -7  -6    9.30    2.50
  -1  -7  -6   10.50    1.40
   1   7   6    7.80    1.40
  -2  -7  -6    0.80    0.90
  -2  -7  -6    1.20    1.40
  -2  -7  -6    0.40    1.00
   2   7   6    0.70    1.00
  -3  -7  -6   16.90    2.40
  -3  -7  -6   18.10    2.20
   3   7   6   17.00    2.20
  -4  -7  -6   24.40    2.40
  -4  -7  -6   28.30    2.70
  -5  -7  -6    6.90    1.90
  -5  -7  -6    7.00    1.30
  -6  -7  -6   12.10    1.30
  -6  -7  -6   10.10    1.60
  -1  -8  -6   11.20    2.50
   1   8   6   16.30    1.30
  -2  -8  -6    0.10    0.80
  -2  -8  -6    1.10    1.30
   2   8   6    0.30    1.10
  -3  -8  -6    4.90    1.40
  -3  -8  -6    1.90    1.20
   3   8   6    1.60    1.50
  -4  -8  -6    0.90    1.20
  -4  -8  -6    0.80    0.90
   2   5  -7   11.60    1.10
  -2  -5   7    8.50    1.30
   1   5  -7   48.70    2.90
  -1  -5   7   49.40    2.80
  -1  -5   7   58.19    4.50
   0   5  -7    0.40    0.60
   0  -5   7    1.00    1.00
  -1   5  -7   26.70    1.80
   1  -5   7   26.20    2.00
   2  -5   7    5.20    1.10
  -3  -4   7    4.90    1.60
  -3  -4   7    6.70    1.40
   2   4  -7   14.60    1.40
  -2  -4   7    9.20    2.10
  -2  -4   7   13.90    1.90
  -2  -4   7   14.10    1.70
   1   4  -7    0.60    1.00
  -1  -4   7   -2.00    1.40
  -1  -4   7    1.20    1.20
  -1  -4   7   -0.10    1.30
   0   4  -7    6.80    0.90
   0  -4   7    6.40    2.70
   0  -4   7    4.50    1.40
  -1   4  -7    3.10    1.00
   1  -4   7    1.40    0.90
  -2   4  -7    5.60    1.30
  -2   4  -7    7.00    3.30
   2  -4   7    8.30    1.20
  -3   4  -7   10.80    1.90
   3  -4   7    9.10    1.20
   4   3  -7  130.49    6.40
   3   3  -7    2.80    0.70
  -3  -3   7    3.30    1.10
  -3  -3   7    4.20    1.30
  -3  -3   7    3.50    2.60
   2   3  -7   72.99    4.60
  -2  -3   7   66.09    4.10
  -2  -3   7   62.29    4.40
   1   3  -7   -2.10    1.00
  -1  -3   7   -2.00    2.50
  -1  -3   7   -0.60    1.20
  -1  -3   7   -0.10    1.40
   0   3  -7   13.90    1.80
   0  -3   7   14.50    1.70
   0  -3   7   14.00    2.60
  -1   3  -7    1.20    1.00
   1  -3   7    0.00    1.30
  -2   3  -7    3.40    2.30
  -2   3  -7    2.80    1.20
  -3   3  -7    1.60    1.40
   3  -3   7    0.90    1.60
  -4   3  -7   38.10    2.80
   4  -3   7   32.00    2.50
   4   2  -7    0.60    0.60
  -4  -2   7    0.20    1.10
  -4  -2   7    0.40    0.70
   3   2  -7    7.50    0.90
  -3  -2   7    6.20    1.30
   2   2  -7  163.28    8.00
  -2  -2   7  159.98    8.20
   1   2  -7    3.60    1.10
  -1  -2   7   -1.00    2.90
  -1  -2   7    2.60    1.30
   0   2  -7   76.89    5.50
   0   2  -7   68.99    3.90
   0  -2   7   67.59    4.30
   0  -2   7   62.29    4.70
  -1   2  -7   10.70    1.30
  -1   2  -7    7.60    2.30
   1  -2   7    8.20    1.70
  -2   2  -7   19.20    2.30
  -2   2  -7   15.90    2.20
   2  -2   7   19.00    2.20
  -3   2  -7   14.70    2.00
   3  -2   7   12.50    2.00
  -4   2  -7   33.60    2.90
   4  -2   7   30.40    3.50
  -5   2  -7   23.80    1.80
   5  -2   7   25.10    3.00
   4   1  -7  145.29    7.10
  -4  -1   7  145.79    7.30
   3   1  -7    3.50    1.50
   2   1  -7   37.30    2.40
  -2  -1   7   32.60    2.80
   1   1  -7   -1.20    1.00
   1   1  -7   -0.70    1.90
  -1  -1   7    0.50    1.30
   0   1  -7   42.00    4.10
   0   1  -7   49.70    3.10
   0  -1   7   47.10    3.50
  -1   1  -7    4.70    1.40
  -1   1  -7    4.90    1.30
   1  -1   7    4.00    1.70
  -2   1  -7   50.99    3.70
  -2   1  -7   42.20    3.40
   2  -1   7   50.79    3.90
   2  -1   7   50.59    3.00
  -3   1  -7    5.60    1.70
   3  -1   7    3.00    2.10
   3  -1   7    6.70    1.20
  -5   1  -7    6.30    1.40
   5  -1   7    6.30    1.00
  -6   1  -7    5.80    0.90
   4   0  -7    0.60    0.80
  -4   0   7    0.70    1.10
   3   0  -7  362.76   19.90
  -3   0   7  475.95   20.20
   2   0  -7  135.69    8.00
   2   0  -7  149.09    7.10
  -2   0   7  137.69    7.40
   1   0  -7   77.89    4.20
   1   0  -7   76.29    5.00
  -1   0   7   78.19    4.60
   0   0  -7   45.50    3.60
   0   0  -7   46.20    2.80
   0   0   7   45.40    3.30
   0   0   7   48.50    3.40
  -1   0  -7    0.50    1.00
  -1   0  -7    2.10    1.20
   1   0   7    1.60    1.50
   1   0   7    0.20    1.70
  -2   0  -7   -0.50    1.40
   2   0   7   -0.10    1.20
   2   0   7    0.30    1.50
  -3   0  -7    0.00    1.40
   3   0   7    1.20    1.10
   3   0   7    2.90    2.50
  -4   0  -7    0.50    1.20
   4   0   7    0.50    0.80
  -5   0  -7    2.00    1.20
   5   0   7    0.50    1.10
  -6   0  -7   12.60    1.60
   6   0   7   12.30    1.40
   4  -1  -7    2.00    1.00
  -4   1   7    1.60    0.90
   2  -1  -7    0.70    0.90
   2  -1  -7    1.90    2.00
  -2   1   7   -1.50    1.60
   1  -1  -7 1366.06   63.49
   1  -1  -7 1366.16   63.09
  -1   1   7 1334.57   63.39
  -1   1   7 1308.57   63.19
   0  -1  -7   73.39    4.10
   0   1   7   77.59    4.60
   0   1   7   73.49    4.20
  -1  -1  -7  349.37   16.40
   1   1   7  339.57   16.60
   1   1   7  322.87   16.20
  -2  -1  -7    2.30    1.30
  -2  -1  -7    3.20    2.80
   2   1   7    0.50    2.50
   2   1   7    4.00    1.20
  -3  -1  -7    9.20    2.30
  -3  -1  -7    7.70    1.40
   3   1   7    5.10    1.40
  -4  -1  -7    1.50    1.30
  -4  -1  -7    5.10    2.10
   4   1   7    3.00    1.20
  -5  -1  -7   15.20    1.80
  -6  -1  -7    0.40    1.00
   6   1   7    0.40    0.80
  -4   2   7    1.90    1.20
   3  -2  -7   55.89    4.20
   3  -2  -7   49.50    3.50
  -3   2   7   64.09    3.80
   2  -2  -7    9.00    1.90
   2  -2  -7    7.70    1.30
  -2   2   7   10.10    2.00
   1  -2  -7  291.57   13.80
  -1   2   7  274.37   13.80
  -1   2   7  268.37   13.40
   0  -2  -7    8.30    1.60
   0   2   7    5.00    2.10
   0   2   7    6.80    1.30
   1   2   7 1083.29   52.19
   1   2   7 1118.29   51.89
  -2  -2  -7   57.19    3.50
  -2  -2  -7   47.10    5.10
   2   2   7   62.49    3.60
  -3  -2  -7  501.55   24.40
  -3  -2  -7  478.95   24.10
  -3  -2  -7  494.65   23.90
   3   2   7  519.95   23.80
  -4  -2  -7   26.00    3.50
  -4  -2  -7   28.70    2.60
  -4  -2  -7   28.20    3.60
   4   2   7   30.30    2.60
  -5  -2  -7   67.19    4.80
  -5  -2  -7   65.19    4.10
   5   2   7   65.19    3.90
  -6  -2  -7   32.60    2.40
  -6  -2  -7   32.80    3.00
   6   2   7   34.20    2.20
   7   2   7   11.50    1.10
   4  -3  -7    1.40    2.00
  -4   3   7    8.10    1.00
   3  -3  -7    8.50    1.80
  -3   3   7   11.00    1.40
   2  -3  -7   10.30    1.80
   1  -3  -7  131.49    6.70
   1  -3  -7  117.49    7.00
  -1   3   7  126.79    6.30
  -1   3   7  119.79    7.20
   0  -3  -7   56.99    4.60
   0  -3  -7   62.49    3.70
   0   3   7   56.89    5.10
   0   3   7   64.89    3.60
  -1  -3  -7   40.20    3.80
  -1  -3  -7   43.90    3.10
   1   3   7   37.70    2.80
  -2  -3  -7    2.50    2.50
  -2  -3  -7    5.10    2.10
  -2  -3  -7    1.80    1.20
   2   3   7    3.00    1.30
  -3  -3  -7  188.08    9.60
  -3  -3  -7  201.28   10.10
  -3  -3  -7  190.28    9.90
   3   3   7  187.38    9.60
  -4  -3  -7   46.80    3.40
  -4  -3  -7   45.80    4.30
  -4  -3  -7   55.89    3.50
   4   3   7   50.39    3.40
  -5  -3  -7  109.29    6.70
   5   3   7  113.39    6.00
  -6  -3  -7   -1.40    1.70
  -6  -3  -7   -0.10    1.20
   6   3   7    0.90    1.20
  -7  -3  -7   26.80    2.80
   7   3   7   39.80    2.10
   3  -4  -7    5.50    1.40
  -3   4   7    9.60    1.40
   2  -4  -7  162.68    8.30
  -2   4   7  162.88    8.60
   1  -4  -7    0.00    1.20
   1  -4  -7   -1.80    2.50
  -1   4   7    1.60    1.10
   0  -4  -7  107.59    6.00
   0  -4  -7  107.09    5.70
   0   4   7   99.99    5.50
  -1  -4  -7   61.59    3.90
  -1  -4  -7   60.89    4.20
   1   4   7   64.59    3.80
  -2  -4  -7   38.10    4.50
  -2  -4  -7   40.80    2.80
  -2  -4  -7   40.00    3.30
   2   4   7   38.60    3.00
  -3  -4  -7    4.00    1.20
  -3  -4  -7    8.20    1.90
  -3  -4  -7    3.80    2.10
   3   4   7    5.00    1.50
  -4  -4  -7    1.80    1.40
  -4  -4  -7    1.20    1.70
  -4  -4  -7   -0.10    1.90
   4   4   7    2.90    1.50
  -5  -4  -7    4.60    2.90
   5   4   7    1.50    1.50
  -6  -4  -7    2.70    1.20
  -6  -4  -7    2.70    1.30
   6   4   7    1.00    1.30
  -7  -4  -7    2.00    1.30
   7   4   7    3.10    1.10
   2  -5  -7    0.50    1.10
   2  -5  -7   -0.30    1.00
  -2   5   7   -3.40    3.90
   1  -5  -7   -1.60    1.50
   1  -5  -7   -0.10    0.80
  -1   5   7    1.90    0.70
   0  -5  -7  268.47   13.80
   0   5   7  295.57   13.70
  -1  -5  -7   25.20    2.30
  -1  -5  -7   25.40    2.70
   1   5   7   22.50    2.30
  -2  -5  -7  237.48   11.20
  -2  -5  -7  193.48   11.70
  -2  -5  -7  230.68   10.90
   2   5   7  227.38   11.00
  -3  -5  -7   23.20    2.30
  -3  -5  -7   18.70    2.60
  -3  -5  -7   23.00    2.50
   3   5   7   21.10    2.60
  -4  -5  -7    6.50    1.50
  -4  -5  -7    4.50    1.70
  -5  -5  -7    6.80    1.70
  -5  -5  -7    7.40    1.50
   5   5   7    5.20    1.60
  -6  -5  -7    0.80    1.30
  -6  -5  -7   -0.80    1.00
   6   5   7    2.50    1.40
   1  -6  -7    1.70    1.40
   1  -6  -7    1.70    1.00
  -1   6   7    2.60    1.00
   0  -6  -7    3.50    1.10
   0  -6  -7    3.60    1.10
   0   6   7    4.00    1.00
  -1  -6  -7    1.60    1.40
   1   6   7    2.40    0.90
  -2  -6  -7  136.29    7.00
  -2  -6  -7  141.99    7.50
  -2  -6  -7  127.29    6.70
   2   6   7  137.09    7.00
  -3  -6  -7   55.79    4.70
  -3  -6  -7   54.99    3.70
   3   6   7   56.59    3.70
  -4  -6  -7  113.69    6.20
  -4  -6  -7  111.99    5.90
   4   6   7  102.19    5.80
  -5  -6  -7   23.40    2.00
  -5  -6  -7   21.70    2.40
   5   6   7   19.70    2.00
  -6  -6  -7   28.80    2.40
  -6  -6  -7   26.80    1.90
   0  -7  -7    9.20    1.20
   0  -7  -7   10.90    1.50
   0   7   7    9.90    1.30
  -1  -7  -7    4.80    1.00
   1   7   7    6.20    0.80
  -2  -7  -7   -0.70    0.90
  -2  -7  -7    2.30    2.30
   2   7   7    0.00    0.70
  -3  -7  -7   15.50    1.50
  -3  -7  -7   15.30    2.30
   3   7   7   18.60    2.00
  -4  -7  -7   19.60    2.00
  -4  -7  -7   13.70    2.20
   4   7   7   13.00    1.60
  -5  -7  -7   23.60    1.70
  -5  -7  -7   20.00    2.20
   2   4  -8   19.10    1.30
  -2  -4   8   17.20    1.80
   1   4  -8    0.50    0.60
  -1  -4   8   -1.00    1.40
  -1  -4   8   -0.30    0.90
   0   4  -8    1.10    0.80
   0  -4   8    1.80    0.80
   1  -4   8   41.30    2.50
   2  -4   8   13.20    1.30
   3   3  -8    4.60    0.70
  -3  -3   8    4.80    1.10
   2   3  -8   36.00    2.10
  -2  -3   8   32.80    2.50
  -2  -3   8   36.00    2.30
   1   3  -8   22.90    1.80
  -1  -3   8   21.70    1.70
  -1  -3   8   18.80    2.50
   0   3  -8    1.50    1.00
   0  -3   8    0.80    0.80
   0  -3   8    2.80    2.80
  -1   3  -8    0.40    0.90
  -1   3  -8    3.20    3.10
   1  -3   8    0.50    0.90
  -2   3  -8    6.70    1.70
   2  -3   8    5.80    1.40
  -3   3  -8    7.90    1.90
   3  -3   8    7.90    1.50
   3   2  -8   10.30    1.30
  -3  -2   8   10.20    1.20
  -3  -2   8    9.60    1.70
   2   2  -8   41.40    2.30
  -2  -2   8   38.70    2.70
  -2  -2   8   41.00    2.80
   1   2  -8    5.60    1.10
  -1  -2   8    3.00    1.40
  -1  -2   8    4.20    1.50
   0   2  -8   96.89    6.70
   0  -2   8  105.19    6.10
  -1   2  -8   56.69    3.40
  -1   2  -8   54.09    4.50
  -2   2  -8   26.90    3.00
   2  -2   8   20.90    2.20
  -3   2  -8    0.80    1.60
   3  -2   8    3.50    1.80
  -4   2  -8   15.30    1.60
   4  -2   8   13.70    1.70
   3   1  -8    3.60    0.90
  -3  -1   8    3.20    0.90
   2   1  -8    1.70    0.90
  -2  -1   8    3.00    1.30
   1   1  -8   47.10    4.70
   1   1  -8   46.80    2.80
  -1  -1   8   49.30    3.30
   0   1  -8   80.99    5.40
   0   1  -8   83.39    4.40
   0  -1   8   78.99    4.80
  -1   1  -8   -0.20    1.80
  -1   1  -8    1.40    1.20
   1  -1   8    0.90    1.10
  -2   1  -8  148.79    7.90
   2  -1   8  151.98    8.00
  -3   1  -8    5.70    1.70
   3  -1   8    6.80    2.20
   3  -1   8   10.50    2.40
  -4   1  -8   42.90    3.10
   4  -1   8   45.00    4.40
  -5   1  -8   -0.50    0.80
  -4   0   8    4.00    1.30
  -4   0   8    4.30    0.70
   3   0  -8    1.90    0.90
  -3   0   8    2.80    1.20
   2   0  -8   19.90    1.80
   2   0  -8   13.30    3.10
  -2   0   8   22.70    2.30
   1   0  -8    4.50    1.00
   1   0  -8    4.10    1.50
  -1   0   8    6.00    1.50
   0   0  -8   83.69    4.50
   0   0  -8   92.19    5.30
   0   0   8   86.19    5.20
  -1   0  -8   24.40    2.40
   1   0   8   26.40    2.50
   1   0   8   28.20    3.10
  -2   0  -8   30.20    2.90
   2   0   8   41.30    3.70
   2   0   8   32.50    2.40
  -3   0  -8   -0.10    1.50
   3   0   8   -0.60    3.80
   3   0   8    0.90    1.00
  -4   0  -8  120.99    6.30
   4   0   8  114.69    6.00
  -5   0  -8    1.00    1.10
   5   0   8   -0.40    0.90
   3  -1  -8    1.40    3.00
  -3   1   8    3.60    1.20
   2  -1  -8   23.90    2.20
   2  -1  -8   26.10    3.40
  -2   1   8   28.20    2.60
   1  -1  -8   62.39    3.80
   1  -1  -8   60.59    3.60
  -1   1   8   66.79    4.10
   0  -1  -8   73.59    4.70
   0   1   8   78.79    4.60
   0   1   8   77.89    4.40
  -1  -1  -8  104.69    5.60
   1   1   8  101.09    5.60
   1   1   8  105.89    6.30
  -2  -1  -8  272.57   13.00
   2   1   8  260.27   13.50
   2   1   8  255.77   12.80
  -3  -1  -8   -0.50    0.90
   3   1   8    0.90    1.20
   4   1   8   17.00    2.30
  -5  -1  -8    1.50    1.10
   5   1   8    2.80    0.70
  -6  -1  -8    9.30    1.40
   6   1   8   10.40    1.00
  -3   2   8    1.90    0.90
  -2   2   8   -0.60    1.40
  -1   2   8    5.70    1.80
   0  -2  -8   31.00    2.70
   0   2   8   31.00    3.40
   0   2   8   26.40    2.20
  -1  -2  -8  548.25   26.10
   1   2   8  515.55   26.30
   1   2   8  567.94   25.90
  -2  -2  -8   51.19    3.60
   2   2   8   58.19    3.40
  -3  -2  -8  404.26   20.10
  -3  -2  -8  399.46   19.60
   3   2   8  415.26   19.50
  -4  -2  -8  131.69    6.90
   4   2   8  134.39    6.80
  -5  -2  -8   19.30    1.90
   5   2   8   19.50    1.60
   6   2   8   16.20    1.30
  -3   3   8    0.30    0.90
   2  -3  -8    4.30    1.50
  -2   3   8    0.40    1.70
   1  -3  -8   46.30    3.30
  -1   3   8   45.20    2.90
  -1   3   8   43.00    3.80
   0   3   8   11.30    2.40
   0   3   8    7.00    1.20
  -1  -3  -8    2.80    1.30
   1   3   8    2.00    1.10
  -2  -3  -8    5.10    1.30
   2   3   8    3.80    1.20
  -3  -3  -8  758.72   38.20
  -3  -3  -8  831.82   37.80
   3   3   8  805.02   37.80
  -4  -3  -8   52.19    4.50
   4   3   8   58.89    3.30
  -5  -3  -8  685.63   30.80
  -5  -3  -8  610.64   31.00
  -5  -3  -8  642.74   31.30
   5   3   8  668.03   30.90
  -6  -3  -8   14.90    2.60
   6   3   8   23.90    1.60
   2  -4  -8   30.20    2.20
  -2   4   8   33.10    2.70
   1  -4  -8    1.40    1.30
  -1   4   8    4.30    1.20
  -1   4   8    7.40    1.90
   0  -4  -8    2.90    2.10
   0   4   8    3.20    1.10
  -1  -4  -8  106.99    5.70
   1   4   8  107.49    5.50
  -2  -4  -8    1.90    2.80
  -2  -4  -8    0.70    1.20
   2   4   8   -1.00    0.80
  -3  -4  -8   19.10    2.00
  -3  -4  -8   37.60    5.10
   3   4   8   20.70    2.20
  -4  -4  -8    0.80    2.10
  -4  -4  -8    1.80    1.30
  -4  -4  -8    0.90    1.50
   4   4   8    1.10    1.20
  -5  -4  -8  297.17   14.40
  -5  -4  -8  284.77   14.00
   5   4   8  280.77   13.80
  -6  -4  -8   48.20    3.20
   6   4   8   47.30    2.70
   1  -5  -8    5.30    1.90
   1  -5  -8    7.70    1.20
   0  -5  -8   -0.20    1.60
   0   5   8    0.70    0.70
  -1  -5  -8   35.90    3.00
  -1  -5  -8   34.90    2.50
   1   5   8   34.80    2.50
  -2  -5  -8   49.99    3.20
  -2  -5  -8   51.09    3.10
   2   5   8   51.99    3.00
  -3  -5  -8   45.20    4.70
  -3  -5  -8   51.09    3.60
  -3  -5  -8   47.60    2.90
   3   5   8   54.49    3.20
  -4  -5  -8    3.70    1.50
  -4  -5  -8    2.00    1.70
   4   5   8    2.50    1.20
  -5  -5  -8   32.20    3.40
  -5  -5  -8   30.00    2.30
   5   5   8   29.40    2.00
  -6  -5  -8   10.90    1.50
  -6  -5  -8   12.10    1.50
   6   5   8   14.70    1.70
   0  -6  -8    9.10    1.60
   0  -6  -8    5.90    1.00
   0   6   8    8.50    1.20
  -1  -6  -8    2.60    1.40
  -1  -6  -8    1.70    1.00
   1   6   8    3.20    0.90
  -2  -6  -8   22.10    2.00
  -2  -6  -8   24.80    2.00
   2   6   8   24.60    2.10
  -3  -6  -8    8.40    1.30
  -3  -6  -8    6.80    1.70
   3   6   8    5.60    0.90
  -4  -6  -8  194.18    9.30
  -4  -6  -8  189.98    9.90
   4   6   8  184.78    9.20
  -5  -6  -8   20.50    2.20
  -5  -6  -8   18.30    1.60
   5   6   8   29.00    3.00
  -2  -7  -8   47.10    3.30
   2   7   8   41.10    2.50
  -3  -7  -8    9.20    1.00
  -3  -7  -8    7.80    2.30
   3   7   8    5.30    1.00
   0  -3   9   16.70    1.50
   1  -3   9    0.80    0.80
   2   2  -9    7.40    1.00
  -2  -2   9    7.00    0.90
  -2  -2   9    8.60    1.30
   1   2  -9    1.00    1.00
  -1  -2   9   -1.20    1.80
  -1  -2   9    1.50    1.00
   0  -2   9    9.30    1.30
  -1   2  -9    2.30    1.60
   1  -2   9    1.10    0.90
  -2   2  -9   -2.60    1.20
   2  -2   9   -0.10    1.00
  -3   2  -9   -1.00    1.20
   3  -2   9    1.80    1.40
  -2  -1   9   14.90    1.40
  -2  -1   9   12.50    1.60
   1   1  -9    3.70    1.20
  -1  -1   9    2.70    0.90
  -1  -1   9    3.90    1.30
   0   1  -9    9.10    1.70
   0  -1   9    7.40    1.20
   0  -1   9    6.20    1.70
  -1   1  -9    0.60    1.30
   1  -1   9   -0.70    1.40
  -2   1  -9   41.60    3.20
   2  -1   9   39.80    3.40
  -3   1  -9   21.30    1.90
   3  -1   9   16.50    2.30
  -4   1  -9   18.60    1.50
   4  -1   9   10.10    2.80
  -2   0   9   16.80    1.50
   1   0  -9    9.30    1.70
  -1   0   9    4.10    1.40
   0   0  -9   -0.40    1.40
   0   0   9   -1.00    1.50
  -1   0  -9    8.10    1.70
   1   0   9    7.20    1.90
  -2   0  -9   -0.30    1.50
   2   0   9   -1.30    1.90
  -3   0  -9   14.50    1.70
   3   0   9   10.90    2.50
   3   0   9   16.00    2.10
  -4   0  -9   76.29    4.10
   2  -1  -9    7.60    2.80
  -2   1   9    5.60    1.00
   1  -1  -9   52.89    3.40
  -1   1   9   54.69    3.70
   0  -1  -9   41.50    3.40
   0   1   9   39.10    3.40
  -1  -1  -9   -0.10    1.10
   1   1   9   -0.90    1.40
   1   1   9    0.70    2.50
  -2  -1  -9   -1.20    1.30
   2   1   9    0.30    1.00
   2   1   9    1.90    2.60
  -3  -1  -9    7.70    1.50
   3   1   9    6.80    1.10
  -4  -1  -9    0.20    0.70
   4   1   9   -2.10    0.80
  -5  -1  -9   15.60    1.30
   5   1   9   14.90    1.40
   2  -2  -9    4.50    1.30
  -2   2   9    2.80    1.10
   1  -2  -9   11.20    1.70
  -1   2   9   11.70    1.90
   0  -2  -9   21.20    2.50
   0   2   9   28.90    3.30
  -1  -2  -9   48.90    3.10
   1   2   9   47.10    3.90
   1   2   9   46.60    2.90
  -2  -2  -9   24.80    2.10
   2   2   9   24.40    2.10
  -3  -2  -9    6.90    1.20
   3   2   9    7.10    1.30
  -4  -2  -9   63.39    3.40
   4   2   9   57.89    3.20
  -5  -2  -9    1.00    0.90
   5   2   9   -0.10    0.60
   2  -3  -9    2.50    1.10
  -2   3   9    0.90    1.20
   1  -3  -9   21.60    1.80
  -1   3   9   21.60    2.30
   0  -3  -9   -0.10    1.20
   0   3   9   -0.60    1.40
   0   3   9   -0.90    2.00
  -1  -3  -9    6.20    1.40
   1   3   9    7.20    1.10
  -2  -3  -9   34.10    2.60
   2   3   9   31.10    2.30
  -3  -3  -9    0.70    0.70
   3   3   9    0.40    0.70
  -4  -3  -9   13.50    1.70
   4   3   9   16.60    1.50
   5   3   9   91.59    4.70
   1  -4  -9    1.40    0.80
  -1   4   9   -4.60    3.10
   0  -4  -9    1.20    1.10
   0   4   9    1.70    1.00
  -1  -4  -9    0.40    1.10
   1   4   9    1.70    0.70
  -2  -4  -9   14.50    1.80
   2   4   9   12.50    1.30
  -3  -4  -9   10.90    1.20
   3   4   9    7.10    1.20
  -4  -4  -9    3.60    1.10
  -4  -4  -9    2.70    1.60
   4   4   9    4.90    0.80
  -5  -4  -9   57.79    3.70
   5   4   9   59.09    3.10
   0  -5  -9   16.90    1.60
  -1  -5  -9    7.90    0.90
   1   5   9    5.80    0.90
  -2  -5  -9   15.20    1.60
   2   5   9   18.00    1.60
  -3  -5  -9    2.50    1.60
  -3  -5  -9    2.40    3.00
   3   5   9   -0.10    0.90
  -4  -5  -9    7.10    2.80
  -4  -5  -9    8.70    1.90
   4   5   9    7.50    0.90
  -2  -6  -9    8.40    1.90
   2   6   9    6.10    0.90
  -3  -6  -9   38.30    2.90
   3   6   9   40.60    2.40
   0   1 -10   10.50    1.90
  -1   1 -10   -0.30    1.20
   1  -1  10   -1.90    1.00
   0   0  10   63.29    3.80
  -1   0 -10   10.20    1.30
   1   0  10    6.90    1.60
  -2   0 -10   40.00    2.80
  -3   0 -10    4.10    0.90
   3   0  10    3.60    2.80
   1  -1 -10   -0.40    1.70
   0  -1 -10    8.00    1.60
   0   1  10    8.20    1.40
  -1  -1 -10   17.70    2.00
   1   1  10   15.90    2.30
  -2  -1 -10   -0.30    0.80
  -3  -1 -10   -0.30    0.70
   0  -2 -10    2.50    1.00
   0   2  10   -1.30    1.80
  -1  -2 -10    2.50    0.90
   1   2  10   -2.20    2.70
  -2  -2 -10   12.20    1.70
   3   2  10    9.20    1.20
  -4  -2 -10   20.30    1.70
   4   2  10   20.80    1.70
   0  -3 -10   -0.40    0.70
   0   3  10   -5.60    3.10
  -1  -3 -10   17.40    1.80
  -2  -3 -10    0.00    0.60
   2   3  10   -0.10    0.80
  -3  -3 -10   17.90    1.60
   3   3  10   17.30    1.50
  -4  -3 -10   31.90    2.00
   4   3  10   32.90    2.20
  -1  -4 -10   44.10    2.40
  -2  -4 -10    0.30    0.90
   2   4  10    1.20    1.00
  -3  -4 -10   11.70    1.30
   3   4  10   11.10    1.30

_computing_structure_solution     'SHELXT 2014/4 (Sheldrick, 2014)'
;
_shelx_hkl_checksum              47011
loop_
_space_group_symop_operation_xyz
'x, y, z'
'-x, -y, -z'
loop_
_atom_site_type_symbol
_atom_site_label
_atom_site_fract_x
_atom_site_fract_y
_atom_site_fract_z
_atom_site_U_iso_or_equiv
_atom_site_adp_type
_atom_site_calc_flag
_atom_site_refinement_flags_adp
_atom_site_refinement_flags_posn
_atom_site_occupancy
O O1 0.35410(14) 0.23462(12) 0.44979(11) 0.0176(3) Uani d . . 1
O O2 0.42675(16) 0.19993(13) 0.19797(12) 0.0238(3) Uani d . . 1
C C1 0.3641(2) 0.30905(19) 0.29355(17) 0.0177(3) Uani d . . 1
C C2 0.2990(2) 0.51001(18) 0.25744(16) 0.0160(3) Uani d . . 1
H H2 0.3026 0.5633 0.1502 0.019 Uiso calc U R 1
C C3 0.23348(19) 0.62510(18) 0.36897(16) 0.0143(3) Uani d . . 1
C C4 0.2303(2) 0.54163(19) 0.53307(15) 0.0140(3) Uani d . . 1
C C5 0.1721(2) 0.64440(19) 0.66090(16) 0.0168(3) Uani d . . 1
H H5 0.1286 0.7765 0.6421 0.02 Uiso calc U R 1
C C6 0.1771(2) 0.5562(2) 0.81346(16) 0.0188(3) Uani d . . 1
H H6 0.1366 0.6278 0.8985 0.023 Uiso calc U R 1
C C7 0.2414(2) 0.3622(2) 0.84285(16) 0.0191(3) Uani d . . 1
H H7 0.2459 0.3022 0.9479 0.023 Uiso calc U R 1
C C8 0.2989(2) 0.25694(19) 0.71955(16) 0.0172(3) Uani d . . 1
H H8 0.3421 0.1248 0.739 0.021 Uiso calc U R 1
C C9 0.2921(2) 0.34737(19) 0.56757(16) 0.0146(3) Uani d . . 1
C C10 0.1665(2) 0.83397(18) 0.33032(16) 0.0165(3) Uani d . . 1
H H10A 0.2572 0.8867 0.3729 0.02 Uiso calc U R 1
H H10B 0.0233 0.8801 0.3852 0.02 Uiso calc U R 1
C C11 0.1716(2) 0.90800(19) 0.15603(16) 0.0192(3) Uani d . . 1
H H11A 0.3134 0.8669 0.1004 0.029 Uiso calc U R 1
H H11B 0.1256 1.0444 0.1429 0.029 Uiso calc U R 1
H H11C 0.0789 0.8603 0.1127 0.029 Uiso calc U R 1
loop_
_atom_site_aniso_label
_atom_site_aniso_U_11
_atom_site_aniso_U_22
_atom_site_aniso_U_33
_atom_site_aniso_U_12
_atom_site_aniso_U_13
_atom_site_aniso_U_23
O1 0.0216(5) 0.0127(5) 0.0180(5) -0.0033(4) -0.0042(4) -0.0021(4)
O2 0.0320(6) 0.0170(5) 0.0226(5) -0.0027(4) -0.0068(4) -0.0074(4)
C1 0.0164(7) 0.0174(7) 0.0207(7) -0.0046(6) -0.0059(5) -0.0026(5)
C2 0.0163(7) 0.0151(7) 0.0165(7) -0.0042(6) -0.0045(5) -0.0002(5)
C3 0.0106(6) 0.0138(7) 0.0190(7) -0.0036(5) -0.0038(5) -0.0011(5)
C4 0.0105(6) 0.0151(7) 0.0164(7) -0.0035(5) -0.0030(5) -0.0011(5)
C5 0.0150(7) 0.0144(7) 0.0201(7) -0.0027(5) -0.0025(5) -0.0020(5)
C6 0.0158(7) 0.0220(7) 0.0182(7) -0.0033(6) -0.0016(5) -0.0054(6)
C7 0.0154(7) 0.0254(8) 0.0154(7) -0.0067(6) -0.0033(5) 0.0028(6)
C8 0.0140(7) 0.0145(7) 0.0220(7) -0.0047(5) -0.0029(5) 0.0017(5)
C9 0.0117(6) 0.0144(7) 0.0188(7) -0.0041(5) -0.0027(5) -0.0035(5)
C10 0.0172(7) 0.0137(7) 0.0178(7) -0.0031(5) -0.0026(5) -0.0019(5)
C11 0.0222(7) 0.0132(6) 0.0204(7) -0.0029(6) -0.0054(6) 0.0012(5)
loop_
_atom_type_symbol
_atom_type_description
_atom_type_scat_dispersion_real
_atom_type_scat_dispersion_imag
_atom_type_scat_source
C C 0.0181 0.0091 'International Tables Vol C Tables 4.2.6.8 and 6.1.1.4'
H H 0.0000 0.0000 'International Tables Vol C Tables 4.2.6.8 and 6.1.1.4'
O O 0.0492 0.0322 'International Tables Vol C Tables 4.2.6.8 and 6.1.1.4'
loop_
_geom_angle_atom_site_label_1
_geom_angle_atom_site_label_2
_geom_angle_atom_site_label_3
_geom_angle
C1 O1 C9 121.27(11)
O2 C1 O1 116.83(13)
O2 C1 C2 125.66(13)
O1 C1 C2 117.51(12)
C3 C2 C1 123.09(13)
C3 C2 H2 118.5
C1 C2 H2 118.5
C2 C3 C4 117.91(12)
C2 C3 C10 122.73(12)
C4 C3 C10 119.35(12)
C9 C4 C5 117.09(13)
C9 C4 C3 118.84(12)
C5 C4 C3 124.06(13)
C6 C5 C4 121.02(13)
C6 C5 H5 119.5
C4 C5 H5 119.5
C5 C6 C7 120.14(13)
C5 C6 H6 119.9
C7 C6 H6 119.9
C8 C7 C6 120.25(13)
C8 C7 H7 119.9
C6 C7 H7 119.9
C9 C8 C7 118.88(13)
C9 C8 H8 120.6
C7 C8 H8 120.6
O1 C9 C8 116.04(12)
O1 C9 C4 121.33(12)
C8 C9 C4 122.61(13)
C3 C10 C11 115.54(11)
C3 C10 H10A 108.4
C11 C10 H10A 108.4
C3 C10 H10B 108.4
C11 C10 H10B 108.4
H10A C10 H10B 107.5
C10 C11 H11A 109.5
C10 C11 H11B 109.5
H11A C11 H11B 109.5
C10 C11 H11C 109.5
H11A C11 H11C 109.5
H11B C11 H11C 109.5
loop_
_geom_bond_atom_site_label_1
_geom_bond_atom_site_label_2
_geom_bond_distance
O1 C1 1.3769(16)
O1 C9 1.3811(16)
O2 C1 1.2119(17)
C1 C2 1.4488(19)
C2 C3 1.3495(19)
C2 H2 0.95
C3 C4 1.4583(19)
C3 C10 1.5064(17)
C4 C9 1.3999(19)
C4 C5 1.4056(18)
C5 C6 1.3815(19)
C5 H5 0.95
C6 C7 1.396(2)
C6 H6 0.95
C7 C8 1.3847(19)
C7 H7 0.95
C8 C9 1.3831(19)
C8 H8 0.95
C10 C11 1.5231(18)
C10 H10A 0.99
C10 H10B 0.99
C11 H11A 0.98
C11 H11B 0.98
C11 H11C 0.98
loop_
_geom_hbond_atom_site_label_D
_geom_hbond_atom_site_label_H
_geom_hbond_atom_site_label_A
_geom_hbond_site_symmetry_A
_geom_hbond_distance_DH
_geom_hbond_distance_HA
_geom_hbond_distance_DA
_geom_hbond_angle_DHA
C8 H8 O2 2_656 0.95 2.53 3.4360(17) 159.4
loop_
_geom_torsion_atom_site_label_1
_geom_torsion_atom_site_label_2
_geom_torsion_atom_site_label_3
_geom_torsion_atom_site_label_4
_geom_torsion
C9 O1 C1 O2 177.57(11)
C9 O1 C1 C2 -2.47(18)
O2 C1 C2 C3 -178.91(13)
O1 C1 C2 C3 1.1(2)
C1 C2 C3 C4 0.5(2)
C1 C2 C3 C10 179.87(12)
C2 C3 C4 C9 -0.9(2)
C10 C3 C4 C9 179.76(11)
C2 C3 C4 C5 177.94(12)
C10 C3 C4 C5 -1.4(2)
C9 C4 C5 C6 0.3(2)
C3 C4 C5 C6 -178.53(12)
C4 C5 C6 C7 0.3(2)
C5 C6 C7 C8 -0.6(2)
C6 C7 C8 C9 0.3(2)
C1 O1 C9 C8 -176.65(11)
C1 O1 C9 C4 2.19(19)
C7 C8 C9 O1 179.10(11)
C7 C8 C9 C4 0.3(2)
C5 C4 C9 O1 -179.33(11)
C3 C4 C9 O1 -0.5(2)
C5 C4 C9 C8 -0.6(2)
C3 C4 C9 C8 178.31(12)
C2 C3 C10 C11 1.7(2)
C4 C3 C10 C11 -178.99(11)
