#------------------------------------------------------------------------------
#$Date: 2018-10-05 15:19:55 +0300 (Fri, 05 Oct 2018) $
#$Revision: 211332 $
#$URL: file:///home/coder/svn-repositories/cod/cif/4/12/41/4124144.cif $
#------------------------------------------------------------------------------
#
# This file is available in the Crystallography Open Database (COD),
# http://www.crystallography.net/
#
# All data on this site have been placed in the public domain by the
# contributors.
#
data_4124144
loop_
_publ_author_name
'Liu, Wei'
'Fang, Yang'
'Wei, George Z.'
'Teat, Simon J.'
'Xiong, Kecai'
'Hu, Zhichao'
'Lustig, William P.'
'Li, Jing'
_publ_section_title
;
 A Family of Highly Efficient CuI-Based Lighting Phosphors Prepared by a
 Systematic, Bottom-up Synthetic Approach.
;
_journal_issue                   29
_journal_name_full               'Journal of the American Chemical Society'
_journal_page_first              9400
_journal_page_last               9408
_journal_paper_doi               10.1021/jacs.5b04840
_journal_volume                  137
_journal_year                    2015
_chemical_formula_sum            'C20 H16 Cl4 Cu2 I2 N4'
_chemical_formula_weight         835.05
_space_group_crystal_system      triclinic
_space_group_IT_number           2
_space_group_name_Hall           '-P 1'
_space_group_name_H-M_alt        'P -1'
_symmetry_space_group_name_Hall  '-P 1'
_symmetry_space_group_name_H-M   'P -1'
_atom_sites_solution_hydrogens   geom
_atom_sites_solution_primary     'Intrinsic Phasing'
_atom_sites_solution_secondary   difmap
_audit_creation_method           SHELXL-2014/7
_cell_angle_alpha                90.919(2)
_cell_angle_beta                 94.251(3)
_cell_angle_gamma                102.751(2)
_cell_formula_units_Z            1
_cell_length_a                   7.8020(4)
_cell_length_b                   8.6628(4)
_cell_length_c                   9.4711(5)
_cell_measurement_reflns_used    9250
_cell_measurement_temperature    100(2)
_cell_measurement_theta_max      33.67
_cell_measurement_theta_min      3.47
_cell_volume                     622.28(5)
_computing_cell_refinement       'Bruker SAINT v8.34a'
_computing_data_collection       'Bruker APEX 2'
_computing_data_reduction        'Bruker SAINT v8.34a'
_computing_molecular_graphics    'Bruker SHELXTL'
_computing_publication_material  'Bruker SHELXTL & local programs'
_computing_structure_refinement  'SHELXL-2014/6 (Sheldrick, 2014)'
_computing_structure_solution    'Bruker SHELXTL 2014/4'
_diffrn_ambient_temperature      100(2)
_diffrn_detector_area_resol_mean 10.42
_diffrn_measured_fraction_theta_full 0.962
_diffrn_measured_fraction_theta_max 0.964
_diffrn_measurement_device_type  'Bruker D8 with PHOTON 100 detector'
_diffrn_measurement_method       '\w/\q shutterless scans'
_diffrn_radiation_type           synchrotron
_diffrn_radiation_wavelength     0.7749
_diffrn_reflns_av_R_equivalents  0.0374
_diffrn_reflns_av_unetI/netI     0.0383
_diffrn_reflns_Laue_measured_fraction_full 0.962
_diffrn_reflns_Laue_measured_fraction_max 0.964
_diffrn_reflns_limit_h_max       10
_diffrn_reflns_limit_h_min       -10
_diffrn_reflns_limit_k_max       11
_diffrn_reflns_limit_k_min       -11
_diffrn_reflns_limit_l_max       12
_diffrn_reflns_limit_l_min       0
_diffrn_reflns_number            25032
_diffrn_reflns_point_group_measured_fraction_full 0.962
_diffrn_reflns_point_group_measured_fraction_max 0.964
_diffrn_reflns_theta_full        27.706
_diffrn_reflns_theta_max         31.099
_diffrn_reflns_theta_min         3.470
_diffrn_source                   'Advanced Light Source station 11.3.1'
_exptl_absorpt_coefficient_mu    5.820
_exptl_absorpt_correction_T_max  0.892
_exptl_absorpt_correction_T_min  0.641
_exptl_absorpt_correction_type   multi-scan
_exptl_absorpt_process_details   'TWINABS 2012/1 Bruker AXS Madison WI USA'
_exptl_crystal_colour            yellow
_exptl_crystal_density_diffrn    2.228
_exptl_crystal_description       plate
_exptl_crystal_F_000             396
_exptl_crystal_size_max          0.070
_exptl_crystal_size_mid          0.050
_exptl_crystal_size_min          0.020
_refine_diff_density_max         0.896
_refine_diff_density_min         -1.899
_refine_diff_density_rms         0.206
_refine_ls_extinction_method     none
_refine_ls_goodness_of_fit_ref   1.096
_refine_ls_hydrogen_treatment    constr
_refine_ls_matrix_type           full
_refine_ls_number_parameters     147
_refine_ls_number_reflns         2945
_refine_ls_number_restraints     0
_refine_ls_restrained_S_all      1.096
_refine_ls_R_factor_all          0.0388
_refine_ls_R_factor_gt           0.0366
_refine_ls_shift/su_max          0.000
_refine_ls_shift/su_mean         0.000
_refine_ls_structure_factor_coef Fsqd
_refine_ls_weighting_details
'w=1/[\s^2^(Fo^2^)+(0.0434P)^2^+5.1328P] where P=(Fo^2^+2Fc^2^)/3'
_refine_ls_weighting_scheme      calc
_refine_ls_wR_factor_gt          0.1025
_refine_ls_wR_factor_ref         0.1046
_reflns_Friedel_coverage         0.000
_reflns_number_gt                2813
_reflns_number_total             2945
_reflns_threshold_expression     'I > 2\s(I)'
_cod_data_source_file            ja5b04840_si_001.cif
_cod_data_source_block           wl859d
_cod_depositor_comments
'Adding full bibliography for 4124139--4124146.cif.'
_cod_database_code               4124144
_shelx_shelxl_version_number     2014/7
_shelx_space_group_comment
;
The symmetry employed for this shelxl refinement is uniquely defined
by the following loop, which should always be used as a source of
symmetry information in preference to the above space-group names.
They are only intended as comments.
;
_shelx_estimated_absorpt_t_min   0.686
_shelx_estimated_absorpt_t_max   0.892
_shelx_res_file
;

    twin5.res created by SHELXL-2014/7


TITL wl859d_a.res in P-1
CELL  0.77490   7.8020   8.6628   9.4711   90.919   94.251  102.751
ZERR    1.000   0.0004   0.0004   0.0005    0.002    0.003    0.002
LATT  1
SFAC C H N CL CU I
DISP    Cu    0.29127    1.48033      6565.59
DISP    I    -0.30710    2.12124      9636.59
DISP    Cl    0.16974    0.18956       859.19
DISP    N     0.00762    0.00403        23.92
DISP    C     0.00399    0.00197        13.60
DISP    H     0.00000    0.00000         0.67
UNIT 20 16 4 4 2 2

TEMP -173
SIZE 0.070 0.050 0.020

ACTA

REM yellow plate
REM Structure solved by SHELXT 2014/4
REM Cell refinement by SAINT v8.34a
REM 9250 input reflections Min.2Th 6.942  Max.2Th 67.332

L.S. 10
BOND $H
FMAP 2
PLAN 20

SHEL 999 0.75

WGHT    0.043400    5.132800
BASF   0.06539   0.01467
FVAR       0.85890
I1    6    0.760839    0.456697    0.593022    11.00000    0.00780    0.01330 =
         0.01471    0.00011   -0.00019    0.00411
CU1   5    0.425963    0.445429    0.618325    11.00000    0.00981    0.01064 =
         0.01402   -0.00096    0.00084    0.00254
CL2   4   -0.176960   -0.024399    0.711330    11.00000    0.03432    0.03572 =
         0.04252    0.00121    0.00117    0.00681
CL1   4    0.034169    0.712356    0.993989    11.00000    0.03357    0.04625 =
         0.03645   -0.00380    0.00422    0.01268
N2    3    0.301412    0.213158    0.642274    11.00000    0.01356    0.01137 =
         0.00973   -0.00010   -0.00015    0.00366
N1    3    0.409965    0.580278    0.796799    11.00000    0.01149    0.01015 =
         0.01250    0.00040    0.00102    0.00362
C6    1    0.129463    0.173152    0.664571    11.00000    0.01310    0.01061 =
         0.01424   -0.00245   -0.00104    0.00383
AFIX  43
H6A   2    0.065688    0.254300    0.670704    11.00000   -1.20000
AFIX   0
C7    1    0.042161    0.017306    0.678909    11.00000    0.00990    0.01320 =
         0.01234    0.00285    0.00163   -0.00030
C8    1    0.130395   -0.101810    0.667026    11.00000    0.01780    0.01106 =
         0.01460    0.00110   -0.00260    0.00169
AFIX  43
H8A   2    0.070831   -0.209397    0.673155    11.00000   -1.20000
AFIX   0
C10   1    0.388296    0.095744    0.635402    11.00000    0.01699    0.01326 =
         0.01374    0.00051    0.00027    0.00535
AFIX  43
H10A  2    0.510837    0.122784    0.622702    11.00000   -1.20000
AFIX   0
C4    1    0.550935    0.749125    0.992938    11.00000    0.01305    0.02293 =
         0.01780   -0.00446   -0.00276    0.00166
AFIX  43
H4A   2    0.657104    0.801100    1.045349    11.00000   -1.20000
AFIX   0
C9    1    0.308412   -0.062250    0.645871    11.00000    0.01619    0.01189 =
         0.01961    0.00067    0.00274    0.00673
AFIX  43
H9A   2    0.374010   -0.141928    0.638733    11.00000   -1.20000
AFIX   0
C1    1    0.252870    0.598128    0.835731    11.00000    0.01154    0.01325 =
         0.01450    0.00027    0.00248    0.00343
AFIX  43
H1A   2    0.148277    0.545537    0.781621    11.00000   -1.20000
AFIX   0
C5    1    0.555498    0.654661    0.875596    11.00000    0.01210    0.01785 =
         0.01640   -0.00013   -0.00011    0.00369
AFIX  43
H5A   2    0.666733    0.641606    0.849292    11.00000   -1.20000
AFIX   0
C3    1    0.388034    0.767475    1.033850    11.00000    0.01583    0.02399 =
         0.01578   -0.00389   -0.00036    0.00679
AFIX  43
H3A   2    0.380206    0.830574    1.115072    11.00000   -1.20000
AFIX   0
C2    1    0.240306    0.691445    0.952901    11.00000    0.01372    0.01929 =
         0.01397    0.00090    0.00296    0.00878

HKLF 5

REM  wl859d_a.res in P-1
REM R1 =  0.0366 for    2813 Fo > 4sig(Fo)  and  0.0388 for all    2945 data
REM    147 parameters refined using      0 restraints

END

WGHT      0.0436      5.1296

REM Highest difference peak  0.896,  deepest hole -1.899,  1-sigma level  0.206
Q1    1   0.2545  0.4534  0.5837  11.00000  0.05    0.90
Q2    1   0.8005  0.4593  0.5229  11.00000  0.05    0.85
Q3    1   0.7177  0.4579  0.6563  11.00000  0.05    0.77
Q4    1  -0.0097  0.8229  0.9971  11.00000  0.05    0.69
Q5    1   0.7407  0.3441  0.6712  11.00000  0.05    0.68
Q6    1  -0.1739 -0.0770  0.8106  11.00000  0.05    0.67
Q7    1   0.0574  0.8373  0.9852  11.00000  0.05    0.66
Q8    1   0.0296  0.6791  1.1029  11.00000  0.05    0.65
Q9    1  -0.1963  0.0851  0.6764  11.00000  0.05    0.64
Q10   1   0.8387  0.5741  0.4963  11.00000  0.05    0.64
Q11   1  -0.2152 -0.1373  0.6691  11.00000  0.05    0.63
Q12   1  -0.0425  0.0187  0.6924  11.00000  0.05    0.62
Q13   1   0.7493  0.3420  0.4821  11.00000  0.05    0.60
Q14   1   0.9401  0.4466  0.6097  11.00000  0.05    0.60
Q15   1   0.2186 -0.0812  0.6425  11.00000  0.05    0.59
Q16   1   0.5916  0.3974  0.6041  11.00000  0.05    0.57
Q17   1   0.4149  0.5607  0.7292  11.00000  0.05    0.55
Q18   1   0.5916  0.4994  0.5947  11.00000  0.05    0.54
Q19   1  -0.1610  0.0148  0.8196  11.00000  0.05    0.53
Q20   1   0.3321  0.6037  0.8079  11.00000  0.05    0.52
;
_shelx_res_checksum              25413
_shelx_hkl_file
;
   2   0   0 2231.76 118.515   1
   3   0   0 223.631 5.50942   1
  -4   2   1 2440.07 63.5031  -2
   4   0   0 2440.07 63.5031   1
   5   0   0 2570.78 60.0824   1
  -6   3   1 4937.50 188.283  -2
   6   0   0 4937.50 188.283   1
  -7   2   3 137.688 5.51216  -3
   7   0   0 137.688 5.51216   1
  -8   2   3 185.662 16.2564  -3
   8   0   0 185.662 16.2564   1
   9   0   0 423.251 25.7165   1
 -10   5   2 685.798 39.0253  -2
  10   0   0 685.798 39.0253   1
  11   0   0 606.972 36.1624   1
 -11   1   0 463.104 19.7543   1
 -10   4   2 481.630 28.3815  -2
 -10   1   0 481.630 28.3815   1
  -9   1   0 2552.44 98.2984   1
  -8   1   0 478.427 29.3849   1
  -7   1   0 141.661 4.74226   1
  -6   2   1 3605.43 96.7380  -2
  -6   1   0 3605.43 96.7380   1
  -5   1   0 3010.46 70.2069   1
  -3   1   0 1756.51 52.2430   1
  -2   1   0 237.941 5.66762   1
   3   1   0 336.627 8.17621   1
  -4   3   1 2237.33 66.1671  -2
   4   1   0 2237.33 66.1671   1
   5   1   0 404.941 10.0311   1
  -6   4   1 9999.99 530.975  -2
   6   1   0 9999.99 530.975   1
   7   1   0 189.954 5.44420   1
  -8   5   2 573.828 33.3908  -2
   8   1   0 573.828 33.3908   1
   9   1   0 154.839 12.0826   1
  11   1   0 353.008 16.3413   1
 -11   2   0 329.404 14.8517   1
 -10   3   2 258.990 12.1653  -2
 -10   2   0 258.990 12.1653   1
  -9   2   0 1788.50 69.3027   1
  -8   2   0 10.1974 2.48948   1
  -7   2   0 613.396 19.7533   1
  -6   1   1 1214.64 38.2187  -2
  -6   2   0 1214.64 38.2187   1
  -5   2   0 3283.44 101.700   1
  -4   0   1 2121.95 67.0599  -2
  -4   2   0 2121.95 67.0599   1
  -2   2   0 1142.31 43.7482   1
  -1   2   0 962.209 24.9854   1
   3   2   0 540.021 14.3178   1
  -4   4   1 741.626 26.8003  -2
   4   2   0 741.626 26.8003   1
   5   2   0 257.657 6.69302   1
  -6   5   1 4841.04 182.122  -2
   6   2   0 4841.04 182.122   1
   7   2   0 283.714 7.63548   1
  -8   6   2 351.981 22.1933  -2
   8   2   0 351.981 22.1933   1
   9   2   0 63.8824 5.82293   1
  11   2   0 108.296 12.8273   1
 -11   3   0 654.159 26.8177   1
 -10   2   2 45.3647 5.57585  -2
 -10   3   0 45.3647 5.57585   1
  -9   3   0 2126.11 82.0470   1
  -6  -1   4 1094.87 61.7680  -3
  -7   3   0 1094.87 61.7680   1
  -6   0   1 2591.05 142.966  -2
  -6   3   0 2591.05 142.966   1
  -5   3   0 776.818 30.3815   1
  -4  -1   1 1046.24 58.3668  -2
  -4   3   0 1046.24 58.3668   1
  -2   3   0 296.115 7.09062   1
  -1   3   0 218.182 5.35064   1
   0   3   0 2041.65 60.8207  -2
   0   3   0 2041.65 60.8207   1
   1   3   0 5013.86 266.227   1
   2   3   0 2979.82 69.4895   1
   3   3   0 4010.66 103.277   1
  -4   5   1 57.8859 3.69188  -2
   4   3   0 57.8859 3.69188   1
   5   3   0 71.3120 2.77688   1
  -6   6   1 1547.63 59.4232  -2
   6   3   0 1547.63 59.4232   1
   7   3   0 662.346 21.1400   1
   9   3   0 39.2650 4.67478   1
 -12   2   2 227.727 17.8160  -2
 -12   4   0 227.727 17.8160   1
 -10  -1   6 385.233 25.5081  -3
 -11   4   0 385.233 25.5081   1
 -10   1   2 267.490 17.1924  -2
 -10   4   0 267.490 17.1924   1
  -9  -1   5 287.500 20.4684  -3
 -10   1   2 287.500 20.4684  -2
 -10   4   0 287.500 20.4684   1
  -9   4   0 1296.37 50.7049   1
  -8   4   0 636.201 25.5988   1
  -6  -2   4 1907.38 105.877  -3
  -7   4   0 1907.38 105.877   1
  -6  -1   1 374.870 22.4898  -2
  -6   4   0 374.870 22.4898   1
  -5   4   0 1545.88 59.5759   1
  -3  -3   3 636.897 36.6157  -3
  -4  -2   1 636.897 36.6157  -2
  -4   4   0 636.897 36.6157   1
  -2   4   0 19.2563 1.22636   1
  -1   4   0 2134.34 49.8144   1
   1  -4   1 2901.03 109.176  -3
   0   4   0 2901.03 109.176  -2
   0   4   0 2901.03 109.176   1
   1   4   0 683.364 16.3267   1
   2   4   0 1580.57 37.1470   1
  -4   5   0 3634.11 192.573  -3
   3   4   0 3634.11 192.573   1
  -4   6   1 1056.73 32.3962  -2
   4   4   0 1056.73 32.3962   1
   5   4   0 5.41746 1.41569   1
  -6   7   1 1255.60 49.1171  -2
   6   4   0 1255.60 49.1171   1
   9   4   0 394.191 16.9359   1
 -12   1   2 782.578 46.3257  -2
 -12   5   0 782.578 46.3257   1
 -11   5   0 166.175 9.11911   1
 -10   0   2 26.4513 5.08797  -2
 -10   5   0 26.4513 5.08797   1
  -9   5   0 2254.88 86.9881   1
  -8   5   0 121.442 6.77244   1
  -7   5   0 2007.13 77.8988   1
  -6  -2   1 425.808 25.4587  -2
  -6   5   0 425.808 25.4587   1
  -5   5   0 920.027 35.9579   1
  -4  -3   1 1315.65 73.3381  -2
  -4   5   0 1315.65 73.3381   1
  -3   5   0 4654.99 108.272   1
   2   4   0 584.533 17.9432  -2
  -2   5   0 584.533 17.9432   1
  -1   5   0 2759.64 64.4044   1
   0   5   0 1.62272 1.77220  -2
   0   5   0 1.62272 1.77220   1
   1   5   0 824.118 19.6855   1
   2   5   0 563.240 13.6943   1
   3   5   0 4408.40 102.864   1
  -4   7   1 66.0006 6.20054  -2
   4   5   0 66.0006 6.20054   1
   5   5   0 465.735 19.0367   1
  -6   8   1 585.938 35.5599  -2
   6   5   0 585.938 35.5599   1
   7   5   0 461.772 18.5962   1
   9   5   0 509.925 21.2526   1
 -12   0   2 617.590 37.6328  -2
 -12   6   0 617.590 37.6328   1
 -11   6   0 9.63092 3.45471   1
 -10  -1   2 88.5809 6.80849  -2
 -10   6   0 88.5809 6.80849   1
  -9   6   0 1419.03 55.3353   1
  -8   6   0 309.998 19.6753   1
  -7   6   0 829.141 32.8253   1
  -6  -3   1 2346.27 129.880  -2
  -6   6   0 2346.27 129.880   1
  -5   6   0 535.983 21.5787   1
  -4  -4   1 165.362 12.2636  -2
  -4   6   0 165.362 12.2636   1
  -3   6   0 5559.31 129.345   1
   2   5   0 1277.90 34.7276  -2
  -2   6   0 1277.90 34.7276   1
  -1   6   0 5553.75 129.289   1
   0   6   0 496.538 13.6178  -2
   0   6   0 496.538 13.6178   1
   1   6   0 713.538 17.2313   1
  -2   7   0 1794.04 97.7846  -2
   2   6   0 1794.04 97.7846   1
   3   6   0 2555.65 60.0048   1
  -4   8   1 29.0303 4.78524  -2
   4   6   0 29.0303 4.78524   1
   5   6   0 853.497 31.9906   1
   7   6   0 29.4107 4.66630   1
   9   6   0 786.782 40.3015   1
 -10  -4   7 1238.46 71.2341  -3
 -12  -1   2 1238.46 71.2341  -2
 -12   7   0 1238.46 71.2341   1
 -10  -2   2 477.799 20.2416  -2
 -10   7   0 477.799 20.2416   1
  -9   7   0 494.646 20.5732   1
  -6  -5   5 863.226 50.3274  -3
  -8  -3   1 863.226 50.3274  -2
  -8   7   0 863.226 50.3274   1
  -5  -5   5 1307.26 73.5830  -3
  -7   7   0 1307.26 73.5830   1
  -6  -4   1 1988.27 110.412  -2
  -6   7   0 1988.27 110.412   1
  -5   7   0 49.2573 4.45751   1
  -2  -6   4 120.401 8.34710  -3
  -4  -5   1 120.401 8.34710  -2
  -4   7   0 120.401 8.34710   1
  -4  -5   1 110.590 5.71997  -2
  -4   7   0 110.590 5.71997   1
  -3   7   0 2669.28 62.4494   1
   2   6   0 132.319 5.98328  -2
  -2   7   0 132.319 5.98328   1
  -1   7   0 729.641 17.6177   1
   2  -7   2 1703.19 65.7679  -3
   0   7   0 1703.19 65.7679  -2
   0   7   0 1703.19 65.7679   1
   0   7   0 1740.62 94.5313  -2
   0   7   0 1740.62 94.5313   1
   1   7   0 471.817 11.7759   1
  -2   8   0 267.136 20.4959  -2
   2   7   0 267.136 20.4959   1
   3   7   0 2919.16 87.2246   1
  -4   9   1 343.404 22.5008  -2
   4   7   0 343.404 22.5008   1
   5   7   0 1778.02 65.1404   1
  -6  10   1 113.810 16.1290  -2
   6   7   0 113.810 16.1290   1
   7   7   0 306.180 14.1707   1
   9   7   0 513.696 27.0302   1
 -12  -2   2 923.220 37.4355  -2
 -12   8   0 923.220 37.4355   1
  -9  -5   7 38.8185 10.8798  -3
 -11   8   0 38.8185 10.8798   1
 -10  -3   2 224.746 16.7325  -2
 -10   8   0 224.746 16.7325   1
  -9   8   0 23.5574 3.40309   1
  -5  -6   5 891.637 35.5485  -3
  -7   8   0 891.637 35.5485   1
  -6  -5   1 2287.72 122.544  -2
  -6   8   0 2287.72 122.544   1
  -4  -6   5 2210.70 122.807  -3
  -6  -5   1 2210.70 122.807  -2
  -6   8   0 2210.70 122.807   1
  -5   8   0 36.7731 4.40049   1
  -3   8   0 1494.63 46.9565   1
   2   7   0 1649.53 44.8698  -2
  -2   8   0 1649.53 44.8698   1
  -1   8   0 1906.69 44.9914   1
   2  -8   2 2023.86 108.478  -3
   0   8   0 2023.86 108.478  -2
   0   8   0 2023.86 108.478   1
   3  -8   2 162.867 9.20366  -3
   1   8   0 162.867 9.20366   1
   5  -9   1 1408.36 79.9955  -3
   3   8   0 1408.36 79.9955   1
   5   8   0 322.405 13.9665   1
   7   8   0 60.1791 8.06380   1
 -11   9   0 52.2916 5.99396   1
  -9   9   0 11.5211 3.16299   1
  -8  -5   1 441.200 27.9855  -2
  -8   9   0 441.200 27.9855   1
  -7   9   0 762.793 30.5262   1
  -6  -6   1 1985.34 76.7452  -2
  -6   9   0 1985.34 76.7452   1
  -5   9   0 100.012 6.43636   1
  -4  -7   1 218.614 11.1326  -2
  -4   9   0 218.614 11.1326   1
  -3   9   0 147.767 6.03063   1
   2   8   0 224.192 9.28120  -2
  -2   9   0 224.192 9.28120   1
  -1   9   0 1003.81 24.2248   1
   0   9   0 2239.65 124.357  -2
   0   9   0 2239.65 124.357   1
   1   9   0 60.6252 4.23437   1
   3   9   0 829.964 31.4365   1
   6 -10   1 220.291 22.2326  -3
  -4  11   1 220.291 22.2326  -2
   4   9   0 220.291 22.2326   1
   5   9   0 614.848 31.5105   1
   7   9   0 145.672 10.9413   1
 -11  10   0 22.4491 3.90017   1
 -10  -5   2 516.004 21.8387  -2
 -10  10   0 516.004 21.8387   1
  -9  10   0 291.343 13.5866   1
  -7  10   0 15.7763 3.37321   1
  -6  -7   1 1683.53 65.4124  -2
  -6  10   0 1683.53 65.4124   1
  -5  10   0 -1.2058 2.78046   1
  -4  -8   1 613.629 25.5142  -2
  -4  10   0 613.629 25.5142   1
  -3  10   0 2.34971 2.76632   1
   2   9   0 400.796 25.5304  -2
  -2  10   0 400.796 25.5304   1
  -1  10   0 1144.88 35.4898   1
   0  10   0 1166.71 46.1016  -2
   0  10   0 1166.71 46.1016   1
   1  10   0 -2.2842 2.82878   1
   3  10   0 321.620 14.1548   1
   5  10   0 506.664 26.7549   1
   7  10   0 4.93664 4.04076   1
 -10  -6   2 885.290 49.5410  -2
 -10  11   0 885.290 49.5410   1
  -9  11   0 97.8890 7.20785   1
  -4  -9   6 22.2799 7.10221  -3
  -7  11   0 22.2799 7.10221   1
  -6  -8   1 707.753 28.7465  -2
  -6  11   0 707.753 28.7465   1
  -5  11   0 -0.6977 3.10453   1
  -1 -10   5 800.201 45.9699  -3
  -4  -9   1 800.201 45.9699  -2
  -4  11   0 800.201 45.9699   1
  -3  11   0 234.818 11.5434   1
   2  10   0 110.934 8.94074  -2
  -2  11   0 110.934 8.94074   1
  -1  11   0 40.3086 4.87431   1
   3 -11   3 1367.52 78.1348  -3
   0  11   0 1367.52 78.1348  -2
   0  11   0 1367.52 78.1348   1
   4 -11   3 -7.4424 15.1903  -3
   1  11   0 -7.4424 15.1903   1
   3  11   0 2.64249 3.93756   1
   5  11   0 376.840 20.8506   1
   6  11   0 406.711 22.0871   1
  -9  12   0 385.568 16.8180   1
  -3 -10   6 484.542 21.6478  -3
  -6  -9   1 484.542 21.6478  -2
  -6  12   0 484.542 21.6478   1
  -5  12   0 19.3879 3.95979   1
   0 -11   5 202.142 12.6336  -3
  -3  12   0 202.142 12.6336   1
   2  11   0 127.383 10.3469  -2
  -2  12   0 127.383 10.3469   1
  -1  12   0 73.8386 7.17277   1
   4 -12   3 60.6796 16.9240  -3
   1  12   0 60.6796 16.9240   1
   3  12   0 40.6416 7.44504   1
  -7  13   0 71.9451 7.21252   1
  -6 -10   1 88.0792 11.7768  -2
  -6  13   0 88.0792 11.7768   1
  -5  13   0 40.0950 6.48735   1
  -4 -11   1 680.586 40.4555  -2
  -4  13   0 680.586 40.4555   1
   0 -12   5 187.619 18.0786  -3
  -3  13   0 187.619 18.0786   1
  -1  13   0 14.6300 6.78906   1
   1  13   0 19.3426 5.17094   1
  -5  14   0 91.1884 8.52722   1
  -3  14   0 780.599 46.2084   1
   2  13   0 101.323 16.5556  -2
  -2  14   0 101.323 16.5556   1
  -4 -12   2 41.2390 11.0481  -2
   4 -14   1 41.2390 11.0481   1
   5 -14   1 103.940 8.86262   1
  -1 -13   1 66.5473 9.00323   1
  -2 -12   1 55.0056 13.8588  -2
   2 -13   1 55.0056 13.8588   1
   3 -13   1 399.375 18.1305   1
  -4 -11   2 192.728 17.4450  -2
   4 -13   1 192.728 17.4450   1
  -6 -10   2 27.8375 7.00064  -2
   6 -13   1 27.8375 7.00064   1
   7 -13   1 760.410 30.8830   1
  -3 -12   1 114.413 9.75718   1
   4 -12   4 75.2236 8.50690  -3
  -1 -12   1 75.2236 8.50690   1
   1 -12   1 109.763 6.70245   1
   1 -11   5 97.5594 11.8754  -3
  -2 -11   1 97.5594 11.8754  -2
   2 -12   1 97.5594 11.8754   1
   3 -12   1 1282.10 50.5688   1
  -4 -10   2 269.959 19.9473  -2
   4 -12   1 269.959 19.9473   1
   5 -12   1 133.384 8.49021   1
  -6  -9   2 41.5162 9.64648  -2
   6 -12   1 41.5162 9.64648   1
   7 -12   1 629.596 26.9270   1
  -6  -9   8 807.558 33.1966  -3
   9 -12   1 807.558 33.1966   1
  -6 -11   1 611.292 31.4873   1
  -3 -11   1 539.483 28.1125   1
  -1 -11   1 205.679 15.6911   1
   0 -11   1 794.306 32.4235  -2
   0 -11   1 794.306 32.4235   1
   1 -11   1 4.09759 2.76885   1
   1 -10   5 261.242 14.0633  -3
  -2 -10   1 261.242 14.0633  -2
   2 -11   1 261.242 14.0633   1
   0 -10   5 730.297 30.1843  -3
   3 -11   1 730.297 30.1843   1
  -4  -9   2 1229.56 67.6304  -2
   4 -11   1 1229.56 67.6304   1
   5 -11   1 435.772 18.8127   1
  -6  -8   8 701.010 28.9518  -3
   9 -11   1 701.010 28.9518   1
  -7  -8   8 212.535 17.2183  -3
 -10  -6   3 212.535 17.2183  -2
  10 -11   1 212.535 17.2183   1
  -7 -10   1 -3.3426 3.65727   1
  -5 -10   1 250.058 15.3694   1
  -3 -10   1 -1.9043 3.59397   1
  -1 -10   1 -1.1584 2.90769   1
   0 -10   1 1667.22 90.1398  -2
   0 -10   1 1667.22 90.1398   1
   1 -10   1 3.78430 2.35956   1
   0  -9   5 726.715 29.8241  -3
   3 -10   1 726.715 29.8241   1
  -4  -8   2 1498.96 58.5697  -2
   4 -10   1 1498.96 58.5697   1
   5 -10   1 411.112 17.5993   1
  -6  -7   2 710.727 28.7781  -2
   6 -10   1 710.727 28.7781   1
   7 -10   1 104.729 10.3543   1
   9 -10   1 832.514 48.1857   1
  -7  -7   8 491.158 21.5763  -3
 -10  -5   3 491.158 21.5763  -2
  10 -10   1 491.158 21.5763   1
  -8  -7   8 123.167 10.0530  -3
  11 -10   1 123.167 10.0530   1
  -7  -9   1 18.8297 4.86583   1
  -5  -9   1 643.772 32.8671   1
  -3  -9   1 104.597 8.69755   1
  -1  -9   1 20.5267 2.57039   1
   0  -9   1 2454.81 94.4826  -2
   0  -9   1 2454.81 94.4826   1
   1  -9   1 246.521 6.99787   1
  -2  -8   1 102.028 5.41636  -2
   2  -9   1 102.028 5.41636   1
   3  -9   1 113.802 9.56790   1
  -4  -7   2 2232.39 86.1121  -2
   4  -9   1 2232.39 86.1121   1
   5  -9   1 0.16477 2.63292   1
  -6  -6   2 2064.46 114.777  -2
   6  -9   1 2064.46 114.777   1
   7  -9   1 4.99052 2.79722   1
   9  -9   1 385.129 16.6270   1
  11  -9   1 330.695 14.9034   1
  -7  -8   1 1.66091 3.97330   1
  -3  -8   1 183.980 7.18316   1
  -2   9   0 703.048 39.8702  -2
  -2  -8   1 703.048 39.8702   1
   3  -8   3 23.2103 6.48409  -3
  -1  -8   1 23.2103 6.48409   1
   0  -8   1 4171.81 129.715  -2
   0  -8   1 4171.81 129.715   1
   1  -8   1 2622.61 61.5787   1
   0  -7   4 1460.16 56.8065  -3
  -2  -7   1 1460.16 56.8065  -2
   2  -8   1 1460.16 56.8065   1
  -2  -7   1 1316.38 72.0502  -2
   2  -8   1 1316.38 72.0502   1
   3  -8   1 61.5831 3.75274   1
  -4  -6   2 1508.43 84.3281  -2
   4  -8   1 1508.43 84.3281   1
   5  -8   1 24.0889 3.23229   1
  -6  -5   2 2205.04 84.9774  -2
   6  -8   1 2205.04 84.9774   1
   7  -8   1 48.1857 5.07934   1
  -7  -5   7 68.4774 11.4488  -3
   9  -8   1 68.4774 11.4488   1
 -10  -3   3 788.179 31.8079  -2
  10  -8   1 788.179 31.8079   1
  11  -8   1 20.5504 3.80665   1
 -12  -2   3 555.536 33.0409  -2
  12  -8   1 555.536 33.0409   1
  -7  -7   1 226.435 14.0007   1
  -3  -7   1 821.262 25.3207   1
   4  -7   2 516.502 29.3200  -3
  -2  -7   1 516.502 29.3200   1
  -1  -7   1 0.03330 1.15171   1
   0  -7   1 2581.88 80.5643  -2
   0  -7   1 2581.88 80.5643   1
   1  -7   1 1934.06 45.4867   1
  -1  -6   4 5.62168 3.87220  -3
   3  -7   1 5.62168 3.87220   1
  -4  -5   2 859.525 23.6704  -2
   4  -7   1 859.525 23.6704   1
   5  -7   1 110.787 6.30275   1
  -6  -4   2 4404.33 242.297  -2
   6  -7   1 4404.33 242.297   1
  -4  -5   5 4500.50 239.158  -3
  -6  -4   2 4500.50 239.158  -2
   6  -7   1 4500.50 239.158   1
  -5  -5   6 1055.47 41.7345  -3
   7  -7   1 1055.47 41.7345   1
   8  -7   1 657.461 38.2273   1
  -7  -4   7 93.6730 12.5138  -3
   9  -7   1 93.6730 12.5138   1
  -8  -4   7 1036.11 41.1222  -3
 -10  -2   3 1036.11 41.1222  -2
  10  -7   1 1036.11 41.1222   1
  11  -7   1 34.8395 5.60765   1
 -12  -1   3 839.227 34.3438  -2
  12  -7   1 839.227 34.3438   1
  -9  -6   1 494.666 26.4700   1
  -7  -6   1 316.716 17.8114   1
  -5  -6   1 1160.68 35.3909   1
  -4   8   0 43.6737 6.46928  -2
  -4  -6   1 43.6737 6.46928   1
  -3  -6   1 2944.85 69.0123   1
  -2  -6   1 207.017 9.17995   1
  -1  -6   1 527.349 12.9881   1
   0  -6   1 3219.62 100.072  -2
   0  -6   1 3219.62 100.072   1
   1  -6   1 4939.59 115.046   1
  -2  -5   1 860.942 27.4715  -2
   2  -6   1 860.942 27.4715   1
   3  -6   1 1184.06 32.0834   1
  -4  -4   2 1429.89 55.3836  -2
   4  -6   1 1429.89 55.3836   1
   5  -6   1 68.8160 4.84662   1
  -6  -3   2 2226.62 123.316  -2
   6  -6   1 2226.62 123.316   1
   7  -6   1 1204.19 46.9928   1
   8  -6   1 308.133 19.4326   1
   9  -6   1 5.06545 2.71555   1
  -8  -3   7 271.810 20.0582  -3
 -10  -1   3 271.810 20.0582  -2
  10  -6   1 271.810 20.0582   1
 -10  -1   3 233.599 15.6733  -2
  10  -6   1 233.599 15.6733   1
  11  -6   1 12.8042 4.44674   1
 -12   0   3 1377.72 78.2355  -2
  12  -6   1 1377.72 78.2355   1
  -9  -5   1 1326.51 65.0134   1
  -7  -5   1 508.609 26.3721   1
  -6   8   0 376.004 22.6198  -2
  -6  -5   1 376.004 22.6198   1
  -5  -5   1 1911.82 73.6115   1
  -4   7   0 1106.17 35.2711  -2
  -4  -5   1 1106.17 35.2711   1
  -3  -5   1 3463.83 80.9575   1
  -2  -5   1 392.219 9.76595   1
  -1  -5   1 802.028 19.1558   1
   0  -5   1 2220.45 69.1604  -2
   0  -5   1 2220.45 69.1604   1
   1  -5   1 2187.78 51.1387   1
  -2  -4   1 309.345 12.9232  -2
   2  -5   1 309.345 12.9232   1
   3  -5   1 5809.03 150.328   1
  -4  -3   2 358.832 21.7734  -2
   4  -5   1 358.832 21.7734   1
   5  -5   1 494.181 19.9037   1
  -6  -2   2 1864.74 103.509  -2
   6  -5   1 1864.74 103.509   1
   7  -5   1 1780.08 68.7569   1
   8  -5   1 649.068 26.1332   1
   9  -5   1 317.371 13.9698   1
 -10   0   3 842.779 33.7230  -2
  10  -5   1 842.779 33.7230   1
  11  -5   1 1.15372 3.06368   1
 -12   1   3 825.667 48.4969  -2
  12  -5   1 825.667 48.4969   1
  -9  -4   1 1501.42 81.6309   1
  -9   6   1 564.732 34.1962  -3
  -8   8   1 564.732 34.1962  -2
  -8  -4   1 564.732 34.1962   1
  -7  -4   1 289.241 10.2003   1
  -6   7   0 842.354 33.5224  -2
  -6  -4   1 842.354 33.5224   1
  -6   5   0 990.429 31.7898  -3
  -5  -4   1 990.429 31.7898   1
  -4   6   0 23.7475 3.86392  -2
  -4  -4   1 23.7475 3.86392   1
  -3  -4   1 6345.86 147.692   1
  -2  -4   1 2199.57 51.4948   1
  -1  -4   1 2026.27 47.4074   1
   0  -4   1 2226.92 85.4134  -2
   0  -4   1 2226.92 85.4134   1
   1  -4   1 4517.24 172.157   1
   2  -4   1 1938.59 51.9673   1
   3  -4   1 4894.03 231.344   1
   4  -4   1 15.3019 4.04025   1
   5  -4   1 498.528 19.9605   1
  -6  -1   2 2316.44 128.074  -2
   6  -4   1 2316.44 128.074   1
   7  -4   1 2208.10 84.9177   1
   8  -4   1 279.468 12.3473   1
   9  -4   1 1300.91 50.8366   1
  -9  -1   6 76.3100 12.3753  -3
 -10   1   3 76.3100 12.3753  -2
  10  -4   1 76.3100 12.3753   1
 -10   1   3 73.5062 8.59770  -2
  10  -4   1 73.5062 8.59770   1
 -11   1   3 34.8536 11.7683  -2
  11  -4   1 34.8536 11.7683   1
 -10   8   1 215.323 17.0407  -2
 -10  -3   1 215.323 17.0407   1
 -10   5   2 1158.85 63.9061  -3
  -9  -3   1 1158.85 63.9061   1
  -7  -3   1 980.244 30.4860   1
  -6   6   0 1411.85 54.3360  -2
  -6  -3   1 1411.85 54.3360   1
  -6   4   0 1471.29 56.3064  -3
  -5  -3   1 1471.29 56.3064   1
  -5   4   0 581.606 31.8854  -3
  -4   5   0 581.606 31.8854  -2
  -4  -3   1 581.606 31.8854   1
  -4   5   0 675.477 38.3315  -2
  -4  -3   1 675.477 38.3315   1
  -3  -3   1 6937.39 214.440   1
  -2  -3   1 2851.31 66.5153   1
  -1  -3   1 867.174 27.2150   1
   0  -3   1 2963.13 79.4636  -2
   0  -3   1 2963.13 79.4636   1
   1  -3   1 2545.24 78.8768   1
   2  -3   1 78.0730 2.43181   1
   4  -3   1 3349.67 183.916   1
   5  -3   1 1501.61 57.8565   1
  -5  -1   4 1390.05 77.5845  -3
  -6   0   2 1390.05 77.5845  -2
   6  -3   1 1390.05 77.5845   1
   7  -3   1 1128.17 44.0097   1
   8  -3   1 313.275 13.5498   1
   9  -3   1 2583.73 99.4518   1
  -9   0   6 83.7938 10.5216  -3
 -10   2   3 83.7938 10.5216  -2
  10  -3   1 83.7938 10.5216   1
  -9  -2   1 403.478 13.5609   1
  -7  -2   1 386.205 9.95106   1
  -6   5   0 2374.63 90.0489  -2
  -6  -2   1 2374.63 90.0489   1
  -5  -2   1 197.032 5.31357   1
  -4   4   0 678.674 36.8061  -2
  -4  -2   1 678.674 36.8061   1
  -2  -2   1 2543.29 74.9057   1
  -1  -2   1 3670.01 194.814   1
   1  -2   1 1452.04 38.8794   1
   2  -2   1 2119.04 100.235   1
  -4   0   2 1274.96 46.1513  -2
   4  -2   1 1274.96 46.1513   1
   5  -2   1 1318.36 30.9344   1
  -6   1   2 279.904 9.62128  -2
   6  -2   1 279.904 9.62128   1
   7  -2   1 946.541 25.9631   1
   8  -2   1 257.126 16.6507   1
   9  -2   1 1510.37 58.7653   1
 -10   3   3 346.058 21.4933  -2
  10  -2   1 346.058 21.4933   1
  11  -2   1 314.317 20.2003   1
 -11  -1   1 15.8590 5.96989   1
  -9  -1   1 142.447 7.96083   1
  -8   5   1 2125.71 81.4630  -2
  -8  -1   1 2125.71 81.4630   1
  -7  -1   1 455.684 11.4455   1
  -6   4   0 2024.95 76.9455  -2
  -6  -1   1 2024.95 76.9455   1
  -5  -1   1 44.7705 2.11360   1
  -4   3   0 287.728 11.8460  -2
  -4  -1   1 287.728 11.8460   1
  -3  -1   1 2415.18 62.6807   1
  -2  -1   1 2832.10 106.420   1
  -1  -1   1 1024.63 23.9561   1
   0  -1   1 1569.19 84.9542  -2
   0  -1   1 1569.19 84.9542   1
   1  -1   1 93.7852 2.38746   1
   2  -1   1 130.506 3.25543   1
  -4   1   2 3604.58 129.453  -2
   4  -1   1 3604.58 129.453   1
   5  -1   1 1723.34 44.9722   1
  -6   2   2 2224.04 69.4916  -2
   6  -1   1 2224.04 69.4916   1
   7  -1   1 1071.90 25.5501   1
   8  -1   1 432.836 17.9989   1
   9  -1   1 2438.90 93.9468   1
 -10   4   3 134.262 11.5492  -2
  10  -1   1 134.262 11.5492   1
  11  -1   1 265.914 18.1625   1
 -11   0   1 96.6037 10.4983   1
  -8   0   1 1339.31 73.8533   1
  -7   0   1 64.1517 2.79796   1
  -6   3   0 4832.06 184.270  -2
  -6   0   1 4832.06 184.270   1
  -5   1   1 98.0443 5.46119  -3
  -5   0   1 98.0443 5.46119   1
  -4   2   0 1276.81 68.2479  -2
  -4   0   1 1276.81 68.2479   1
  -3   0   1 2111.87 54.4286   1
  -1   0   1 514.117 12.0702   1
   1   0   1 221.928 5.29699   1
   2   0   1 779.724 20.3524   1
  -4   2   2 521.802 16.7527  -2
   4   0   1 521.802 16.7527   1
   5   0   1 661.088 15.8626   1
  -6   2   3 1165.31 65.4733  -3
  -6   3   2 1165.31 65.4733  -2
   6   0   1 1165.31 65.4733   1
   7   0   1 82.6231 3.57657   1
   8   0   1 43.5519 3.86824   1
   9   0   1 1371.34 53.6014   1
  11   0   1 584.309 24.5568   1
 -11   1   1 725.486 41.3153   1
  -9   1   1 6.36146 3.42722   1
  -8   1   1 467.924 19.5832   1
  -7   1   1 116.761 4.29802   1
  -6   2   0 6616.71 204.833  -2
  -6   1   1 6616.71 204.833   1
  -5   1   1 218.358 6.44101   1
  -4   0   1 493.215 28.2701  -3
  -4   1   0 493.215 28.2701  -2
  -4   1   1 493.215 28.2701   1
  -4   1   0 649.090 35.4993  -2
  -4   1   1 649.090 35.4993   1
  -3   1   1 89.8836 2.91861   1
   1   1   1 6.74414 0.53091   1
   2   1   1 949.894 22.2641   1
  -3   2   2 1454.26 54.8965  -3
   3   1   1 1454.26 54.8965   1
   5   1   1 1816.73 42.7050   1
  -6   3   3 2329.26 69.0467  -3
  -6   4   2 2329.26 69.0467  -2
   6   1   1 2329.26 69.0467   1
   7   1   1 236.898 7.31319   1
   8   1   1 213.031 10.4552   1
   9   1   1 1879.47 57.0090   1
 -11   2   1 400.948 17.4855   1
 -10   3   1 726.995 29.4352  -2
 -10   2   1 726.995 29.4352   1
  -9   2   1 552.629 32.5778   1
  -8   2   1 154.353 11.9512   1
  -7   2   1 46.8133 2.44245   1
  -6   1   0 4215.56 109.522  -2
  -6   2   1 4215.56 109.522   1
  -5   2   1 2380.20 55.5505   1
   4   0   0 3089.38 96.1862  -2
  -4   2   1 3089.38 96.1862   1
  -3   2   1 48.3670 1.64278   1
  -1   2   1 891.073 20.8373   1
   1   2   1 37.6912 1.39871   1
   2   2   1 55.7935 2.67502   1
   3   2   1 1424.89 33.3947   1
  -4   4   2 2639.50 125.700  -2
   4   2   1 2639.50 125.700   1
   5   2   1 1499.11 35.3877   1
  -6   5   2 2675.79 69.4102  -2
   6   2   1 2675.79 69.4102   1
   7   2   1 9.23746 1.46867   1
   9   2   1 551.605 21.6006   1
 -13   3   1 137.135 12.1947   1
 -11   3   1 409.685 17.7763   1
 -10   2   1 733.664 29.6717  -2
 -10   3   1 733.664 29.6717   1
  -9   3   1 1575.28 61.2353   1
  -8   3   1 490.312 20.1125   1
  -7   3   1 4.94607 2.80740   1
   6   0   0 4378.29 240.586  -2
  -6   3   1 4378.29 240.586   1
  -5   3   1 1165.05 64.8673   1
  -3   3   1 971.665 22.7434   1
  -2   3   1 6.35497 0.61646   1
  -1   3   1 311.689 7.51080   1
   1   3   1 2935.95 87.2749   1
   2   3   1 2000.80 51.6165   1
   3   3   1 49.3997 2.33871   1
  -4   5   2 2154.75 76.7533  -2
   4   3   1 2154.75 76.7533   1
   5   3   1 1194.17 28.3890   1
  -6   6   2 4129.34 106.703  -2
   6   3   1 4129.34 106.703   1
   7   3   1 8.40798 2.64755   1
   9   3   1 322.103 13.8551   1
  11   3   1 377.889 27.0199   1
 -10  -1   5 387.456 25.8625  -3
 -11   4   1 387.456 25.8625   1
 -10   1   1 221.846 10.9125  -2
 -10   4   1 221.846 10.9125   1
  -8   4   1 42.0307 4.50681   1
  -7   4   1 28.9018 3.93079   1
   6   1   0 1093.58 61.4060  -2
  -6   4   1 1093.58 61.4060   1
  -5   4   1 2253.29 86.4049   1
  -3  -3   2 4943.08 271.323  -3
   4   2   0 4943.08 271.323  -2
  -4   4   1 4943.08 271.323   1
  -3   4   1 5061.31 150.086   1
  -2   4   1 1480.21 38.5246   1
  -1   4   1 137.859 3.63493   1
   1   4   1 356.076 8.70028   1
   2   4   1 4924.83 146.124   1
  -4   5   1 336.728 13.4239  -3
   3   4   1 336.728 13.4239   1
  -4   6   2 336.016 9.60786  -2
   4   4   1 336.016 9.60786   1
   5   4   1 56.4654 2.75982   1
  -7   6   2 3220.52 178.471  -3
  -6   7   2 3220.52 178.471  -2
   6   4   1 3220.52 178.471   1
   7   4   1 79.4571 6.15685   1
  -8   8   3 337.833 26.1509  -2
   8   4   1 337.833 26.1509   1
   9   4   1 1.61038 3.37505   1
 -11   7   4 332.888 28.0432  -3
 -10   9   3 332.888 28.0432  -2
  10   4   1 332.888 28.0432   1
 -12   1   1 62.2432 12.5142  -2
 -12   5   1 62.2432 12.5142   1
 -10  -2   5 339.288 23.3062  -3
 -11   5   1 339.288 23.3062   1
 -10   0   1 276.676 12.8768  -2
 -10   5   1 276.676 12.8768   1
  -9   5   1 2177.32 84.0576   1
  -7  -3   4 50.6377 9.65792  -3
  -8   5   1 50.6377 9.65792   1
  -7   5   1 742.735 41.2130   1
   6   2   0 1638.19 91.1704  -2
  -6   5   1 1638.19 91.1704   1
  -5   5   1 537.344 21.5070   1
  -3  -4   2 847.030 48.1138  -3
   4   3   0 847.030 48.1138  -2
  -4   5   1 847.030 48.1138   1
  -3   5   1 5583.00 165.624   1
   2   4   1 421.418 17.1882  -2
  -2   5   1 421.418 17.1882   1
   0  -5   1 77.7897 3.19578  -3
  -1   5   1 77.7897 3.19578   1
   0   5   1 1727.52 45.1176  -2
   0   5   1 1727.52 45.1176   1
   1   5   1 2987.27 77.5946   1
   2   5   1 2824.22 73.4228   1
  -4   6   1 2663.57 79.7002  -3
   3   5   1 2663.57 79.7002   1
  -4   7   2 360.805 9.44619  -2
   4   5   1 360.805 9.44619   1
   5   5   1 84.8965 4.49866   1
  -8   7   2 154.536 16.9810  -3
   7   5   1 154.536 16.9810   1
  -8   9   3 1251.15 72.9566  -2
   8   5   1 1251.15 72.9566   1
 -10   8   3 36.1215 18.9305  -3
   9   5   1 36.1215 18.9305   1
 -12   0   1 127.585 14.3784  -2
 -12   6   1 127.585 14.3784   1
 -11   6   1 118.999 7.72668   1
 -10  -1   1 154.698 13.1720  -2
 -10   6   1 154.698 13.1720   1
  -9   6   1 1629.27 63.2845   1
  -8   6   1 485.644 27.8456   1
  -7   6   1 1376.64 53.5455   1
   6   3   0 156.133 12.0346  -2
  -6   6   1 156.133 12.0346   1
  -5   6   1 936.772 36.6696   1
   4   4   0 1270.21 39.9998  -2
  -4   6   1 1270.21 39.9998   1
  -3   6   1 7070.37 183.040   1
   2   5   1 328.260 9.36894  -2
  -2   6   1 328.260 9.36894   1
  -1   6   1 232.546 6.72107   1
   0   6   1 1652.17 43.2776  -2
   0   6   1 1652.17 43.2776   1
   1   6   1 554.639 13.5742   1
  -2   7   1 2191.82 117.388  -2
   2   6   1 2191.82 117.388   1
   3   6   1 2181.88 51.3498   1
  -4   8   2 35.0875 9.25764  -2
   4   6   1 35.0875 9.25764   1
   5   6   1 28.9040 3.82652   1
  -6   9   2 699.587 42.3677  -2
   6   6   1 699.587 42.3677   1
   7   6   1 299.092 13.2478   1
  -8  10   3 635.895 41.3427  -2
   8   6   1 635.895 41.3427   1
 -11   7   1 324.443 20.7825   1
 -10  -2   1 85.2819 10.8000  -2
 -10   7   1 85.2819 10.8000   1
  -9   7   1 1206.64 68.2290   1
  -8   7   1 91.1412 8.52539   1
  -7   7   1 829.280 32.9286   1
   6   4   0 179.015 13.1225  -2
  -6   7   1 179.015 13.1225   1
  -5   7   1 95.1506 5.79584   1
   4   5   0 1098.96 34.8628  -2
  -4   7   1 1098.96 34.8628   1
  -3   7   1 3649.98 85.1969   1
   2   6   1 268.583 9.32980  -2
  -2   7   1 268.583 9.32980   1
  -1   7   1 2096.69 49.2798   1
   0   7   1 278.007 7.47888  -2
   0   7   1 278.007 7.47888   1
   1   7   1 403.681 10.2512   1
  -2   8   2 592.368 33.4535  -2
   2   7   1 592.368 33.4535   1
   3   7   1 4243.33 126.385   1
   5   7   1 206.202 9.86174   1
  -6  10   2 606.507 38.2112  -2
   6   7   1 606.507 38.2112   1
   7   7   1 306.362 13.7724   1
   9   7   1 180.197 12.6504   1
 -10  -5   6 187.168 17.2324  -3
 -12  -2   1 187.168 17.2324  -2
 -12   8   1 187.168 17.2324   1
 -10  -3   1 221.948 16.5465  -2
 -10   8   1 221.948 16.5465   1
  -7  -6   5 1045.81 59.9323  -3
  -9   8   1 1045.81 59.9323   1
  -7   8   1 917.343 36.3282   1
   6   5   0 1001.83 56.8012  -2
  -6   8   1 1001.83 56.8012   1
  -5   8   1 1356.95 53.1394   1
  -2  -7   3 265.588 18.0278  -3
   4   6   0 265.588 18.0278  -2
  -4   8   1 265.588 18.0278   1
  -3   8   1 2519.79 59.3172   1
   2   7   1 380.170 11.1985  -2
  -2   8   1 380.170 11.1985   1
   1  -8   2 1459.99 34.7458  -3
  -1   8   1 1459.99 34.7458   1
   0   8   1 8.82221 3.20331  -2
   0   8   1 8.82221 3.20331   1
   1   8   1 263.216 7.97331   1
   2   8   1 1307.71 70.6799   1
  -4  10   2 33.0949 11.0499  -2
   4   8   1 33.0949 11.0499   1
   5   8   1 345.852 14.7805   1
  -8  10   1 140.003 22.9406  -3
  -6  11   2 140.003 22.9406  -2
   6   8   1 140.003 22.9406   1
  -9  -6   6 60.6471 13.2199  -3
 -11   9   1 60.6471 13.2199   1
  -9   9   1 693.950 28.1220   1
  -7   9   1 856.518 34.1096   1
   6   6   0 584.710 23.9156  -2
  -6   9   1 584.710 23.9156   1
  -5   9   1 209.149 9.98950   1
   4   7   0 51.3981 9.65923  -2
  -4   9   1 51.3981 9.65923   1
  -3   9   1 1515.65 40.1490   1
   2   8   1 361.034 11.4053  -2
  -2   9   1 361.034 11.4053   1
   1  -9   2 1237.75 47.7756  -3
  -1   9   1 1237.75 47.7756   1
   1   9   1 624.212 23.9443   1
   2   9   1 64.4698 9.93602   1
   3   9   1 1729.72 97.2789   1
   5   9   1 839.422 32.1120   1
 -11  10   1 12.5270 3.30232   1
 -10  -5   1 298.191 14.0883  -2
 -10  10   1 298.191 14.0883   1
  -9  10   1 38.0564 5.52583   1
   8   6   0 264.175 19.2728  -2
  -8  10   1 264.175 19.2728   1
  -7  10   1 578.792 23.7798   1
   6   7   0 1276.89 50.0410  -2
  -6  10   1 1276.89 50.0410   1
  -5  10   1 114.875 7.19718   1
   4   8   0 709.337 29.0331  -2
  -4  10   1 709.337 29.0331   1
  -3  10   1 1517.90 59.0873   1
   2   9   1 146.528 13.3148  -2
  -2  10   1 146.528 13.3148   1
  -1  10   1 1329.95 40.5876   1
   0  10   1 574.733 34.7658  -2
   0  10   1 574.733 34.7658   1
   1  10   1 444.737 17.9075   1
   3  10   1 394.224 16.5027   1
  -4  12   2 221.023 20.0641  -2
   4  10   1 221.023 20.0641   1
   7  10   1 172.257 12.0375   1
 -10  -6   1 418.592 18.5346  -2
 -10  11   1 418.592 18.5346   1
  -6  -9   6 7.39365 7.96621  -3
  -9  11   1 7.39365 7.96621   1
   8   7   0 696.957 40.5384  -2
  -8  11   1 696.957 40.5384   1
  -7  11   1 416.762 17.9228   1
   6   8   0 1089.64 43.0877  -2
  -6  11   1 1089.64 43.0877   1
  -5  11   1 35.2309 4.81392   1
  -1 -10   4 259.184 20.7440  -3
   4   9   0 259.184 20.7440  -2
  -4  11   1 259.184 20.7440   1
  -3  11   1 38.7296 5.74952   1
   2  10   1 329.211 22.3865  -2
  -2  11   1 329.211 22.3865   1
  -1  11   1 359.987 15.1512   1
   0  11   1 1287.99 73.4536  -2
   0  11   1 1287.99 73.4536   1
   1  11   1 18.4268 3.69373   1
   3  11   1 963.901 47.9037   1
   5  11   1 497.471 26.3268   1
  -6 -10   6 117.822 13.9033  -3
  -9  12   1 117.822 13.9033   1
  -7  12   1 61.4635 6.59310   1
   6   9   0 1509.02 59.0700  -2
  -6  12   1 1509.02 59.0700   1
  -2 -11   5 -4.4509 14.0511  -3
  -5  12   1 -4.4509 14.0511   1
  -3  12   1 1.29386 3.89466   1
   2  11   1 263.962 20.1320  -2
  -2  12   1 263.962 20.1320   1
   2 -12   3 672.566 40.5585  -3
  -1  12   1 672.566 40.5585   1
   1  12   1 -3.5119 3.48391   1
   8   9   0 7.35400 11.2226  -2
  -8  13   1 7.35400 11.2226   1
  -4 -11   6 3.00438 9.63101  -3
  -7  13   1 3.00438 9.63101   1
   6  10   0 513.348 31.1947  -2
  -6  13   1 513.348 31.1947   1
  -5  13   1 8.06043 3.98294   1
  -3  13   1 184.014 15.0583   1
   2  12   1 126.985 15.0508  -2
  -2  13   1 126.985 15.0508   1
   1  13   1 12.0789 4.91639   1
  -5  14   1 37.9498 7.11967   1
  -3  14   1 87.9945 12.1796   1
   2  13   1 -6.2115 13.9373  -2
  -2  14   1 -6.2115 13.9373   1
  -1  14   1 34.3350 8.39301   1
   3 -14   2 355.089 23.3634   1
  -4 -12   3 20.8773 13.2356  -2
   4 -14   2 20.8773 13.2356   1
  -1 -12   8 128.528 12.9584  -3
   5 -14   2 128.528 12.9584   1
   2 -12   6 11.6184 18.7478  -3
  -2 -12   2 11.6184 18.7478  -2
   2 -13   2 11.6184 18.7478   1
   3 -13   2 353.877 16.5511   1
  -2 -11   8 120.642 11.8974  -3
  -6 -10   3 120.642 11.8974  -2
   6 -13   2 120.642 11.8974   1
   7 -13   2 657.854 27.4512   1
   4 -14   1 77.4233 8.47468  -2
  -4 -12   2 77.4233 8.47468   1
  -3 -12   2 345.864 19.4927   1
  -1 -12   2 41.2137 7.83556   1
   0 -12   2 -0.2353 9.13884  -2
   0 -12   2 -0.2353 9.13884   1
   1 -12   2 991.261 40.9446   1
  -2 -11   2 23.0723 8.68024  -2
   2 -12   2 23.0723 8.68024   1
   3 -12   2 755.210 30.8821   1
  -4 -10   3 79.6065 12.5801  -2
   4 -12   2 79.6065 12.5801   1
   5 -12   2 133.622 8.46172   1
  -6  -9   3 197.345 10.7469  -2
   6 -12   2 197.345 10.7469   1
   7 -12   2 517.077 22.2029   1
   9 -12   2 443.137 19.0250   1
  -1 -11   2 2.52901 3.20724   1
   0 -11   2 45.9857 8.76741  -2
   0 -11   2 45.9857 8.76741   1
   1 -11   2 202.372 10.7444   1
  -2 -10   2 187.050 11.3652  -2
   2 -11   2 187.050 11.3652   1
   3 -11   2 848.995 34.0573   1
  -1  -9   7 963.945 54.3543  -3
  -4  -9   3 963.945 54.3543  -2
   4 -11   2 963.945 54.3543   1
  -2  -9   7 65.0425 7.68237  -3
   5 -11   2 65.0425 7.68237   1
  -6  -8   3 27.5871 8.59595  -2
   6 -11   2 27.5871 8.59595   1
   7 -11   2 973.783 38.7472   1
   9 -11   2 389.818 17.0354   1
 -10  -6   4 16.2444 5.94461  -2
  10 -11   2 16.2444 5.94461   1
  -5 -10   2 16.0081 5.26227   1
   4 -12   1 30.5191 6.78156  -2
  -4 -10   2 30.5191 6.78156   1
  -3 -10   2 306.178 12.9960   1
   2 -11   1 1551.46 85.0765  -2
  -2 -10   2 1551.46 85.0765   1
  -1 -10   2 129.589 7.36267   1
   0 -10   2 306.705 19.2244  -2
   0 -10   2 306.705 19.2244   1
   2  -9   5 399.430 24.8729  -3
   1 -10   2 399.430 24.8729   1
   3 -10   2 2385.37 91.9191   1
  -2  -8   7 65.5480 7.65989  -3
   5 -10   2 65.5480 7.65989   1
  -3  -8   7 57.3714 7.91836  -3
  -6  -7   3 57.3714 7.91836  -2
   6 -10   2 57.3714 7.91836   1
   7 -10   2 530.241 22.0102   1
 -10  -5   4 311.121 21.4364  -2
  10 -10   2 311.121 21.4364   1
  -7  -7   9 293.472 21.3596  -3
 -10  -5   4 293.472 21.3596  -2
  10 -10   2 293.472 21.3596   1
  -7  -9   2 -2.0123 4.11953   1
  -5  -9   2 2.12087 3.56076   1
   4 -11   1 137.329 9.97952  -2
  -4  -9   2 137.329 9.97952   1
  -3  -9   2 486.488 18.8764   1
  -1  -9   2 13.7029 3.28817   1
   0  -9   2 558.359 33.2445  -2
   0  -9   2 558.359 33.2445   1
   1  -9   2 9.00665 1.76390   1
  -2  -8   2 351.671 16.0030  -2
   2  -9   2 351.671 16.0030   1
   3  -9   2 1706.07 51.7837   1
  -4  -7   3 2103.33 81.2901  -2
   4  -9   2 2103.33 81.2901   1
   5  -9   2 103.226 6.69042   1
  -6  -6   3 553.445 32.7634  -2
   6  -9   2 553.445 32.7634   1
   7  -9   2 432.202 18.2620   1
   9  -9   2 1603.57 62.4383   1
 -10  -4   4 251.023 12.2344  -2
  10  -9   2 251.023 12.2344   1
  11  -9   2 128.851 8.02301   1
  -7  -8   2 86.3972 8.54372   1
  -5  -8   2 278.053 11.9452   1
   4 -10   1 448.156 23.4958  -2
  -4  -8   2 448.156 23.4958   1
  -3  -8   2 69.6679 5.20164   1
   2  -9   1 3047.85 162.584  -2
  -2  -8   2 3047.85 162.584   1
  -1  -8   2 36.3009 2.84087   1
   0  -8   2 2413.71 75.5414  -2
   0  -8   2 2413.71 75.5414   1
   1  -8   2 3.40993 1.36500   1
  -2  -7   2 97.9821 5.97832  -2
   2  -8   2 97.9821 5.97832   1
   3  -8   2 829.614 22.2111   1
  -4  -6   3 2704.82 149.638  -2
   4  -8   2 2704.82 149.638   1
   5  -8   2 389.095 16.4080   1
  -6  -5   3 415.042 17.5822  -2
   6  -8   2 415.042 17.5822   1
   7  -8   2 38.6512 4.82529   1
   8  -8   2 68.2379 8.37605   1
   9  -8   2 1226.46 48.1467   1
 -10  -3   4 477.625 27.9525  -2
  10  -8   2 477.625 27.9525   1
  11  -8   2 75.7568 6.38349   1
  -5  -7   2 450.534 23.5917   1
   4  -9   1 374.684 14.8750  -2
  -4  -7   2 374.684 14.8750   1
   5  -7   3 46.4027 10.1832  -3
  -3  -7   2 46.4027 10.1832   1
   4  -7   3 442.850 25.4708  -3
  -2  -7   2 442.850 25.4708   1
  -1  -7   2 56.2500 2.76462   1
   0  -7   2 3726.24 115.831  -2
   0  -7   2 3726.24 115.831   1
   1  -7   2 109.342 3.60105   1
  -2  -6   2 868.192 49.1614  -2
   2  -7   2 868.192 49.1614   1
   3  -7   2 372.321 9.34686   1
  -2  -5   6 4039.93 214.696  -3
  -4  -5   3 4039.93 214.696  -2
   4  -7   2 4039.93 214.696   1
  -3  -5   6 60.8990 8.78390  -3
   5  -7   2 60.8990 8.78390   1
  -4  -5   6 2328.82 89.7504  -3
  -6  -4   3 2328.82 89.7504  -2
   6  -7   2 2328.82 89.7504   1
   7  -7   2 4.98676 2.53931   1
  -6  -4   7 344.734 22.5244  -3
   8  -7   2 344.734 22.5244   1
   9  -7   2 778.056 31.2904   1
 -10  -2   4 1269.63 49.9032  -2
  10  -7   2 1269.63 49.9032   1
  11  -7   2 189.967 9.89016   1
  -9  -6   2 280.593 17.2085   1
  -7  -6   2 116.393 10.4685   1
  -5  -6   2 2170.19 77.5265   1
   4  -8   1 699.680 27.9321  -2
  -4  -6   2 699.680 27.9321   1
  -3  -6   2 558.316 13.8310   1
  -2  -6   2 1063.30 31.9453   1
  -1  -6   2 9.81035 1.21832   1
   0  -6   2 5663.91 175.452  -2
   0  -6   2 5663.91 175.452   1
   1  -5   4 1335.49 74.2448  -3
   1  -6   2 1335.49 74.2448   1
  -2  -5   2 438.860 25.3250  -2
   2  -6   2 438.860 25.3250   1
   3  -6   2 106.139 3.25481   1
  -4  -4   3 1305.05 41.0979  -2
   4  -6   2 1305.05 41.0979   1
   5  -6   2 121.209 6.44646   1
   7  -6   2 55.3439 4.89533   1
  -6  -3   7 183.543 17.0940  -3
  -8  -2   4 183.543 17.0940  -2
   8  -6   2 183.543 17.0940   1
  -7  -3   7 147.802 14.0865  -3
   9  -6   2 147.802 14.0865   1
 -10  -1   4 1147.55 65.1026  -2
  10  -6   2 1147.55 65.1026   1
  11  -6   2 85.9774 9.60756   1
 -12   0   4 672.573 28.2305  -2
  12  -6   2 672.573 28.2305   1
  -9  -5   2 770.979 29.1755   1
  -8   9   0 82.2902 12.7767  -2
  -8  -5   2 82.2902 12.7767   1
  -7  -5   2 57.4885 5.01196   1
   6  -8   1 1109.94 60.5978  -2
  -6  -5   2 1109.94 60.5978   1
  -5  -5   2 1395.36 42.5925   1
   4  -7   1 546.747 18.1897  -2
  -4  -5   2 546.747 18.1897   1
  -3  -5   2 1189.95 28.2748   1
  -2  -5   2 161.969 4.70269   1
  -1  -5   2 8.46416 1.16418   1
   0  -5   2 2018.86 76.3509  -2
   0  -5   2 2018.86 76.3509   1
   1  -5   2 4078.47 105.731   1
   2  -5   2 1336.57 34.9848   1
   3  -5   2 499.773 13.4296   1
  -4  -3   3 570.427 31.8810  -2
   4  -5   2 570.427 31.8810   1
   5  -5   2 21.9610 3.48111   1
  -6  -2   3 5330.53 292.687  -2
   6  -5   2 5330.53 292.687   1
   7  -5   2 117.752 6.65969   1
   8  -5   2 529.864 31.1946   1
   9  -5   2 56.3765 5.52867   1
 -10   0   4 684.694 27.9078  -2
  10  -5   2 684.694 27.9078   1
  11  -5   2 83.6789 9.68055   1
 -12   1   4 829.509 34.1728  -2
  12  -5   2 829.509 34.1728   1
 -11  -4   2 284.603 20.9111   1
  -9  -4   2 846.997 47.2967   1
  -8   8   0 490.092 29.3205  -2
  -8  -4   2 490.092 29.3205   1
  -7  -4   2 278.530 11.5191   1
   6  -7   1 937.892 37.0645  -2
  -6  -4   2 937.892 37.0645   1
  -5  -4   2 810.468 19.6183   1
   4  -6   1 150.584 7.39533  -2
  -4  -4   2 150.584 7.39533   1
  -3  -4   2 3776.97 88.1361   1
   3  -4   2 661.537 37.1781  -3
  -2  -4   2 661.537 37.1781   1
  -1  -4   2 306.883 7.69686   1
   0  -4   2 5082.00 135.982  -2
   0  -4   2 5082.00 135.982   1
   1  -4   2 2326.34 62.4017   1
   2  -4   2 2986.25 69.6137   1
   3  -4   2 658.908 15.6395   1
  -4  -2   3 1204.45 46.1977  -2
   4  -4   2 1204.45 46.1977   1
   5  -4   2 19.6717 3.17033   1
  -6  -1   3 1533.11 85.3862  -2
   6  -4   2 1533.11 85.3862   1
   7  -4   2 1727.33 67.2864   1
   8  -4   2 563.173 22.8933   1
   9  -4   2 34.8758 4.87248   1
 -10   1   4 345.673 22.2603  -2
  10  -4   2 345.673 22.2603   1
  11  -4   2 5.75178 3.29937   1
 -11   5   1 60.4270 12.9243  -3
 -10   8   0 60.4270 12.9243  -2
 -10  -3   2 60.4270 12.9243   1
 -10   5   1 1151.70 62.9203  -3
  -9  -3   2 1151.70 62.9203   1
  -9   5   1 336.719 22.6170  -3
  -8   7   0 336.719 22.6170  -2
  -8  -3   2 336.719 22.6170   1
  -5  -3   2 3010.46 70.4629   1
   4  -5   1 251.502 11.0369  -2
  -4  -3   2 251.502 11.0369   1
  -3  -3   2 4225.00 109.566   1
   3  -3   2 842.854 26.5763  -3
  -2  -3   2 842.854 26.5763   1
  -1  -3   2 36.5571 1.62318   1
   0  -3   2 3321.94 89.1116  -2
   0  -3   2 3321.94 89.1116   1
   0  -2   3 3116.97 81.0999  -3
   1  -3   2 3116.97 81.0999   1
   2  -3   2 107.152 2.96001   1
   3  -3   2 5618.12 198.157   1
  -4  -1   3 588.258 17.6973  -2
   4  -3   2 588.258 17.6973   1
   5  -3   2 42.5033 2.91652   1
  -5  -1   5 4280.82 235.327  -3
  -6   0   3 4280.82 235.327  -2
   6  -3   2 4280.82 235.327   1
  -6   0   3 4294.02 162.612  -2
   6  -3   2 4294.02 162.612   1
   7  -3   2 947.895 25.8850   1
 -10   2   4 340.833 15.2057  -2
  10  -3   2 340.833 15.2057   1
  11  -3   2 6.69865 4.83414   1
 -12  -2   2 104.118 13.1870   1
 -10   7   0 3.50891 7.16832  -2
 -10  -2   2 3.50891 7.16832   1
  -9  -2   2 1384.48 54.0814   1
  -8   6   0 1270.03 69.2504  -2
  -8  -2   2 1270.03 69.2504   1
  -7  -2   2 257.937 7.05287   1
   6  -5   1 133.489 10.2752  -2
  -6  -2   2 133.489 10.2752   1
  -5  -2   2 3241.65 75.7511   1
   4  -4   1 432.392 17.3986  -2
  -4  -2   2 432.392 17.3986   1
  -2  -2   2 1783.07 52.8178   1
  -1  -2   2 1919.39 44.8048   1
   2  -2   2 1066.40 24.9831   1
  -4   0   3 7.61258 1.83888  -2
   4  -2   2 7.61258 1.83888   1
   5  -2   2 11.5739 1.08208   1
  -6   1   3 1869.82 103.637  -2
   6  -2   2 1869.82 103.637   1
   7  -2   2 1959.89 52.9673   1
   8  -2   2 278.352 17.6813   1
  -8   1   6 1140.42 64.7126  -3
   9  -2   2 1140.42 64.7126   1
 -10   3   4 326.018 20.5615  -2
  10  -2   2 326.018 20.5615   1
  11  -2   2 29.1388 3.96977   1
 -10   6   0 203.027 14.1431  -2
 -10  -1   2 203.027 14.1431   1
  -9  -1   2 2200.23 84.8421   1
  -8   5   0 418.302 18.6466  -2
  -8  -1   2 418.302 18.6466   1
  -7  -1   2 593.962 14.6144   1
   6  -4   1 769.128 30.2246  -2
  -6  -1   2 769.128 30.2246   1
  -5  -1   2 1044.14 27.5652   1
   4  -3   1 1255.63 39.3787  -2
  -4  -1   2 1255.63 39.3787   1
  -3  -1   2 5310.79 199.300   1
  -2  -1   2 3331.45 86.3651   1
  -1  -1   2 1906.73 49.1572   1
   0  -1   2 91.4174 2.56552  -2
   0  -1   2 91.4174 2.56552   1
   2  -1   2 718.935 16.9148   1
  -4   1   3 1808.49 65.2666  -2
   4  -1   2 1808.49 65.2666   1
   5  -1   2 1544.75 41.6414   1
  -6   2   3 3137.73 93.6187  -2
   6  -1   2 3137.73 93.6187   1
   7  -1   2 2475.15 58.2254   1
   8  -1   2 193.589 9.30658   1
   9  -1   2 1707.72 95.2822   1
 -10   4   4 124.228 11.1805  -2
  10  -1   2 124.228 11.1805   1
  11  -1   2 3.79607 5.51140   1
 -11   0   2 19.2174 5.40925   1
 -10   5   0 153.011 12.2679  -2
 -10   0   2 153.011 12.2679   1
 -10   2   2 156.481 14.8815  -3
 -10   5   0 156.481 14.8815  -2
 -10   0   2 156.481 14.8815   1
  -9   0   2 606.665 24.5634   1
  -8   4   0 2085.17 65.6349  -2
  -8   0   2 2085.17 65.6349   1
  -7   0   2 635.650 17.8553   1
   6  -3   1 3470.85 107.865  -2
  -6   0   2 3470.85 107.865   1
  -5   0   2 411.195 13.4808   1
   4  -2   1 1293.84 40.1933  -2
  -4   0   2 1293.84 40.1933   1
  -2   0   2 2879.98 74.6694   1
  -1   0   2 1498.73 34.9695   1
   0   0   2 774.862 20.2196  -2
   0   0   2 774.862 20.2196   1
   1   0   2 799.474 18.7408   1
   2   0   2 2549.91 75.0381   1
  -4   2   3 1618.73 48.5021  -2
   4   0   2 1618.73 48.5021   1
   5   0   2 1584.44 37.2175   1
  -6   3   3 203.758 11.5328  -2
   6   0   2 203.758 11.5328   1
   7   0   2 1820.40 42.9869   1
   8   0   2 174.023 9.24293   1
   9   0   2 2228.17 86.0534   1
 -11   1   2 27.9936 4.41078   1
  -9   1   2 295.561 13.7076  -3
  -9   1   2 295.561 13.7076   1
  -8   1   2 1361.71 49.7200  -3
  -8   3   0 1361.71 49.7200  -2
  -8   1   2 1361.71 49.7200   1
  -7   1   2 1500.10 39.4469   1
  -6   0   1 1879.30 49.2717  -3
   6  -2   1 1879.30 49.2717  -2
  -6   1   2 1879.30 49.2717   1
  -5   1   2 11.7351 1.60136   1
   4  -1   1 877.359 20.8412  -2
  -4   1   2 877.359 20.8412   1
  -3   1   2 3619.95 106.476   1
  -2   1   2 3276.29 115.737   1
  -1   1   2 2225.66 57.7065   1
   1   1   2 2728.61 129.314   1
   2   1   2 484.941 11.5462   1
  -4   3   3 2680.44 95.1499  -2
   4   1   2 2680.44 95.1499   1
   5   1   2 1307.33 34.4881   1
  -6   3   4 880.044 32.1918  -3
  -6   4   3 880.044 32.1918  -2
   6   1   2 880.044 32.1918   1
   7   1   2 1225.71 29.2834   1
   8   1   2 240.945 9.34588   1
 -11   2   2 115.617 7.76562   1
 -10   3   0 210.977 15.2871  -2
 -10   2   2 210.977 15.2871   1
  -9   2   2 123.698 10.1036   1
  -8   2   0 1298.67 70.5746  -2
  -8   2   2 1298.67 70.5746   1
  -7   2   2 552.678 13.5081   1
   6  -1   1 5185.02 160.676  -2
  -6   2   2 5185.02 160.676   1
  -5   2   2 44.1558 2.14144   1
   4   0   1 2058.50 53.6686  -2
  -4   2   2 2058.50 53.6686   1
  -3   2   2 1544.18 39.8511   1
   0   2   2 2920.07 75.9189  -2
   0   2   2 2920.07 75.9189   1
   1   2   2 96.4656 3.10379   1
   2   2   2 967.265 25.4019   1
   3   2   2 4839.04 125.278   1
  -4   4   3 1080.47 52.1605  -2
   4   2   2 1080.47 52.1605   1
   5   2   2 337.110 10.9055   1
   7   2   2 360.431 10.6028   1
 -11   3   2 196.898 10.2724   1
 -10   2   0 841.078 33.6891  -2
 -10   3   2 841.078 33.6891   1
  -9   3   2 5.86027 3.86396   1
  -7   3   2 55.2903 2.86691   1
   6   0   1 7032.46 217.914  -2
  -6   3   2 7032.46 217.914   1
  -5   3   2 695.623 18.3891   1
   4   1   1 689.046 20.9710  -2
  -4   3   2 689.046 20.9710   1
  -3   3   2 25.4981 1.34418   1
  -2   3   2 1745.85 45.3843   1
  -1   3   2 2957.63 76.0396   1
   1   3   2 833.925 19.6863   1
   2   3   2 1049.97 24.7518   1
   3   3   2 1729.99 44.7833   1
  -4   5   3 2450.57 72.4511  -2
   4   3   2 2450.57 72.4511   1
   5   3   2 3459.43 89.9270   1
  -6   6   3 1877.44 56.2569  -2
   6   3   2 1877.44 56.2569   1
   7   3   2 215.404 9.62157   1
   9   3   2 721.965 36.5812   1
  11   3   2 144.934 16.6372   1
 -11   4   2 691.231 40.5949   1
 -10   1   0 611.074 25.0988  -2
 -10   4   2 611.074 25.0988   1
  -8  -2   3 515.873 31.6202  -3
  -9   4   2 515.873 31.6202   1
  -8   4   2 297.633 13.0674   1
  -7   4   2 44.0568 4.41782   1
   6   1   1 6366.29 349.245  -2
  -6   4   2 6366.29 349.245   1
  -5   4   2 538.826 30.9459   1
   4   2   1 2892.16 75.4823  -2
  -4   4   2 2892.16 75.4823   1
  -3   4   2 171.963 4.43172   1
   2   3   2 3143.04 172.933  -2
  -2   4   2 3143.04 172.933   1
  -1   4   2 2272.80 60.9146   1
   1   4   2 189.216 4.94875   1
   2   4   2 548.609 13.2239   1
   3   4   2 73.8214 2.58748   1
  -4   6   3 774.680 24.0201  -2
   4   4   2 774.680 24.0201   1
   5   4   2 555.627 13.8102   1
   7   4   2 106.340 7.01500   1
   9   4   2 631.594 24.9738   1
  11   4   2 375.498 26.6298   1
 -11   5   2 677.175 27.6851   1
  10   0   0 1008.47 57.7735  -2
 -10   5   2 1008.47 57.7735   1
  -8  -3   3 780.345 45.6399  -3
  -9   5   2 780.345 45.6399   1
  -7  -3   3 281.329 19.2686  -3
  -8   5   2 281.329 19.2686   1
  -7   5   2 26.4680 5.14364   1
  -5  -4   2 2486.06 137.602  -3
   6   2   1 2486.06 137.602  -2
  -6   5   2 2486.06 137.602   1
  -4  -4   2 1675.15 93.1808  -3
  -5   5   2 1675.15 93.1808   1
   4   3   1 2487.50 89.6579  -2
  -4   5   2 2487.50 89.6579   1
  -3   5   2 419.235 10.1748   1
  -2   5   2 332.154 9.00089   1
  -1   5   2 57.7704 2.16389   1
   0   5   2 9269.07 507.836  -2
   0   5   2 9269.07 507.836   1
  -2   6   1 521.113 28.3848  -3
   1   5   2 521.113 28.3848   1
   3   5   2 25.1366 2.51629   1
  -4   7   3 2114.08 63.5983  -2
   4   5   2 2114.08 63.5983   1
  -6   7   2 1064.37 61.4365  -3
   5   5   2 1064.37 61.4365   1
  -7   7   3 3382.99 122.475  -3
  -6   8   3 3382.99 122.475  -2
   6   5   2 3382.99 122.475   1
   7   5   2 5.50747 3.04766   1
 -10   8   4 96.9361 15.8531  -3
   9   5   2 96.9361 15.8531   1
  12   0   0 346.674 24.1377  -2
 -12   6   2 346.674 24.1377   1
 -11   6   2 668.457 27.3741   1
  10   1   0 99.4155 11.4973  -2
 -10   6   2 99.4155 11.4973   1
  -9   6   2 2405.42 92.7284   1
  -8   6   2 41.1711 6.06688   1
  -7   6   2 270.310 12.0231   1
  -5   6   2 3268.93 125.051   1
   4   4   1 2604.08 93.8673  -2
  -4   6   2 2604.08 93.8673   1
  -3   6   2 1748.57 41.0211   1
   2   5   2 540.448 16.9315  -2
  -2   6   2 540.448 16.9315   1
  -1   6   2 158.592 4.94126   1
   0   6   2 3781.40 112.715  -2
   0   6   2 3781.40 112.715   1
   1   6   2 825.039 19.7276   1
  -3   7   1 1961.30 94.1191  -3
   2   6   2 1961.30 94.1191   1
   3   6   2 288.202 9.81087   1
  -4   8   3 302.283 13.0126  -2
   4   6   2 302.283 13.0126   1
   5   6   2 -0.4200 2.73123   1
  -6   9   3 2278.05 127.539  -2
   6   6   2 2278.05 127.539   1
   7   6   2 53.8332 6.13515   1
  -8  10   4 443.268 32.2629  -2
   8   6   2 443.268 32.2629   1
  12   1   0 72.1491 13.4962  -2
 -12   7   2 72.1491 13.4962   1
 -11   7   2 438.805 26.1665   1
  10   2   0 174.936 14.5215  -2
 -10   7   2 174.936 14.5215   1
  -9   7   2 1755.33 68.1470   1
  -8   7   2 3.80638 3.59330   1
  -7   7   2 169.967 8.61313   1
   6   4   1 970.676 55.0492  -2
  -6   7   2 970.676 55.0492   1
  -5   7   2 1163.77 45.4426   1
   4   5   1 325.400 14.1387  -2
  -4   7   2 325.400 14.1387   1
  -3   7   2 4245.19 110.177   1
   2   6   2 137.218 6.06428  -2
  -2   7   2 137.218 6.06428   1
  -1   7   2 818.202 21.8626   1
   0   7   2 2132.71 55.7994  -2
   0   7   2 2132.71 55.7994   1
   1   7   2 2546.56 66.4367   1
   2   7   2 1427.77 52.2896   1
   3   7   2 533.701 20.6971   1
  -4   9   3 197.432 9.86692  -2
   4   7   2 197.432 9.86692   1
   5   7   2 0.98973 2.73109   1
  -6  10   3 1121.29 65.2578  -2
   6   7   2 1121.29 65.2578   1
   7   7   2 80.3568 7.19461   1
  -8  11   4 340.254 29.0115  -2
   8   7   2 340.254 29.0115   1
   9   7   2 2.80253 4.50564   1
  12   2   0 272.714 20.8075  -2
 -12   8   2 272.714 20.8075   1
 -11   8   2 173.392 9.55200   1
  10   3   0 25.8377 9.99855  -2
 -10   8   2 25.8377 9.99855   1
  -7  -6   4 1384.82 78.3164  -3
  -9   8   2 1384.82 78.3164   1
   8   4   1 501.041 31.2232  -2
  -8   8   2 501.041 31.2232   1
  -7   8   2 1357.59 52.9846   1
  -4  -7   3 175.548 14.0729  -3
   6   5   1 175.548 14.0729  -2
  -6   8   2 175.548 14.0729   1
  -5   8   2 819.992 46.7968   1
   4   6   1 334.393 20.4230  -2
  -4   8   2 334.393 20.4230   1
  -3   8   2 2933.85 68.7524   1
   2   7   2 192.026 9.10209  -2
  -2   8   2 192.026 9.10209   1
  -1   8   2 0.35159 1.30467   1
   0   8   2 690.981 17.0477  -2
   0   8   2 690.981 17.0477   1
   1   8   2 1015.76 38.5820   1
  -4   9   0 454.098 24.8079  -3
  -2   9   2 454.098 24.8079  -2
   2   8   2 454.098 24.8079   1
   3   8   2 1204.21 44.5587   1
  -4  10   3 36.8740 6.34860  -2
   4   8   2 36.8740 6.34860   1
   5   8   2 43.7176 5.63113   1
  -8  10   2 632.730 42.9809  -3
  -6  11   3 632.730 42.9809  -2
   6   8   2 632.730 42.9809   1
   7   8   2 509.362 22.1955   1
 -11   9   2 180.713 9.87108   1
  -7   9   2 620.735 25.3282   1
  -4  -8   3 248.977 12.7863  -3
   6   6   1 248.977 12.7863  -2
  -6   9   2 248.977 12.7863   1
  -3  -8   3 80.6346 7.03670  -3
  -5   9   2 80.6346 7.03670   1
   4   7   1 231.523 16.8234  -2
  -4   9   2 231.523 16.8234   1
  -3   9   2 2500.10 89.1041   1
   0  -9   2 487.800 30.1955  -3
  -2   9   2 487.800 30.1955   1
   2   8   2 552.192 32.0723  -2
  -2   9   2 552.192 32.0723   1
   1  -9   1 1078.30 39.9815  -3
  -1   9   2 1078.30 39.9815   1
   0   9   2 57.7493 6.07155  -2
   0   9   2 57.7493 6.07155   1
   1   9   2 251.425 11.1531   1
  -4  10   0 456.237 31.1197  -3
  -2  10   2 456.237 31.1197  -2
   2   9   2 456.237 31.1197   1
  -4  10   0 393.065 20.9790  -3
   2   9   2 393.065 20.9790   1
   3   9   2 1764.83 64.7162   1
  -4  11   3 79.8158 13.6795  -2
   4   9   2 79.8158 13.6795   1
  -7  11   1 21.7303 16.0678  -3
   5   9   2 21.7303 16.0678   1
   7   9   2 111.070 9.56098   1
 -11  10   2 -1.9885 3.13398   1
  10   5   0 64.3433 7.33510  -2
 -10  10   2 64.3433 7.33510   1
  -9  10   2 717.359 40.5320   1
  -8  10   2 65.4091 8.44861   1
  -7  10   2 1000.99 39.6909   1
   6   7   1 575.013 23.7211  -2
  -6  10   2 575.013 23.7211   1
  -3  -9   3 271.123 13.8928  -3
  -5  10   2 271.123 13.8928   1
   4   8   1 130.533 9.24209  -2
  -4  10   2 130.533 9.24209   1
  -3  10   2 1433.36 56.0773   1
   2   9   2 140.856 13.5769  -2
  -2  10   2 140.856 13.5769   1
  -1  10   2 852.526 32.0757   1
   0  10   2 42.3902 11.0483  -2
   0  10   2 42.3902 11.0483   1
   1  10   2 27.4327 4.38883   1
   3  10   2 670.099 26.0756   1
  -4  12   3 49.4318 15.4647  -2
   4  10   2 49.4318 15.4647   1
  -7  12   1 134.782 23.5454  -3
   5  10   2 134.782 23.5454   1
  10   6   0 130.613 9.22798  -2
 -10  11   2 130.613 9.22798   1
  -9  11   2 135.381 8.23495   1
  -7  11   2 205.613 10.6225   1
   6   8   1 728.504 42.2986  -2
  -6  11   2 728.504 42.2986   1
  -3 -10   4 871.909 50.0450  -3
   6   8   1 871.909 50.0450  -2
  -6  11   2 871.909 50.0450   1
  -5  11   2 58.0023 6.05820   1
   4   9   1 16.9113 11.0530  -2
  -4  11   2 16.9113 11.0530   1
  -3  11   2 639.942 26.3253   1
   2  10   2 99.8406 12.3255  -2
  -2  11   2 99.8406 12.3255   1
  -1  11   2 734.519 28.2027   1
   0  11   2 221.464 17.8930  -2
   0  11   2 221.464 17.8930   1
   1  11   2 171.308 9.27525   1
   2  11   2 131.859 8.26036   1
   3  11   2 1181.98 44.2518   1
  -4  13   3 19.6898 15.8558  -2
   4  11   2 19.6898 15.8558   1
   5  11   2 340.958 19.1451   1
  -6 -10   5 150.013 11.0224  -3
  -9  12   2 150.013 11.0224   1
   8   8   1 300.238 21.7925  -2
  -8  12   2 300.238 21.7925   1
  -7  12   2 662.884 37.9814   1
  -3 -11   4 896.715 51.1398  -3
   6   9   1 896.715 51.1398  -2
  -6  12   2 896.715 51.1398   1
  -2 -11   4 -11.091 8.84421  -3
  -5  12   2 -11.091 8.84421   1
   4  10   1 74.1479 10.7923  -2
  -4  12   2 74.1479 10.7923   1
  -3  12   2 540.526 32.6534   1
   2 -12   2 438.974 29.5815  -3
  -1  12   2 438.974 29.5815   1
   0  12   2 597.790 37.0324  -2
   0  12   2 597.790 37.0324   1
   1  12   2 23.3508 4.10439   1
   3  12   2 188.003 10.5252   1
  -7  13   2 190.553 10.5880   1
   6  10   1 549.290 33.0295  -2
  -6  13   2 549.290 33.0295   1
  -2 -12   4 23.3052 10.4008  -3
  -5  13   2 23.3052 10.4008   1
   1  13   2 27.3121 4.54531   1
  -2 -13   4 12.8596 13.3603  -3
  -5  14   2 12.8596 13.3603   1
  -3  14   2 89.7197 12.8847   1
  -1  14   2 184.290 16.2411   1
  -2 -13   3 18.7105 14.5990  -2
   2 -14   3 18.7105 14.5990   1
   1 -12   8 52.1380 15.8230  -3
   3 -14   3 52.1380 15.8230   1
  -4 -12   4 66.7416 10.1620  -2
   4 -14   3 66.7416 10.1620   1
  -1 -13   3 5.58047 7.43705   1
   3 -13   3 206.558 20.8166   1
   5 -13   3 15.6506 5.77732   1
  -6 -10   4 557.761 23.9694  -2
   6 -13   3 557.761 23.9694   1
   7 -13   3 326.703 15.1709   1
  -1 -12   3 142.488 13.3242   1
   0 -12   3 541.190 22.2583  -2
   0 -12   3 541.190 22.2583   1
   1 -12   3 803.656 30.7693   1
  -2 -11   3 43.5093 12.5376  -2
   2 -12   3 43.5093 12.5376   1
   3 -12   3 305.763 14.6410   1
   5 -12   3 27.3090 4.53007   1
  -6  -9   4 659.138 39.2978  -2
   6 -12   3 659.138 39.2978   1
   7 -12   3 565.232 23.6192   1
  -3 -11   3 463.836 29.2366   1
   2 -12   2 366.898 26.5806  -2
  -2 -11   3 366.898 26.5806   1
  -1 -11   3 121.777 11.5402   1
   3 -10   6 188.476 17.3759  -3
   0 -11   3 188.476 17.3759  -2
   0 -11   3 188.476 17.3759   1
   2 -10   6 797.478 45.8042  -3
   1 -11   3 797.478 45.8042   1
  -2 -10   3 4.04304 7.84604  -2
   2 -11   3 4.04304 7.84604   1
   3 -11   3 746.576 30.2487   1
  -4  -9   4 0.86128 7.92693  -2
   4 -11   3 0.86128 7.92693   1
   5 -11   3 207.216 10.5955   1
  -6  -8   4 653.187 26.8800  -2
   6 -11   3 653.187 26.8800   1
   7 -11   3 1042.61 59.6177   1
   9 -11   3 393.548 17.3087   1
   6 -10   4 1149.40 63.9688  -3
  -3 -10   3 1149.40 63.9688   1
  -1 -10   3 178.395 13.2271   1
   3  -9   6 28.8161 10.2536  -3
   0 -10   3 28.8161 10.2536  -2
   0 -10   3 28.8161 10.2536   1
   2  -9   6 2185.13 117.393  -3
   1 -10   3 2185.13 117.393   1
  -2  -9   3 11.4365 9.79074  -2
   2 -10   3 11.4365 9.79074   1
   0  -8   7 1095.13 60.5761  -3
   3 -10   3 1095.13 60.5761   1
   5 -10   3 349.850 15.4168   1
  -6  -7   4 415.853 17.9817  -2
   6 -10   3 415.853 17.9817   1
   7 -10   3 723.653 29.2940   1
 -10  -5   5 9.18328 5.33541  -2
  10 -10   3 9.18328 5.33541   1
  -5  -9   3 136.168 7.91626   1
   4 -11   2 192.668 9.48717  -2
  -4  -9   3 192.668 9.48717   1
   6  -9   4 753.907 43.0322  -3
  -3  -9   3 753.907 43.0322   1
   2 -10   3 561.331 33.0924  -2
  -2  -9   3 561.331 33.0924   1
  -1  -9   3 10.2426 2.72717   1
   0  -9   3 63.4050 7.67931  -2
   0  -9   3 63.4050 7.67931   1
   1  -9   3 1296.26 35.6370   1
  -2  -8   3 381.778 11.6565  -2
   2  -9   3 381.778 11.6565   1
   3  -9   3 1997.27 77.1171   1
  -1  -7   7 708.758 40.7478  -3
  -4  -7   4 708.758 40.7478  -2
   4  -9   3 708.758 40.7478   1
   5  -9   3 301.255 13.4480   1
  -6  -6   4 153.607 8.65046  -2
   6  -9   3 153.607 8.65046   1
   7  -9   3 1874.74 72.6097   1
  -6  -6   9 882.178 35.7427  -3
   9  -9   3 882.178 35.7427   1
 -10  -4   5 27.8112 4.95411  -2
  10  -9   3 27.8112 4.95411   1
  -8  -5  10 148.620 15.0356  -3
  11  -9   3 148.620 15.0356   1
  -7  -8   3 5.85849 4.04415   1
   6 -11   2 577.474 34.8618  -2
  -6  -8   3 577.474 34.8618   1
  -5  -8   3 0.93809 2.78026   1
   4 -10   2 442.467 17.3907  -2
  -4  -8   3 442.467 17.3907   1
  -3  -8   3 1098.47 40.0069   1
  -2  -8   3 1551.78 84.0788   1
  -1  -8   3 349.925 14.9263   1
   0  -8   3 324.842 11.6728  -2
   0  -8   3 324.842 11.6728   1
   1  -8   3 667.671 18.8065   1
  -2  -7   3 144.864 7.03425  -2
   2  -8   3 144.864 7.03425   1
   3  -8   3 1705.82 40.3523   1
  -4  -6   4 435.984 18.5096  -2
   4  -8   3 435.984 18.5096   1
   5  -8   3 165.567 8.40444   1
  -6  -5   4 142.576 7.96603  -2
   6  -8   3 142.576 7.96603   1
   7  -8   3 1280.63 50.0702   1
  -8  -4   5 134.274 13.8862  -2
   8  -8   3 134.274 13.8862   1
   9  -8   3 944.540 37.5596   1
 -10  -3   5 189.649 17.7786  -2
  10  -8   3 189.649 17.7786   1
  11  -8   3 356.373 22.7960   1
   9  -8   2 47.7257 11.9085  -3
  -7  -7   3 47.7257 11.9085   1
   6 -10   2 825.558 46.6300  -2
  -6  -7   3 825.558 46.6300   1
  -5  -7   3 23.0046 3.08143   1
  -3  -7   3 707.487 26.1665   1
  -2  -7   3 2123.91 66.3506   1
  -1  -7   3 188.726 5.43666   1
   2  -6   5 1301.76 70.5379  -3
   0  -7   3 1301.76 70.5379  -2
   0  -7   3 1301.76 70.5379   1
   0  -7   3 1322.21 51.6194  -2
   0  -7   3 1322.21 51.6194   1
   1  -6   5 70.3225 9.44314  -3
   1  -7   3 70.3225 9.44314   1
  -2  -6   3 2254.33 59.0220  -2
   2  -7   3 2254.33 59.0220   1
   3  -7   3 2992.23 70.0090   1
  -4  -5   4 2132.92 66.7308  -2
   4  -7   3 2132.92 66.7308   1
   5  -7   3 457.049 18.8080   1
  -6  -4   4 445.030 18.5928  -2
   6  -7   3 445.030 18.5928   1
   7  -7   3 731.911 29.3048   1
  -8  -3   5 47.7028 10.9547  -2
   8  -7   3 47.7028 10.9547   1
   9  -7   3 1015.96 57.8897   1
 -10  -2   5 144.452 11.3779  -2
  10  -7   3 144.452 11.3779   1
  11  -7   3 153.506 12.8044   1
 -12  -1   5 32.1429 8.09965  -2
  12  -7   3 32.1429 8.09965   1
  10  -7   1 533.766 33.8327  -3
   8 -10   1 533.766 33.8327  -2
  -8  -6   3 533.766 33.8327   1
  -7  -6   3 31.9048 7.57543   1
   8  -7   2 2279.35 122.417  -3
   6  -9   2 2279.35 122.417  -2
  -6  -6   3 2279.35 122.417   1
  -5  -6   3 283.490 15.6771   1
   6  -6   3 555.393 31.9219  -3
   4  -8   2 555.393 31.9219  -2
  -4  -6   3 555.393 31.9219   1
   5  -6   3 391.323 16.9417  -3
  -3  -6   3 391.323 16.9417   1
  -2  -6   3 4165.67 147.428   1
  -1  -6   3 228.115 6.91707   1
   0  -6   3 2572.67 98.4576  -2
   0  -6   3 2572.67 98.4576   1
   1  -5   5 298.599 10.5528  -3
   1  -6   3 298.599 10.5528   1
  -2  -5   3 164.459 8.59815  -2
   2  -6   3 164.459 8.59815   1
   3  -6   3 2133.51 55.6831   1
  -2  -4   6 3296.69 175.844  -3
   4  -6   3 3296.69 175.844   1
  -2  -4   6 3465.81 184.344  -3
  -4  -4   4 3465.81 184.344  -2
   4  -6   3 3465.81 184.344   1
  -3  -4   6 346.216 21.7720  -3
   5  -6   3 346.216 21.7720   1
  -6  -3   4 961.631 52.7206  -2
   6  -6   3 961.631 52.7206   1
   7  -6   3 71.6879 5.39289   1
  -6  -3   8 595.641 34.8457  -3
  -8  -2   5 595.641 34.8457  -2
   8  -6   3 595.641 34.8457   1
  -7  -3   8 1652.53 64.4841  -3
   9  -6   3 1652.53 64.4841   1
 -10  -1   5 703.276 28.6393  -2
  10  -6   3 703.276 28.6393   1
  -9  -2   9 261.119 18.8929  -3
  11  -6   3 261.119 18.8929   1
 -10  -2   9 206.060 17.7608  -3
 -12   0   5 206.060 17.7608  -2
  12  -6   3 206.060 17.7608   1
  10 -10   1 230.264 19.0542  -2
 -10  -5   3 230.264 19.0542   1
  -9  -5   3 28.9234 6.03468   1
   8  -9   1 551.457 32.9721  -2
  -8  -5   3 551.457 32.9721   1
  -7  -5   3 15.0283 2.88386   1
   6  -8   2 2972.40 158.572  -2
  -6  -5   3 2972.40 158.572   1
  -5  -5   3 1473.71 52.9731   1
   4  -7   2 337.504 19.9849  -2
  -4  -5   3 337.504 19.9849   1
   5  -5   3 18.7577 6.07129  -3
  -3  -5   3 18.7577 6.07129   1
  -2  -5   3 1875.84 56.0831   1
  -1  -5   3 3.90925 0.99780   1
   0  -5   3 8294.97 316.224  -2
   0  -5   3 8294.97 316.224   1
   1  -5   3 880.792 20.9908   1
   2  -5   3 667.942 16.0487   1
   3  -5   3 770.834 18.4110   1
  -4  -3   4 5188.75 276.472  -2
   4  -5   3 5188.75 276.472   1
   5  -5   3 591.625 23.6098   1
  -6  -2   4 2678.66 102.831  -2
   6  -5   3 2678.66 102.831   1
   7  -5   3 118.468 6.78129   1
   8  -5   3 462.910 19.2228   1
  -7  -2   8 1205.76 68.8958  -3
  -9  -1   5 1205.76 68.8958  -2
   9  -5   3 1205.76 68.8958   1
  -7  -2   8 1211.77 66.6516  -3
   9  -5   3 1211.77 66.6516   1
 -10   0   5 780.634 31.5457  -2
  10  -5   3 780.634 31.5457   1
  11  -5   3 103.486 10.7062   1
 -10  -1   9 205.312 19.8737  -3
 -12   1   5 205.312 19.8737  -2
  12  -5   3 205.312 19.8737   1
 -11  -4   3 442.191 27.2917   1
  10  -9   1 65.9116 11.0067  -2
 -10  -4   3 65.9116 11.0067   1
  -9  -4   3 616.738 35.1953   1
   8  -8   1 63.9828 10.8801  -2
  -8  -4   3 63.9828 10.8801   1
  -7  -4   3 112.937 6.37014   1
  -5  -4   3 3015.86 70.6781   1
   4  -6   2 2092.93 65.4553  -2
  -4  -4   3 2092.93 65.4553   1
  -3  -4   3 11.5758 1.27638   1
  -2  -4   3 1659.20 39.0206   1
  -1  -4   3 32.9200 1.75398   1
   1  -4   3 3332.07 77.7118   1
   2  -4   3 289.598 7.27046   1
   3  -4   3 16.7684 1.50915   1
  -4  -2   4 3232.62 95.4270  -2
   4  -4   3 3232.62 95.4270   1
   5  -4   3 27.5693 1.85189   1
  -6  -1   4 3493.92 192.393  -2
   6  -4   3 3493.92 192.393   1
   7  -4   3 370.981 15.9882   1
   8  -4   3 64.4617 5.24090   1
   9  -4   3 197.900 9.82605   1
 -10   1   5 2084.78 80.7412  -2
  10  -4   3 2084.78 80.7412   1
  11  -4   3 236.321 16.6013   1
 -12   2   5 681.452 40.7202  -2
  12  -4   3 681.452 40.7202   1
  -9  -3   3 1264.23 46.6099   1
  -9   4   0 261.581 19.8439  -3
   8  -7   1 261.581 19.8439  -2
  -8  -3   3 261.581 19.8439   1
   6  -6   2 836.248 46.0174  -2
  -6  -3   3 836.248 46.0174   1
  -5  -3   3 2696.19 79.8634   1
   4  -5   2 82.4211 8.44405  -2
  -4  -3   3 82.4211 8.44405   1
  -3  -3   3 2105.63 49.3573   1
  -2  -3   3 433.755 10.6888   1
  -1  -3   3 31.9593 1.65603   1
   0  -3   3 7926.17 420.868  -2
   0  -3   3 7926.17 420.868   1
   2  -3   3 1879.22 43.9579   1
   3  -3   3 2.22476 0.77165   1
  -4  -1   4 2048.35 78.6334  -2
   4  -3   3 2048.35 78.6334   1
  -3  -1   5 2108.30 100.460  -3
  -4  -1   4 2108.30 100.460  -2
   4  -3   3 2108.30 100.460   1
   5  -3   3 13.4055 1.21216   1
  -6   0   4 8932.75 340.727  -2
   6  -3   3 8932.75 340.727   1
   7  -3   3 882.370 34.7568   1
   8  -3   3 263.797 11.8595   1
   9  -3   3 84.3795 6.20108   1
 -10   2   5 630.416 36.0776  -2
  10  -3   3 630.416 36.0776   1
  11  -3   3 42.0013 9.29554   1
 -11   4   1 48.3783 11.3611  -3
  10  -7   1 48.3783 11.3611  -2
 -10  -2   3 48.3783 11.3611   1
  -9  -2   3 1243.12 45.7371   1
   8  -6   1 251.956 17.3937  -2
  -8  -2   3 251.956 17.3937   1
  -7  -2   3 853.684 27.6131   1
   7  -3   1 1345.20 72.6864  -3
   6  -5   2 1345.20 72.6864  -2
  -6  -2   3 1345.20 72.6864   1
  -5  -2   3 3346.48 87.0238   1
   4  -4   2 547.858 21.7298  -2
  -4  -2   3 547.858 21.7298   1
   4  -2   2 5753.58 215.838  -3
  -3  -2   3 5753.58 215.838   1
  -2  -2   3 473.834 15.2284   1
  -1  -2   3 215.264 6.16705   1
   0  -2   3 2581.67 60.3757  -2
   0  -2   3 2581.67 60.3757   1
   1  -2   3 3691.14 108.620   1
   2  -2   3 1372.03 32.1588   1
   3  -2   3 1465.17 34.3301   1
  -3   0   5 260.820 15.1682  -3
   4  -2   3 260.820 15.1682   1
   5  -2   3 88.3245 2.75726   1
  -6   1   4 2736.49 105.012  -2
   6  -2   3 2736.49 105.012   1
   7  -2   3 1591.91 47.6274   1
   8  -2   3 396.427 17.5862   1
 -10   3   5 707.878 40.1173  -2
  10  -2   3 707.878 40.1173   1
 -11  -1   3 419.064 25.1924   1
  10  -6   1 27.6000 6.73746  -2
 -10  -1   3 27.6000 6.73746   1
  -9  -1   3 1004.98 37.2623   1
   8  -5   1 311.695 15.0312  -2
  -8  -1   3 311.695 15.0312   1
  -7  -1   3 659.120 18.5432   1
   6  -4   2 776.985 25.0953  -2
  -6  -1   3 776.985 25.0953   1
  -5  -1   3 1650.55 44.6726   1
   4  -3   2 47.6608 3.54098  -2
  -4  -1   3 47.6608 3.54098   1
  -3  -1   3 5096.70 118.617   1
  -2  -1   3 132.285 3.64729   1
  -1  -1   3 1646.69 42.6013   1
   0  -1   3 403.245 10.8078  -2
   0  -1   3 403.245 10.8078   1
   2  -1   3 372.390 8.99737   1
   3  -1   3 4885.58 143.589   1
  -4   1   4 1036.41 57.9754  -2
   4  -1   3 1036.41 57.9754   1
   5  -1   3 4.21184 0.84733   1
  -6   2   4 2146.23 64.3321  -2
   6  -1   3 2146.23 64.3321   1
   7  -1   3 1204.53 36.1654   1
   8  -1   3 666.387 37.2949   1
   9  -1   3 45.5772 7.89204   1
  11  -1   3 12.1649 8.67262   1
  10  -5   1 69.1518 6.08834  -2
 -10   0   3 69.1518 6.08834   1
  -9   0   3 1515.16 46.2762   1
   8  -4   1 1130.49 30.6249  -2
  -8   0   3 1130.49 30.6249   1
  -7   0   3 720.514 17.5680   1
   6  -3   2 388.579 16.0886  -2
  -6   0   3 388.579 16.0886   1
  -5   0   3 2824.25 66.0764   1
   4  -2   2 76.5502 3.03345  -2
  -4   0   3 76.5502 3.03345   1
  -3   0   3 4183.99 97.4667   1
  -2   0   3 862.479 20.3658   1
  -1   0   3 2039.54 47.5905   1
   1   0   3 1057.67 24.8160   1
   2   0   3 136.630 3.60635   1
   3   0   3 4912.82 144.433   1
  -4   2   4 80.7037 4.45324  -2
   4   0   3 80.7037 4.45324   1
   5   0   3 494.115 13.3963   1
  -6   3   4 979.753 35.5941  -2
   6   0   3 979.753 35.5941   1
   7   0   3 2348.28 61.4137   1
   8   0   3 388.368 22.8636   1
   9   0   3 974.610 38.6819   1
 -10   1   2 10.8464 6.12030  -3
  10  -4   1 10.8464 6.12030  -2
 -10   1   3 10.8464 6.12030   1
  -9   1   3 2225.77 85.7636   1
   8  -3   1 715.321 28.8610  -2
  -8   1   3 715.321 28.8610   1
  -7   1   3 462.785 11.7372   1
   6  -2   2 1168.41 63.0892  -2
  -6   1   3 1168.41 63.0892   1
   6   0   0 1287.06 71.8657  -3
   6  -2   2 1287.06 71.8657  -2
  -6   1   3 1287.06 71.8657   1
  -5   1   3 958.184 22.7953   1
   4   1   1 608.979 33.4758  -3
   4  -1   2 608.979 33.4758  -2
  -4   1   3 608.979 33.4758   1
   4  -1   2 589.682 19.0293  -2
  -4   1   3 589.682 19.0293   1
  -3   1   3 6103.96 179.383   1
  -2   1   3 4190.17 108.567   1
  -1   1   3 3437.70 80.0004   1
   0   1   3 2211.34 51.7277  -2
   0   1   3 2211.34 51.7277   1
   2   1   3 448.856 10.7727   1
   5   1   3 842.196 20.1114   1
  -6   4   4 1822.03 65.2407  -2
   6   1   3 1822.03 65.2407   1
   7   1   3 661.334 18.0302   1
   8   1   3 184.554 8.80396   1
 -11   2   3 38.1624 8.48087   1
 -10   0   2 339.835 23.0079  -3
  10  -3   1 339.835 23.0079  -2
 -10   2   3 339.835 23.0079   1
  -9   2   3 1203.26 47.3074   1
   8  -2   1 1803.13 69.7995  -2
  -8   2   3 1803.13 69.7995   1
  -7   2   3 760.154 20.4614   1
   6  -1   2 2966.75 112.032  -2
  -6   2   3 2966.75 112.032   1
  -5   2   3 897.261 21.4193   1
   4   0   2 120.107 4.96282  -2
  -4   2   3 120.107 4.96282   1
  -2   2   3 2157.41 50.3506   1
  -1   2   3 1806.17 42.1893   1
   0   2   3 1205.23 37.2913  -2
   0   2   3 1205.23 37.2913   1
   1   2   3 1566.62 40.9016   1
   2   2   3 699.098 21.0613   1
   3   2   3 4662.13 108.521   1
  -4   4   4 1875.84 89.8425  -3
  -4   4   4 1875.84 89.8425  -2
   4   2   3 1875.84 89.8425   1
  -5   4   4 1191.91 43.0664  -3
   5   2   3 1191.91 43.0664   1
  -6   5   4 121.638 6.83535  -2
   6   2   3 121.638 6.83535   1
   7   2   3 727.406 22.7085   1
   8   2   3 93.0220 7.96267   1
 -11   3   3 29.1989 4.58771   1
  10  -2   1 313.754 20.4650  -2
 -10   3   3 313.754 20.4650   1
  -9   3   3 425.916 26.0026   1
  -7   3   3 235.424 8.47737   1
   6   0   2 1307.04 35.5284  -2
  -6   3   3 1307.04 35.5284   1
  -5   3   3 711.375 16.9940   1
   4   1   2 908.054 28.7407  -2
  -4   3   3 908.054 28.7407   1
  -3   3   3 5878.72 152.187   1
   2   2   3 4177.79 229.423  -2
  -2   3   3 4177.79 229.423   1
  -1   3   3 989.459 31.0708   1
   0   3   3 4067.29 105.606  -2
   0   3   3 4067.29 105.606   1
   1   3   3 2086.51 54.3854   1
   2   3   3 279.808 8.04726   1
   3   3   3 7374.91 227.829   1
  -4   5   4 1726.60 61.8106  -2
   4   3   3 1726.60 61.8106   1
   5   3   3 1247.25 32.9913   1
  -6   6   4 418.543 16.4947  -2
   6   3   3 418.543 16.4947   1
   7   3   3 632.505 24.1439   1
   8   3   3 348.250 19.0750   1
 -11   8   5 184.513 22.5706  -2
  11   3   3 184.513 22.5706   1
 -11   4   3 279.817 13.1282   1
  10  -1   1 59.6185 8.73603  -2
 -10   4   3 59.6185 8.73603   1
  -9   4   3 2.61220 2.70930   1
  -8   4   3 2296.74 127.329   1
  -7   4   3 833.279 47.4589   1
   6   1   2 5994.77 229.139  -2
  -6   4   3 5994.77 229.139   1
  -5   4   3 78.9704 2.83553   1
   4   2   2 451.137 17.0495  -2
  -4   4   3 451.137 17.0495   1
  -3   4   3 1835.41 47.8405   1
   2   3   3 3244.54 178.580  -2
  -2   4   3 3244.54 178.580   1
  -1   4   3 650.580 15.5266   1
   0   4   3 2594.78 67.5371  -2
   0   4   3 2594.78 67.5371   1
   1   4   3 335.001 9.37922   1
   2   4   3 260.574 7.57951   1
   3   4   3 3223.14 83.9315   1
  -4   6   4 885.561 27.3743  -2
   4   4   3 885.561 27.3743   1
   5   4   3 312.973 10.6464   1
  -6   7   4 696.339 26.9841  -2
   6   4   3 696.339 26.9841   1
   7   4   3 474.911 19.0936   1
   8   4   3 6.31830 3.71981   1
   9   4   3 1342.13 50.0364   1
  12  -1   1 949.839 55.6455  -2
 -12   5   3 949.839 55.6455   1
  -9  -3   3 370.580 24.4230  -3
  10   0   1 370.580 24.4230  -2
 -10   5   3 370.580 24.4230   1
  -9   5   3 19.7253 3.15460   1
  -8   5   3 283.821 12.7015   1
  -5  -4   1 3234.56 178.435  -3
   6   2   2 3234.56 178.435  -2
  -6   5   3 3234.56 178.435   1
  -5   5   3 897.838 21.2986   1
   4   3   2 306.346 12.1446  -2
  -4   5   3 306.346 12.1446   1
   2   5   0 184.528 6.54253  -3
  -3   5   3 184.528 6.54253   1
   2   4   3 4071.60 223.876  -2
  -2   5   3 4071.60 223.876   1
  -1   5   3 1209.72 31.7687   1
   0   5   3 5547.23 163.185  -2
   0   5   3 5547.23 163.185   1
  -1   6   1 5809.70 318.974  -3
   0   5   3 5809.70 318.974  -2
   0   5   3 5809.70 318.974   1
   1   5   3 139.254 4.62225   1
   2   5   3 251.241 7.44514   1
   3   5   3 2825.46 73.7381   1
  -5   7   3 1369.07 77.7087  -3
  -4   7   4 1369.07 77.7087  -2
   4   5   3 1369.07 77.7087   1
  -6   7   3 541.757 28.1249  -3
   5   5   3 541.757 28.1249   1
  -6   8   4 1006.05 37.9150  -2
   6   5   3 1006.05 37.9150   1
   7   5   3 30.7496 4.61359   1
  -8   9   5 78.7226 17.7697  -2
   8   5   3 78.7226 17.7697   1
 -10  10   5 149.911 18.7115  -2
  10   5   3 149.911 18.7115   1
 -11   6   3 521.248 22.2387   1
  -9  -4   3 727.674 43.3893  -3
  10   1   1 727.674 43.3893  -2
 -10   6   3 727.674 43.3893   1
  -8  -4   3 270.449 19.6006  -3
  -9   6   3 270.449 19.6006   1
   8   2   2 155.925 15.2365  -2
  -8   6   3 155.925 15.2365   1
  -7   6   3 12.7751 2.74030   1
  -5   6   3 152.506 5.00136   1
   4   4   2 465.691 27.9512  -2
  -4   6   3 465.691 27.9512   1
   2   6   0 57.2225 5.04468  -3
  -3   6   3 57.2225 5.04468   1
  -2   6   3 1145.15 34.2321   1
  -1   6   3 1690.45 39.7609   1
   0   6   3 4286.68 111.340  -2
   0   6   3 4286.68 111.340   1
   1   6   3 408.350 11.4316   1
  -2   7   3 52.2727 12.3301  -2
   2   6   3 52.2727 12.3301   1
   3   6   3 144.730 7.39917   1
  -6   8   3 577.721 22.7838  -3
   5   6   3 577.721 22.7838   1
  -6   9   4 1564.89 57.8237  -2
   6   6   3 1564.89 57.8237   1
   7   6   3 20.5275 3.69154   1
  12   1   1 248.609 20.3518  -2
 -12   7   3 248.609 20.3518   1
 -11   7   3 173.332 13.0667   1
  10   2   1 770.581 45.2907  -2
 -10   7   3 770.581 45.2907   1
  -9   7   3 610.477 24.9541   1
   8   3   2 115.313 13.8988  -2
  -8   7   3 115.313 13.8988   1
  -7   7   3 12.1727 2.78085   1
   6   4   2 1514.04 84.6853  -2
  -6   7   3 1514.04 84.6853   1
  -5   7   3 517.119 21.0740   1
   4   5   2 2103.97 76.2220  -2
  -4   7   3 2103.97 76.2220   1
  -3   7   3 693.635 18.6536   1
   2   6   3 83.5236 4.92096  -2
  -2   7   3 83.5236 4.92096   1
  -1   7   3 35.1767 2.28439   1
   0   7   3 4297.52 128.145  -2
   0   7   3 4297.52 128.145   1
   1   7   3 25.4224 2.51571   1
   2   7   3 826.770 40.8103   1
   3   7   3 118.363 6.65054   1
  -4   9   4 643.195 25.0334  -2
   4   7   3 643.195 25.0334   1
  -6   9   3 866.800 43.4309  -3
   5   7   3 866.800 43.4309   1
  -6  10   4 919.394 35.3046  -2
   6   7   3 919.394 35.3046   1
   7   7   3 -4.7975 3.36478   1
  -9  11   5 169.043 24.0614  -2
   9   7   3 169.043 24.0614   1
  12   2   1 98.6965 14.7122  -2
 -12   8   3 98.6965 14.7122   1
  -9  -6   4 401.641 26.8573  -3
 -11   8   3 401.641 26.8573   1
  10   3   1 283.886 20.0822  -2
 -10   8   3 283.886 20.0822   1
  -9   8   3 1071.75 42.3547   1
   8   4   2 136.797 14.6962  -2
  -8   8   3 136.797 14.6962   1
  -7   8   3 38.9989 5.06757   1
   6   5   2 971.791 55.3270  -2
  -6   8   3 971.791 55.3270   1
  -5   8   3 441.121 19.5398   1
   4   6   2 2054.84 79.3569  -2
  -4   8   3 2054.84 79.3569   1
  -1  -8   1 497.600 20.6360  -3
  -3   8   3 497.600 20.6360   1
   2   7   3 464.714 15.0632  -2
  -2   8   3 464.714 15.0632   1
  -1   8   3 42.4298 3.33862   1
   0   8   3 2333.69 83.4330  -2
   0   8   3 2333.69 83.4330   1
   1   8   3 147.923 7.55757   1
   2   8   3 800.761 30.2331   1
   3   8   3 385.299 15.8160   1
  -4  10   4 242.968 19.2591  -2
   4   8   3 242.968 19.2591   1
   5   8   3 8.89940 3.29114   1
  -6  11   4 1378.56 79.8082  -2
   6   8   3 1378.56 79.8082   1
   7   8   3 10.8520 4.06178   1
  -9  -7   4 214.146 19.0975  -3
 -11   9   3 214.146 19.0975   1
  -9   9   3 1161.96 45.8171   1
   8   5   2 -7.2997 11.3458  -2
  -8   9   3 -7.2997 11.3458   1
  -5  -8   3 83.4083 11.7523  -3
  -7   9   3 83.4083 11.7523   1
  -4  -8   2 344.689 22.7395  -3
   6   6   2 344.689 22.7395  -2
  -6   9   3 344.689 22.7395   1
  -5   9   3 888.807 35.2392   1
   4   7   2 723.313 42.5124  -2
  -4   9   3 723.313 42.5124   1
  -1  -9   1 1984.90 59.8541  -3
  -3   9   3 1984.90 59.8541   1
   2   8   3 114.719 10.3950  -2
  -2   9   3 114.719 10.3950   1
  -1   9   3 69.3898 8.99922   1
   0   9   3 1398.68 51.4840  -2
   0   9   3 1398.68 51.4840   1
  -3  10   0 421.683 28.6871  -3
   1   9   3 421.683 28.6871   1
   2   9   3 1760.00 84.9675   1
   3   9   3 216.909 10.3803   1
  -4  11   4 119.915 8.78808  -2
   4   9   3 119.915 8.78808   1
  -7  11   2 3.97872 14.3760  -3
   5   9   3 3.97872 14.3760   1
   7   9   3 -0.0464 3.73705   1
  10   5   1 114.536 11.8066  -2
 -10  10   3 114.536 11.8066   1
  -9  10   3 1928.24 105.133   1
   8   6   2 151.535 15.5464  -2
  -8  10   3 151.535 15.5464   1
  -7  10   3 1021.54 56.3311   1
  -4  -9   3 244.972 18.5688  -3
   6   7   2 244.972 18.5688  -2
  -6  10   3 244.972 18.5688   1
   6   7   2 233.075 16.4245  -2
  -6  10   3 233.075 16.4245   1
  -5  10   3 204.996 10.2255   1
   4   8   2 341.177 16.0200  -2
  -4  10   3 341.177 16.0200   1
  -1 -10   1 1526.58 86.0274  -3
  -3  10   3 1526.58 86.0274   1
   0 -10   1 130.726 16.0487  -3
   2   9   3 130.726 16.0487  -2
  -2  10   3 130.726 16.0487   1
  -1  10   3 40.2661 5.27436   1
   0  10   3 125.863 8.38488  -2
   0  10   3 125.863 8.38488   1
  -3  11   0 474.423 19.7666  -3
   1  10   3 474.423 19.7666   1
  -4  11   1 507.861 27.4546  -3
   2  10   3 507.861 27.4546   1
   3  10   3 580.899 23.0278   1
  -6  12   1 164.704 22.7307  -3
  -4  12   4 164.704 22.7307  -2
   4  10   3 164.704 22.7307   1
  10   6   1 37.1583 7.43413  -2
 -10  11   3 37.1583 7.43413   1
  -9  11   3 468.952 20.0026   1
  -7  11   3 169.998 9.47353   1
   6   8   2 56.6286 6.71959  -2
  -6  11   3 56.6286 6.71959   1
  -5  11   3 248.950 12.1324   1
   4   9   2 114.810 8.81473  -2
  -4  11   3 114.810 8.81473   1
  -3  11   3 2152.15 119.863   1
   2  10   3 56.4890 12.0327  -2
  -2  11   3 56.4890 12.0327   1
  -1  11   3 543.150 21.5230   1
   1  11   3 244.210 11.4637   1
  -2  12   3 286.959 24.9665  -2
   2  11   3 286.959 24.9665   1
   3  11   3 988.058 38.0679   1
   5  11   3 26.0336 9.96399   1
  -9  12   3 560.155 33.5911   1
   8   8   2 277.796 14.7925  -2
  -8  12   3 277.796 14.7925   1
  -7  12   3 433.222 26.7949   1
   6   9   2 102.336 13.0561  -2
  -6  12   3 102.336 13.0561   1
  -5  12   3 112.816 8.30248   1
   4  10   2 145.227 15.7327  -2
  -4  12   3 145.227 15.7327   1
   0 -12   2 737.607 44.6376  -3
  -3  12   3 737.607 44.6376   1
  -1  12   3 183.492 10.0805   1
   0  12   3 10.1416 12.3651  -2
   0  12   3 10.1416 12.3651   1
   1  12   3 44.5649 6.56273   1
   2  12   3 119.651 9.22219   1
   3  12   3 871.600 33.4044   1
  -4 -12   4 184.221 17.0469  -3
  -7  13   3 184.221 17.0469   1
  -5  13   3 96.6137 10.8419   1
  -1  13   3 384.030 18.0714   1
   0  13   3 8.23374 13.3934  -2
   0  13   3 8.23374 13.3934   1
   4 -14   1 196.015 20.9059  -3
   1  13   3 196.015 20.9059   1
   2  13   3 88.1887 9.07066   1
  -3  14   3 454.710 28.4459   1
   1 -14   2 58.8217 17.1222  -3
   2  13   3 58.8217 17.1222  -2
  -2  14   3 58.8217 17.1222   1
  -2 -13   4 93.7777 15.2571  -2
   2 -14   4 93.7777 15.2571   1
   3 -14   4 222.836 16.6061   1
   5 -12   7 137.073 14.2252  -3
  -1 -13   4 137.073 14.2252   1
   1 -13   4 223.648 16.5630   1
   1 -11   9 15.8601 13.3676  -3
   3 -13   4 15.8601 13.3676   1
  -4 -11   5 804.218 46.0125  -2
   4 -13   4 804.218 46.0125   1
   5 -13   4 62.6774 9.80577   1
  -2 -10  10 509.651 31.4833  -3
  -6 -10   5 509.651 31.4833  -2
   6 -13   4 509.651 31.4833   1
   4 -14   3 13.5932 6.85715  -2
  -4 -12   4 13.5932 6.85715   1
  -3 -12   4 79.7273 12.0275   1
  -1 -12   4 67.3857 7.52625   1
   0 -12   4 489.793 28.6511  -2
   0 -12   4 489.793 28.6511   1
   4 -11   7 521.294 33.2151  -3
   0 -12   4 521.294 33.2151  -2
   0 -12   4 521.294 33.2151   1
   1 -12   4 555.072 22.3338   1
  -2 -11   4 19.1208 11.8032  -2
   2 -12   4 19.1208 11.8032   1
   3 -12   4 18.4037 5.93300   1
  -4 -10   5 446.298 28.0051  -2
   4 -12   4 446.298 28.0051   1
   5 -12   4 204.327 11.3907   1
  -6  -9   5 495.565 29.6471  -2
   6 -12   4 495.565 29.6471   1
  -3  -9  10 200.890 12.8115  -3
   7 -12   4 200.890 12.8115   1
  -5 -11   4 409.288 24.6203   1
   4 -13   3 68.7319 11.7552  -2
  -4 -11   4 68.7319 11.7552   1
  -3 -11   4 62.0547 10.1433   1
   2 -12   3 21.7802 14.0032  -2
  -2 -11   4 21.7802 14.0032   1
  -1 -11   4 129.645 8.44226   1
   0 -11   4 485.808 19.7883  -2
   0 -11   4 485.808 19.7883   1
   1 -11   4 1205.00 44.4011   1
  -2 -10   4 65.0626 11.8581  -2
   2 -11   4 65.0626 11.8581   1
   3 -11   4 83.2721 7.32142   1
  -4  -9   5 923.995 37.4595  -2
   4 -11   4 923.995 37.4595   1
   5 -11   4 41.1845 6.24967   1
  -6  -8   5 868.490 34.9554  -2
   6 -11   4 868.490 34.9554   1
   7 -11   4 547.098 33.1502   1
   9 -11   4 0.65488 3.39477   1
   7 -10   5 -5.9917 13.2397  -3
   4 -12   3 -5.9917 13.2397  -2
  -4 -10   4 -5.9917 13.2397   1
  -3 -10   4 976.823 54.1967   1
  -2 -10   4 57.4845 8.50749   1
   4  -9   6 334.767 21.9851  -3
  -1 -10   4 334.767 21.9851   1
   0 -10   4 486.845 28.3519  -2
   0 -10   4 486.845 28.3519   1
   1 -10   4 829.339 31.0540   1
  -2  -9   4 23.4156 10.4997  -2
   2 -10   4 23.4156 10.4997   1
   0  -8   8 277.289 14.1836  -3
   3 -10   4 277.289 14.1836   1
   5 -10   4 198.324 10.1361   1
  -3  -7   9 401.522 18.4640  -3
  -6  -7   5 401.522 18.4640  -2
   6 -10   4 401.522 18.4640   1
  -4  -7   9 918.557 37.2324  -3
   7 -10   4 918.557 37.2324   1
   9 -10   4 -2.4161 5.12767   1
 -10  -5   6 431.091 27.2559  -2
  10 -10   4 431.091 27.2559   1
  -7  -9   4 48.1105 8.40704   1
   6 -12   3 49.4232 14.9686  -2
  -6  -9   4 49.4232 14.9686   1
   8  -9   4 698.703 40.9044  -3
  -5  -9   4 698.703 40.9044   1
  -3  -9   4 523.708 30.2869   1
  -2  -9   4 431.545 25.3156   1
   4  -8   6 504.591 29.7273  -3
  -1  -9   4 504.591 29.7273   1
   3  -8   6 345.080 21.9596  -3
   0  -9   4 345.080 21.9596  -2
   0  -9   4 345.080 21.9596   1
   1  -9   4 1808.79 65.1317   1
  -2  -8   4 85.0673 6.18554  -2
   2  -9   4 85.0673 6.18554   1
   3  -9   4 1577.78 61.2815   1
  -1  -7   8 96.4306 9.57913  -3
  -4  -7   5 96.4306 9.57913  -2
   4  -9   4 96.4306 9.57913   1
   5  -9   4 404.776 17.2856   1
  -3  -6   9 1002.31 57.7911  -3
  -6  -6   5 1002.31 57.7911  -2
   6  -9   4 1002.31 57.7911   1
  -4  -6   9 1042.25 41.4150  -3
   7  -9   4 1042.25 41.4150   1
   9  -9   4 213.547 11.1447   1
 -10  -4   6 278.478 13.2822  -2
  10  -9   4 278.478 13.2822   1
  -7  -8   4 32.1283 7.09751   1
   6 -11   3 207.240 17.8308  -2
  -6  -8   4 207.240 17.8308   1
  -5  -8   4 595.860 34.1554   1
   4 -10   3 34.8231 8.48236  -2
  -4  -8   4 34.8231 8.48236   1
  -3  -8   4 1481.09 80.0815   1
  -2  -8   4 634.355 35.4722   1
  -1  -8   4 109.307 9.16184   1
   0  -8   4 109.708 9.81891  -2
   0  -8   4 109.708 9.81891   1
   1  -8   4 2178.80 51.3725   1
  -2  -7   4 242.717 9.38568  -2
   2  -8   4 242.717 9.38568   1
   3  -8   4 1607.22 38.1046   1
  -4  -6   5 336.799 15.1230  -2
   4  -8   4 336.799 15.1230   1
   5  -8   4 377.123 16.0852   1
  -6  -5   5 245.891 11.6493  -2
   6  -8   4 245.891 11.6493   1
  -4  -5   9 1483.64 83.6978  -3
   7  -8   4 1483.64 83.6978   1
  -8  -4   6 43.6528 11.8469  -2
   8  -8   4 43.6528 11.8469   1
   9  -8   4 998.009 39.6228   1
 -10  -3   6 50.6487 6.58792  -2
  10  -8   4 50.6487 6.58792   1
 -11  -3   6 234.871 19.4622  -2
  11  -8   4 234.871 19.4622   1
  -9  -7   4 353.940 22.3491   1
   8 -11   2 464.067 29.9489  -2
  -8  -7   4 464.067 29.9489   1
  -7  -7   4 32.8976 6.51396   1
   6 -10   3 524.165 31.5134  -2
  -6  -7   4 524.165 31.5134   1
  -5  -7   4 67.6581 8.22019   1
   4  -9   3 243.974 16.2371  -2
  -4  -7   4 243.974 16.2371   1
  -3  -7   4 1698.78 91.7082   1
  -2  -7   4 1844.56 98.9126   1
  -1  -7   4 140.187 7.58155   1
   0  -7   4 656.713 18.0001  -2
   0  -7   4 656.713 18.0001   1
   1  -7   4 1189.01 31.5462   1
  -2  -6   4 263.779 9.57341  -2
   2  -7   4 263.779 9.57341   1
   3  -7   4 2145.12 56.1486   1
  -4  -5   5 1164.78 65.4907  -2
   4  -7   4 1164.78 65.4907   1
   5  -7   4 546.895 22.5123   1
  -6  -4   5 528.300 21.7541  -2
   6  -7   4 528.300 21.7541   1
   7  -7   4 1451.01 56.5121   1
  -8  -3   6 82.6398 12.6110  -2
   8  -7   4 82.6398 12.6110   1
   9  -7   4 739.014 29.8282   1
 -10  -2   6 19.7150 7.57712  -2
  10  -7   4 19.7150 7.57712   1
  11  -7   4 81.1773 6.82424   1
  11  -7   2 34.5458 14.2679  -3
  -9  -6   4 34.5458 14.2679   1
  10  -7   2 1569.92 85.7989  -3
   8 -10   2 1569.92 85.7989  -2
  -8  -6   4 1569.92 85.7989   1
  -7  -6   4 9.66258 5.12535   1
   6  -9   3 625.951 36.1127  -2
  -6  -6   4 625.951 36.1127   1
  -5  -6   4 2.54700 3.80097   1
   5  -6   4 2354.96 125.951  -3
  -3  -6   4 2354.96 125.951   1
  -2  -6   4 1538.88 82.6726   1
   3  -5   5 178.299 7.35643  -3
  -1  -6   4 178.299 7.35643   1
   0  -6   4 679.011 20.9928  -2
   0  -6   4 679.011 20.9928   1
   1  -6   4 483.808 12.0086   1
  -2  -5   4 229.400 10.4526  -2
   2  -6   4 229.400 10.4526   1
   3  -6   4 3190.91 74.6467   1
  -2  -4   7 1762.34 95.3284  -3
  -4  -4   5 1762.34 95.3284  -2
   4  -6   4 1762.34 95.3284   1
   5  -6   4 37.6864 3.28245   1
  -4  -3   8 508.766 21.3986  -3
  -6  -3   5 508.766 21.3986  -2
   6  -6   4 508.766 21.3986   1
  -5  -3   8 1115.12 43.9875  -3
   7  -6   4 1115.12 43.9875   1
   8  -6   4 -0.5178 2.36533   1
   9  -6   4 1264.06 49.5993   1
 -10  -1   6 425.601 18.3962  -2
  10  -6   4 425.601 18.3962   1
 -12   0   6 223.888 18.6920  -2
  12  -6   4 223.888 18.6920   1
  10 -10   2 104.833 10.0307  -2
 -10  -5   4 104.833 10.0307   1
  -9  -5   4 54.6202 5.90772   1
   8  -9   2 1166.33 64.3720  -2
  -8  -5   4 1166.33 64.3720   1
  -7  -5   4 17.5793 4.85220   1
   6  -8   3 562.587 32.5202  -2
  -6  -5   4 562.587 32.5202   1
   6  -5   3 166.059 13.7855  -3
   4  -7   3 166.059 13.7855  -2
  -4  -5   4 166.059 13.7855   1
  -3  -5   4 442.702 14.8803   1
   2  -6   4 4391.93 234.334  -2
  -2  -5   4 4391.93 234.334   1
  -1  -5   4 78.3740 3.24367   1
   2  -4   5 1693.77 44.2687  -3
   0  -5   4 1693.77 44.2687  -2
   0  -5   4 1693.77 44.2687   1
   1  -5   4 13.7533 1.41906   1
   2  -5   4 544.216 13.2760   1
   3  -5   4 5194.26 121.022   1
  -4  -3   5 1813.44 70.0983  -2
   4  -5   4 1813.44 70.0983   1
   5  -5   4 423.675 12.0771   1
  -5  -2   8 440.402 18.5949  -3
   7  -5   4 440.402 18.5949   1
   8  -5   4 3.59055 2.48936   1
   9  -5   4 1223.85 48.0142   1
  -8  -1   9 249.528 19.3661  -3
 -10   0   6 249.528 19.3661  -2
  10  -5   4 249.528 19.3661   1
 -10   0   6 219.217 15.1292  -2
  10  -5   4 219.217 15.1292   1
 -10  -1  10 1.00808 15.3041  -3
 -12   1   6 1.00808 15.3041  -2
  12  -5   4 1.00808 15.3041   1
 -11  -4   4 243.447 13.1107   1
  10  -9   2 83.0398 8.88584  -2
 -10  -4   4 83.0398 8.88584   1
  -9  -4   4 7.75663 3.73220   1
   8  -8   2 814.926 45.9382  -2
  -8  -4   4 814.926 45.9382   1
  -7  -4   4 55.8089 7.45916   1
   6  -7   3 2652.15 141.630  -2
  -6  -4   4 2652.15 141.630   1
  -5  -4   4 131.610 7.74713   1
   4  -6   3 1144.70 36.2109  -2
  -4  -4   4 1144.70 36.2109   1
  -3  -4   4 677.534 21.8412   1
   2  -5   4 4261.54 227.270  -2
  -2  -4   4 4261.54 227.270   1
  -1  -4   4 38.8571 1.88716   1
   0  -4   4 333.470 9.34818  -2
   0  -4   4 333.470 9.34818   1
   1  -4   4 9.31950 1.34438   1
   2  -4   4 158.322 4.40670   1
   3  -4   4 1110.30 26.2883   1
  -4  -2   5 3335.36 103.675  -2
   4  -4   4 3335.36 103.675   1
   5  -4   4 50.4784 2.29008   1
  -6  -1   5 835.842 26.8407  -2
   6  -4   4 835.842 26.8407   1
   7  -4   4 530.896 21.6363   1
   8  -4   4 101.418 6.54722   1
   9  -4   4 1874.26 72.6188   1
 -10   1   6 559.582 32.3303  -2
  10  -4   4 559.582 32.3303   1
  11  -4   4 181.892 14.0454   1
 -12   2   6 138.567 16.9757  -2
  12  -4   4 138.567 16.9757   1
 -11  -3   4 531.804 31.2055   1
  10  -8   2 181.797 10.7803  -2
 -10  -3   4 181.797 10.7803   1
  -9  -3   4 11.8914 3.83666   1
   9  -4   1 362.941 24.1942  -3
   8  -7   2 362.941 24.1942  -2
  -8  -3   4 362.941 24.1942   1
   8  -7   2 349.117 22.5160  -2
  -8  -3   4 349.117 22.5160   1
  -7  -3   4 55.3685 5.44273   1
  -5  -3   4 557.616 18.3691   1
   4  -5   3 519.446 21.3263  -2
  -4  -3   4 519.446 21.3263   1
  -3  -3   4 100.771 3.97779   1
  -2  -3   4 3982.78 102.688   1
  -1  -3   4 52.4533 2.66087   1
   0  -3   4 8475.17 249.289  -2
   0  -3   4 8475.17 249.289   1
   1  -3   4 27.4256 1.72890   1
   2  -3   4 1027.92 24.3132   1
   3  -3   4 2214.07 51.8581   1
  -4  -1   5 6148.41 325.516  -2
   4  -3   4 6148.41 325.516   1
   5  -3   4 531.606 12.9170   1
  -6   0   5 934.842 29.9008  -2
   6  -3   4 934.842 29.9008   1
   7  -3   4 0.86332 2.18604   1
   8  -3   4 286.183 12.7095   1
   9  -3   4 990.608 39.2173   1
 -10   2   6 472.460 28.5625  -2
  10  -3   4 472.460 28.5625   1
  11  -3   4 97.5291 10.9535   1
  10  -7   2 151.591 11.8939  -2
 -10  -2   4 151.591 11.8939   1
 -11   4   0 224.591 22.5864  -3
  10  -7   2 224.591 22.5864  -2
 -10  -2   4 224.591 22.5864   1
  -9  -2   4 595.278 33.7634   1
   9  -3   1 427.876 18.2420  -3
   8  -6   2 427.876 18.2420  -2
  -8  -2   4 427.876 18.2420   1
  -7  -2   4 53.8944 4.60392   1
   6  -5   3 3112.22 111.221  -2
  -6  -2   4 3112.22 111.221   1
  -5  -2   4 2986.12 93.0784   1
   4  -4   3 1644.40 49.0871  -2
  -4  -2   4 1644.40 49.0871   1
  -3  -2   4 167.229 6.33318   1
  -2  -2   4 1351.73 35.2845   1
   2  -1   4 52.5311 4.50716  -3
  -1  -2   4 52.5311 4.50716   1
   0  -2   4 8081.67 285.627  -2
   0  -2   4 8081.67 285.627   1
   1  -2   4 835.268 19.8073   1
   2  -2   4 28.6986 1.64049   1
   3  -2   4 175.468 4.65534   1
  -4   0   5 3888.97 148.433  -2
   4  -2   4 3888.97 148.433   1
  -3   0   6 3900.85 185.292  -3
  -4   0   5 3900.85 185.292  -2
   4  -2   4 3900.85 185.292   1
   5  -2   4 30.2774 1.89781   1
  -6   1   5 3694.02 96.0673  -2
   6  -2   4 3694.02 96.0673   1
   8  -2   4 504.148 29.0923   1
   9  -2   4 472.735 19.9308   1
  -9   2   8 1623.71 88.7679  -3
 -10   3   6 1623.71 88.7679  -2
  10  -2   4 1623.71 88.7679   1
 -11  -1   4 326.445 20.5138   1
  10  -6   2 247.114 16.2918  -2
 -10  -1   4 247.114 16.2918   1
  -9  -1   4 1053.00 39.0788   1
   8  -5   2 45.0378 9.52393  -2
  -8  -1   4 45.0378 9.52393   1
  -7  -1   4 59.3923 4.34910   1
   6  -4   3 1292.09 30.8990  -2
  -6  -1   4 1292.09 30.8990   1
  -5  -1   4 3371.56 78.9630   1
   4  -3   3 1226.90 36.8353  -2
  -4  -1   4 1226.90 36.8353   1
  -3  -1   4 2857.37 66.7725   1
  -2  -1   4 982.928 23.2533   1
  -1  -1   4 519.587 12.5031   1
   0  -1   4 5486.21 161.372  -2
   0  -1   4 5486.21 161.372   1
   1  -1   4 3348.33 78.0139   1
   2  -1   4 1736.90 40.6707   1
   3  -1   4 77.1627 2.50643   1
  -4   1   5 3439.91 182.493  -2
   4  -1   4 3439.91 182.493   1
   5  -1   4 68.3506 2.67495   1
  -6   2   5 4728.55 167.546  -2
   6  -1   4 4728.55 167.546   1
  -6   2   7 106.457 7.13290  -3
   7  -1   4 106.457 7.13290   1
   9  -1   4 189.898 9.82322   1
 -11   0   4 554.751 32.0074   1
  10  -5   2 67.6522 8.07945  -2
 -10   0   4 67.6522 8.07945   1
  -9   0   4 2162.34 79.2744   1
   8  -4   2 74.9186 12.2589  -2
  -8   0   4 74.9186 12.2589   1
  -7   0   4 216.317 7.13670   1
   6  -3   3 2566.09 60.3165  -2
  -6   0   4 2566.09 60.3165   1
  -5   0   4 2026.59 47.6427   1
   4  -2   3 1216.63 28.8775  -2
  -4   0   4 1216.63 28.8775   1
  -3   0   4 2878.51 67.2274   1
  -2   0   4 316.123 7.83983   1
  -1   0   4 6.64554 0.97579   1
   0   0   4 6598.79 171.107  -2
   0   0   4 6598.79 171.107   1
   2   0   4 3012.85 70.2463   1
   3   0   4 1225.01 28.8501   1
  -4   2   5 98.1543 5.13105  -2
   4   0   4 98.1543 5.13105   1
   5   0   4 368.549 9.22131   1
  -6   3   5 3525.22 125.204  -2
   6   0   4 3525.22 125.204   1
   7   0   4 1023.86 27.3311   1
   8   0   4 645.739 36.5009   1
 -11   1   4 532.716 30.6760   1
  10  -4   2 146.866 8.35861  -2
 -10   1   4 146.866 8.35861   1
  -9   1   4 1192.85 46.7458   1
   8  -3   2 1108.01 55.5434  -2
  -8   1   4 1108.01 55.5434   1
  -7   1   4 349.862 11.7198   1
   6  -2   3 759.774 18.5420  -2
  -6   1   4 759.774 18.5420   1
  -5   1   4 2034.78 47.7884   1
   4  -1   3 102.992 3.55359  -2
  -4   1   4 102.992 3.55359   1
  -3   1   4 9482.95 502.473   1
  -2   1   4 226.018 5.77897   1
  -1   1   4 12.5569 1.16096   1
   0   1   4 3572.54 83.3605  -2
   0   1   4 3572.54 83.3605   1
   1   1   4 3931.32 101.088   1
   2   1   4 1856.83 43.4566   1
   3   1   4 3909.53 91.0954   1
  -4   3   5 900.802 32.5040  -2
   4   1   4 900.802 32.5040   1
   5   1   4 27.9563 2.00024   1
  -6   4   5 2352.89 84.0375  -2
   6   1   4 2352.89 84.0375   1
   7   1   4 978.756 30.1068   1
   8   1   4 778.004 38.8398   1
 -11   2   4 252.253 18.1735   1
 -10   0   1 11.9564 7.77917  -3
  10  -3   2 11.9564 7.77917  -2
 -10   2   4 11.9564 7.77917   1
  -9   2   4 1948.48 75.3107   1
  -8   2   4 795.444 45.4584   1
   7   1   0 1144.63 35.1179  -3
  -7   2   4 1144.63 35.1179   1
   6  -1   3 165.955 6.70564  -2
  -6   2   4 165.955 6.70564   1
   5   2   1 2572.36 137.611  -3
  -5   2   4 2572.36 137.611   1
  -4   2   4 760.255 23.0300   1
  -3   2   4 5137.25 119.569   1
  -2   2   4 916.005 21.7046   1
  -1   2   4 140.969 3.85850   1
   0   3   3 3168.04 73.9932  -3
   0   2   4 3168.04 73.9932  -2
   0   2   4 3168.04 73.9932   1
   1   2   4 2451.42 63.8321   1
   2   2   4 17.9760 1.77512   1
  -3   4   4 5355.31 254.086  -3
   3   2   4 5355.31 254.086   1
  -4   4   5 18.4946 4.19440  -2
   4   2   4 18.4946 4.19440   1
   5   2   4 87.2863 3.56685   1
  -6   5   5 1962.31 70.4004  -2
   6   2   4 1962.31 70.4004   1
  -7   5   6 1985.29 95.6116  -3
   7   2   4 1985.29 95.6116   1
   8   2   4 461.868 24.2202   1
   9   2   4 553.039 28.9118   1
 -11   3   4 104.908 7.76930   1
  10  -2   2 28.3661 8.11044  -2
 -10   3   4 28.3661 8.11044   1
  -9   3   4 1277.82 49.9538   1
  -8   3   4 568.680 32.0083   1
   7   2   0 280.227 18.8167  -3
  -7   3   4 280.227 18.8167   1
   6   0   3 293.198 8.78784  -2
  -6   3   4 293.198 8.78784   1
  -5   3   4 1044.04 24.7977   1
   4   1   3 409.141 16.7939  -2
  -4   3   4 409.141 16.7939   1
  -3   3   4 6950.92 161.628   1
   2   2   4 4022.50 221.104  -2
  -2   3   4 4022.50 221.104   1
  -1   3   4 3711.68 86.4751   1
   0   3   4 605.183 16.3073  -2
   0   3   4 605.183 16.3073   1
   1   3   4 3674.91 109.403   1
   2   3   4 1099.97 29.0794   1
   3   3   4 6286.35 163.008   1
  -4   5   5 130.885 6.81922  -2
   4   3   4 130.885 6.81922   1
   5   3   4 24.1021 2.77028   1
  -6   6   5 607.556 30.9491  -2
   6   3   4 607.556 30.9491   1
  -7   6   6 679.989 35.0053  -3
   7   3   4 679.989 35.0053   1
  -8   6   6 168.317 13.0381  -3
   8   3   4 168.317 13.0381   1
   9   3   4 817.301 41.2647   1
 -11   4   4 69.5862 6.73437   1
  10  -1   2 466.146 28.9717  -2
 -10   4   4 466.146 28.9717   1
  -9   4   4 1819.73 101.604   1
  -8   4   4 1070.32 60.5565   1
  -7   4   4 452.407 18.6797   1
   6   1   3 2249.42 60.6876  -2
  -6   4   4 2249.42 60.6876   1
  -5   4   4 1355.16 31.9888   1
   4   2   3 218.737 13.7590  -2
  -4   4   4 218.737 13.7590   1
  -3   4   4 4646.28 108.211   1
   2   3   4 804.058 45.8927  -2
  -2   4   4 804.058 45.8927   1
  -1   4   4 661.331 17.6302   1
   0   4   4 299.652 8.59875  -2
   0   4   4 299.652 8.59875   1
   1   4   4 762.610 20.4095   1
   2   4   4 457.603 12.6658   1
   3   4   4 4041.38 105.106   1
  -4   6   5 1174.22 35.9485  -2
   4   4   4 1174.22 35.9485   1
   5   4   4 2109.00 76.7305   1
  -6   7   5 420.797 17.6943  -2
   6   4   4 420.797 17.6943   1
   7   4   4 858.636 32.5878   1
  -8   8   6 179.545 20.8012  -2
   8   4   4 179.545 20.8012   1
   9   4   4 1305.35 64.0833   1
 -10   9   6 4.95520 14.2217  -2
  10   4   4 4.95520 14.2217   1
 -11   5   4 -1.7522 3.24562   1
  10   0   2 335.026 22.3630  -2
 -10   5   4 335.026 22.3630   1
  -9   5   4 252.138 11.8920   1
  -7  -4   1 1182.64 67.2329  -3
  -8   5   4 1182.64 67.2329   1
  -7   5   4 558.107 32.8149   1
   6   2   3 1148.07 36.3615  -2
  -6   5   4 1148.07 36.3615   1
  -5   5   4 124.906 4.22823   1
  -4   5   4 1599.75 60.6884   1
  -3   5   4 3867.78 90.2129   1
   2   4   4 2708.92 149.682  -2
  -2   5   4 2708.92 149.682   1
  -1   5   4 1245.24 29.4197   1
   0   5   4 1666.97 92.8759  -2
   0   5   4 1666.97 92.8759   1
   1   5   4 2567.85 67.0360   1
   2   5   4 15.8596 1.65914   1
   3   5   4 3288.71 85.7490   1
  -4   7   5 492.362 25.4976  -2
   4   5   4 492.362 25.4976   1
   5   5   4 328.451 13.7915   1
  -6   8   5 101.998 8.53590  -2
   6   5   4 101.998 8.53590   1
  -8   8   5 395.802 22.6605  -3
   7   5   4 395.802 22.6605   1
  -8   9   6 128.350 19.7037  -2
   8   5   4 128.350 19.7037   1
   9   5   4 1021.55 54.7381   1
 -10  10   6 78.4657 16.4409  -2
  10   5   4 78.4657 16.4409   1
 -11  -4   3 1310.17 75.9152  -3
  12   0   2 1310.17 75.9152  -2
 -12   6   4 1310.17 75.9152   1
  -9   6   4 81.7466 6.42867   1
  -7  -5   1 1847.54 103.556  -3
   8   2   3 1847.54 103.556  -2
  -8   6   4 1847.54 103.556   1
  -6  -5   1 761.150 44.1836  -3
  -7   6   4 761.150 44.1836   1
  -5   6   4 2.34560 1.15593   1
   3   6   0 616.292 23.4101  -3
   4   4   3 616.292 23.4101  -2
  -4   6   4 616.292 23.4101   1
  -3   6   4 1783.57 55.7679   1
   2   5   4 1914.72 106.588  -2
  -2   6   4 1914.72 106.588   1
  -1   6   4 596.031 16.2086   1
  -1   7   2 2909.74 87.0643  -3
   0   6   4 2909.74 87.0643  -2
   0   6   4 2909.74 87.0643   1
   1   6   4 142.144 4.94585   1
   2   6   4 467.802 13.1182   1
  -4   8   3 1521.16 73.6663  -3
   3   6   4 1521.16 73.6663   1
  -4   8   5 929.151 54.1753  -2
   4   6   4 929.151 54.1753   1
   5   6   4 524.277 20.6924   1
  -6   9   5 662.203 26.2587  -2
   6   6   4 662.203 26.2587   1
  -8   9   5 587.350 24.0616  -3
   7   6   4 587.350 24.0616   1
   9   6   4 638.566 33.1437   1
  12   1   2 1466.06 83.5379  -2
 -12   7   4 1466.06 83.5379   1
 -11   7   4 135.598 8.56526   1
  10   2   2 183.293 15.7354  -2
 -10   7   4 183.293 15.7354   1
  -9   7   4 141.094 8.28625   1
   8   3   3 614.527 37.3965  -2
  -8   7   4 614.527 37.3965   1
  -7   7   4 10.8315 2.96023   1
   6   4   3 3450.23 190.416  -2
  -6   7   4 3450.23 190.416   1
  -5   7   4 848.581 33.5849   1
   4   5   3 789.759 38.9606  -2
  -4   7   4 789.759 38.9606   1
  -3   7   4 135.340 4.25155   1
   2   6   4 1864.91 72.0276  -2
  -2   7   4 1864.91 72.0276   1
  -1   7   4 1354.77 32.1255   1
   0   7   4 1895.70 73.4623  -2
   0   7   4 1895.70 73.4623   1
   1   7   4 6.91277 1.98556   1
   2   7   4 567.088 21.8993   1
   3   7   4 1377.84 50.7264   1
  -4   9   5 542.552 28.1297  -2
   4   7   4 542.552 28.1297   1
  -5   9   3 572.750 37.2509  -3
  -4   9   5 572.750 37.2509  -2
   4   7   4 572.750 37.2509   1
   5   7   4 316.538 13.8014   1
  -6  10   5 626.857 25.2166  -2
   6   7   4 626.857 25.2166   1
   7   7   4 121.607 8.27488   1
 -11   8   4 442.066 19.1226   1
  -9   8   4 169.398 9.22533   1
   8   4   3 222.574 18.3941  -2
  -8   8   4 222.574 18.3941   1
  -7   8   4 28.6974 4.00723   1
   6   5   3 2917.15 161.382  -2
  -6   8   4 2917.15 161.382   1
  -5   8   4 69.6292 8.18308   1
   4   6   3 310.480 14.3567  -2
  -4   8   4 310.480 14.3567   1
  -3   8   4 73.2291 3.30078   1
   2   7   4 1146.06 45.1142  -2
  -2   8   4 1146.06 45.1142   1
  -1   8   4 86.2308 3.99271   1
   0   8   4 2610.52 144.934  -2
   0   8   4 2610.52 144.934   1
   1   8   4 439.986 17.4951   1
   2   8   4 121.041 7.09057   1
   3   8   4 79.6587 6.06982   1
  -4  10   5 773.847 29.9680  -2
   4   8   4 773.847 29.9680   1
   5   8   4 226.570 11.0056   1
  -6  11   5 811.721 31.8454  -2
   6   8   4 811.721 31.8454   1
   7   8   4 -4.1883 3.59737   1
   8   8   4 51.6402 9.98668   1
 -11   9   4 363.927 16.2879   1
  10   4   2 271.444 19.5603  -2
 -10   9   4 271.444 19.5603   1
  -9   9   4 428.271 18.4602   1
  -6  -8   2 15.4973 14.7310  -3
   8   5   3 15.4973 14.7310  -2
  -8   9   4 15.4973 14.7310   1
  -7   9   4 5.71661 2.98554   1
   6   6   3 1507.25 84.6344  -2
  -6   9   4 1507.25 84.6344   1
  -5   9   4 790.008 31.6928   1
  -2  -9   1 910.005 51.0104  -3
   4   7   3 910.005 51.0104  -2
  -4   9   4 910.005 51.0104   1
  -3   9   4 404.259 16.2655   1
   2   8   4 266.189 19.6339  -2
  -2   9   4 266.189 19.6339   1
  -1   9   4 171.266 8.60428   1
  -2  10   1 3005.43 108.967  -3
   0   9   4 3005.43 108.967  -2
   0   9   4 3005.43 108.967   1
   1   9   4 88.2617 6.33012   1
   2   9   4 272.613 12.2293   1
   3   9   4 1.32583 5.69995   1
  -4  11   5 183.041 10.5798  -2
   4   9   4 183.041 10.5798   1
   5   9   4 171.742 9.64827   1
   7   9   4 35.8656 4.63220   1
  -9  10   4 816.995 47.3647   1
  -6  -9   3 2.22039 12.7636  -3
  -8  10   4 2.22039 12.7636   1
  -5  -9   2 25.9370 7.16464  -3
  -7  10   4 25.9370 7.16464   1
   6   7   3 692.618 28.3536  -2
  -6  10   4 692.618 28.3536   1
  -5  10   4 461.231 19.6262   1
  -2 -10   1 772.867 45.8437  -3
   4   8   3 772.867 45.8437  -2
  -4  10   4 772.867 45.8437   1
  -3  10   4 176.911 13.8006   1
   2   9   4 11.8501 7.18853  -2
  -2  10   4 11.8501 7.18853   1
  -1  10   4 11.3610 3.22269   1
  -2  11   1 1453.63 71.1289  -3
   0  10   4 1453.63 71.1289  -2
   0  10   4 1453.63 71.1289   1
  -3  11   1 203.194 19.4515  -3
   1  10   4 203.194 19.4515   1
   2  10   4 301.317 13.3409   1
  -5  12   2 236.740 13.0604  -3
   3  10   4 236.740 13.0604   1
  -6  12   2 389.559 31.6350  -3
  -4  12   5 389.559 31.6350  -2
   4  10   4 389.559 31.6350   1
  -6  13   5 779.003 49.6675  -2
   6  10   4 779.003 49.6675   1
  -9  11   4 835.152 33.7222   1
   8   7   3 33.3923 13.1969  -2
  -8  11   4 33.3923 13.1969   1
  -7  11   4 96.6904 7.34543   1
   6   8   3 306.728 21.0289  -2
  -6  11   4 306.728 21.0289   1
  -4 -10   2 324.015 23.5208  -3
   6   8   3 324.015 23.5208  -2
  -6  11   4 324.015 23.5208   1
  -5  11   4 775.947 31.4793   1
   4   9   3 252.964 19.7820  -2
  -4  11   4 252.964 19.7820   1
  -1 -11   1 1035.02 59.6700  -3
  -3  11   4 1035.02 59.6700   1
   2  10   4 64.6589 8.63226  -2
  -2  11   4 64.6589 8.63226   1
  -1  11   4 29.9154 4.75481   1
  -2  12   0 1029.04 60.8946  -3
   0  11   4 1029.04 60.8946  -2
   0  11   4 1029.04 60.8946   1
  -3  12   1 380.649 22.4830  -3
   1  11   4 380.649 22.4830   1
   2  11   4 285.686 13.0747   1
   3  11   4 12.5905 4.44647   1
  -6  13   2 -18.211 20.8434  -3
  -4  13   5 -18.211 20.8434  -2
   4  11   4 -18.211 20.8434   1
   5  11   4 29.2454 5.61225   1
   8   8   3 40.7338 7.60094  -2
  -8  12   4 40.7338 7.60094   1
  -7  12   4 222.043 16.0007   1
   6   9   3 82.1195 10.3860  -2
  -6  12   4 82.1195 10.3860   1
  -5  12   4 135.840 17.8018   1
   4  10   3 224.546 19.1248  -2
  -4  12   4 224.546 19.1248   1
  -3  12   4 704.782 41.6271   1
   2  11   4 6.84315 11.7130  -2
  -2  12   4 6.84315 11.7130   1
  -1  12   4 18.1767 3.99824   1
   1  12   4 391.841 19.1058   1
   2  12   4 227.822 11.4552   1
   3  12   4 458.839 19.0447   1
  -4 -12   3 379.345 26.0961  -3
  -7  13   4 379.345 26.0961   1
   6  10   3 65.6549 10.0047  -2
  -6  13   4 65.6549 10.0047   1
  -5  13   4 94.1333 10.8988   1
  -1 -13   2 31.9512 15.7912  -3
   4  11   3 31.9512 15.7912  -2
  -4  13   4 31.9512 15.7912   1
  -3  13   4 799.353 46.9471   1
   2  12   4 4.66325 12.9266  -2
  -2  13   4 4.66325 12.9266   1
  -1  13   4 149.673 9.85475   1
   1  13   4 90.7385 9.37404   1
   5 -12   8 55.2558 14.9496  -3
  -1 -13   5 55.2558 14.9496   1
   0 -13   5 251.845 17.5860  -2
   0 -13   5 251.845 17.5860   1
   3 -11   9 0.95908 12.9538  -3
   1 -13   5 0.95908 12.9538   1
   2 -11   9 160.743 15.8959  -3
  -2 -12   5 160.743 15.8959  -2
   2 -13   5 160.743 15.8959   1
   3 -13   5 219.741 15.8108   1
  -4 -11   6 594.945 35.3126  -2
   4 -13   5 594.945 35.3126   1
   5 -13   5 13.7405 6.17454   1
  -6 -10   6 69.4625 10.3960  -2
   6 -13   5 69.4625 10.3960   1
  -3 -12   5 -1.1079 4.85162   1
  -1 -12   5 69.6498 7.75182   1
   0 -12   5 247.802 12.7681  -2
   0 -12   5 247.802 12.7681   1
   1 -12   5 2.76953 4.23155   1
   5 -12   5 15.3520 5.85016   1
  -6  -9   6 152.503 13.3507  -2
   6 -12   5 152.503 13.3507   1
   7 -12   5 10.8525 6.65844   1
  -5 -11   5 367.093 22.4064   1
   4 -13   4 94.3926 11.9080  -2
  -4 -11   5 94.3926 11.9080   1
  -3 -11   5 2.01851 4.75336   1
  -1 -11   5 144.443 8.77554   1
   0 -11   5 732.590 28.1876  -2
   0 -11   5 732.590 28.1876   1
   1 -11   5 265.601 12.2267   1
  -2 -10   5 436.787 27.2984  -2
   2 -11   5 436.787 27.2984   1
   3 -11   5 19.5049 5.55263   1
  -4  -9   6 1435.98 78.3810  -2
   4 -11   5 1435.98 78.3810   1
   5 -11   5 9.96040 3.84478   1
  -6  -8   6 645.407 38.6739  -2
   6 -11   5 645.407 38.6739   1
   7 -11   5 13.1753 4.14478   1
   9 -11   5 46.1248 5.84846   1
  -5 -10   5 575.741 33.9383   1
   4 -12   4 44.8032 10.9058  -2
  -4 -10   5 44.8032 10.9058   1
  -3 -10   5 216.193 10.9740   1
   5  -9   7 267.564 20.6628  -3
  -2 -10   5 267.564 20.6628   1
   4  -9   7 54.9798 12.3429  -3
  -1 -10   5 54.9798 12.3429   1
   0 -10   5 557.614 21.9105  -2
   0 -10   5 557.614 21.9105   1
   2  -8   8 372.949 24.3083  -3
   1 -10   5 372.949 24.3083   1
   3 -10   5 1.09450 3.34567   1
  -4  -8   6 385.816 17.7767  -2
   4 -10   5 385.816 17.7767   1
   5 -10   5 133.145 8.24250   1
  -6  -7   6 787.109 31.8517  -2
   6 -10   5 787.109 31.8517   1
   7 -10   5 116.221 7.89215   1
  -6  -6  11 42.9299 13.6471  -3
   9 -10   5 42.9299 13.6471   1
  -7  -9   5 39.7526 5.89851   1
   8  -9   5 562.967 22.5749  -3
  -5  -9   5 562.967 22.5749   1
   4 -11   4 35.2484 9.38258  -2
  -4  -9   5 35.2484 9.38258   1
   6  -8   6 366.120 23.5455  -3
  -3  -9   5 366.120 23.5455   1
  -2  -9   5 111.403 9.77183   1
   4  -8   7 322.915 21.0552  -3
  -1  -9   5 322.915 21.0552   1
   0  -9   5 586.659 22.6214  -2
   0  -9   5 586.659 22.6214   1
   1  -9   5 1571.13 56.8406   1
   1  -7   8 227.054 16.4424  -3
  -2  -8   5 227.054 16.4424  -2
   2  -9   5 227.054 16.4424   1
   0  -7   8 57.4207 10.9614  -3
   3  -9   5 57.4207 10.9614   1
  -4  -7   6 695.056 28.4771  -2
   4  -9   5 695.056 28.4771   1
   5  -9   5 57.1063 5.77763   1
  -6  -6   6 1232.16 48.4822  -2
   6  -9   5 1232.16 48.4822   1
   7  -9   5 296.745 13.6453   1
  -6  -5  11 -7.3777 10.5583  -3
   9  -9   5 -7.3777 10.5583   1
  -7  -5  11 357.524 17.6091  -3
 -10  -4   7 357.524 17.6091  -2
  10  -9   5 357.524 17.6091   1
  -7  -8   5 142.028 9.52448   1
   6 -11   4 427.018 27.3762  -2
  -6  -8   5 427.018 27.3762   1
  -5  -8   5 933.537 35.0314   1
   4 -10   4 10.7243 6.09330  -2
  -4  -8   5 10.7243 6.09330   1
  -3  -8   5 569.153 22.0669   1
   5  -7   6 113.576 11.8930  -3
  -2  -8   5 113.576 11.8930   1
  -1  -8   5 37.3250 4.78845   1
   0  -8   5 808.479 44.6241  -2
   0  -8   5 808.479 44.6241   1
   1  -8   5 1235.35 37.4693   1
  -2  -7   5 37.3843 7.35204  -2
   2  -8   5 37.3843 7.35204   1
   0  -6   8 1169.35 46.0126  -3
   3  -8   5 1169.35 46.0126   1
  -4  -6   6 361.877 22.5254  -2
   4  -8   5 361.877 22.5254   1
  -2  -5   9 161.211 15.0817  -3
   5  -8   5 161.211 15.0817   1
  -6  -5   6 556.164 23.0832  -2
   6  -8   5 556.164 23.0832   1
   7  -8   5 1066.17 42.0959   1
  -8  -4   7 334.660 22.9395  -2
   8  -8   5 334.660 22.9395   1
   9  -8   5 40.2698 8.09482   1
  -7  -4  11 347.630 16.8974  -3
 -10  -3   7 347.630 16.8974  -2
  10  -8   5 347.630 16.8974   1
  -8  -4  11 41.8065 14.5800  -3
  11  -8   5 41.8065 14.5800   1
  -9  -7   5 545.865 22.3251   1
  -7  -7   5 -1.8762 4.03156   1
   6 -10   4 44.5761 11.6358  -2
  -6  -7   5 44.5761 11.6358   1
  -5  -7   5 1147.01 42.3154   1
   4  -9   4 135.069 11.6777  -2
  -4  -7   5 135.069 11.6777   1
  -3  -7   5 1027.56 37.7737   1
   2  -8   5 590.389 31.3430  -2
  -2  -7   5 590.389 31.3430   1
  -1  -7   5 597.668 22.9102   1
   0  -7   5 1248.18 33.1295  -2
   0  -7   5 1248.18 33.1295   1
   1  -7   5 2151.71 50.7503   1
  -2  -6   5 114.013 10.0746  -2
   2  -7   5 114.013 10.0746   1
   3  -7   5 854.234 20.7341   1
  -4  -5   6 400.892 17.1800  -2
   4  -7   5 400.892 17.1800   1
   5  -7   5 218.376 10.3564   1
  -6  -4   6 1239.52 48.5692  -2
   6  -7   5 1239.52 48.5692   1
   7  -7   5 1183.72 46.4197   1
  -8  -3   7 210.054 16.9855  -2
   8  -7   5 210.054 16.9855   1
   9  -7   5 285.426 13.2458   1
 -11  -2   7 93.7319 15.0224  -2
  11  -7   5 93.7319 15.0224   1
  -9  -6   5 424.050 26.7135   1
  10  -7   3 738.859 30.0447  -3
   8 -10   3 738.859 30.0447  -2
  -8  -6   5 738.859 30.0447   1
  -7  -6   5 111.834 7.90135   1
   8  -6   4 31.2563 12.6076  -3
   6  -9   4 31.2563 12.6076  -2
  -6  -6   5 31.2563 12.6076   1
   6  -9   4 76.8272 13.4475  -2
  -6  -6   5 76.8272 13.4475   1
   7  -6   4 2158.89 116.181  -3
  -5  -6   5 2158.89 116.181   1
   4  -8   4 3.44389 7.30112  -2
  -4  -6   5 3.44389 7.30112   1
  -3  -6   5 1657.37 80.3756   1
  -2  -6   5 468.732 15.1186   1
   3  -5   6 152.978 12.4934  -3
  -1  -6   5 152.978 12.4934   1
   0  -6   5 942.065 22.7103  -2
   0  -6   5 942.065 22.7103   1
   1  -6   5 3820.71 89.3495   1
   2  -6   5 285.931 9.77862   1
   3  -6   5 2231.67 52.5362   1
  -4  -4   6 261.226 12.5224  -2
   4  -6   5 261.226 12.5224   1
   5  -6   5 393.029 16.4954   1
  -6  -3   6 1095.23 43.0330  -2
   6  -6   5 1095.23 43.0330   1
   7  -6   5 2143.34 82.6851   1
   8  -6   5 13.5227 3.19572   1
   9  -6   5 826.083 33.1444   1
 -10  -1   7 184.963 14.1000  -2
  10  -6   5 184.963 14.1000   1
 -11  -1   7 52.4591 14.6914  -2
  11  -6   5 52.4591 14.6914   1
  12  -6   2 97.1843 11.4192  -3
  10 -10   3 97.1843 11.4192  -2
 -10  -5   5 97.1843 11.4192   1
  11  -6   2 539.014 32.4389  -3
  -9  -5   5 539.014 32.4389   1
  -7  -5   5 -1.4257 3.42573   1
   6  -8   4 368.129 22.9703  -2
  -6  -5   5 368.129 22.9703   1
   7  -5   4 489.114 19.4783  -3
  -5  -5   5 489.114 19.4783   1
  -3  -5   5 2964.23 76.9173   1
   4  -4   5 2405.57 71.5547  -3
  -2  -5   5 2405.57 71.5547   1
  -1  -5   5 307.464 9.01178   1
   0  -5   5 131.027 4.83232  -2
   0  -5   5 131.027 4.83232   1
   1  -5   5 5513.96 128.523   1
   0  -3   7 68.5656 4.64511  -3
   2  -5   5 68.5656 4.64511   1
  -1  -3   7 3741.33 97.3757  -3
   3  -5   5 3741.33 97.3757   1
  -4  -3   6 979.288 38.4814  -2
   4  -5   5 979.288 38.4814   1
  -3  -2   8 716.630 40.5008  -3
   5  -5   5 716.630 40.5008   1
  -6  -2   6 951.090 53.9340  -2
   6  -5   5 951.090 53.9340   1
  -5  -2   9 1707.77 92.7693  -3
  -7  -2   6 1707.77 92.7693  -2
   7  -5   5 1707.77 92.7693   1
   8  -5   5 37.2383 5.18412   1
  -7  -1  10 892.158 50.4079  -3
   9  -5   5 892.158 50.4079   1
  -8  -1  10 30.9472 10.3038  -3
 -10   0   7 30.9472 10.3038  -2
  10  -5   5 30.9472 10.3038   1
 -11  -4   5 9.38277 4.79720   1
  -9  -4   5 262.949 12.5174   1
   8  -8   3 1923.33 69.8765  -2
  -8  -4   5 1923.33 69.8765   1
  -7  -4   5 286.137 12.5969   1
   6  -7   4 908.062 34.0153  -2
  -6  -4   5 908.062 34.0153   1
  -5  -4   5 0.54119 3.71693   1
   4  -6   4 742.329 20.2909  -2
  -4  -4   5 742.329 20.2909   1
  -3  -4   5 2655.11 78.7676   1
  -2  -4   5 1925.50 50.1855   1
  -1  -4   5 161.598 5.33483   1
   0  -4   5 489.802 12.1168  -2
   0  -4   5 489.802 12.1168   1
   1  -4   5 1177.48 31.0294   1
   2  -4   5 48.7457 3.10014   1
  -1  -2   7 3730.44 205.099  -3
   3  -4   5 3730.44 205.099   1
  -4  -2   6 2195.39 117.309  -2
   4  -4   5 2195.39 117.309   1
   5  -4   5 421.743 10.5591   1
  -6  -1   6 222.768 15.0131  -2
   6  -4   5 222.768 15.0131   1
   7  -4   5 3643.73 139.488   1
   8  -4   5 26.4682 4.01309   1
   9  -4   5 1545.32 60.1759   1
  -8   0  10 187.338 18.0367  -3
 -10   1   7 187.338 18.0367  -2
  10  -4   5 187.338 18.0367   1
 -11  -3   5 28.7980 6.49107   1
  10  -8   3 68.3017 7.58464  -2
 -10  -3   5 68.3017 7.58464   1
  -9  -3   5 4.31794 3.61465   1
   8  -7   3 906.348 34.4369  -2
  -8  -3   5 906.348 34.4369   1
  -7  -3   5 1.86891 2.91181   1
   6  -6   4 1350.71 49.2413  -2
  -6  -3   5 1350.71 49.2413   1
  -5  -3   5 0.57735 1.72651   1
   4  -5   4 1151.15 30.5826  -2
  -4  -3   5 1151.15 30.5826   1
  -3  -3   5 1502.84 39.3620   1
  -2  -3   5 5369.19 138.295   1
  -1  -3   5 141.573 4.72980   1
   0  -3   5 3474.59 102.522  -2
   0  -3   5 3474.59 102.522   1
   1  -3   5 364.318 9.11947   1
   2  -3   5 1147.36 27.1788   1
   3  -3   5 5319.63 123.909   1
  -4  -1   6 2514.70 96.4064  -2
   4  -3   5 2514.70 96.4064   1
   5  -3   5 154.966 4.54158   1
  -6   0   6 320.668 13.9490  -2
   6  -3   5 320.668 13.9490   1
   7  -3   5 442.661 18.4816   1
   8  -3   5 4.79542 2.65986   1
   9  -3   5 971.276 38.5399   1
 -10   2   7 635.810 36.9877  -2
  10  -3   5 635.810 36.9877   1
 -11  -2   5 353.994 22.0293   1
  11  -3   1 172.319 12.2425  -3
  10  -7   3 172.319 12.2425  -2
 -10  -2   5 172.319 12.2425   1
  -9  -2   5 5.41855 3.53941   1
   8  -6   3 1349.15 67.2682  -2
  -8  -2   5 1349.15 67.2682   1
   9  -3   2 1416.85 77.5894  -3
   8  -6   3 1416.85 77.5894  -2
  -8  -2   5 1416.85 77.5894   1
  -7  -2   5 18.0134 3.11677   1
   7  -2   3 2673.84 144.143  -3
   6  -5   4 2673.84 144.143  -2
  -6  -2   5 2673.84 144.143   1
   6  -5   4 3103.07 166.744  -2
  -6  -2   5 3103.07 166.744   1
   6  -2   3 179.375 9.16052  -3
  -5  -2   5 179.375 9.16052   1
   4  -4   4 461.551 13.0208  -2
  -4  -2   5 461.551 13.0208   1
  -3  -2   5 334.413 9.56797   1
  -2  -2   5 3640.66 93.9515   1
  -1  -2   5 797.006 21.1276   1
   0  -2   5 2146.73 63.6084  -2
   0  -2   5 2146.73 63.6084   1
   1  -2   5 300.328 7.57462   1
  -1   0   6 1435.80 51.3624  -3
   2  -2   5 1435.80 51.3624   1
   3  -2   5 1868.60 43.8627   1
  -4   0   6 3188.50 169.417  -2
   4  -2   5 3188.50 169.417   1
   5  -2   5 179.783 6.41540   1
  -6   1   6 2050.25 77.8168  -2
   6  -2   5 2050.25 77.8168   1
   7  -2   5 490.933 15.8720   1
   8  -2   5 330.278 20.1318   1
   9  -2   5 1318.37 51.6348   1
  12  -7   3 609.771 36.9342  -2
 -12  -1   5 609.771 36.9342   1
 -11  -1   5 615.592 35.1138   1
  10  -6   3 339.901 20.7883  -2
 -10  -1   5 339.901 20.7883   1
  10  -2   1 13.6809 8.65465  -3
  -9  -1   5 13.6809 8.65465   1
  -7  -1   5 127.428 5.97333   1
   6  -4   4 3446.00 102.310  -2
  -6  -1   5 3446.00 102.310   1
   6  -1   3 1749.40 62.8163  -3
  -5  -1   5 1749.40 62.8163   1
   5  -1   3 617.757 23.1966  -3
   4  -3   4 617.757 23.1966  -2
  -4  -1   5 617.757 23.1966   1
  -3  -1   5 108.000 3.36809   1
   3   0   4 4186.13 108.757  -3
  -2  -1   5 4186.13 108.757   1
   1  -2   5 410.701 23.6542  -2
  -1  -1   5 410.701 23.6542   1
   0  -1   5 8403.85 247.151  -2
   0  -1   5 8403.85 247.151   1
   1  -1   5 20.4065 1.63940   1
   2  -1   5 307.829 7.72993   1
  -2   1   6 1052.85 31.5711  -3
   3  -1   5 1052.85 31.5711   1
  -4   1   6 3583.37 190.151  -2
   4  -1   5 3583.37 190.151   1
  -4   2   7 604.124 34.0094  -3
   5  -1   5 604.124 34.0094   1
  -5   2   7 1197.43 36.1768  -3
  -6   2   6 1197.43 36.1768  -2
   6  -1   5 1197.43 36.1768   1
   7  -1   5 3.10285 1.53447   1
   8  -1   5 378.647 16.2485   1
 -11   0   5 288.817 22.8258   1
  10  -5   3 168.593 12.5340  -2
 -10   0   5 168.593 12.5340   1
  -9   0   5 373.076 15.6507   1
   8  -4   3 743.606 38.8917  -2
  -8   0   5 743.606 38.8917   1
  -7   0   5 74.1848 3.50785   1
   6  -3   4 4354.15 101.837  -2
  -6   0   5 4354.15 101.837   1
  -5   0   5 1758.73 41.5028   1
   4  -2   4 1473.41 44.0852  -2
  -4   0   5 1473.41 44.0852   1
  -3   0   5 159.494 4.49471   1
  -2   0   5 1466.00 34.5149   1
  -1   0   5 122.023 3.61820   1
   0   0   5 8777.06 227.400  -2
   0   0   5 8777.06 227.400   1
   1   0   5 4767.04 110.985   1
   2   0   5 193.544 5.68285   1
   3   0   5 23.3457 1.87219   1
  -4   2   6 3209.60 170.338  -2
   4   0   5 3209.60 170.338   1
   5   0   5 364.273 9.21843   1
  -6   3   6 3028.51 89.6424  -2
   6   0   5 3028.51 89.6424   1
   7   0   5 49.3930 3.35809   1
   8   0   5 158.962 12.5021   1
 -11   1   5 1042.00 57.4183   1
  10  -4   3 152.680 11.6583  -2
 -10   1   5 152.680 11.6583   1
  -9   1   5 931.532 51.2108   1
  -8   1   5 48.0076 4.21316   1
  -7   1   5 102.626 3.98527   1
   6  -2   4 1386.01 36.7530  -2
  -6   1   5 1386.01 36.7530   1
  -5   1   5 5000.38 116.647   1
   4  -1   4 1076.73 32.6508  -2
  -4   1   5 1076.73 32.6508   1
  -3   1   5 1384.86 36.1655   1
  -2   1   5 1174.42 27.7534   1
  -1   1   5 230.962 6.78162   1
   1   1   5 844.926 20.1370   1
   2   1   5 1278.69 30.1453   1
   3   1   5 1.61919 0.92528   1
  -4   3   6 1829.55 65.2173  -2
   4   1   5 1829.55 65.2173   1
   5   1   5 0.84815 1.14487   1
  -6   4   6 3392.53 120.765  -2
   6   1   5 3392.53 120.765   1
   7   1   5 314.521 19.8691   1
   8   1   5 109.179 6.83179   1
 -11   2   5 998.617 55.0421   1
  10   1   0 39.8645 7.97753  -3
  10  -3   3 39.8645 7.97753  -2
 -10   2   5 39.8645 7.97753   1
   9   1   0 2367.74 126.949  -3
  -9   2   5 2367.74 126.949   1
  -8   2   5 20.5088 3.44429   1
  -7   2   5 252.678 7.13840   1
   6  -1   4 1686.54 44.5446  -2
  -6   2   5 1686.54 44.5446   1
   5   2   2 3408.68 130.307  -3
  -5   2   5 3408.68 130.307   1
   4   0   4 212.919 6.74822  -2
  -4   2   5 212.919 6.74822   1
  -3   2   5 2147.87 50.3528   1
   2   3   3 518.469 12.7655  -3
  -2   2   5 518.469 12.7655   1
  -1   2   5 153.508 4.29501   1
   0   2   5 2126.43 49.8546  -2
   0   2   5 2126.43 49.8546   1
   1   2   5 5695.57 132.530   1
   2   2   5 1126.58 29.7981   1
   3   2   5 433.258 13.6139   1
  -4   4   6 735.233 27.2266  -2
   4   2   5 735.233 27.2266   1
   5   2   5 321.519 9.35939   1
  -7   5   7 396.684 22.2188  -3
   7   2   5 396.684 22.2188   1
   8   2   5 387.821 15.9729   1
   9   2   5 9.07716 4.54993   1
  10  -2   3 48.2307 6.39773  -2
 -10   3   5 48.2307 6.39773   1
   9   2   0 943.084 37.7888  -3
  -9   3   5 943.084 37.7888   1
  -7   3   5 858.889 20.8749   1
   6   0   4 1108.34 29.5751  -2
  -6   3   5 1108.34 29.5751   1
  -5   3   5 4427.84 114.992   1
   4   3   2 91.2298 9.29730  -3
  -4   3   5 91.2298 9.29730   1
   4   3   2 163.446 6.84978  -3
   4   1   4 163.446 6.84978  -2
  -4   3   5 163.446 6.84978   1
  -3   3   5 5521.06 128.561   1
  -2   3   5 6.65262 1.10657   1
   1   4   3 413.245 16.8016  -3
  -1   3   5 413.245 16.8016   1
   0   3   5 2761.56 72.0025  -2
   0   3   5 2761.56 72.0025   1
   1   3   5 5884.25 152.586   1
   2   3   5 261.728 7.73033   1
  -3   5   5 1042.59 37.8600  -3
   3   3   5 1042.59 37.8600   1
  -4   5   6 277.907 10.1850  -2
   4   3   5 277.907 10.1850   1
   5   3   5 33.2284 5.00445   1
  -6   6   6 1105.15 54.4480  -3
  -6   6   6 1105.15 54.4480  -2
   6   3   5 1105.15 54.4480   1
   7   3   5 670.964 33.9080   1
   8   3   5 208.357 13.1939   1
   9   3   5 138.583 11.4017   1
 -11   4   5 468.712 20.7591   1
  10  -1   3 -6.3567 9.62813  -2
 -10   4   5 -6.3567 9.62813   1
  -9   4   5 1906.41 106.478   1
  -8   4   5 935.015 37.0042   1
  -7   4   5 366.314 15.5989   1
   6   1   4 196.124 6.75635  -2
  -6   4   5 196.124 6.75635   1
  -5   4   5 504.972 12.4872   1
   4   2   4 22.8574 3.65140  -2
  -4   4   5 22.8574 3.65140   1
  -3   4   5 3902.63 91.0572   1
  -2   4   5 306.652 8.56616   1
  -1   4   5 315.078 8.97445   1
   0   4   5 1206.41 31.9414  -2
   0   4   5 1206.41 31.9414   1
   1   4   5 3024.20 78.8183   1
   2   4   5 10.7966 1.46442   1
  -3   6   5 2916.06 156.012  -3
   3   4   5 2916.06 156.012   1
   5   4   5 399.287 16.2354   1
  -6   7   6 937.420 56.2737  -3
  -6   7   6 937.420 56.2737  -2
   6   4   5 937.420 56.2737   1
   7   4   5 1629.53 60.0242   1
   8   4   5 196.615 10.2585   1
   9   4   5 21.9101 5.21362   1
 -10   9   7 75.9508 15.3460  -2
  10   4   5 75.9508 15.3460   1
  12  -1   3 492.467 33.1297  -2
 -12   5   5 492.467 33.1297   1
 -11   5   5 14.2668 3.96264   1
  10   0   3 -4.9688 9.66029  -2
 -10   5   5 -4.9688 9.66029   1
  -9   5   5 854.283 49.4127   1
  -8   5   5 1039.92 59.2296   1
  -7   5   5 516.007 30.8779   1
   6   2   4 1119.60 63.3795  -2
  -6   5   5 1119.60 63.3795   1
  -5   5   5 808.453 21.8845   1
   4   3   4 148.426 12.6726  -2
  -4   5   5 148.426 12.6726   1
  -3   5   5 3555.67 83.0690   1
   2   4   5 1908.10 106.328  -2
  -2   5   5 1908.10 106.328   1
  -1   5   5 1394.21 32.9420   1
   0   5   5 450.466 14.5121  -2
   0   5   5 450.466 14.5121   1
   1   5   5 711.539 19.2759   1
   2   5   5 88.0268 3.87348   1
   3   5   5 1710.04 83.9259   1
  -4   7   6 6.97018 6.10432  -2
   4   5   5 6.97018 6.10432   1
   5   5   5 -0.5465 2.88926   1
  -6   8   6 449.558 30.0211  -2
   6   5   5 449.558 30.0211   1
   7   5   5 600.530 23.7728   1
   8   5   5 7.66378 4.07909   1
   9   5   5 423.989 23.3345   1
 -11  -4   2 397.111 29.5086  -3
  12   0   3 397.111 29.5086  -2
 -12   6   5 397.111 29.5086   1
 -11   6   5 -0.8594 3.55149   1
  10   1   3 229.532 18.0762  -2
 -10   6   5 229.532 18.0762   1
  -8  -5   1 1297.57 73.7794  -3
  -9   6   5 1297.57 73.7794   1
   8   2   4 498.838 31.7169  -2
  -8   6   5 498.838 31.7169   1
  -7   6   5 376.577 16.2152   1
   6   3   4 855.684 49.1520  -2
  -6   6   5 855.684 49.1520   1
  -5   6   5 319.096 10.6379   1
  -4   6   5 165.638 6.15775   1
  -3   6   5 2377.76 55.8138   1
   1   7   2 1750.19 98.0331  -3
   2   5   5 1750.19 98.0331  -2
  -2   6   5 1750.19 98.0331   1
   0   7   2 292.164 13.8091  -3
  -1   6   5 292.164 13.8091   1
   0   6   5 572.139 18.1799  -2
   0   6   5 572.139 18.1799   1
   1   6   5 388.730 11.1465   1
   2   6   5 277.272 11.9122   1
  -4   8   4 2779.63 100.842  -3
   3   6   5 2779.63 100.842   1
  -4   8   6 416.295 17.4313  -2
   4   6   5 416.295 17.4313   1
   5   6   5 471.101 18.9608   1
  -7   9   5 258.261 13.7199  -3
  -6   9   6 258.261 13.7199  -2
   6   6   5 258.261 13.7199   1
   7   6   5 179.241 10.1683   1
   8   6   5 175.292 10.1161   1
  -9  10   7 603.327 40.3204  -2
   9   6   5 603.327 40.3204   1
 -12   7   5 718.530 40.8738   1
  10   2   3 147.888 14.7834  -2
 -10   7   5 147.888 14.7834   1
  -9   7   5 255.590 17.9145   1
  -7   7   5 170.237 9.00633   1
   6   4   4 1422.49 80.0189  -2
  -6   7   5 1422.49 80.0189   1
  -5   7   5 -0.5890 2.51313   1
   3   7   1 245.940 12.0431  -3
   4   5   4 245.940 12.0431  -2
  -4   7   5 245.940 12.0431   1
   4   5   4 160.315 13.9606  -2
  -4   7   5 160.315 13.9606   1
  -3   7   5 2658.20 62.3824   1
  -2   7   5 579.394 18.0505   1
   0   8   2 1743.59 62.6615  -3
  -1   7   5 1743.59 62.6615   1
   0   7   5 358.349 23.0129  -2
   0   7   5 358.349 23.0129   1
   1   7   5 504.181 19.6230   1
  -3   9   3 267.681 20.5814  -3
   2   7   5 267.681 20.5814   1
  -4   9   6 442.790 18.5796  -2
   4   7   5 442.790 18.5796   1
   5   7   5 289.473 12.9417   1
  -7  10   5 89.9123 12.4388  -3
  -6  10   6 89.9123 12.4388  -2
   6   7   5 89.9123 12.4388   1
   7   7   5 90.2417 11.8735   1
   8   7   5 36.6819 7.60505   1
 -11   8   5 52.3879 6.51199   1
  -9   8   5 87.9415 7.01642   1
   8   4   4 1116.93 64.6087  -2
  -8   8   5 1116.93 64.6087   1
  -7   8   5 532.411 22.1139   1
  -5   8   5 46.4568 5.40420   1
   4   6   4 259.579 19.0793  -2
  -4   8   5 259.579 19.0793   1
  -3   8   5 756.986 20.6242   1
   2   7   5 478.110 30.2149  -2
  -2   8   5 478.110 30.2149   1
  -1   8   5 40.9102 4.86580   1
   0   8   5 1578.54 57.9256  -2
   0   8   5 1578.54 57.9256   1
   1   8   5 60.9210 5.60773   1
   2   8   5 11.9249 2.85676   1
   3   8   5 1431.87 52.8592   1
  -4  10   6 239.309 12.2946  -2
   4   8   5 239.309 12.2946   1
   5   8   5 532.213 21.4477   1
  -8  11   5 224.807 13.8697  -3
   7   8   5 224.807 13.8697   1
 -11   9   5 100.043 7.77183   1
  10   4   3 82.3459 12.7918  -2
 -10   9   5 82.3459 12.7918   1
  -9   9   5 17.8059 3.82239   1
   8   5   4 783.020 46.8647  -2
  -8   9   5 783.020 46.8647   1
  -7   9   5 23.3657 3.90827   1
   6   6   4 1774.88 99.4616  -2
  -6   9   5 1774.88 99.4616   1
  -5   9   5 201.378 10.3214   1
   4   7   4 218.853 17.7397  -2
  -4   9   5 218.853 17.7397   1
  -3   9   5 387.331 15.9027   1
   0  10   1 1322.80 65.4271  -3
   2   8   5 1322.80 65.4271  -2
  -2   9   5 1322.80 65.4271   1
   2   8   5 1243.75 71.1280  -2
  -2   9   5 1243.75 71.1280   1
  -1   9   5 792.764 30.0437   1
   0   9   5 1061.90 39.7315  -2
   0   9   5 1061.90 39.7315   1
   1   9   5 31.3790 4.50786   1
   2   9   5 29.3633 4.50899   1
   3   9   5 675.696 26.2399   1
  -4  11   6 176.247 13.1671  -2
   4   9   5 176.247 13.1671   1
   5   9   5 163.244 9.44239   1
  10   5   3 285.958 21.0342  -2
 -10  10   5 285.958 21.0342   1
  -7  -9   2 34.0403 11.9064  -3
  -9  10   5 34.0403 11.9064   1
  -8  10   5 67.6951 9.64308   1
  -7  10   5 17.0841 3.75953   1
   6   7   4 830.802 48.4037  -2
  -6  10   5 830.802 48.4037   1
   3  10   0 61.5302 13.0019  -3
  -5  10   5 61.5302 13.0019   1
   2  10   0 259.033 21.3726  -3
   4   8   4 259.033 21.3726  -2
  -4  10   5 259.033 21.3726   1
  -3  10   5 0.32096 3.08541   1
   2   9   5 660.639 40.0081  -2
  -2  10   5 660.639 40.0081   1
   0  11   1 698.849 36.8891  -3
   2   9   5 698.849 36.8891  -2
  -2  10   5 698.849 36.8891   1
  -1  11   1 138.474 9.62561  -3
  -1  10   5 138.474 9.62561   1
   0  10   5 1209.29 45.0942  -2
   0  10   5 1209.29 45.0942   1
   1  10   5 53.8160 6.08026   1
  -4  12   2 225.146 16.0009  -3
   2  10   5 225.146 16.0009   1
  -5  12   3 172.750 10.9685  -3
   3  10   5 172.750 10.9685   1
  -4  12   6 513.538 27.6557  -2
   4  10   5 513.538 27.6557   1
   5  10   5 114.281 8.16915   1
   9   7   3 334.547 25.4965  -2
  -9  11   5 334.547 25.4965   1
  -6 -10   2 54.6236 15.6300  -3
   8   7   4 54.6236 15.6300  -2
  -8  11   5 54.6236 15.6300   1
  -7  11   5 142.384 9.27954   1
   6   8   4 1053.80 60.5130  -2
  -6  11   5 1053.80 60.5130   1
  -3 -11   1 131.639 15.1413  -3
  -5  11   5 131.639 15.1413   1
  -3  11   5 67.8327 9.67121   1
   2  10   5 202.360 12.1972  -2
  -2  11   5 202.360 12.1972   1
  -1  12   1 36.5975 6.58643  -3
  -1  11   5 36.5975 6.58643   1
   0  11   5 610.629 24.2769  -2
   0  11   5 610.629 24.2769   1
   1  11   5 17.4521 3.74967   1
  -5  13   3 71.1723 11.6680  -3
   3  11   5 71.1723 11.6680   1
   8   8   4 4.41344 13.5508  -2
  -8  12   5 4.41344 13.5508   1
  -7  12   5 1.13860 4.81891   1
   6   9   4 360.187 23.8527  -2
  -6  12   5 360.187 23.8527   1
  -5  12   5 228.365 16.7077   1
  -1  12   5 7.11537 5.11847   1
   1  12   5 57.7648 7.02044   1
   2  12   5 169.394 9.59126   1
   6  10   4 160.375 13.6658  -2
  -6  13   5 160.375 13.6658   1
  -2 -13   1 198.660 19.6751  -3
  -5  13   5 198.660 19.6751   1
  -3  13   5 263.581 19.1290   1
   2  12   5 120.193 15.1926  -2
  -2  13   5 120.193 15.1926   1
  -1  13   5 -0.9301 4.29428   1
   0  13   5 269.643 20.0013  -2
   0  13   5 269.643 20.0013   1
   0 -13   6 55.4608 9.53708  -2
   0 -13   6 55.4608 9.53708   1
   1 -13   6 334.126 21.4062   1
  -2 -12   6 229.537 18.5169  -2
   2 -13   6 229.537 18.5169   1
   3 -13   6 362.528 22.6511   1
   0 -10  11 79.6216 14.9058  -3
  -4 -11   7 79.6216 14.9058  -2
   4 -13   6 79.6216 14.9058   1
  -1 -10  11 72.6653 13.7999  -3
   5 -13   6 72.6653 13.7999   1
  -3 -12   6 68.9446 8.00192   1
   6 -11   8 433.692 29.9273  -3
   2 -13   5 433.692 29.9273  -2
  -2 -12   6 433.692 29.9273   1
  -1 -12   6 1.54086 4.27403   1
   3 -12   6 236.958 16.3020   1
  -1  -9  11 22.8311 9.28714  -3
   5 -12   6 22.8311 9.28714   1
   7 -12   6 481.916 28.6395   1
   4 -13   5 160.493 10.3638  -2
  -4 -11   6 160.493 10.3638   1
  -3 -11   6 84.1795 8.60960   1
  -1 -11   6 2.44174 3.79452   1
   0 -11   6 342.237 15.1519  -2
   0 -11   6 342.237 15.1519   1
   3  -9   9 14.6719 11.5365  -3
   1 -11   6 14.6719 11.5365   1
   3 -11   6 336.544 20.9594   1
  -4  -9   7 823.966 46.8073  -2
   4 -11   6 823.966 46.8073   1
   7 -11   6 181.123 19.3821   1
  -5 -10   6 100.574 8.12551   1
   4 -12   5 50.6096 10.7375  -2
  -4 -10   6 50.6096 10.7375   1
  -3 -10   6 64.2533 6.81891   1
   2 -11   6 584.713 34.9401  -2
  -2 -10   6 584.713 34.9401   1
  -1 -10   6 60.0792 6.29637   1
   0 -10   6 601.977 23.4663  -2
   0 -10   6 601.977 23.4663   1
   1 -10   6 -2.0647 3.20790   1
  -2  -9   6 235.583 17.7933  -2
   2 -10   6 235.583 17.7933   1
   3 -10   6 135.297 11.2559   1
  -4  -8   7 1786.90 96.6664  -2
   4 -10   6 1786.90 96.6664   1
   5 -10   6 5.26309 3.69372   1
  -6  -7   7 373.747 16.8848  -2
   6 -10   6 373.747 16.8848   1
   7 -10   6 36.2280 9.58456   1
   9 -10   6 299.772 20.9233   1
  10  -9   5 31.4834 15.2478  -3
  -7  -9   6 31.4834 15.2478   1
   8  -9   6 832.969 48.2061  -3
  -5  -9   6 832.969 48.2061   1
   4 -11   5 105.347 11.7654  -2
  -4  -9   6 105.347 11.7654   1
   6  -8   7 10.0980 7.97340  -3
  -3  -9   6 10.0980 7.97340   1
  -1  -9   6 265.662 11.7971   1
   0  -9   6 1506.85 54.6971  -2
   0  -9   6 1506.85 54.6971   1
   1  -9   6 258.118 11.4154   1
  -2  -8   6 309.861 20.5657  -2
   2  -9   6 309.861 20.5657   1
   3  -9   6 231.157 15.2671   1
  -1  -6  10 1807.90 97.8918  -3
  -4  -7   7 1807.90 97.8918  -2
   4  -9   6 1807.90 97.8918   1
  -2  -6  10 42.7057 12.9220  -3
   5  -9   6 42.7057 12.9220   1
  -6  -6   7 595.421 24.7292  -2
   6  -9   6 595.421 24.7292   1
   7  -9   6 -3.9862 3.16108   1
   9  -9   6 164.374 9.59122   1
 -10  -4   8 855.341 34.7550  -2
  10  -9   6 855.341 34.7550   1
   8 -12   4 134.536 17.1472  -2
  -8  -8   6 134.536 17.1472   1
  10  -8   5 162.136 17.5501  -3
  -7  -8   6 162.136 17.5501   1
  -5  -8   6 1314.96 48.3307   1
   4 -10   5 96.1245 11.5623  -2
  -4  -8   6 96.1245 11.5623   1
   7  -7   6 65.5564 13.4555  -3
   4 -10   5 65.5564 13.4555  -2
  -4  -8   6 65.5564 13.4555   1
  -3  -8   6 30.2698 4.35057   1
  -1  -8   6 170.016 11.9779   1
   3  -6   8 1520.70 82.3525  -3
   0  -8   6 1520.70 82.3525  -2
   0  -8   6 1520.70 82.3525   1
   2  -6   8 1882.26 101.211  -3
   1  -8   6 1882.26 101.211   1
   2  -8   6 4.66575 3.66001   1
   3  -8   6 52.8916 7.15649   1
  -2  -5  10 282.187 13.8494  -3
   5  -8   6 282.187 13.8494   1
  -3  -5  10 2147.75 83.2715  -3
  -6  -5   7 2147.75 83.2715  -2
   6  -8   6 2147.75 83.2715   1
   7  -8   6 129.487 8.05436   1
  -5  -4  11 203.628 16.9115  -3
   8  -8   6 203.628 16.9115   1
   9  -8   6 116.865 16.1587   1
  -9  -7   6 412.257 17.9358   1
  -7  -7   6 219.206 11.2555   1
   6 -10   5 119.859 13.7594  -2
  -6  -7   6 119.859 13.7594   1
  -5  -7   6 968.170 36.0710   1
   4  -9   5 76.9748 7.24248  -2
  -4  -7   6 76.9748 7.24248   1
  -3  -7   6 681.911 25.7628   1
  -2  -7   6 201.617 9.26003   1
  -1  -7   6 292.530 12.1747   1
   0  -7   6 1156.60 35.2234  -2
   0  -7   6 1156.60 35.2234   1
   1  -7   6 2551.99 66.4583   1
  -2  -6   6 754.093 30.3346  -2
   2  -7   6 754.093 30.3346   1
   3  -7   6 9.67784 1.81019   1
  -4  -5   7 1027.35 40.7056  -2
   4  -7   6 1027.35 40.7056   1
   5  -7   6 210.852 10.2501   1
  -6  -4   7 1239.26 70.0329  -2
   6  -7   6 1239.26 70.0329   1
   7  -7   6 1035.83 40.9819   1
   8  -7   6 7.60083 4.48673   1
  -6  -3  11 8.09113 11.4924  -3
   9  -7   6 8.09113 11.4924   1
 -10  -2   8 682.134 39.5151  -2
  10  -7   6 682.134 39.5151   1
  11  -7   6 85.5721 7.36003   1
  -9  -6   6 316.845 14.7129   1
   8 -10   4 79.3976 13.7042  -2
  -8  -6   6 79.3976 13.7042   1
  -7  -6   6 414.139 17.3186   1
   6  -9   5 275.797 13.7829  -2
  -6  -6   6 275.797 13.7829   1
  -5  -6   6 1117.68 41.1497   1
   4  -8   5 19.5333 8.23409  -2
  -4  -6   6 19.5333 8.23409   1
  -3  -6   6 808.773 30.0299   1
  -2  -6   6 30.8660 4.28738   1
  -1  -6   6 323.642 9.74889   1
   0  -6   6 338.181 10.1168  -2
   0  -6   6 338.181 10.1168   1
   1  -6   6 2082.01 49.0943   1
  -2  -5   6 143.674 8.48115  -2
   2  -6   6 143.674 8.48115   1
   3  -6   6 872.888 23.6217   1
  -4  -4   7 404.814 17.4091  -2
   4  -6   6 404.814 17.4091   1
   5  -6   6 345.692 20.7989   1
  -6  -3   7 1239.19 48.6624  -2
   6  -6   6 1239.19 48.6624   1
   7  -6   6 1376.08 53.7339   1
   8  -6   6 260.382 12.2804   1
   9  -6   6 -1.0145 3.20673   1
 -11  -1   8 14.3693 15.2343  -2
  11  -6   6 14.3693 15.2343   1
  12  -6   3 57.4616 8.36394  -3
  10 -10   4 57.4616 8.36394  -2
 -10  -5   6 57.4616 8.36394   1
   8  -9   4 363.230 24.2233  -2
  -8  -5   6 363.230 24.2233   1
   9  -5   4 92.9108 11.2310  -3
  -7  -5   6 92.9108 11.2310   1
   6  -8   5 -1.5626 9.61684  -2
  -6  -5   6 -1.5626 9.61684   1
   7  -5   5 1789.84 96.7576  -3
  -5  -5   6 1789.84 96.7576   1
   4  -7   5 265.547 11.9600  -2
  -4  -5   6 265.547 11.9600   1
   4  -4   6 182.848 6.86131  -3
  -2  -5   6 182.848 6.86131   1
  -1  -5   6 709.588 19.2034   1
   2  -3   7 994.358 26.6819  -3
   0  -5   6 994.358 26.6819  -2
   0  -5   6 994.358 26.6819   1
   1  -5   6 2462.61 57.8546   1
   2  -5   6 4.70560 1.43787   1
   3  -5   6 1303.98 31.0499   1
  -4  -3   7 162.091 8.83286  -2
   4  -5   6 162.091 8.83286   1
  -6  -2   7 446.224 27.2482  -2
   6  -5   6 446.224 27.2482   1
   7  -5   6 926.643 36.7035   1
  -6  -1  10 121.739 12.8870  -3
   8  -5   6 121.739 12.8870   1
   9  -5   6 150.540 8.58177   1
  10  -9   4 184.380 15.8773  -2
 -10  -4   6 184.380 15.8773   1
  -9  -4   6 788.474 30.2679   1
   8  -8   4 783.975 44.7612  -2
  -8  -4   6 783.975 44.7612   1
   9  -4   4 206.829 17.6961  -3
  -7  -4   6 206.829 17.6961   1
   8  -4   4 96.1046 9.67815  -3
   6  -7   5 96.1046 9.67815  -2
  -6  -4   6 96.1046 9.67815   1
  -5  -4   6 965.145 35.5415   1
  -3  -4   6 525.305 14.6462   1
  -2  -4   6 843.169 22.5828   1
   3  -3   6 752.804 20.5145  -3
  -1  -4   6 752.804 20.5145   1
   0  -4   6 377.369 10.7828  -2
   0  -4   6 377.369 10.7828   1
   1  -2   7 3140.01 81.3041  -3
   1  -4   6 3140.01 81.3041   1
   2  -4   6 196.522 5.56360   1
   3  -4   6 2669.52 62.6219   1
  -4  -2   7 -7.6360 5.31410  -2
   4  -4   6 -7.6360 5.31410   1
   5  -4   6 804.304 19.5066   1
  -4  -1   9 633.249 37.4139  -3
  -6  -1   7 633.249 37.4139  -2
   6  -4   6 633.249 37.4139   1
   7  -4   6 1693.80 65.6680   1
  -7   0  10 620.801 36.9787  -3
   9  -4   6 620.801 36.9787   1
 -11  -3   6 2.75191 5.43932   1
  -9  -3   6 655.323 25.5333   1
   8  -7   4 757.907 40.4533  -2
  -8  -3   6 757.907 40.4533   1
  -7  -3   6 -0.8981 3.11531   1
   6  -6   5 1005.79 37.3854  -2
  -6  -3   6 1005.79 37.3854   1
  -5  -3   6 773.122 42.7091   1
   4  -5   5 624.101 17.3627  -2
  -4  -3   6 624.101 17.3627   1
  -3  -3   6 3813.23 98.5514   1
  -2  -3   6 2063.46 53.7212   1
  -1  -3   6 370.836 10.4913   1
   0  -3   6 15.5550 2.61113  -2
   0  -3   6 15.5550 2.61113   1
   1  -3   6 2691.22 63.0150   1
   2  -3   6 37.7956 2.33489   1
   3  -3   6 1480.20 35.0037   1
  -4  -1   7 583.303 32.9165  -2
   4  -3   6 583.303 32.9165   1
   5  -3   6 539.078 13.3479   1
  -6   0   7 791.823 43.9164  -2
   6  -3   6 791.823 43.9164   1
   7  -3   6 1194.49 46.7357   1
   8  -3   6 4.14548 2.95257   1
   9  -3   6 750.418 42.4430   1
 -11  -2   6 18.2103 5.88836   1
  10  -7   4 210.138 11.1854  -2
 -10  -2   6 210.138 11.1854   1
  -9  -2   6 541.077 21.4794   1
   8  -6   4 2019.73 98.7761  -2
  -8  -2   6 2019.73 98.7761   1
  -7  -2   6 53.4100 5.44086   1
   6  -5   5 560.645 32.1980  -2
  -6  -2   6 560.645 32.1980   1
  -5  -2   6 68.5731 3.87059   1
   4  -4   5 229.432 8.83219  -2
  -4  -2   6 229.432 8.83219   1
  -3  -2   6 3365.25 87.0573   1
  -2  -2   6 2871.19 74.3159   1
  -1  -2   6 14.2850 1.40444   1
   0  -2   6 1614.34 42.1278  -2
   0  -2   6 1614.34 42.1278   1
   1  -2   6 1139.13 27.0179   1
   2  -2   6 60.0084 2.56404   1
   3  -2   6 4284.32 99.9521   1
  -4   0   7 2294.96 122.490  -2
   4  -2   6 2294.96 122.490   1
  -5   0   7 889.757 49.5235  -2
   5  -2   6 889.757 49.5235   1
  -6   1   7 103.460 5.71470  -2
   6  -2   6 103.460 5.71470   1
   7  -2   6 1282.00 50.0251   1
   8  -2   6 9.59649 3.00516   1
   9  -2   6 984.647 39.4814   1
  12  -2   1 288.429 22.0723  -3
  11  -6   4 288.429 22.0723  -2
 -11  -1   6 288.429 22.0723   1
  11  -2   2 69.5327 12.6123  -3
  10  -6   4 69.5327 12.6123  -2
 -10  -1   6 69.5327 12.6123   1
  10  -2   2 25.2909 13.3576  -3
  -9  -1   6 25.2909 13.3576   1
  -8  -1   6 1873.30 100.812   1
   6  -4   5 956.059 53.9979  -2
  -6  -1   6 956.059 53.9979   1
  -5  -1   6 172.991 5.94381   1
   4  -3   5 961.865 25.7354  -2
  -4  -1   6 961.865 25.7354   1
  -3  -1   6 2766.50 71.6663   1
   3   0   5 4262.62 114.300  -3
  -2  -1   6 4262.62 114.300   1
   1  -2   6 192.201 12.8889  -2
  -1  -1   6 192.201 12.8889   1
   0  -1   6 1855.92 48.2617  -2
   0  -1   6 1855.92 48.2617   1
   0   1   6 1847.54 54.9059  -3
   1  -1   6 1847.54 54.9059   1
   2  -1   6 173.423 4.84922   1
   3  -1   6 4519.04 105.385   1
  -4   1   7 1886.50 100.879  -2
   4  -1   6 1886.50 100.879   1
  -4   2   8 4.15290 7.68403  -3
   5  -1   6 4.15290 7.68403   1
  -6   2   7 464.278 27.7940  -2
   6  -1   6 464.278 27.7940   1
  -5   2   8 452.961 27.1471  -3
  -6   2   7 452.961 27.1471  -2
   6  -1   6 452.961 27.1471   1
   7  -1   6 776.397 24.4503   1
  12  -6   4 886.481 50.7405  -2
 -12   0   6 886.481 50.7405   1
 -11   0   6 145.875 11.7238   1
  11  -1   1 106.098 13.2485  -3
  10  -5   4 106.098 13.2485  -2
 -10   0   6 106.098 13.2485   1
  -9   0   6 47.9328 6.23041   1
  -8   0   6 1395.54 50.7937   1
  -7   0   6 5.61590 2.02830   1
   6  -3   5 2482.22 133.826  -2
  -6   0   6 2482.22 133.826   1
   7   0   3 2505.45 120.558  -3
   6  -3   5 2505.45 120.558  -2
  -6   0   6 2505.45 120.558   1
   6   0   3 329.781 22.3417  -3
  -5   0   6 329.781 22.3417   1
   4  -2   5 338.144 11.1544  -2
  -4   0   6 338.144 11.1544   1
  -3   0   6 482.189 11.9413   1
  -2   0   6 5752.42 133.967   1
   2   1   5 143.357 12.0644  -3
   1  -1   6 143.357 12.0644  -2
  -1   0   6 143.357 12.0644   1
   2   1   5 31.8340 5.41837  -3
  -1   0   6 31.8340 5.41837   1
   0   0   6 465.837 11.5428  -2
   0   0   6 465.837 11.5428   1
   1   0   6 783.045 20.7325   1
   2   0   6 600.404 14.7287   1
   3   0   6 3346.80 78.1948   1
  -4   2   7 3677.62 130.342  -2
   4   0   6 3677.62 130.342   1
   5   0   6 317.854 8.30161   1
  -5   3   8 802.949 30.2735  -3
  -6   3   7 802.949 30.2735  -2
   6   0   6 802.949 30.2735   1
   7   0   6 907.684 34.9133   1
   8   0   6 11.1073 3.24433   1
 -11   1   6 681.075 38.6049   1
  10  -4   4 67.4229 8.86091  -2
 -10   1   6 67.4229 8.86091   1
  -9   1   6 31.4508 6.79185   1
  -8   1   6 374.398 15.4023   1
  -7   1   6 97.0659 4.12086   1
   6  -2   5 3759.97 98.1527  -2
  -6   1   6 3759.97 98.1527   1
  -5   1   6 971.915 23.3649   1
   4  -1   5 280.183 9.60420  -2
  -4   1   6 280.183 9.60420   1
  -3   1   6 313.912 8.10129   1
  -2   1   6 4780.71 111.443   1
  -1   1   6 309.483 7.90633   1
   0   1   6 6526.33 169.280  -2
   0   1   6 6526.33 169.280   1
   1   1   6 136.602 4.05057   1
   2   1   6 122.285 4.10323   1
   3   1   6 1469.20 34.6898   1
  -4   3   7 2288.49 109.620  -2
   4   1   6 2288.49 109.620   1
   5   1   6 18.6400 2.14791   1
   7   1   6 3.72971 2.66427   1
   8   1   6 206.126 9.92798   1
 -11   2   6 586.522 33.8149   1
  10   1   1 480.210 29.1467  -3
  10  -3   4 480.210 29.1467  -2
 -10   2   6 480.210 29.1467   1
  -9   2   6 219.151 10.8844   1
  -8   2   6 164.626 7.11517   1
  -7   2   6 21.5772 2.29799   1
   6  -1   5 2415.49 63.4878  -2
  -6   2   6 2415.49 63.4878   1
  -5   2   6 512.743 12.8197   1
   4   0   5 380.675 11.0158  -2
  -4   2   6 380.675 11.0158   1
  -3   2   6 5.02875 1.21340   1
  -2   2   6 1360.77 32.1728   1
  -1   2   6 49.3038 2.38957   1
   0   2   6 5737.37 133.707  -2
   0   2   6 5737.37 133.707   1
   1   2   6 958.061 22.8204   1
   2   2   6 184.058 5.90029   1
   3   2   6 358.101 10.3054   1
  -4   4   7 4219.10 200.763  -2
   4   2   6 4219.10 200.763   1
   5   2   6 269.000 11.2037   1
   7   2   6 19.9144 4.23013   1
   8   2   6 81.3160 8.81210   1
   9   2   6 846.510 42.9126   1
  10  -2   4 240.057 18.5476  -2
 -10   3   6 240.057 18.5476   1
  10   2   0 274.520 20.0424  -3
  10  -2   4 274.520 20.0424  -2
 -10   3   6 274.520 20.0424   1
   9   2   1 842.571 49.2709  -3
  -9   3   6 842.571 49.2709   1
  -8   3   6 105.288 7.44125   1
  -7   3   6 288.772 9.15066   1
   6   3   2 1214.15 32.6084  -3
   6   0   5 1214.15 32.6084  -2
  -6   3   6 1214.15 32.6084   1
  -5   3   6 3393.63 79.4669   1
   4   1   5 2290.10 59.9651  -2
  -4   3   6 2290.10 59.9651   1
   3   4   3 358.581 22.7248  -3
  -3   3   6 358.581 22.7248   1
   2   4   4 637.783 25.4834  -3
  -2   3   6 637.783 25.4834   1
   2   4   4 600.489 30.3964  -3
   2   2   6 600.489 30.3964  -2
  -2   3   6 600.489 30.3964   1
  -1   3   6 5.71873 1.11257   1
   0   3   6 5214.42 121.606  -2
   0   3   6 5214.42 121.606   1
  -1   5   5 311.996 10.7045  -3
   1   3   6 311.996 10.7045   1
   2   3   6 175.938 5.78302   1
   3   3   6 15.5792 1.98083   1
   5   3   6 66.9333 5.74415   1
  -6   6   7 2593.41 124.578  -3
  -6   6   7 2593.41 124.578  -2
   6   3   6 2593.41 124.578   1
   7   3   6 62.3001 6.37310   1
   8   3   6 77.5976 7.17377   1
  -9   7   8 55.0157 12.6554  -3
   9   3   6 55.0157 12.6554   1
 -10   8   8 793.781 48.5244  -2
  10   3   6 793.781 48.5244   1
 -11   4   6 675.206 42.8692   1
  10  -1   4 51.2158 11.9460  -2
 -10   4   6 51.2158 11.9460   1
  -9   4   6 1443.74 56.4441   1
   8   3   1 119.399 14.2968  -3
  -8   4   6 119.399 14.2968   1
  -7   4   6 10.5544 3.37581   1
   6   1   5 1622.01 43.0127  -2
  -6   4   6 1622.01 43.0127   1
   5   4   2 1115.59 35.7571  -3
  -5   4   6 1115.59 35.7571   1
   4   2   5 726.469 23.7387  -2
  -4   4   6 726.469 23.7387   1
  -3   4   6 2053.00 48.2774   1
   2   3   6 156.751 13.8815  -2
  -2   4   6 156.751 13.8815   1
  -1   4   6 378.924 15.4952   1
   0   4   6 3044.92 79.4524  -2
   0   4   6 3044.92 79.4524   1
   1   4   6 2700.68 70.5534   1
  -2   6   5 2592.67 93.9221  -3
   2   4   6 2592.67 93.9221   1
   3   4   6 421.594 18.2534   1
  -4   6   7 440.570 23.5589  -2
   4   4   6 440.570 23.5589   1
  -5   7   6 -4.8200 13.6327  -3
   5   4   6 -4.8200 13.6327   1
   7   4   6 51.4057 6.37824   1
   8   4   6 334.297 14.8333   1
  -9   8   8 52.7739 18.4011  -3
  -9   8   8 52.7739 18.4011  -2
   9   4   6 52.7739 18.4011   1
 -11   5   6 384.147 17.5037   1
  10   0   4 24.7958 11.7939  -2
 -10   5   6 24.7958 11.7939   1
  -9   5   6 1514.01 85.3105   1
  -8   5   6 204.207 15.2421   1
  -7   5   6 638.099 37.4868   1
   6   2   5 479.726 27.5569  -2
  -6   5   6 479.726 27.5569   1
  -5   5   6 2571.56 60.4268   1
   4   3   5 178.512 10.2986  -2
  -4   5   6 178.512 10.2986   1
  -3   5   6 2880.30 75.1941   1
   2   4   6 504.154 31.2231  -2
  -2   5   6 504.154 31.2231   1
  -1   5   6 37.3119 2.82386   1
   0   5   6 1855.37 48.8205  -2
   0   5   6 1855.37 48.8205   1
   1   5   6 1767.29 46.5377   1
   2   5   6 516.525 27.9221   1
   3   5   6 485.164 19.0974   1
  -4   7   7 115.978 8.46827  -2
   4   5   6 115.978 8.46827   1
   5   5   6 118.771 7.46148   1
  -6   8   7 1230.36 46.0150  -2
   6   5   6 1230.36 46.0150   1
   7   5   6 465.422 19.1553   1
   8   5   6 305.046 15.3707   1
  -9   9   8 162.671 16.6698  -3
   9   5   6 162.671 16.6698   1
 -12   6   6 53.1663 9.10874   1
  10   1   4 25.2590 11.5468  -2
 -10   6   6 25.2590 11.5468   1
  -9   6   6 1238.16 48.8864   1
  -8   6   6 719.927 29.2880   1
  -7   6   6 475.229 20.0056   1
   6   3   5 197.651 10.0353  -2
  -6   6   6 197.651 10.0353   1
  -5   6   6 736.707 18.0636   1
   4   4   5 -7.3451 9.17007  -2
  -4   6   6 -7.3451 9.17007   1
  -3   6   6 3272.18 76.6322   1
  -2   6   6 241.809 7.24834   1
  -1   6   6 145.563 5.22072   1
   0   6   6 505.815 19.4675  -2
   0   6   6 505.815 19.4675   1
  -2   8   4 2206.74 80.3929  -3
   1   6   6 2206.74 80.3929   1
   2   6   6 167.053 8.38482   1
   3   6   6 2030.67 74.0329   1
  -4   8   7 185.878 17.6794  -2
   4   6   6 185.878 17.6794   1
   5   6   6 56.4177 5.90146   1
   7   6   6 553.644 22.3090   1
   8   6   6 325.568 14.6376   1
 -11   7   6 50.7923 6.94254   1
   8   6   0 1275.28 73.7251  -3
   9   2   5 1275.28 73.7251  -2
  -9   7   6 1275.28 73.7251   1
   8   3   5 913.062 54.0885  -2
  -8   7   6 913.062 54.0885   1
  -7   7   6 312.662 20.5193   1
   5   7   1 92.3555 11.2683  -3
   6   4   5 92.3555 11.2683  -2
  -6   7   6 92.3555 11.2683   1
  -5   7   6 931.145 36.9896   1
   4   5   5 221.849 17.6473  -2
  -4   7   6 221.849 17.6473   1
   2   8   2 3189.86 176.691  -3
  -3   7   6 3189.86 176.691   1
   1   8   3 970.623 56.8080  -3
   2   6   6 970.623 56.8080  -2
  -2   7   6 970.623 56.8080   1
  -1   7   6 927.753 53.4061   1
   0   7   6 192.763 9.54254  -2
   0   7   6 192.763 9.54254   1
   1   7   6 591.105 22.8291   1
  -3   9   4 105.444 17.5237  -3
  -2   8   6 105.444 17.5237  -2
   2   7   6 105.444 17.5237   1
   3   7   6 1225.90 45.4932   1
  -6  10   5 51.2217 9.55840  -3
   5   7   6 51.2217 9.55840   1
  -7  10   6 139.932 11.8680  -3
  -6  10   7 139.932 11.8680  -2
   6   7   6 139.932 11.8680   1
   7   7   6 511.890 20.9149   1
   8   7   6 30.3469 4.42495   1
 -11   8   6 58.6642 7.00667   1
  -9   8   6 640.026 38.2599   1
   7   7   0 459.435 30.5916  -3
  -8   8   6 459.435 30.5916   1
  -7   8   6 63.2371 6.44702   1
   6   5   5 416.442 26.1771  -2
  -6   8   6 416.442 26.1771   1
   4   6   5 27.1226 7.41526  -2
  -4   8   6 27.1226 7.41526   1
  -3   8   6 1129.66 34.7622   1
  -2   8   6 932.260 45.9402   1
   0   8   6 4.60777 5.62962  -2
   0   8   6 4.60777 5.62962   1
   1   8   6 630.558 24.4157   1
  -3  10   4 18.0479 5.90796  -3
   2   8   6 18.0479 5.90796   1
   3   8   6 2158.28 78.7606   1
  -4  10   7 153.383 10.1497  -2
   4   8   6 153.383 10.1497   1
  -6  11   5 124.723 9.94162  -3
   5   8   6 124.723 9.94162   1
  -6  11   7 128.294 15.2098  -2
   6   8   6 128.294 15.2098   1
   7   8   6 256.753 12.5326   1
  10   4   4 222.047 18.6870  -2
 -10   9   6 222.047 18.6870   1
  -9   9   6 413.999 27.2014   1
   8   5   5 572.969 36.2968  -2
  -8   9   6 572.969 36.2968   1
  -7   9   6 92.3216 7.26014   1
   6   6   5 843.622 49.0462  -2
  -6   9   6 843.622 49.0462   1
  -5   9   6 251.705 12.3236   1
   4   7   5 42.5116 11.8118  -2
  -4   9   6 42.5116 11.8118   1
  -3   9   6 1343.44 49.6495   1
   2   8   6 521.862 33.2327  -2
  -2   9   6 521.862 33.2327   1
  -1   9   6 203.923 9.91311   1
   0   9   6 132.811 8.52718  -2
   0   9   6 132.811 8.52718   1
   1   9   6 267.650 12.1611   1
   2   9   6 34.2415 4.64748   1
   3   9   6 549.598 21.9308   1
   5   9   6 129.199 8.55074   1
  -6  12   7 35.2828 9.09911  -2
   6   9   6 35.2828 9.09911   1
  -8  -9   2 95.7558 17.0699  -3
  10   5   4 95.7558 17.0699  -2
 -10  10   6 95.7558 17.0699   1
   9   6   4 181.060 20.0281  -2
  -9  10   6 181.060 20.0281   1
  -8  10   6 430.729 26.7206   1
   7   6   5 499.156 32.7084  -2
  -7  10   6 499.156 32.7084   1
   4  10   0 619.861 37.8282  -3
   6   7   5 619.861 37.8282  -2
  -6  10   6 619.861 37.8282   1
  -5  10   6 36.3256 9.02980   1
   4   8   5 221.040 18.2906  -2
  -4  10   6 221.040 18.2906   1
  -3  10   6 494.889 19.9895   1
   0  11   2 647.550 41.0579  -3
   2   9   6 647.550 41.0579  -2
  -2  10   6 647.550 41.0579   1
  -1  10   6 144.621 8.39926   1
   0  10   6 773.587 45.7671  -2
   0  10   6 773.587 45.7671   1
   1  10   6 186.302 9.75596   1
   2  10   6 23.5868 4.27329   1
   3  10   6 589.034 30.8225   1
   5  10   6 65.2527 7.04245   1
   8   7   5 350.325 25.6349  -2
  -8  11   6 350.325 25.6349   1
  -7  11   6 15.1359 5.70213   1
   3  11   0 19.2728 11.9265  -3
  -5  11   6 19.2728 11.9265   1
   4   9   5 206.965 18.6844  -2
  -4  11   6 206.965 18.6844   1
  -3  11   6 339.391 22.4426   1
   0  11   6 367.087 16.1094  -2
   0  11   6 367.087 16.1094   1
   1  11   6 -0.5879 4.40488   1
  -4  13   3 38.5780 13.6908  -3
   2  11   6 38.5780 13.6908   1
   3  11   6 352.556 19.6752   1
  -7  12   6 36.1718 6.92432   1
   6   9   5 766.098 45.4587  -2
  -6  12   6 766.098 45.4587   1
   3  12   0 153.099 16.5651  -3
  -5  12   6 153.099 16.5651   1
   4  10   5 239.926 21.6399  -2
  -4  12   6 239.926 21.6399   1
  -3  12   6 65.6708 10.3975   1
   0  13   1 380.696 29.0254  -3
   2  11   6 380.696 29.0254  -2
  -2  12   6 380.696 29.0254   1
  -1  12   6 74.4843 11.1597   1
   0  12   6 832.414 32.2416  -2
   0  12   6 832.414 32.2416   1
   1  12   6 49.3158 8.29250   1
  -4  14   3 101.620 9.15973  -3
   2  12   6 101.620 9.15973   1
  -5  13   6 41.6076 9.56983   1
   4  11   5 218.101 19.7837  -2
  -4  13   6 218.101 19.7837   1
  -3  13   6 136.378 13.2396   1
   2  12   6 68.2785 13.5848  -2
  -2  13   6 68.2785 13.5848   1
  -1  13   6 31.2965 6.10069   1
   1 -13   7 449.789 27.0209   1
  -2 -12   7 16.3349 12.1647  -2
   2 -13   7 16.3349 12.1647   1
   3 -13   7 251.264 17.0367   1
  -1 -12   7 2.03107 5.86226   1
   4 -10  10 22.1280 11.3339  -3
   0 -12   7 22.1280 11.3339  -2
   0 -12   7 22.1280 11.3339   1
   3 -10  10 628.384 37.0268  -3
   1 -12   7 628.384 37.0268   1
  -2 -11   7 190.406 16.6406  -2
   2 -12   7 190.406 16.6406   1
   1  -9  11 279.274 20.2792  -3
   3 -12   7 279.274 20.2792   1
   5 -12   7 247.241 16.8643   1
  -6  -9   8 46.3453 10.2858  -2
   6 -12   7 46.3453 10.2858   1
   8 -10   8 306.185 16.3368  -3
   4 -13   6 306.185 16.3368  -2
  -4 -11   7 306.185 16.3368   1
   7 -10   8 189.482 13.0907  -3
  -3 -11   7 189.482 13.0907   1
  -1 -11   7 5.15073 4.50380   1
   0 -11   7 55.5754 7.19198  -2
   0 -11   7 55.5754 7.19198   1
   1 -11   7 327.201 20.5628   1
  -2 -10   7 49.6225 11.9783  -2
   2 -11   7 49.6225 11.9783   1
   5 -11   7 7.30619 5.60994   1
  -6  -8   8 -4.6325 9.11524  -2
   6 -11   7 -4.6325 9.11524   1
   7 -11   7 505.023 29.7856   1
  -5 -10   7 2.16114 4.19592   1
   4 -12   6 91.3848 13.0833  -2
  -4 -10   7 91.3848 13.0833   1
  -3 -10   7 298.240 13.4080   1
  -2 -10   7 379.836 23.0493   1
  -1 -10   7 5.56443 3.44596   1
   0 -10   7 157.370 9.15904  -2
   0 -10   7 157.370 9.15904   1
   1 -10   7 30.2159 4.66164   1
  -2  -9   7 490.474 29.7648  -2
   2 -10   7 490.474 29.7648   1
   3 -10   7 500.049 29.0152   1
   0  -7  11 897.653 51.3753  -3
  -4  -8   8 897.653 51.3753  -2
   4 -10   7 897.653 51.3753   1
   5 -10   7 43.8934 8.15234   1
  -6  -7   8 163.882 15.7341  -2
   6 -10   7 163.882 15.7341   1
   7 -10   7 499.858 21.5127   1
   8 -10   7 18.9545 6.33462   1
  -5  -9   7 0.34961 4.63679   1
   4 -11   6 203.939 11.2144  -2
  -4  -9   7 203.939 11.2144   1
  -3  -9   7 27.9391 4.81995   1
  -2  -9   7 1427.34 77.3570   1
  -1  -9   7 4.23721 3.34970   1
   3  -7   9 102.205 9.41243  -3
   0  -9   7 102.205 9.41243  -2
   0  -9   7 102.205 9.41243   1
   1  -9   7 87.4792 6.47467   1
  -2  -8   7 335.403 15.4810  -2
   2  -9   7 335.403 15.4810   1
   3  -9   7 636.103 36.0123   1
  -4  -7   8 776.488 43.9704  -2
   4  -9   7 776.488 43.9704   1
   5  -9   7 -1.8558 3.39399   1
  -6  -6   8 66.9666 7.70666  -2
   6  -9   7 66.9666 7.70666   1
   7  -9   7 121.428 8.20645   1
  -8  -5   9 195.262 18.1905  -2
   8  -9   7 195.262 18.1905   1
   9  -9   7 516.641 22.0657   1
  10  -8   6 107.461 16.0739  -3
  -7  -8   7 107.461 16.0739   1
  -5  -8   7 58.5703 9.06456   1
   7  -7   7 96.6428 11.6508  -3
   4 -10   6 96.6428 11.6508  -2
  -4  -8   7 96.6428 11.6508   1
   6  -7   7 18.6719 7.80944  -3
  -3  -8   7 18.6719 7.80944   1
   2  -9   7 1149.90 57.6698  -2
  -2  -8   7 1149.90 57.6698   1
  -1  -8   7 289.490 12.4309   1
   3  -6   9 403.347 17.2669  -3
   0  -8   7 403.347 17.2669  -2
   0  -8   7 403.347 17.2669   1
   2  -6   9 3.15693 5.48857  -3
   1  -8   7 3.15693 5.48857   1
  -2  -7   7 220.554 16.5096  -2
   2  -8   7 220.554 16.5096   1
   0  -5  10 254.477 17.5233  -3
   3  -8   7 254.477 17.5233   1
   5  -8   7 1.64080 3.51687   1
  -6  -5   8 377.363 23.6767  -2
   6  -8   7 377.363 23.6767   1
   7  -8   7 227.684 11.4694   1
 -10  -3   9 366.148 24.0280  -2
  10  -8   7 366.148 24.0280   1
   8 -11   5 56.1277 14.0275  -2
  -8  -7   7 56.1277 14.0275   1
  -7  -7   7 215.301 15.9530   1
   6 -10   6 573.004 34.0771  -2
  -6  -7   7 573.004 34.0771   1
  -5  -7   7 511.628 20.3301   1
   4  -9   6 288.162 13.1657  -2
  -4  -7   7 288.162 13.1657   1
   6  -6   7 99.9445 13.1921  -3
  -3  -7   7 99.9445 13.1921   1
   2  -8   7 1516.65 74.4229  -2
  -2  -7   7 1516.65 74.4229   1
   4  -5   8 116.412 12.2890  -3
  -1  -7   7 116.412 12.2890   1
   0  -7   7 1385.97 50.2537  -2
   0  -7   7 1385.97 50.2537   1
   1  -7   7 27.0781 6.12958   1
   1  -5   9 434.416 25.2440  -3
   2  -7   7 434.416 25.2440   1
   3  -7   7 68.5864 4.66975   1
  -1  -4  10 2407.44 129.214  -3
  -4  -5   8 2407.44 129.214  -2
   4  -7   7 2407.44 129.214   1
   5  -7   7 13.3064 3.43512   1
  -6  -4   8 168.514 10.2546  -2
   6  -7   7 168.514 10.2546   1
   7  -7   7 12.3336 3.46924   1
   8  -7   7 276.143 13.1423   1
 -10  -2   9 750.326 43.4355  -2
  10  -7   7 750.326 43.4355   1
  -9  -6   7 263.566 12.9132   1
  -7  -6   7 47.6687 6.67067   1
   6  -9   6 373.041 16.7132  -2
  -6  -6   7 373.041 16.7132   1
  -5  -6   7 1005.14 37.2864   1
   4  -8   6 139.457 12.5488  -2
  -4  -6   7 139.457 12.5488   1
  -3  -6   7 3.94701 2.82682   1
  -2  -6   7 462.901 17.9763   1
  -1  -6   7 569.644 21.5799   1
   0  -6   7 1468.31 44.2836  -2
   0  -6   7 1468.31 44.2836   1
   1  -6   7 851.719 22.9938   1
  -2  -5   7 233.510 16.5321  -2
   2  -6   7 233.510 16.5321   1
   3  -6   7 92.0461 4.04603   1
  -4  -4   8 2582.78 99.4502  -2
   4  -6   7 2582.78 99.4502   1
   5  -6   7 205.045 10.1320   1
  -6  -3   8 2049.71 79.3426  -2
   6  -6   7 2049.71 79.3426   1
   7  -6   7 0.96703 3.19600   1
   8  -6   7 292.208 13.4803   1
   9  -6   7 133.757 8.55592   1
 -10  -1   9 1109.01 61.8371  -2
  10  -6   7 1109.01 61.8371   1
  -9  -5   7 418.110 17.7390   1
   8  -9   5 -2.8891 13.2749  -2
  -8  -5   7 -2.8891 13.2749   1
   9  -5   5 240.547 13.0569  -3
  -7  -5   7 240.547 13.0569   1
   6  -8   6 476.946 19.7480  -2
  -6  -5   7 476.946 19.7480   1
  -5  -5   7 1756.73 63.5191   1
   6  -4   6 89.5414 12.3265  -3
   4  -7   6 89.5414 12.3265  -2
  -4  -5   7 89.5414 12.3265   1
  -3  -5   7 923.662 33.9460   1
  -2  -5   7 685.304 25.5721   1
  -1  -5   7 149.903 5.48466   1
   2  -3   8 2026.72 72.6820  -3
   0  -5   7 2026.72 72.6820  -2
   0  -5   7 2026.72 72.6820   1
   0  -5   7 2004.79 108.791  -2
   0  -5   7 2004.79 108.791   1
   1  -5   7 1920.19 45.3894   1
   2  -5   7 345.984 9.13692   1
  -1  -2   9 -7.8630 9.78032  -3
   3  -5   7 -7.8630 9.78032   1
  -4  -3   8 781.480 44.5122  -2
   4  -5   7 781.480 44.5122   1
   5  -5   7 243.983 11.3041   1
  -7  -2   8 559.033 33.9430  -2
   7  -5   7 559.033 33.9430   1
   8  -5   7 260.610 12.3800   1
   9  -5   7 -2.2444 3.39460   1
  11  -5   7 47.8920 8.91104   1
  12  -5   3 41.8724 11.3309  -3
  10  -9   5 41.8724 11.3309  -2
 -10  -4   7 41.8724 11.3309   1
  10  -4   4 218.921 14.2372  -3
   8  -8   5 218.921 14.2372  -2
  -8  -4   7 218.921 14.2372   1
   9  -4   5 95.7658 15.9370  -3
  -7  -4   7 95.7658 15.9370   1
   8  -4   5 648.833 25.8443  -3
   6  -7   6 648.833 25.8443  -2
  -6  -4   7 648.833 25.8443   1
  -5  -4   7 1087.12 39.8421   1
   6  -3   6 78.8764 11.5803  -3
   4  -6   6 78.8764 11.5803  -2
  -4  -4   7 78.8764 11.5803   1
  -2  -4   7 9.07723 1.92424   1
  -1  -4   7 279.143 9.77561   1
   0  -4   7 533.599 14.8542  -2
   0  -4   7 533.599 14.8542   1
   2  -4   7 149.023 5.30692   1
   3  -4   7 1459.75 38.6530   1
  -2  -1   9 769.512 24.0498  -3
   4  -4   7 769.512 24.0498   1
   5  -4   7 443.959 12.7288   1
   7  -4   7 565.843 23.3048   1
  10  -8   5 40.0114 8.38973  -2
 -10  -3   7 40.0114 8.38973   1
  -9  -3   7 533.227 21.4847   1
   8  -7   5 644.868 35.4523  -2
  -8  -3   7 644.868 35.4523   1
   9  -3   4 287.958 20.5693  -3
  -7  -3   7 287.958 20.5693   1
   6  -6   6 161.026 9.50376  -2
  -6  -3   7 161.026 9.50376   1
  -5  -3   7 1597.88 57.6500   1
  -3  -3   7 2308.74 68.7420   1
  -2  -3   7 78.0570 3.80252   1
  -1  -3   7 204.441 6.52553   1
   0  -3   7 3126.15 80.9665  -2
   0  -3   7 3126.15 80.9665   1
   1  -3   7 2411.91 56.6311   1
   0  -1   8 4.32993 5.90852  -3
   2  -3   7 4.32993 5.90852   1
   3  -3   7 1138.38 27.2050   1
  -2   0   9 122.913 12.6162  -3
  -4  -1   8 122.913 12.6162  -2
   4  -3   7 122.913 12.6162   1
  -3   0   9 58.9361 10.0574  -3
   5  -3   7 58.9361 10.0574   1
  -5  -1   8 236.231 17.7113  -2
   5  -3   7 236.231 17.7113   1
   7  -3   7 2613.83 139.876   1
   8  -3   7 250.262 12.1150   1
 -11  -2   7 252.893 17.2638   1
  10  -7   5 55.4840 12.7404  -2
 -10  -2   7 55.4840 12.7404   1
  -9  -2   7 827.726 31.4505   1
   8  -6   5 490.736 28.8423  -2
  -8  -2   7 490.736 28.8423   1
  -7  -2   7 37.0935 4.62089   1
   6  -5   6 21.3337 6.57222  -2
  -6  -2   7 21.3337 6.57222   1
  -5  -2   7 1798.39 65.4447   1
   4  -4   6 8.10874 4.14181  -2
  -4  -2   7 8.10874 4.14181   1
  -3  -2   7 1528.15 40.1193   1
  -2  -2   7 1990.27 51.8931   1
  -1  -2   7 364.222 10.3907   1
   0  -2   7 649.637 17.6434  -2
   0  -2   7 649.637 17.6434   1
   1  -2   7 3578.97 83.6572   1
   2  -2   7 136.257 4.28027   1
   3  -2   7 3571.77 83.5314   1
  -4   0   8 13.0051 8.11726  -2
   4  -2   7 13.0051 8.11726   1
  -5   0   8 374.778 23.9241  -2
   5  -2   7 374.778 23.9241   1
  -6   1   8 1465.14 53.0559  -2
   6  -2   7 1465.14 53.0559   1
   7  -2   7 1277.03 50.3071   1
   8  -2   7 34.9145 8.26755   1
   9  -2   7 403.131 25.2124   1
  12  -2   2 17.1117 11.5736  -3
 -11  -1   7 17.1117 11.5736   1
  -9  -1   7 588.470 23.2471   1
   9  -1   3 1002.99 52.2675  -3
   8  -5   5 1002.99 52.2675  -2
  -8  -1   7 1002.99 52.2675   1
   8  -1   4 57.1053 8.39965  -3
  -7  -1   7 57.1053 8.39965   1
   6  -4   6 616.553 35.1852  -2
  -6  -1   7 616.553 35.1852   1
  -5  -1   7 1493.26 45.1374   1
   5   0   5 63.6744 5.91333  -3
   4  -3   6 63.6744 5.91333  -2
  -4  -1   7 63.6744 5.91333   1
  -3  -1   7 4224.05 109.090   1
  -2  -1   7 1346.98 31.9653   1
  -1  -1   7 812.999 19.5873   1
   0  -1   7 27.5393 2.73155  -2
   0  -1   7 27.5393 2.73155   1
   1  -1   7 2646.66 68.5377   1
   2  -1   7 19.1637 1.76807   1
  -2   2   8 2336.50 124.645  -3
   3  -1   7 2336.50 124.645   1
  -4   1   8 571.778 21.7643  -2
   4  -1   7 571.778 21.7643   1
   5  -1   7 234.064 6.60463   1
  -6   2   8 460.786 18.6151  -2
   6  -1   7 460.786 18.6151   1
   7  -1   7 1370.12 50.5876   1
   8  -1   7 30.6322 5.71397   1
  11  -1   2 771.810 44.0731  -3
  10  -5   5 771.810 44.0731  -2
 -10   0   7 771.810 44.0731   1
  10  -1   3 850.198 48.6268  -3
   9  -5   5 850.198 48.6268  -2
  -9   0   7 850.198 48.6268   1
   9   0   3 973.014 36.7389  -3
  -8   0   7 973.014 36.7389   1
   8   0   3 10.1120 10.3226  -3
  -7   0   7 10.1120 10.3226   1
   7   0   4 495.935 29.7963  -3
   6  -3   6 495.935 29.7963  -2
  -6   0   7 495.935 29.7963   1
  -5   0   7 184.414 6.37918   1
   4  -2   6 682.815 21.3941  -2
  -4   0   7 682.815 21.3941   1
   4   1   5 1853.79 43.7830  -3
  -3   0   7 1853.79 43.7830   1
  -2   0   7 2842.01 66.6162   1
  -1   0   7 156.663 5.20325   1
   0   0   7 425.187 11.8904  -2
   0   0   7 425.187 11.8904   1
   1   2   6 454.445 27.3128  -3
   0   0   7 454.445 27.3128  -2
   0   0   7 454.445 27.3128   1
   0   2   7 3608.21 171.895  -3
   1   0   7 3608.21 171.895   1
   2   0   7 28.0006 2.48289   1
   3   0   7 3655.97 85.4563   1
  -3   3   8 1841.92 99.4471  -3
   4   0   7 1841.92 99.4471   1
  -3   3   8 2180.13 104.724  -3
  -4   2   8 2180.13 104.724  -2
   4   0   7 2180.13 104.724   1
   5   0   7 1060.31 28.3971   1
   8   0   7 3.51267 3.21150   1
 -11   1   7 38.9129 7.77466   1
  10  -4   5 160.981 13.0452  -2
 -10   1   7 160.981 13.0452   1
  -9   1   7 17.1794 5.15903   1
  -8   1   7 2529.10 90.6745   1
  -7   1   7 68.8888 5.05852   1
   6  -2   6 1343.06 40.9116  -2
  -6   1   7 1343.06 40.9116   1
  -5   1   7 69.6718 3.76361   1
   4  -1   6 2106.60 63.2871  -2
  -4   1   7 2106.60 63.2871   1
  -3   1   7 3441.84 80.5285   1
  -2   1   7 2618.73 61.4195   1
   2   2   6 401.160 25.9254  -3
   1   0   7 401.160 25.9254  -2
  -1   1   7 401.160 25.9254   1
   0   1   7 1566.96 40.9379  -2
   0   1   7 1566.96 40.9379   1
   1   1   7 565.199 13.9680   1
  -1   3   7 544.766 21.4423  -3
   2   1   7 544.766 21.4423   1
   3   1   7 2027.59 60.4130   1
   4   1   7 1024.39 39.7421   1
  -6   4   8 354.141 20.3529  -2
   6   1   7 354.141 20.3529   1
   7   1   7 848.515 31.9822   1
   8   1   7 5.23164 3.40266   1
 -11   2   7 255.253 17.1122   1
  10  -3   5 133.028 11.6411  -2
 -10   2   7 133.028 11.6411   1
  -9   2   7 15.9623 4.91965   1
  -8   2   7 1236.73 46.0253   1
  -7   2   7 8.82777 2.04884   1
   6  -1   6 1834.81 43.6287  -2
  -6   2   7 1834.81 43.6287   1
   5  -1   6 197.807 14.9354  -2
  -5   2   7 197.807 14.9354   1
   4   0   6 828.076 32.8414  -2
  -4   2   7 828.076 32.8414   1
  -3   2   7 199.878 5.74474   1
  -2   2   7 4250.15 99.2374   1
  -1   2   7 27.2998 2.30805   1
   0   2   7 2383.84 62.4102  -2
   0   2   7 2383.84 62.4102   1
   1   2   7 93.7084 3.34675   1
   2   2   7 2148.80 56.3512   1
   3   2   7 1760.50 46.4055   1
  -4   4   8 1768.88 99.4608  -2
   4   2   7 1768.88 99.4608   1
   5   2   7 179.562 11.1986   1
  -6   5   8 413.059 23.2865  -2
   6   2   7 413.059 23.2865   1
   7   2   7 584.464 30.1708   1
   8   2   7 81.8326 8.92916   1
   9   2   7 438.621 24.7505   1
 -10   7   9 244.402 21.8529  -2
  10   2   7 244.402 21.8529   1
  10  -2   5 171.324 13.7483  -2
 -10   3   7 171.324 13.7483   1
  -9   3   7 132.692 8.46557   1
   8   3   2 921.175 51.4911  -3
  -8   3   7 921.175 51.4911   1
  -7   3   7 189.550 9.58586   1
   6   0   6 2725.08 70.9954  -2
  -6   3   7 2725.08 70.9954   1
  -5   3   7 1071.98 25.8167   1
   4   4   4 242.491 11.8438  -3
   4   1   6 242.491 11.8438  -2
  -4   3   7 242.491 11.8438   1
   4   1   6 220.325 11.3734  -2
  -4   3   7 220.325 11.3734   1
  -3   3   7 179.423 5.32648   1
  -2   3   7 4066.92 95.0021   1
  -1   3   7 439.004 11.0033   1
   0   3   7 2019.49 53.0457  -2
   0   3   7 2019.49 53.0457   1
   1   3   7 203.969 6.52875   1
   2   3   7 222.196 7.06610   1
  -4   6   7 1880.26 68.9541  -3
  -4   5   8 1880.26 68.9541  -2
   4   3   7 1880.26 68.9541   1
  -5   5   8 -1.1457 13.8378  -2
   5   3   7 -1.1457 13.8378   1
  -6   6   8 1248.32 46.5750  -2
   6   3   7 1248.32 46.5750   1
   7   3   7 20.9811 5.16730   1
   8   3   7 381.634 16.4800   1
  -9   7   9 416.721 30.8216  -2
   9   3   7 416.721 30.8216   1
 -12   4   7 309.592 20.3601   1
  -9   4   7 64.6682 6.58816   1
  -8   4   7 63.8087 6.44210   1
   7   4   2 98.6536 10.8056  -3
  -7   4   7 98.6536 10.8056   1
   6   4   3 3758.31 112.397  -3
   6   1   6 3758.31 112.397  -2
  -6   4   7 3758.31 112.397   1
   6   1   6 2923.35 157.738  -2
  -6   4   7 2923.35 157.738   1
  -5   4   7 1219.16 29.2095   1
   4   2   6 339.731 15.7364  -2
  -4   4   7 339.731 15.7364   1
   3   5   4 257.497 7.17348  -3
  -3   4   7 257.497 7.17348   1
   2   3   7 1089.00 62.1498  -2
  -2   4   7 1089.00 62.1498   1
  -1   4   7 193.729 6.28064   1
   0   6   5 4580.86 119.221  -3
   0   4   7 4580.86 119.221  -2
   0   4   7 4580.86 119.221   1
   1   4   7 1171.51 31.2180   1
   2   4   7 153.285 10.4465   1
   3   4   7 120.956 7.13320   1
  -4   7   7 2004.22 73.3584  -3
  -4   6   8 2004.22 73.3584  -2
   4   4   7 2004.22 73.3584   1
   5   4   7 378.503 20.4826   1
  -6   7   8 388.044 16.8217  -2
   6   4   7 388.044 16.8217   1
  -7   8   8 -15.302 14.8372  -3
   7   4   7 -15.302 14.8372   1
   8   4   7 72.8048 9.17807   1
  -9   8   9 307.110 26.8808  -3
  -9   8   9 307.110 26.8808  -2
   9   4   7 307.110 26.8808   1
 -11   5   7 856.776 48.3227   1
  10   0   5 74.9367 13.6799  -2
 -10   5   7 74.9367 13.6799   1
  -9   5   7 956.874 55.2686   1
  -8   5   7 21.0239 5.79624   1
  -7   5   7 50.3056 5.80804   1
   6   2   6 1319.30 51.6750  -2
  -6   5   7 1319.30 51.6750   1
  -5   5   7 1765.41 52.7676   1
   4   3   6 846.158 27.7454  -2
  -4   5   7 846.158 27.7454   1
  -3   5   7 106.565 4.44690   1
  -2   5   7 376.522 12.2888   1
  -1   5   7 1.85740 2.15137   1
   0   5   7 3161.50 150.829  -2
   0   5   7 3161.50 150.829   1
   1   5   7 509.270 19.8802   1
  -2   7   6 39.2995 8.41535  -3
   2   5   7 39.2995 8.41535   1
   3   5   7 8.16381 2.71330   1
  -4   7   8 692.385 27.0963  -2
   4   5   7 692.385 27.0963   1
  -5   8   7 28.0283 9.02814  -3
   5   5   7 28.0283 9.02814   1
  -6   8   8 1195.10 44.8521  -2
   6   5   7 1195.10 44.8521   1
   7   5   7 198.284 10.5325   1
  -8   9   8 17.0121 17.5674  -3
   8   5   7 17.0121 17.5674   1
 -11   6   7 661.595 27.6939   1
  10   1   5 29.5495 12.6725  -2
 -10   6   7 29.5495 12.6725   1
  -9   6   7 670.011 27.7864   1
  -8   6   7 4.52448 3.48587   1
  -7   6   7 1.23470 3.18815   1
   6   3   6 527.830 22.1626  -2
  -6   6   7 527.830 22.1626   1
  -5   6   7 2057.08 61.9907   1
   4   4   6 102.978 13.9013  -2
  -4   6   7 102.978 13.9013   1
  -3   6   7 699.988 17.2093   1
   2   5   7 6.99523 12.1438  -2
  -2   6   7 6.99523 12.1438   1
  -1   6   7 53.7697 9.23218   1
   0   6   7 3225.95 116.668  -2
   0   6   7 3225.95 116.668   1
   1   6   7 1197.25 44.2812   1
   2   6   7 402.331 16.4314   1
   3   6   7 110.229 7.15587   1
  -4   8   8 286.055 13.8263  -2
   4   6   7 286.055 13.8263   1
   5   6   7 23.4797 3.91887   1
   7   6   7 88.3697 7.60642   1
   8   6   7 29.7668 4.39524   1
  10   6   0 201.471 21.0597  -3
 -11   7   7 201.471 21.0597   1
  -9   7   7 1430.75 56.2731   1
  -8   7   7 26.1168 6.31693   1
  -7   7   7 431.678 26.9004   1
   6   4   6 568.815 34.4864  -2
  -6   7   7 568.815 34.4864   1
  -5   7   7 1683.52 51.2358   1
   4   5   6 151.366 15.7771  -2
  -4   7   7 151.366 15.7771   1
   2   8   3 1176.24 67.4525  -3
  -3   7   7 1176.24 67.4525   1
   2   6   7 6.77780 12.5957  -2
  -2   7   7 6.77780 12.5957   1
  -1   7   7 1.18688 2.52661   1
  -1   9   4 397.399 17.1520  -3
   0   7   7 397.399 17.1520  -2
   0   7   7 397.399 17.1520   1
  -2   9   5 1555.92 88.4364  -3
   1   7   7 1555.92 88.4364   1
   2   7   7 173.627 9.08715   1
   3   7   7 115.594 7.53339   1
  -5  10   6 34.6696 8.52506  -3
  -4   9   8 34.6696 8.52506  -2
   4   7   7 34.6696 8.52506   1
   5   7   7 4.10175 3.25059   1
   9   7   0 23.4853 15.1806  -3
  10   3   5 23.4853 15.1806  -2
 -10   8   7 23.4853 15.1806   1
  -9   8   7 564.617 23.8461   1
  -8   8   7 279.166 13.4763   1
   6   8   1 214.540 18.0683  -3
  -7   8   7 214.540 18.0683   1
   5   8   2 114.816 15.3794  -3
   6   5   6 114.816 15.3794  -2
  -6   8   7 114.816 15.3794   1
  -5   8   7 265.281 12.8155   1
  -4   8   7 15.5706 4.35069   1
   2   9   3 2098.43 101.229  -3
  -3   8   7 2098.43 101.229   1
   2   7   7 -9.9614 12.1944  -2
  -2   8   7 -9.9614 12.1944   1
  -1   8   7 359.875 15.0707   1
  -1  10   4 652.089 26.1635  -3
   0   8   7 652.089 26.1635  -2
   0   8   7 652.089 26.1635   1
  -2  10   4 1159.96 67.4907  -3
   1   8   7 1159.96 67.4907   1
  -3  10   5 88.5194 10.8605  -3
   2   8   7 88.5194 10.8605   1
  -3   9   8 625.612 39.9921  -2
   3   8   7 625.612 39.9921   1
  -4  10   8 33.4939 14.9283  -2
   4   8   7 33.4939 14.9283   1
  -6  11   8 263.049 20.8802  -2
   6   8   7 263.049 20.8802   1
  10   4   5 45.1480 13.6318  -2
 -10   9   7 45.1480 13.6318   1
   8   8   0 502.669 33.0139  -3
  -9   9   7 502.669 33.0139   1
  -8   9   7 535.630 31.8320   1
  -7   9   7 283.056 19.4294   1
  -5   9   7 339.754 22.3908   1
   4   7   6 22.3642 12.5796  -2
  -4   9   7 22.3642 12.5796   1
  -3   9   7 1214.04 45.1569   1
   1  10   3 214.923 22.6472  -3
   2   8   7 214.923 22.6472  -2
  -2   9   7 214.923 22.6472   1
   1  10   3 236.752 16.3679  -3
  -2   9   7 236.752 16.3679   1
  -1   9   7 85.2786 6.71540   1
   0   9   7 30.7404 6.66474  -2
   0   9   7 30.7404 6.66474   1
  -2  11   4 225.600 12.6511  -3
   1   9   7 225.600 12.6511   1
  -3  11   5 39.3655 10.2210  -3
   2   9   7 39.3655 10.2210   1
  -3  10   8 977.887 58.7072  -2
   3   9   7 977.887 58.7072   1
  -4  11   8 13.2283 9.33601  -2
   4   9   7 13.2283 9.33601   1
  -6  12   6 89.6034 9.76186  -3
   5   9   7 89.6034 9.76186   1
  -9  10   7 251.740 18.5036   1
   8   6   6 304.130 23.6444  -2
  -8  10   7 304.130 23.6444   1
   6   7   6 374.155 24.9294  -2
  -6  10   7 374.155 24.9294   1
  -5  10   7 112.912 12.4852   1
   4   8   6 -3.4763 12.7480  -2
  -4  10   7 -3.4763 12.7480   1
   3   8   7 444.515 26.9479  -2
  -3  10   7 444.515 26.9479   1
   2   9   7 489.216 32.6012  -2
  -2  10   7 489.216 32.6012   1
  -1  10   7 329.197 14.3749   1
   0  10   7 10.6300 9.99935  -2
   0  10   7 10.6300 9.99935   1
   1  10   7 133.845 8.35533   1
   3  10   7 696.743 27.3156   1
  -4  12   8 0.52663 16.2542  -2
   4  10   7 0.52663 16.2542   1
   8   7   6 62.5946 15.4110  -2
  -8  11   7 62.5946 15.4110   1
   5  11   0 21.2403 9.09290  -3
  -7  11   7 21.2403 9.09290   1
   4  11   1 293.416 23.0756  -3
   6   8   6 293.416 23.0756  -2
  -6  11   7 293.416 23.0756   1
  -5  11   7 57.8538 10.2586   1
  -2  11   7 105.315 10.7943   1
  -1  11   7 159.504 10.4258   1
   1  11   7 104.326 7.91766   1
  -4  13   4 -15.227 21.7453  -3
  -2  12   7 -15.227 21.7453  -2
   2  11   7 -15.227 21.7453   1
  -3  12   8 242.574 23.7356  -2
   3  11   7 242.574 23.7356   1
   4  12   0 441.996 30.6502  -3
   6   9   6 441.996 30.6502  -2
  -6  12   7 441.996 30.6502   1
  -5  12   7 16.2194 6.53526   1
  -4  12   7 1.67659 5.28724   1
   1  13   2 406.326 31.8048  -3
   1  13   1 406.326 31.8048  -3
  -3  12   7 406.326 31.8048   1
   0  13   2 237.552 23.8320  -3
   2  11   7 237.552 23.8320  -2
  -2  12   7 237.552 23.8320   1
  -1  12   7 74.7798 7.83890   1
   0  12   7 170.988 16.1178  -2
   0  12   7 170.988 16.1178   1
  -3  14   3 63.5465 9.58553  -3
   1  12   7 63.5465 9.58553   1
   5 -10  10 184.867 17.9465  -3
  -1 -12   8 184.867 17.9465   1
   0 -12   8 67.3973 7.68562  -2
   0 -12   8 67.3973 7.68562   1
   1 -12   8 461.761 27.3875   1
  -2 -11   8 36.9104 12.2924  -2
   2 -12   8 36.9104 12.2924   1
   5 -12   8 200.429 14.6935   1
  -3 -11   8 80.9425 7.66159   1
  -2 -11   8 82.9332 9.63180   1
   5  -9  10 93.8675 10.0167  -3
  -1 -11   8 93.8675 10.0167   1
   1 -11   8 810.260 30.9658   1
   3 -11   8 187.208 13.9285   1
   0  -8  12 30.1268 14.1323  -3
  -4  -9   9 30.1268 14.1323  -2
   4 -11   8 30.1268 14.1323   1
   5 -11   8 161.046 12.9937   1
  -2  -7  13 179.033 16.4393  -3
  -6  -8   9 179.033 16.4393  -2
   6 -11   8 179.033 16.4393   1
  -5 -10   8 289.104 13.4571   1
   8  -9   8 216.510 19.9983  -3
   4 -12   7 216.510 19.9983  -2
  -4 -10   8 216.510 19.9983   1
   4 -12   7 209.587 16.8691  -2
  -4 -10   8 209.587 16.8691   1
  -3 -10   8 365.416 15.5288   1
  -2 -10   8 312.710 20.0921   1
  -1 -10   8 57.1964 6.31692   1
   4  -8  10 8.04207 11.8229  -3
   0 -10   8 8.04207 11.8229  -2
   0 -10   8 8.04207 11.8229   1
   0 -10   8 4.00909 11.5525  -2
   0 -10   8 4.00909 11.5525   1
   1 -10   8 984.025 36.6800   1
   3 -10   8 367.471 22.4229   1
   5 -10   8 250.971 19.3746   1
  -3  -6  13 1001.20 56.2069  -3
   7 -10   8 1001.20 56.2069   1
   8 -10   8 -3.2691 4.33229   1
   6 -12   7 194.594 12.2803  -2
  -6  -9   8 194.594 12.2803   1
   8  -8   8 175.697 17.9204  -3
  -5  -9   8 175.697 17.9204   1
  -3  -9   8 464.529 18.6967   1
  -2  -9   8 508.251 29.3294   1
  -1  -9   8 51.9225 5.69850   1
   0  -9   8 25.4018 5.61484  -2
   0  -9   8 25.4018 5.61484   1
   1  -9   8 1146.50 42.1783   1
  -2  -8   8 237.864 18.0010  -2
   2  -9   8 237.864 18.0010   1
   3  -9   8 292.717 18.4605   1
  -4  -7   9 400.193 25.3891  -2
   4  -9   8 400.193 25.3891   1
   5  -9   8 105.825 10.2248   1
  -6  -6   9 34.6438 13.9409  -2
   6  -9   8 34.6438 13.9409   1
   7  -9   8 1115.48 44.4636   1
   8  -9   8 263.743 19.0892   1
  -7  -8   8 -0.3941 4.03435   1
   6 -11   7 88.3164 13.1799  -2
  -6  -8   8 88.3164 13.1799   1
  -5  -8   8 -0.7870 5.21527   1
   7  -7   8 241.626 13.3663  -3
   4 -10   7 241.626 13.3663  -2
  -4  -8   8 241.626 13.3663   1
  -3  -8   8 174.517 9.04781   1
   5  -6   9 1018.29 52.4670  -3
   2  -9   8 1018.29 52.4670  -2
  -2  -8   8 1018.29 52.4670   1
   5  -6   9 977.095 54.1589  -3
  -2  -8   8 977.095 54.1589   1
   4  -6   9 61.4563 7.69389  -3
  -1  -8   8 61.4563 7.69389   1
   0  -8   8 334.833 14.1324  -2
   0  -8   8 334.833 14.1324   1
   1  -8   8 296.917 12.7791   1
   2  -8   8 609.700 31.9676   1
   0  -5  11 1474.71 80.2796  -3
   3  -8   8 1474.71 80.2796   1
   5  -8   8 86.9738 7.19043   1
  -3  -4  12 125.882 11.0033  -3
  -6  -5   9 125.882 11.0033  -2
   6  -8   8 125.882 11.0033   1
   7  -8   8 971.484 38.9147   1
   9  -8   8 297.898 14.2464   1
  -7  -7   8 75.0319 7.35102   1
   8  -6   7 21.3649 8.15674  -3
  -5  -7   8 21.3649 8.15674   1
   4  -9   7 560.099 22.2656  -2
  -4  -7   8 560.099 22.2656   1
  -3  -7   8 140.897 7.76069   1
  -2  -7   8 1890.77 68.0212   1
   4  -5   9 70.8646 7.38425  -3
  -1  -7   8 70.8646 7.38425   1
   3  -5   9 371.985 15.9510  -3
   0  -7   8 371.985 15.9510  -2
   0  -7   8 371.985 15.9510   1
   1  -7   8 3.86495 2.96006   1
   1  -4  10 444.889 28.0523  -3
  -2  -6   8 444.889 28.0523  -2
   2  -7   8 444.889 28.0523   1
   3  -7   8 170.952 9.18798   1
  -1  -4  11 1153.57 63.9254  -3
  -4  -5   9 1153.57 63.9254  -2
   4  -7   8 1153.57 63.9254   1
   5  -7   8 -3.5747 3.41470   1
  -4  -3  12 361.847 23.2160  -3
   7  -7   8 361.847 23.2160   1
   8  -7   8 219.652 11.3065   1
   8 -10   6 391.785 17.9861  -2
  -8  -6   8 391.785 17.9861   1
  -7  -6   8 45.8130 8.62711   1
   6  -9   7 456.763 19.3523  -2
  -6  -6   8 456.763 19.3523   1
  -5  -6   8 87.4390 6.82590   1
   4  -8   7 167.657 13.7075  -2
  -4  -6   8 167.657 13.7075   1
  -3  -6   8 4.16048 2.90073   1
  -2  -6   8 1264.96 45.9890   1
  -1  -6   8 118.540 6.71445   1
   0  -6   8 816.101 30.3037  -2
   0  -6   8 816.101 30.3037   1
   1  -6   8 12.7020 2.97070   1
   2  -6   8 955.327 29.9048   1
   3  -6   8 481.061 13.9927   1
  -4  -4   9 2078.42 111.796  -2
   4  -6   8 2078.42 111.796   1
   5  -6   8 3.15360 3.27495   1
  -6  -3   9 382.521 24.1699  -2
   6  -6   8 382.521 24.1699   1
  -4  -2  12 76.8419 13.5473  -3
   7  -6   8 76.8419 13.5473   1
   8  -6   8 246.016 17.1218   1
   9  -6   8 334.983 16.5508   1
  -9  -5   8 42.3615 5.79288   1
  -7  -5   8 381.173 16.0787   1
   6  -8   7 1031.53 38.5577  -2
  -6  -5   8 1031.53 38.5577   1
  -5  -5   8 691.157 26.1764   1
   4  -7   7 248.639 16.3172  -2
  -4  -5   8 248.639 16.3172   1
  -3  -5   8 34.9872 4.82761   1
  -2  -5   8 1296.94 47.0074   1
  -1  -5   8 70.1358 5.28051   1
   0  -5   8 1903.97 101.975  -2
   0  -5   8 1903.97 101.975   1
  -1  -5   8 95.8021 8.80805  -2
   1  -5   8 95.8021 8.80805   1
   2  -5   8 37.1819 3.11765   1
   3  -5   8 28.3046 2.89596   1
  -4  -3   9 1938.60 69.8979  -2
   4  -5   8 1938.60 69.8979   1
   5  -5   8 -0.4787 3.05748   1
   7  -5   8 38.2393 8.48392   1
   8  -5   8 471.688 20.2423   1
   9  -5   8 160.005 11.0944   1
  10  -9   6 34.5559 8.64179  -2
 -10  -4   8 34.5559 8.64179   1
  11  -4   5 85.6865 13.4762  -3
  -9  -4   8 85.6865 13.4762   1
  10  -4   5 272.003 19.6209  -3
  -8  -4   8 272.003 19.6209   1
  10  -4   5 266.003 20.5351  -3
   8  -8   6 266.003 20.5351  -2
  -8  -4   8 266.003 20.5351   1
  -7  -4   8 44.8842 5.85615   1
   8  -3   6 443.835 28.2726  -3
   6  -7   7 443.835 28.2726  -2
  -6  -4   8 443.835 28.2726   1
   6  -7   7 470.471 26.7535  -2
  -6  -4   8 470.471 26.7535   1
  -5  -4   8 1843.91 66.4071   1
   6  -3   7 252.224 18.6589  -3
   4  -6   7 252.224 18.6589  -2
  -4  -4   8 252.224 18.6589   1
  -3  -4   8 107.609 6.35376   1
  -2  -4   8 754.013 27.9656   1
   0  -4   8 2080.00 54.3435  -2
   0  -4   8 2080.00 54.3435   1
  -1  -4   8 1347.63 74.5224  -2
   1  -4   8 1347.63 74.5224   1
   2  -4   8 145.582 5.47250   1
   3  -4   8 6.66980 1.73025   1
   4  -4   8 1647.90 63.4092   1
   5  -4   8 30.3096 3.33808   1
  -4   0  11 1620.57 88.3769  -3
  -6  -1   9 1620.57 88.3769  -2
   6  -4   8 1620.57 88.3769   1
  -5   0  11 -10.121 16.3806  -3
  -7  -1   9 -10.121 16.3806  -2
   7  -4   8 -10.121 16.3806   1
   8  -4   8 78.6015 7.15416   1
   9  -4   8 188.207 19.7908   1
  10  -8   6 148.265 9.38873  -2
 -10  -3   8 148.265 9.38873   1
  -9  -3   8 607.022 32.9921   1
  10  -3   5 21.1734 11.9056  -3
  -8  -3   8 21.1734 11.9056   1
   9  -3   5 569.972 33.8611  -3
  -7  -3   8 569.972 33.8611   1
   6  -6   7 520.837 20.8579  -2
  -6  -3   8 520.837 20.8579   1
   7  -2   6 1726.97 62.4441  -3
  -5  -3   8 1726.97 62.4441   1
   6  -2   6 66.9970 11.6678  -3
   4  -5   7 66.9970 11.6678  -2
  -4  -3   8 66.9970 11.6678   1
   4  -5   7 114.739 11.0839  -2
  -4  -3   8 114.739 11.0839   1
  -3  -3   8 125.865 6.85697   1
  -2  -3   8 764.365 23.6643   1
  -1  -3   8 479.781 13.4844   1
   2  -1   8 2288.95 59.6940  -3
   0  -3   8 2288.95 59.6940  -2
   0  -3   8 2288.95 59.6940   1
   1  -3   8 2020.13 52.6948   1
   0   0   9 216.195 15.4241  -3
   2  -3   8 216.195 15.4241   1
   3  -3   8 -0.1613 1.52936   1
  -4  -1   9 1209.29 59.6254  -2
   4  -3   8 1209.29 59.6254   1
  -2   0  10 1243.24 68.1417  -3
  -4  -1   9 1243.24 68.1417  -2
   4  -3   8 1243.24 68.1417   1
   5  -3   8 471.414 13.4988   1
  -5   1  11 804.670 32.3919  -3
   7  -3   8 804.670 32.3919   1
   8  -3   8 66.4969 7.57821   1
   9  -3   8 1.06396 5.14728   1
  10  -7   6 121.420 11.0905  -2
 -10  -2   8 121.420 11.0905   1
  -9  -2   8 424.537 17.8022   1
   8  -6   6 29.0073 14.2979  -2
  -8  -2   8 29.0073 14.2979   1
  -7  -2   8 133.369 7.94108   1
   6  -5   7 355.536 15.4562  -2
  -6  -2   8 355.536 15.4562   1
  -5  -2   8 2108.80 75.6210   1
  -3  -2   8 1411.30 42.5381   1
  -2  -2   8 88.2726 4.13500   1
  -1  -2   8 456.903 12.8735   1
   0  -2   8 691.551 17.0148  -2
   0  -2   8 691.551 17.0148   1
   1  -2   8 4496.94 116.053   1
   2  -2   8 289.823 7.78063   1
   3  -2   8 275.865 7.50271   1
  -4   0   9 666.307 25.3832  -2
   4  -2   8 666.307 25.3832   1
  -5   0   9 423.354 27.1237  -2
   5  -2   8 423.354 27.1237   1
  -3   1  10 461.649 26.7685  -3
  -5   0   9 461.649 26.7685  -2
   5  -2   8 461.649 26.7685   1
   7  -2   8 415.380 25.6802   1
   8  -2   8 176.484 13.6262   1
   9  -2   8 -6.5915 5.81868   1
 -11  -1   8 418.164 25.2966   1
  10  -6   6 62.1082 10.3439  -2
 -10  -1   8 62.1082 10.3439   1
  -9  -1   8 467.898 26.9729   1
  -8  -1   8 675.556 38.2094   1
  -7  -1   8 522.700 20.5832   1
   6  -4   7 258.102 12.3927  -2
  -6  -1   8 258.102 12.3927   1
   5  -4   7 2654.97 142.113  -2
  -5  -1   8 2654.97 142.113   1
  -3  -1   8 1884.31 49.3048   1
  -2  -1   8 0.27906 1.68555   1
  -1  -1   8 293.104 8.71887   1
   0  -1   8 787.032 19.1772  -2
   0  -1   8 787.032 19.1772   1
   1  -1   8 2113.21 49.7664   1
   2  -1   8 391.806 11.1251   1
   3  -1   8 685.729 16.7977   1
  -4   1   9 217.315 15.5823  -2
   4  -1   8 217.315 15.5823   1
  -6   2   9 486.075 26.6719  -2
   6  -1   8 486.075 26.6719   1
   7  -1   8 1602.01 58.8968   1
   8  -1   8 149.944 12.7961   1
   9  -5   6 514.311 33.1667  -2
  -9   0   8 514.311 33.1667   1
   9   0   4 631.125 24.6119  -3
  -8   0   8 631.125 24.6119   1
  -7   0   8 32.4838 4.52968   1
   4  -2   7 130.556 8.26347  -2
  -4   0   8 130.556 8.26347   1
  -3   0   8 919.716 29.3439   1
  -2   0   8 1155.10 27.6153   1
   2   2   7 902.751 27.6854  -3
  -1   0   8 902.751 27.6854   1
   0   0   8 637.641 17.5256  -2
   0   0   8 637.641 17.5256   1
   1   0   8 5245.91 122.371   1
  -1   3   8 120.927 5.74004  -3
   2   0   8 120.927 5.74004   1
   3   0   8 1566.19 41.0234   1
   4   0   8 50.7762 8.26049   1
   5   0   8 78.6490 7.88819   1
  -6   3   9 435.482 24.4055  -2
   6   0   8 435.482 24.4055   1
  -6   4  10 1271.39 62.9974  -3
   7   0   8 1271.39 62.9974   1
   8   0   8 13.7577 3.89255   1
  10   1   3 864.339 49.1422  -3
  -9   1   8 864.339 49.1422   1
  -8   1   8 1110.25 41.1182   1
   8   1   4 35.0014 8.07522  -3
  -7   1   8 35.0014 8.07522   1
   6  -2   7 740.530 41.7074  -2
  -6   1   8 740.530 41.7074   1
  -5   1   8 831.655 33.2310   1
  -4   1   8 14.2421 3.34355   1
   4   2   6 2538.26 140.428  -3
  -3   1   8 2538.26 140.428   1
  -2   1   8 1740.56 41.1665   1
   1   0   8 536.952 32.7003  -2
  -1   1   8 536.952 32.7003   1
   1   3   7 204.843 7.32253  -3
   0   1   8 204.843 7.32253  -2
   0   1   8 204.843 7.32253   1
   1   1   8 356.012 9.23774   1
   2   1   8 25.0475 2.44226   1
  -2   4   8 1569.81 88.3541  -3
   3   1   8 1569.81 88.3541   1
   4   1   8 332.592 18.1323   1
   5   1   8 401.380 21.4465   1
  -6   4   9 331.605 20.0010  -2
   6   1   8 331.605 20.0010   1
  -6   5  10 1283.76 63.6008  -3
   7   1   8 1283.76 63.6008   1
   8   1   8 0.03785 5.00725   1
  -9   6  11 63.4089 16.8665  -3
 -10   6  10 63.4089 16.8665  -2
  10   1   8 63.4089 16.8665   1
 -11   2   8 10.6520 5.68083   1
  -9   2   8 579.635 33.3162   1
  -8   2   8 545.605 21.7451   1
  -7   2   8 7.04294 3.35684   1
   6  -1   7 720.412 40.2154  -2
  -6   2   8 720.412 40.2154   1
  -5   2   8 53.6729 3.94131   1
   4   0   7 290.210 10.6341  -2
  -4   2   8 290.210 10.6341   1
  -3   2   8 2133.39 50.3245   1
  -2   2   8 1993.30 47.0356   1
   1   1   8 171.094 15.3058  -2
  -1   2   8 171.094 15.3058   1
   0   2   8 631.267 15.6419  -2
   0   2   8 631.267 15.6419   1
   1   2   8 1659.56 43.8024   1
   2   2   8 89.1937 4.86875   1
   3   2   8 1954.87 71.2413   1
  -4   4   9 711.318 27.6641  -2
   4   2   8 711.318 27.6641   1
   5   2   8 324.888 18.0102   1
  -6   5   9 261.064 13.0067  -2
   6   2   8 261.064 13.0067   1
   7   2   8 402.561 17.1361   1
  -7   6  10 10.5090 13.0600  -3
   8   2   8 10.5090 13.0600   1
  -9   6  10 546.530 37.0834  -2
   9   2   8 546.530 37.0834   1
  11  -3   6 166.131 17.5512  -2
 -11   3   8 166.131 17.5512   1
  -9   3   8 59.2119 8.59580   1
  -8   3   8 1483.70 80.5445   1
  -7   3   8 195.682 9.25106   1
   6   0   7 526.195 31.9974  -2
  -6   3   8 526.195 31.9974   1
  -5   3   8 82.9668 4.22388   1
   4   1   7 254.982 12.5657  -2
  -4   3   8 254.982 12.5657   1
  -3   3   8 2196.96 51.7979   1
  -2   3   8 1466.68 34.8495   1
  -1   3   8 83.3873 3.46487   1
   0   3   8 815.871 22.2654  -2
   0   3   8 815.871 22.2654   1
   1   3   8 534.041 21.0912   1
  -2   6   7 23.9119 8.76247  -3
   2   3   8 23.9119 8.76247   1
   3   3   8 1794.69 65.5774   1
  -4   5   9 1195.55 44.6986  -2
   4   3   8 1195.55 44.6986   1
  -5   5   9 89.7831 15.5786  -2
   5   3   8 89.7831 15.5786   1
  -6   6   9 170.654 10.4529  -2
   6   3   8 170.654 10.4529   1
  -7   7   9 389.264 23.6462  -3
   7   3   8 389.264 23.6462   1
   8   3   8 10.2763 4.00142   1
  -9   7  10 1104.49 65.7348  -2
   9   3   8 1104.49 65.7348   1
   8   4   3 1379.01 75.3859  -3
  -8   4   8 1379.01 75.3859   1
  -7   4   8 2.06298 2.98780   1
   6   1   7 1401.17 51.0662  -2
  -6   4   8 1401.17 51.0662   1
  -5   4   8 529.938 31.5317   1
   4   5   4 653.350 37.4661  -3
   4   2   7 653.350 37.4661  -2
  -4   4   8 653.350 37.4661   1
  -3   4   8 739.235 18.1203   1
   2   3   8 2207.82 118.066  -2
  -2   4   8 2207.82 118.066   1
   1   3   8 163.464 12.8375  -2
  -1   4   8 163.464 12.8375   1
   0   6   6 1374.56 78.1037  -3
   0   4   8 1374.56 78.1037  -2
   0   4   8 1374.56 78.1037   1
   1   4   8 65.6729 5.53559   1
   2   4   8 143.024 7.77756   1
  -3   7   7 1713.44 96.8028  -3
   3   4   8 1713.44 96.8028   1
  -4   7   8 647.393 41.3483  -3
  -4   6   9 647.393 41.3483  -2
   4   4   8 647.393 41.3483   1
   5   4   8 398.764 21.5976   1
  -6   7   9 232.277 18.2482  -2
   6   4   8 232.277 18.2482   1
  -7   8   9 467.043 26.0897  -3
   7   4   8 467.043 26.0897   1
   8   4   8 -3.3847 4.70680   1
  -9   5   8 29.7114 7.30697   1
  -8   5   8 993.377 39.7128   1
   7   5   3 14.9797 12.0449  -3
  -7   5   8 14.9797 12.0449   1
   6   2   7 1843.37 71.6576  -2
  -6   5   8 1843.37 71.6576   1
  -5   5   8 75.8061 4.25556   1
   4   6   4 64.5069 6.83843  -3
  -4   5   8 64.5069 6.83843   1
  -3   5   8 142.025 7.37613   1
  -2   5   8 1929.67 110.037   1
  -1   5   8 62.3787 5.53746   1
   0   7   6 1082.21 53.3804  -3
   0   5   8 1082.21 53.3804  -2
   0   5   8 1082.21 53.3804   1
   1   5   8 257.503 11.4150   1
   2   5   8 338.644 14.3225   1
  -3   8   7 804.909 30.9322  -3
   3   5   8 804.909 30.9322   1
  -4   7   9 1111.28 64.6287  -2
   4   5   8 1111.28 64.6287   1
  -5   8   8 31.3104 16.9227  -3
  -5   7   9 31.3104 16.9227  -2
   5   5   8 31.3104 16.9227   1
  -6   9   8 660.673 43.1430  -3
  -6   8   9 660.673 43.1430  -2
   6   5   8 660.673 43.1430   1
  -6   8   9 650.638 34.3410  -2
   6   5   8 650.638 34.3410   1
   7   5   8 50.5426 9.02461   1
  -8   9   9 49.0450 16.3284  -3
   8   5   8 49.0450 16.3284   1
  -9   6   8 27.6117 4.74261   1
  -8   6   8 127.186 8.89899   1
  -7   6   8 137.015 12.8287   1
   6   3   7 1116.43 63.9283  -2
  -6   6   8 1116.43 63.9283   1
  -5   6   8 395.972 17.1695   1
   4   4   7 190.713 17.2787  -2
  -4   6   8 190.713 17.2787   1
  -3   6   8 12.1575 3.22335   1
  -2   6   8 1808.56 66.1210   1
  -1   6   8 27.4240 4.35961   1
   0   6   8 2509.82 91.2246  -2
   0   6   8 2509.82 91.2246   1
   1   6   8 125.018 7.41188   1
   2   6   8 101.451 6.95516   1
  -3   7   9 351.825 27.0839  -2
   3   6   8 351.825 27.0839   1
  -4   8   9 1010.71 38.3589  -2
   4   6   8 1010.71 38.3589   1
  -5   9   8 61.7084 12.6909  -3
   5   6   8 61.7084 12.6909   1
   7   6   8 24.6958 4.32272   1
  -9   7   8 304.783 14.7117   1
   7   7   2 -2.3446 13.0609  -3
  -8   7   8 -2.3446 13.0609   1
  -7   7   8 135.907 13.1211   1
   6   4   7 966.393 56.1168  -2
  -6   7   8 966.393 56.1168   1
   4   8   3 683.261 41.7076  -3
  -5   7   8 683.261 41.7076   1
  -4   7   8 242.128 14.6559   1
  -3   7   8 42.0453 4.86759   1
  -2   7   8 143.632 8.15729   1
  -1   7   8 0.97930 2.92735   1
   0   7   8 854.664 32.6856  -2
   0   7   8 854.664 32.6856   1
   1   7   8 142.600 8.10840   1
   2   7   8 105.566 7.24033   1
  -3   8   9 36.9525 16.5577  -2
   3   7   8 36.9525 16.5577   1
  -4   9   9 995.790 38.0420  -2
   4   7   8 995.790 38.0420   1
  -6  10   9 464.630 30.5264  -2
   6   7   8 464.630 30.5264   1
   7   7   8 5.52260 3.71877   1
  10   3   6 19.6363 14.8322  -2
 -10   8   8 19.6363 14.8322   1
  -9   8   8 392.683 25.9243   1
   7   8   2 13.2150 14.8031  -3
  -8   8   8 13.2150 14.8031   1
   6   5   7 369.190 24.9939  -2
  -6   8   8 369.190 24.9939   1
  -5   8   8 947.340 54.7867   1
   3   9   3 226.217 20.1267  -3
   4   6   7 226.217 20.1267  -2
  -4   8   8 226.217 20.1267   1
  -2   8   8 138.506 10.4661   1
   0  10   4 382.805 22.5573  -3
  -1   8   8 382.805 22.5573   1
  -1  10   5 1702.00 62.7507  -3
   0   8   8 1702.00 62.7507  -2
   0   8   8 1702.00 62.7507   1
   1   8   8 307.302 13.5148   1
   2   8   8 171.710 9.21493   1
   5   8   8 2.61962 4.42758   1
  -6  11   9 236.904 19.3349  -2
   6   8   8 236.904 19.3349   1
  -9   9   8 842.691 34.6847   1
  -8   9   8 -1.4194 5.94894   1
   6   6   7 406.993 27.0002  -2
  -6   9   8 406.993 27.0002   1
  -5   9   8 624.879 37.5973   1
  -3   9   8 426.367 17.6941   1
   2   8   8 23.1977 14.6532  -2
  -2   9   8 23.1977 14.6532   1
   0  11   4 -2.3635 13.8480  -3
  -1   9   8 -2.3635 13.8480   1
  -1  11   5 550.857 37.2999  -3
   0   9   8 550.857 37.2999  -2
   0   9   8 550.857 37.2999   1
   1   9   8 737.524 28.4504   1
   2   9   8 127.499 8.10280   1
  -4  11   9 87.9363 11.1332  -2
   4   9   8 87.9363 11.1332   1
  -5  12   6 71.9763 20.6731  -3
  -4  11   9 71.9763 20.6731  -2
   4   9   8 71.9763 20.6731   1
  -6  12   7 48.2197 14.5467  -3
  -5  11   9 48.2197 14.5467  -2
   5   9   8 48.2197 14.5467   1
  -8  10   8 324.152 22.0629   1
  -7  10   8 64.0725 11.0141   1
  -5  10   8 348.036 23.3352   1
   4   8   7 36.8787 14.8543  -2
  -4  10   8 36.8787 14.8543   1
  -3  10   8 1221.88 45.7440   1
  -2  10   8 0.43352 4.41954   1
  -1  10   8 31.2285 5.12690   1
   1  10   8 454.501 19.9643   1
   2  10   8 163.264 9.41625   1
  -3  11   9 245.621 14.0952  -2
   3  10   8 245.621 14.0952   1
  -7  11   8 299.905 21.1371   1
   6   8   7 24.5209 11.9883  -2
  -6  11   8 24.5209 11.9883   1
  -3  11   8 1018.45 59.1145   1
   2  10   8 221.437 20.9893  -2
  -2  11   8 221.437 20.9893   1
  -1  11   8 72.6171 7.44629   1
  -2  13   4 9.70388 16.5241  -3
   0  11   8 9.70388 16.5241  -2
   0  11   8 9.70388 16.5241   1
   1  11   8 334.390 14.8215   1
   2  11   8 24.4886 4.20710   1
  -5  12   8 144.455 14.1437   1
   2  11   8 219.711 21.0843  -2
  -2  12   8 219.711 21.0843   1
  -1  12   8 156.046 9.70557   1
  -2 -11   9 164.347 13.0019   1
  -1 -11   9 76.6921 9.26395   1
   0 -11   9 67.0468 8.75355  -2
   0 -11   9 67.0468 8.75355   1
   3  -8  12 617.090 35.9868  -3
   1 -11   9 617.090 35.9868   1
   3 -11   9 41.8409 8.23496   1
   0  -7  13 199.941 19.6756  -3
  -4  -9  10 199.941 19.6756  -2
   4 -11   9 199.941 19.6756   1
   5 -11   9 285.492 18.7659   1
   4 -12   8 176.162 10.8268  -2
  -4 -10   9 176.162 10.8268   1
   7  -8  10 166.402 16.1999  -3
  -3 -10   9 166.402 16.1999   1
   6  -8  10 75.9770 11.6508  -3
  -2 -10   9 75.9770 11.6508   1
  -1 -10   9 344.586 21.1425   1
   0 -10   9 53.0456 13.4559  -2
   0 -10   9 53.0456 13.4559   1
   1 -10   9 443.391 25.5233   1
  -1  -6  13 137.485 14.8316  -3
   5 -10   9 137.485 14.8316   1
  -6  -7  10 82.2095 12.1669  -2
   6 -10   9 82.2095 12.1669   1
  -5  -9   9 480.231 19.5950   1
   4 -11   8 88.3322 8.69745  -2
  -4  -9   9 88.3322 8.69745   1
  -3  -9   9 178.031 14.5406   1
  -2  -9   9 10.6921 4.80239   1
  -1  -9   9 201.087 9.99906   1
   0  -9   9 43.4868 6.49358  -2
   0  -9   9 43.4868 6.49358   1
   1  -9   9 532.162 21.0179   1
  -2  -8   9 98.8952 10.2032  -2
   2  -9   9 98.8952 10.2032   1
   3  -9   9 122.871 10.8747   1
  -4  -7  10 -5.1014 10.8051  -2
   4  -9   9 -5.1014 10.8051   1
   5  -9   9 301.681 19.6839   1
   8  -9   9 8.15053 6.82446   1
   6 -11   8 4.39052 13.0600  -2
  -6  -8   9 4.39052 13.0600   1
   9  -7   8 16.7811 15.2453  -3
   6 -11   8 16.7811 15.2453  -2
  -6  -8   9 16.7811 15.2453   1
  -5  -8   9 348.954 15.0419   1
   4 -10   8 136.017 13.0036  -2
  -4  -8   9 136.017 13.0036   1
  -3  -8   9 154.951 8.54294   1
   5  -6  10 291.365 22.7015  -3
   2  -9   9 291.365 22.7015  -2
  -2  -8   9 291.365 22.7015   1
   4  -6  10 133.785 13.3894  -3
  -1  -8   9 133.785 13.3894   1
   0  -8   9 2.77407 6.06770  -2
   0  -8   9 2.77407 6.06770   1
   2  -5  11 1216.80 66.7143  -3
   1  -8   9 1216.80 66.7143   1
   2  -8   9 243.453 16.1231   1
   3  -8   9 649.239 25.1387   1
  -4  -6  10 16.3567 11.0759  -2
   4  -8   9 16.3567 11.0759   1
   5  -8   9 369.448 22.8117   1
  -6  -5  10 168.826 14.9680  -2
   6  -8   9 168.826 14.9680   1
   8  -8   9 6.29183 4.16094   1
  -7  -7   9 6.59488 5.97524   1
   9  -6   8 152.570 10.7798  -3
   6 -10   8 152.570 10.7798  -2
  -6  -7   9 152.570 10.7798   1
   8  -6   8 123.677 9.09134  -3
  -5  -7   9 123.677 9.09134   1
   7  -6   8 331.991 22.9002  -3
   4  -9   8 331.991 22.9002  -2
  -4  -7   9 331.991 22.9002   1
   4  -9   8 330.989 21.2279  -2
  -4  -7   9 330.989 21.2279   1
   6  -5   9 565.621 32.8609  -3
  -3  -7   9 565.621 32.8609   1
  -2  -7   9 550.186 31.2763   1
  -1  -7   9 7.15355 2.89623   1
   0  -7   9 50.7321 5.82488  -2
   0  -7   9 50.7321 5.82488   1
   1  -7   9 750.312 28.2167   1
   1  -4  11 92.3443 12.9647  -3
  -2  -6   9 92.3443 12.9647  -2
   2  -7   9 92.3443 12.9647   1
   1  -4  11 39.2747 8.66173  -3
   2  -7   9 39.2747 8.66173   1
   3  -7   9 143.926 8.36473   1
  -1  -3  12 224.972 19.0666  -3
  -4  -5  10 224.972 19.0666  -2
   4  -7   9 224.972 19.0666   1
  -6  -4  10 0.59550 10.3939  -2
   6  -7   9 0.59550 10.3939   1
   8  -7   9 67.4657 7.51115   1
  -6  -2  14 429.974 28.8048  -3
   9  -7   9 429.974 28.8048   1
   8 -10   7 601.744 24.8381  -2
  -8  -6   9 601.744 24.8381   1
  -7  -6   9 33.3470 4.77807   1
  -5  -6   9 -0.4294 3.32347   1
   4  -8   8 372.882 22.1483  -2
  -4  -6   9 372.882 22.1483   1
  -3  -6   9 389.221 15.7020   1
   5  -4   9 1386.83 68.9693  -3
   2  -7   9 1386.83 68.9693  -2
  -2  -6   9 1386.83 68.9693   1
   5  -4   9 1364.11 74.0269  -3
  -2  -6   9 1364.11 74.0269   1
  -1  -6   9 2.58232 2.73343   1
   0  -6   9 292.624 12.6398  -2
   0  -6   9 292.624 12.6398   1
   1  -6   9 580.275 22.2205   1
   2  -6   9 632.014 24.0525   1
   0  -3  11 1325.43 48.5648  -3
   3  -6   9 1325.43 48.5648   1
  -4  -4  10 749.815 29.1985  -2
   4  -6   9 749.815 29.1985   1
  -2  -2  12 68.6318 13.1314  -3
   5  -6   9 68.6318 13.1314   1
  -6  -3  10 15.1751 10.8389  -2
   6  -6   9 15.1751 10.8389   1
  -7  -3  10 659.337 39.7261  -2
   7  -6   9 659.337 39.7261   1
   8  -6   9 16.5604 4.97927   1
   9  -6   9 233.608 12.4895   1
  -9  -5   9 0.04891 4.29040   1
   8  -9   7 909.959 35.0531  -2
  -8  -5   9 909.959 35.0531   1
  -7  -5   9 116.735 7.96377   1
   6  -8   8 273.769 13.4384  -2
  -6  -5   9 273.769 13.4384   1
  -5  -5   9 0.83440 3.12429   1
   4  -7   8 320.573 14.2658  -2
  -4  -5   9 320.573 14.2658   1
  -3  -5   9 571.855 21.8791   1
  -2  -5   9 1580.94 57.0489   1
  -1  -5   9 40.2424 4.83627   1
   0  -5   9 136.705 7.60969  -2
   0  -5   9 136.705 7.60969   1
  -1  -5   9 39.6572 7.98118  -2
   1  -5   9 39.6572 7.98118   1
   2  -5   9 437.451 17.2955   1
   3  -5   9 791.091 29.6079   1
  -4  -3  10 1706.00 62.0021  -2
   4  -5   9 1706.00 62.0021   1
   5  -5   9 1.80997 3.41264   1
  -6  -2  10 345.011 23.0814  -2
   6  -5   9 345.011 23.0814   1
  -7  -2  10 510.180 32.7574  -2
   7  -5   9 510.180 32.7574   1
   8  -5   9 122.509 9.17817   1
   9  -5   9 471.083 29.1714   1
  11  -4   6 -2.9558 13.3683  -3
  -9  -4   9 -2.9558 13.3683   1
  -7  -4   9 135.949 11.5401   1
   8  -3   7 505.072 21.4100  -3
   6  -7   8 505.072 21.4100  -2
  -6  -4   9 505.072 21.4100   1
  -5  -4   9 328.579 13.8261   1
   4  -6   8 120.257 8.36706  -2
  -4  -4   9 120.257 8.36706   1
   3  -6   8 100.773 13.6501  -2
  -3  -4   9 100.773 13.6501   1
  -2  -4   9 2640.98 94.2425   1
   3  -2   9 65.1150 10.5409  -3
  -1  -4   9 65.1150 10.5409   1
   0  -4   9 504.819 19.6499  -2
   0  -4   9 504.819 19.6499   1
   1  -1  10 9.76613 10.4492  -3
   1  -4   9 9.76613 10.4492   1
  -1  -4   9 1.18061 10.2468  -2
   1  -4   9 1.18061 10.2468   1
   2  -4   9 562.162 29.1658   1
   3  -4   9 968.583 29.9897   1
  -2   0  11 1442.27 78.9769  -3
  -4  -2  10 1442.27 78.9769  -2
   4  -4   9 1442.27 78.9769   1
   5  -4   9 0.19318 3.60628   1
  -6  -1  10 162.133 15.6740  -2
   6  -4   9 162.133 15.6740   1
   7  -4   9 241.257 17.0850   1
   8  -4   9 414.855 26.0598   1
   9  -4   9 459.766 28.3058   1
  10  -4   9 350.415 22.7407   1
  10  -8   7 33.7160 6.73638  -2
 -10  -3   9 33.7160 6.73638   1
  11  -3   5 19.5126 12.5814  -3
  -9  -3   9 19.5126 12.5814   1
   8  -7   7 221.229 18.2816  -2
  -8  -3   9 221.229 18.2816   1
   9  -2   6 244.941 20.9212  -3
   7  -6   8 244.941 20.9212  -2
  -7  -3   9 244.941 20.9212   1
   6  -6   8 1026.54 56.8678  -2
  -6  -3   9 1026.54 56.8678   1
   6  -2   7 322.850 20.6875  -3
   4  -5   8 322.850 20.6875  -2
  -4  -3   9 322.850 20.6875   1
  -3  -3   9 320.332 19.4416   1
   4  -1   8 1606.07 58.0210  -3
  -2  -3   9 1606.07 58.0210   1
  -1  -3   9 216.136 13.6117   1
   1  -3   9 296.158 17.8305   1
   0   0  10 88.0683 10.1134  -3
   2  -3   9 88.0683 10.1134   1
   3  -3   9 45.9713 10.0865   1
  -6   0  10 304.420 21.6496  -2
   6  -3   9 304.420 21.6496   1
   8  -3   9 191.942 14.8896   1
   9  -3   9 344.361 22.3337   1
  10  -7   7 40.2722 15.5917  -2
 -10  -2   9 40.2722 15.5917   1
  -9  -2   9 101.888 12.5829   1
   8  -6   7 163.003 18.2385  -2
  -8  -2   9 163.003 18.2385   1
  -7  -2   9 136.267 8.28173   1
   6  -5   8 436.887 18.3155  -2
  -6  -2   9 436.887 18.3155   1
   5  -5   8 1193.93 65.6775  -2
  -5  -2   9 1193.93 65.6775   1
   4  -4   8 153.342 9.14476  -2
  -4  -2   9 153.342 9.14476   1
  -3  -2   9 32.3835 6.54608   1
  -2  -2   9 1118.85 40.8054   1
   3   0   8 416.611 24.7888  -3
  -1  -2   9 416.611 24.7888   1
   0  -2   9 3086.76 164.295  -2
   0  -2   9 3086.76 164.295   1
   1   0   9 565.345 35.6668  -3
  -1  -2   9 565.345 35.6668  -2
   1  -2   9 565.345 35.6668   1
   2  -2   9 158.149 8.28416   1
  -1   1  10 238.262 16.5716  -3
   3  -2   9 238.262 16.5716   1
  -4   0  10 2208.62 79.2859  -2
   4  -2   9 2208.62 79.2859   1
  -4   2  11 836.059 43.7716  -3
  -6   1  10 836.059 43.7716  -2
   6  -2   9 836.059 43.7716   1
   7  -2   9 47.4154 9.02029   1
   9  -2   9 124.320 12.3172   1
  10  -6   7 58.1559 10.6202  -2
 -10  -1   9 58.1559 10.6202   1
  -8  -1   9 105.498 7.82078   1
  -7  -1   9 151.739 8.67719   1
   6  -4   8 466.631 19.2456  -2
  -6  -1   9 466.631 19.2456   1
   5  -4   8 1487.68 80.9791  -2
  -5  -1   9 1487.68 80.9791   1
   4  -3   8 468.480 18.9945  -2
  -4  -1   9 468.480 18.9945   1
  -3  -1   9 208.524 13.2401   1
  -2  -1   9 246.535 10.9645   1
  -1  -1   9 269.639 9.93363   1
   0  -1   9 1611.41 62.3820  -2
   0  -1   9 1611.41 62.3820   1
   1  -1   9 589.715 16.3459   1
   2  -1   9 279.489 12.5514   1
   3  -1   9 21.1786 3.23675   1
   4  -1   9 1036.41 51.0786   1
   5  -1   9 421.408 22.8040   1
  -6   2  10 1861.51 90.6163  -2
   6  -1   9 1861.51 90.6163   1
   7  -1   9 130.232 8.17474   1
   8  -1   9 188.186 14.6303   1
   9  -1   9 44.0149 7.07771   1
  11   0   4 89.9282 13.6014  -3
  10  -5   7 89.9282 13.6014  -2
 -10   0   9 89.9282 13.6014   1
   9  -5   7 373.578 28.0222  -2
  -9   0   9 373.578 28.0222   1
  -8   0   9 4.77885 3.79557   1
  -7   0   9 292.088 13.0855   1
   7   1   6 473.571 20.0446  -3
   6  -3   8 473.571 20.0446  -2
  -6   0   9 473.571 20.0446   1
   5  -3   8 2151.18 115.803  -2
  -5   0   9 2151.18 115.803   1
   4  -2   8 48.1637 10.8403  -2
  -4   0   9 48.1637 10.8403   1
   4   2   7 1938.60 104.372  -3
  -3   0   9 1938.60 104.372   1
  -2   0   9 498.561 16.9718   1
   1  -1   9 528.353 32.1362  -2
  -1   0   9 528.353 32.1362   1
   0   0   9 871.629 34.5393  -2
   0   0   9 871.629 34.5393   1
   1   0   9 3721.54 111.395   1
  -1   3   9 667.336 27.4039  -3
   2   0   9 667.336 27.4039   1
   3   0   9 274.131 15.5867   1
   4   0   9 471.190 24.7721   1
  -6   3  10 1003.74 50.6118  -2
   6   0   9 1003.74 50.6118   1
   7   0   9 213.260 15.0691   1
   8   0   9 122.803 13.2848   1
  10  -4   7 129.452 12.9131  -2
 -10   1   9 129.452 12.9131   1
  10   1   4 960.264 54.9238  -3
   9  -4   7 960.264 54.9238  -2
  -9   1   9 960.264 54.9238   1
  -8   1   9 271.336 12.7068   1
   8   1   5 400.000 25.8691  -3
  -7   1   9 400.000 25.8691   1
   6  -2   8 521.107 29.1017  -2
  -6   1   9 521.107 29.1017   1
   6   2   6 1919.32 69.5313  -3
   5  -2   8 1919.32 69.5313  -2
  -5   1   9 1919.32 69.5313   1
  -3   1   9 1455.46 44.4427   1
   3   3   7 1.37584 5.42245  -3
  -2   1   9 1.37584 5.42245   1
   1   0   9 371.397 24.7042  -2
  -1   1   9 371.397 24.7042   1
   0   1   9 1017.10 40.1562  -2
   0   1   9 1017.10 40.1562   1
   0   4   8 2469.08 137.218  -3
   1   1   9 2469.08 137.218   1
   2   1   9 35.1759 4.33045   1
  -2   4   9 1240.24 46.1315  -3
   3   1   9 1240.24 46.1315   1
  -4   3  10 107.072 9.07654  -2
   4   1   9 107.072 9.07654   1
   5   1   9 577.455 29.8084   1
  -6   5  11 1177.49 59.1639  -3
   7   1   9 1177.49 59.1639   1
   8   1   9 350.270 20.7262   1
 -11   2   9 267.198 18.0147   1
  10  -3   7 25.4318 9.96004  -2
 -10   2   9 25.4318 9.96004   1
  -9   2   9 586.459 33.8213   1
   9   2   4 1266.19 70.2014  -3
  -8   2   9 1266.19 70.2014   1
  -7   2   9 137.697 8.35662   1
   6  -1   8 36.3166 7.57087  -2
  -6   2   9 36.3166 7.57087   1
   5  -1   8 1196.85 44.2669  -2
  -5   2   9 1196.85 44.2669   1
   4   0   8 350.249 22.2619  -2
  -4   2   9 350.249 22.2619   1
   5   3   6 368.936 22.3909  -3
  -4   2   9 368.936 22.3909   1
  -3   2   9 2416.76 72.8149   1
  -2   2   9 450.220 18.7813   1
   2   4   7 1063.41 58.9059  -3
   1   1   9 1063.41 58.9059  -2
  -1   2   9 1063.41 58.9059   1
   0   2   9 563.135 34.2263  -2
   0   2   9 563.135 34.2263   1
   1   2   9 2319.30 84.1939   1
   2   2   9 30.2683 4.18200   1
  -2   5   9 680.628 40.3208  -3
   3   2   9 680.628 40.3208   1
  -4   4  10 116.520 9.34803  -2
   4   2   9 116.520 9.34803   1
   5   2   9 103.455 9.19765   1
  -5   6  10 270.647 15.1039  -3
  -6   5  10 270.647 15.1039  -2
   6   2   9 270.647 15.1039   1
   7   2   9 1113.45 41.9294   1
   8   2   9 17.3305 4.69965   1
 -11   3   9 74.4051 9.60333   1
  10  -2   7 104.349 12.3486  -2
 -10   3   9 104.349 12.3486   1
  -9   3   9 741.924 41.9617   1
  -8   3   9 874.129 48.7708   1
  -7   3   9 46.8905 6.42570   1
   6   0   8 107.545 8.17333  -2
  -6   3   9 107.545 8.17333   1
   5   0   8 2101.28 102.033  -2
  -5   3   9 2101.28 102.033   1
   4   1   8 18.8302 9.61725  -2
  -4   3   9 18.8302 9.61725   1
  -3   3   9 1252.02 38.2184   1
  -2   3   9 1937.04 58.3920   1
   1   2   9 210.398 18.1325  -2
  -1   3   9 210.398 18.1325   1
   0   3   9 22.1030 7.61197  -2
   0   3   9 22.1030 7.61197   1
   1   3   9 1080.46 40.1523   1
   2   3   9 347.152 14.5211   1
   3   3   9 1671.72 61.3127   1
  -4   5  10 274.354 13.6495  -2
   4   3   9 274.354 13.6495   1
  -5   5  10 225.546 20.8493  -2
   5   3   9 225.546 20.8493   1
  -6   6  10 302.193 14.4953  -2
   6   3   9 302.193 14.4953   1
   7   3   9 663.656 27.0728   1
   8   3   9 -4.8790 4.01752   1
  10   4   3 297.492 21.7787  -3
  10  -1   7 297.492 21.7787  -2
 -10   4   9 297.492 21.7787   1
  -9   4   9 454.606 27.3874   1
  -8   4   9 847.197 47.3898   1
  -7   4   9 52.0697 10.6718   1
   6   1   8 367.450 15.9338  -2
  -6   4   9 367.450 15.9338   1
   4   2   8 300.839 20.4479  -2
  -4   4   9 300.839 20.4479   1
  -3   4   9 1768.58 53.5108   1
   2   6   6 1840.06 89.0269  -3
  -2   4   9 1840.06 89.0269   1
  -1   4   9 236.812 13.6965   1
   0   4   9 -3.2710 6.05327  -2
   0   4   9 -3.2710 6.05327   1
   1   4   9 1446.07 53.2406   1
   2   4   9 22.6142 3.38250   1
   3   4   9 1167.94 43.4490   1
  -4   6  10 620.773 24.9681  -2
   4   4   9 620.773 24.9681   1
   7   4   9 501.655 20.8256   1
   8   4   9 14.3845 4.44062   1
  -8   5   9 893.359 36.2089   1
  -7   5   9 75.4498 7.43292   1
   6   6   4 776.728 32.6265  -3
   6   2   8 776.728 32.6265  -2
  -6   5   9 776.728 32.6265   1
   5   2   8 125.373 13.4739  -2
  -5   5   9 125.373 13.4739   1
   5   6   5 90.5165 14.9974  -3
  -5   5   9 90.5165 14.9974   1
   4   6   5 299.210 21.0395  -3
  -4   5   9 299.210 21.0395   1
  -3   5   9 763.922 29.0623   1
   2   7   6 853.750 50.6596  -3
  -2   5   9 853.750 50.6596   1
   1   4   9 89.3415 10.9097  -2
  -1   5   9 89.3415 10.9097   1
   0   7   7 458.855 25.5476  -3
   0   5   9 458.855 25.5476  -2
   0   5   9 458.855 25.5476   1
   0   5   9 396.368 26.0634  -2
   0   5   9 396.368 26.0634   1
   1   5   9 499.210 19.8099   1
   2   5   9 183.199 11.8273   1
  -4   7  10 894.157 34.4955  -2
   4   5   9 894.157 34.4955   1
   5   5   9 134.365 8.48577   1
   7   5   9 465.109 19.2853   1
  -9   6   9 0.45520 5.30177   1
   8   6   3 1259.94 72.9771  -3
  -8   6   9 1259.94 72.9771   1
  -7   6   9 -3.2679 5.46112   1
   6   3   8 864.340 50.8231  -2
  -6   6   9 864.340 50.8231   1
   5   7   4 125.775 15.8339  -3
  -5   6   9 125.775 15.8339   1
   4   7   5 661.790 26.7156  -3
  -4   6   9 661.790 26.7156   1
  -3   6   9 828.461 31.4741   1
  -2   6   9 1452.50 53.5638   1
   1   8   6 1.14647 12.6218  -3
  -1   6   9 1.14647 12.6218   1
   0   6   9 759.766 29.3401  -2
   0   6   9 759.766 29.3401   1
   1   6   9 87.1302 6.66546   1
  -2   9   7 109.166 15.9870  -3
   2   6   9 109.166 15.9870   1
  -3   9   8 1010.93 60.9242  -3
  -3   7  10 1010.93 60.9242  -2
   3   6   9 1010.93 60.9242   1
  -3   9   8 919.030 46.2718  -3
   3   6   9 919.030 46.2718   1
  -4   8  10 336.658 15.9195  -2
   4   6   9 336.658 15.9195   1
   5   6   9 7.58961 4.37622   1
  -6  10   9 138.441 21.4759  -3
  -6   9  10 138.441 21.4759  -2
   6   6   9 138.441 21.4759   1
   7   6   9 178.349 10.1147   1
  -9   7   9 22.7739 6.28083   1
  -8   7   9 437.648 19.6393   1
   6   4   8 916.281 53.7601  -2
  -6   7   9 916.281 53.7601   1
  -5   7   9 239.067 11.7313   1
   4   5   8 55.1732 15.0119  -2
  -4   7   9 55.1732 15.0119   1
  -3   7   9 54.3662 6.41682   1
  -2   7   9 1212.09 45.1000   1
  -1   7   9 100.228 7.17288   1
   0   7   9 973.678 36.9627  -2
   0   7   9 973.678 36.9627   1
   1   7   9 59.4982 6.24014   1
   2   7   9 217.611 10.6714   1
  -3   8  10 407.387 30.0990  -2
   3   7   9 407.387 30.0990   1
  -5   9  10 19.3699 17.9608  -2
   5   7   9 19.3699 17.9608   1
  -6  10  10 290.856 22.2473  -2
   6   7   9 290.856 22.2473   1
   8   8   2 266.028 22.3724  -3
  -9   8   9 266.028 22.3724   1
  -7   8   9 98.0124 12.3853   1
   5   9   3 1309.44 75.8346  -3
   6   5   8 1309.44 75.8346  -2
  -6   8   9 1309.44 75.8346   1
   4   9   4 342.152 25.0921  -3
  -5   8   9 342.152 25.0921   1
  -4   8   9 288.169 17.4832   1
  -3   8   9 93.4537 7.35828   1
   1  10   5 626.532 25.3983  -3
  -2   8   9 626.532 25.3983   1
   0   8   9 770.069 30.0203  -2
   0   8   9 770.069 30.0203   1
   1   8   9 172.627 9.40582   1
   2   8   9 73.6299 6.63592   1
  -4  10  10 359.156 16.6736  -2
   4   8   9 359.156 16.6736   1
   5   8   9 14.3980 4.84045   1
  -9   9   9 136.302 14.8024   1
  -7   9   9 47.5791 10.6211   1
   4  10   3 308.599 24.3902  -3
  -5   9   9 308.599 24.3902   1
   4   7   8 57.9361 15.8276  -2
  -4   9   9 57.9361 15.8276   1
  -3   9   9 157.210 9.31754   1
   2   8   9 27.3957 14.6103  -2
  -2   9   9 27.3957 14.6103   1
   0  11   5 18.3026 9.69725  -3
  -1   9   9 18.3026 9.69725   1
   0   9   9 976.631 57.8994  -2
   0   9   9 976.631 57.8994   1
   1   9   9 278.964 16.3663   1
  -3  12   6 52.9808 16.9297  -3
   2   9   9 52.9808 16.9297   1
  -4  12   7 41.8742 10.0541  -3
  -3  10  10 41.8742 10.0541  -2
   3   9   9 41.8742 10.0541   1
   4   9   9 262.557 12.4755   1
  -7  10   9 -1.8834 5.78494   1
   6   7   8 158.181 16.5064  -2
  -6  10   9 158.181 16.5064   1
   4  11   3 672.934 41.6596  -3
  -5  10   9 672.934 41.6596   1
  -3  10   9 110.898 14.1644   1
  -2  10   9 54.7438 9.80410   1
   0  12   5 -4.7507 15.2945  -3
  -1  10   9 -4.7507 15.2945   1
   0  10   9 554.976 34.4515  -2
   0  10   9 554.976 34.4515   1
   1  10   9 96.6977 7.45565   1
  -3  13   6 6.66131 16.8644  -3
   2  10   9 6.66131 16.8644   1
   6   8   8 102.101 14.6412  -2
  -6  11   9 102.101 14.6412   1
  -2  11   9 2.99758 5.42039   1
  -1  11   9 19.3700 4.31321   1
   0  11   9 93.5625 12.8880  -2
   0  11   9 93.5625 12.8880   1
   0 -11  10 116.678 9.04247  -2
   0 -11  10 116.678 9.04247   1
   1 -11  10 47.1246 8.13384   1
  -2 -10  10 51.4799 12.5131  -2
   2 -11  10 51.4799 12.5131   1
   3 -11  10 0.34494 5.33137   1
  -3 -10  10 17.7459 4.25024   1
   6  -8  11 118.127 12.4798  -3
  -2 -10  10 118.127 12.4798   1
   6  -8  11 117.904 19.9574  -3
   2 -11  10 117.904 19.9574  -2
  -2 -10  10 117.904 19.9574   1
  -1 -10  10 269.685 17.5497   1
   4  -7  12 248.116 17.8300  -3
   0 -10  10 248.116 17.8300  -2
   0 -10  10 248.116 17.8300   1
   3  -7  12 378.796 24.6794  -3
   1 -10  10 378.796 24.6794   1
  -2  -9  10 210.454 17.3497  -2
   2 -10  10 210.454 17.3497   1
   3 -10  10 -1.8395 5.10804   1
   4 -11   9 30.3853 12.2407  -2
  -4  -9  10 30.3853 12.2407   1
  -3  -9  10 177.288 9.54087   1
  -2  -9  10 141.861 11.3454   1
  -1  -9  10 133.081 12.6385   1
   0  -9  10 41.8479 12.7180  -2
   0  -9  10 41.8479 12.7180   1
   3  -6  12 582.332 33.8922  -3
   1  -9  10 582.332 33.8922   1
   2  -6  12 -5.2181 15.8981  -3
   2  -9  10 -5.2181 15.8981   1
   3  -9  10 47.9554 9.59857   1
  -1  -5  14 480.688 32.1496  -3
  -5  -7  11 480.688 32.1496  -2
   5  -9  10 480.688 32.1496   1
  -7  -6  11 349.078 24.8683  -2
   7  -9  10 349.078 24.8683   1
  -6  -8  10 12.2242 4.10527   1
  -5  -8  10 574.587 30.9324   1
   4 -10   9 138.095 9.55889  -2
  -4  -8  10 138.095 9.55889   1
  -3  -8  10 281.939 19.9768   1
   2  -9  10 11.8712 13.4738  -2
  -2  -8  10 11.8712 13.4738   1
  -1  -8  10 390.577 16.1384   1
   0  -8  10 221.183 10.9654  -2
   0  -8  10 221.183 10.9654   1
   1  -8  10 994.493 36.9294   1
  -2  -7  10 5.78811 11.3586  -2
   2  -8  10 5.78811 11.3586   1
   3  -8  10 236.932 11.7694   1
  -1  -4  13 106.653 17.5057  -3
  -4  -6  11 106.653 17.5057  -2
   4  -8  10 106.653 17.5057   1
   5  -8  10 183.753 13.9297   1
  10  -6   8 79.0586 13.8510  -3
  -7  -7  10 79.0586 13.8510   1
   9  -6   9 28.5148 16.2844  -3
   6 -10   9 28.5148 16.2844  -2
  -6  -7  10 28.5148 16.2844   1
   4  -9   9 85.2797 11.0026  -2
  -4  -7  10 85.2797 11.0026   1
   6  -5  10 167.472 14.2903  -3
  -3  -7  10 167.472 14.2903   1
   5  -5  10 97.9112 12.0200  -3
  -2  -7  10 97.9112 12.0200   1
  -1  -7  10 50.7524 5.67924   1
   3  -4  11 131.956 13.3743  -3
   0  -7  10 131.956 13.3743  -2
   0  -7  10 131.956 13.3743   1
   1  -7  10 936.972 34.8050   1
  -2  -6  10 86.9371 12.8484  -2
   2  -7  10 86.9371 12.8484   1
   3  -7  10 636.568 24.6903   1
  -4  -5  11 48.8212 11.9322  -2
   4  -7  10 48.8212 11.9322   1
  -2  -3  13 255.158 19.4795  -3
   5  -7  10 255.158 19.4795   1
  -6  -4  11 58.8787 12.5307  -2
   6  -7  10 58.8787 12.5307   1
   8  -7  10 -0.2902 4.39626   1
  10  -5   8 12.1285 8.39574  -3
  -7  -6  10 12.1285 8.39574   1
  -5  -6  10 591.635 31.3514   1
   7  -4   9 289.863 20.6770  -3
   4  -8   9 289.863 20.6770  -2
  -4  -6  10 289.863 20.6770   1
  -3  -6  10 332.549 20.2662   1
   5  -4  10 537.551 31.2176  -3
  -2  -6  10 537.551 31.2176   1
   5  -4  10 568.176 32.3329  -3
   2  -7  10 568.176 32.3329  -2
  -2  -6  10 568.176 32.3329   1
  -1  -6  10 359.966 21.4143   1
   3  -3  11 76.4196 9.09943  -3
   0  -6  10 76.4196 9.09943  -2
   0  -6  10 76.4196 9.09943   1
   2  -3  11 1488.56 80.6000  -3
   1  -6  10 1488.56 80.6000   1
  -1  -6  10 1703.03 83.6970  -2
   1  -6  10 1703.03 83.6970   1
   2  -6  10 215.378 10.3289   1
   3  -6  10 311.175 18.9847   1
  -2  -2  13 224.320 19.6796  -3
  -5  -4  11 224.320 19.6796  -2
   5  -6  10 224.320 19.6796   1
  -3  -2  13 343.989 25.3260  -3
  -6  -3  11 343.989 25.3260  -2
   6  -6  10 343.989 25.3260   1
   8  -9   8 472.323 29.7595  -2
  -8  -5  10 472.323 29.7595   1
  -7  -5  10 9.15853 4.12800   1
  -5  -5  10 434.311 17.4966   1
   4  -7   9 326.387 14.6877  -2
  -4  -5  10 326.387 14.6877   1
   6  -3   9 774.726 43.9986  -3
  -3  -5  10 774.726 43.9986   1
   3  -7   9 776.345 41.0553  -2
  -3  -5  10 776.345 41.0553   1
  -2  -5  10 516.004 20.0251   1
  -1  -5  10 3.94763 3.08178   1
   0  -5  10 31.1991 6.07741  -2
   0  -5  10 31.1991 6.07741   1
  -1  -5  10 1165.57 58.4159  -2
   1  -5  10 1165.57 58.4159   1
   1  -2  11 285.978 19.4409  -3
   2  -5  10 285.978 19.4409   1
   3  -5  10 550.537 21.4574   1
  -4  -3  11 606.549 24.5072  -2
   4  -5  10 606.549 24.5072   1
   5  -5  10 273.529 13.3797   1
  -7  -2  11 1124.26 63.9139  -2
   7  -5  10 1124.26 63.9139   1
  -9  -4  10 11.0622 4.51566   1
   8  -8   8 851.211 48.6662  -2
  -8  -4  10 851.211 48.6662   1
  -7  -4  10 19.2724 6.60199   1
   8  -3   8 200.266 18.9748  -3
   6  -7   9 200.266 18.9748  -2
  -6  -4  10 200.266 18.9748   1
   6  -7   9 206.342 17.1220  -2
  -6  -4  10 206.342 17.1220   1
  -5  -4  10 40.3741 5.65684   1
   4  -6   9 519.399 20.9013  -2
  -4  -4  10 519.399 20.9013   1
  -3  -4  10 397.766 16.0592   1
  -2  -4  10 1087.32 39.8657   1
  -1  -4  10 33.7980 5.07760   1
   0  -4  10 494.849 19.5216  -2
   0  -4  10 494.849 19.5216   1
  -1  -4  10 1544.99 83.8345  -2
   1  -4  10 1544.99 83.8345   1
   2  -4  10 259.634 11.5675   1
   3  -4  10 1086.89 39.9757   1
  -2   0  12 465.309 30.4289  -3
  -4  -2  11 465.309 30.4289  -2
   4  -4  10 465.309 30.4289   1
   5  -4  10 163.902 9.31565   1
  -6  -1  11 -7.9670 12.9577  -2
   6  -4  10 -7.9670 12.9577   1
   7  -4  10 486.823 30.0668   1
   8  -4  10 222.941 16.8550   1
   9  -4  10 265.737 18.7038   1
  11  -3   6 -2.5571 15.2851  -3
  -9  -3  10 -2.5571 15.2851   1
   9  -2   7 20.8710 10.2448  -3
  -7  -3  10 20.8710 10.2448   1
   6  -6   9 293.943 19.7199  -2
  -6  -3  10 293.943 19.7199   1
  -5  -3  10 -1.3215 4.52536   1
   5  -1   9 199.892 11.2568  -3
  -3  -3  10 199.892 11.2568   1
   4  -1   9 1574.20 57.1207  -3
  -2  -3  10 1574.20 57.1207   1
  -1  -3  10 52.1872 5.36377   1
   2   0  10 197.671 10.6734  -3
   0  -3  10 197.671 10.6734  -2
   0  -3  10 197.671 10.6734   1
  -1  -3  10 62.7723 8.33523  -2
   1  -3  10 62.7723 8.33523   1
   2  -3  10 1148.81 35.3953   1
   3  -3  10 353.203 14.5969   1
  -4  -1  11 1198.49 66.2492  -2
   4  -3  10 1198.49 66.2492   1
   7  -3  10 1061.69 60.8226   1
   9  -3  10 421.891 26.7533   1
  11  -2   6 -0.4836 15.0742  -3
   9  -7   8 -0.4836 15.0742  -2
  -9  -2  10 -0.4836 15.0742   1
  10  -2   6 617.859 36.3866  -3
  -8  -2  10 617.859 36.3866   1
  -7  -2  10 368.050 15.6156   1
   8  -1   7 826.868 31.9963  -3
   6  -5   9 826.868 31.9963  -2
  -6  -2  10 826.868 31.9963   1
  -5  -2  10 200.315 13.8416   1
   6   0   8 295.812 21.6101  -3
   4  -4   9 295.812 21.6101  -2
  -4  -2  10 295.812 21.6101   1
  -3  -2  10 0.41856 4.23265   1
  -2  -2  10 3068.54 109.334   1
   3   0   9 4.91834 10.5214  -3
  -1  -2  10 4.91834 10.5214   1
   0  -2  10 833.014 42.0426  -2
   0  -2  10 833.014 42.0426   1
   1   1  10 37.5583 5.75344  -3
   1  -2  10 37.5583 5.75344   1
   2  -2  10 960.216 29.7454   1
   3  -2  10 374.727 15.2720   1
  -4   0  11 1075.87 53.9820  -2
   4  -2  10 1075.87 53.9820   1
  -5   0  11 -9.6671 7.75126  -2
   5  -2  10 -9.6671 7.75126   1
  -4   2  12 246.564 20.6432  -3
  -6   1  11 246.564 20.6432  -2
   6  -2  10 246.564 20.6432   1
   7  -2  10 60.7060 9.59857   1
  10  -6   8 -4.7461 9.54589  -2
 -10  -1  10 -4.7461 9.54589   1
   9  -6   8 63.9288 14.3252  -2
  -9  -1  10 63.9288 14.3252   1
  -8  -1  10 359.636 15.6103   1
  -7  -1  10 183.223 9.84154   1
   6  -4   9 997.880 37.4489  -2
  -6  -1  10 997.880 37.4489   1
   5  -4   9 480.545 29.5440  -2
  -5  -1  10 480.545 29.5440   1
   4  -3   9 157.254 14.0164  -2
  -4  -1  10 157.254 14.0164   1
  -3  -1  10 10.2391 3.16670   1
  -2  -1  10 1288.93 46.8754   1
  -1  -1  10 221.648 10.0470   1
   0  -1  10 1125.98 41.2467  -2
   0  -1  10 1125.98 41.2467   1
  -1  -1  10 365.202 23.4391  -2
   1  -1  10 365.202 23.4391   1
   0   2  10 558.786 21.9806  -3
   2  -1  10 558.786 21.9806   1
   3  -1  10 49.7044 6.01370   1
  -4   1  11 1986.89 96.3801  -2
   4  -1  10 1986.89 96.3801   1
  -5   1  11 16.2323 11.4727  -2
   5  -1  10 16.2323 11.4727   1
   7  -1  10 9.55409 6.27249   1
  -8   0  10 23.6834 4.43070   1
  -7   0  10 382.838 16.1683   1
   6  -3   9 685.680 26.8396  -2
  -6   0  10 685.680 26.8396   1
   5  -3   9 2069.43 74.8433  -2
  -5   0  10 2069.43 74.8433   1
   4  -2   9 199.261 10.8598  -2
  -4   0  10 199.261 10.8598   1
  -3   0  10 85.2316 6.27908   1
  -2   0  10 1361.88 49.3753   1
  -1   0  10 438.161 17.2143   1
   0   0  10 1705.09 91.9294  -2
   0   0  10 1705.09 91.9294   1
  -1   0  10 349.048 22.7306  -2
   1   0  10 349.048 22.7306   1
   2   0  10 64.6243 6.08414   1
   3   0  10 51.4624 6.01543   1
  -4   2  11 1599.40 90.8471  -2
   4   0  10 1599.40 90.8471   1
  -6   3  11 396.648 23.9264  -2
   6   0  10 396.648 23.9264   1
   7   0  10 52.7690 7.46730   1
   8   0  10 74.1575 12.3050   1
   9   0  10 108.577 13.4288   1
  11   1   5 62.0433 14.1054  -3
  10  -4   8 62.0433 14.1054  -2
 -10   1  10 62.0433 14.1054   1
  -8   1  10 81.2149 7.65486   1
   6  -2   9 613.575 24.4829  -2
  -6   1  10 613.575 24.4829   1
   6   2   7 1538.06 56.5135  -3
   5  -2   9 1538.06 56.5135  -2
  -5   1  10 1538.06 56.5135   1
  -3   1  10 8.80485 4.41759   1
   3   3   8 96.3379 7.73941  -3
  -2   1  10 96.3379 7.73941   1
  -1   1  10 330.531 13.6327   1
   0   1  10 1754.02 64.2870  -2
   0   1  10 1754.02 64.2870   1
   0   4   9 1728.05 97.1970  -3
   1   1  10 1728.05 97.1970   1
   2   1  10 113.359 7.25908   1
   3   1  10 17.3593 3.63196   1
  -4   3  11 707.643 36.7179  -2
   4   1  10 707.643 36.7179   1
  -3   5  10 730.877 45.9000  -3
  -4   3  11 730.877 45.9000  -2
   4   1  10 730.877 45.9000   1
  -4   5  11 137.667 13.7579  -3
   5   1  10 137.667 13.7579   1
  -4   5  11 189.613 22.3890  -3
  -5   3  11 189.613 22.3890  -2
   5   1  10 189.613 22.3890   1
   7   1  10 101.870 8.76399   1
  -9   2  10 520.690 32.3977   1
   9   2   5 16.3340 18.1028  -3
  -8   2  10 16.3340 18.1028   1
  -7   2  10 137.201 8.73521   1
   7   3   6 384.630 17.8140  -3
   6  -1   9 384.630 17.8140  -2
  -6   2  10 384.630 17.8140   1
   5  -1   9 2163.26 78.1725  -2
  -5   2  10 2163.26 78.1725   1
  -4   2  10 -0.4702 4.68451   1
   4   4   7 858.959 27.2837  -3
  -3   2  10 858.959 27.2837   1
  -2   2  10 215.549 8.43635   1
   1   1  10 262.761 20.4609  -2
  -1   2  10 262.761 20.4609   1
   2   4   8 154.269 12.6244  -3
  -1   2  10 154.269 12.6244   1
   0   2  10 1299.66 63.6408  -2
   0   2  10 1299.66 63.6408   1
   0   5   9 1363.85 50.5917  -3
   1   2  10 1363.85 50.5917   1
   2   2  10 129.021 7.69502   1
   3   2  10 11.7527 3.36474   1
  -3   6  10 233.041 13.9394  -3
  -4   4  11 233.041 13.9394  -2
   4   2  10 233.041 13.9394   1
  -5   4  11 164.560 11.7037  -2
   5   2  10 164.560 11.7037   1
  -5   6  11 773.370 31.3138  -3
  -6   5  11 773.370 31.3138  -2
   6   2  10 773.370 31.3138   1
   7   2  10 325.257 19.6115   1
   8   2  10 16.5707 6.37028   1
  10  -2   8 50.3527 11.3676  -2
 -10   3  10 50.3527 11.3676   1
  -9   3  10 630.063 38.5574   1
  -8   3  10 47.5002 10.3937   1
  -7   3  10 334.646 14.9686   1
   6   0   9 140.287 9.77209  -2
  -6   3  10 140.287 9.77209   1
   4   1   9 248.328 19.8894  -2
  -4   3  10 248.328 19.8894   1
  -3   3  10 783.786 24.6632   1
  -2   3  10 13.8986 2.78153   1
  -1   3  10 36.2895 6.78938   1
   0   3  10 231.204 11.6814  -2
   0   3  10 231.204 11.6814   1
   1   3  10 2246.77 125.387   1
  -1   6   9 -12.648 9.23142  -3
   2   3  10 -12.648 9.23142   1
   3   3  10 217.822 10.6191   1
  -4   5  11 157.674 10.9353  -2
   4   3  10 157.674 10.9353   1
  -5   5  11 185.628 12.3952  -2
   5   3  10 185.628 12.3952   1
  -6   6  11 1139.48 66.5515  -2
   6   3  10 1139.48 66.5515   1
   7   3  10 470.787 19.6255   1
   8   3  10 78.3324 8.05576   1
  -9   4  10 222.507 16.4429   1
  -8   4  10 805.303 45.5131   1
  -7   4  10 253.448 12.5210   1
   6   1   9 70.8798 8.59037  -2
  -6   4  10 70.8798 8.59037   1
   5   2   9 790.420 46.4842  -2
  -5   4  10 790.420 46.4842   1
  -4   4  10 47.1344 4.67738   1
  -3   4  10 1517.57 55.9195   1
  -2   4  10 111.814 7.38070   1
   1   3  10 680.443 26.9917  -2
  -1   4  10 680.443 26.9917   1
   0   4  10 355.442 15.6212  -2
   0   4  10 355.442 15.6212   1
   1   4  10 1332.78 49.3313   1
   2   4  10 6.13556 3.20072   1
   3   4  10 559.759 22.2288   1
  -4   6  11 18.5010 8.24962  -2
   4   4  10 18.5010 8.24962   1
  -5   6  11 25.5820 17.2082  -2
   5   4  10 25.5820 17.2082   1
  -5   8  10 0.21749 15.3540  -3
  -5   6  11 0.21749 15.3540  -2
   5   4  10 0.21749 15.3540   1
   7   4  10 675.923 26.6846   1
  -7   5  10 21.2868 7.12090   1
   6   6   5 182.019 11.2691  -3
   6   2   9 182.019 11.2691  -2
  -6   5  10 182.019 11.2691   1
   5   3   9 362.007 24.2442  -2
  -5   5  10 362.007 24.2442   1
   4   3   9 6.49073 14.0530  -2
  -4   5  10 6.49073 14.0530   1
  -3   5  10 543.741 28.3886   1
   2   7   7 685.074 42.0005  -3
  -2   5  10 685.074 42.0005   1
   1   4  10 236.837 21.2772  -2
  -1   5  10 236.837 21.2772   1
   0   5  10 0.17579 6.77585  -2
   0   5  10 0.17579 6.77585   1
  -1   8   8 569.930 35.8072  -3
   1   5  10 569.930 35.8072   1
   2   5  10 39.6006 5.15751   1
  -3   6  11 1113.27 65.6836  -2
   3   5  10 1113.27 65.6836   1
  -4   9   9 -11.584 13.0721  -3
  -4   7  11 -11.584 13.0721  -2
   4   5  10 -11.584 13.0721   1
   5   5  10 236.712 18.3617   1
  -6   9  10 226.688 14.4184  -3
  -6   8  11 226.688 14.4184  -2
   6   5  10 226.688 14.4184   1
   7   5  10 467.664 25.4233   1
  -9   6  10 128.072 13.1975   1
  -8   6  10 535.552 23.8739   1
   6   7   5 462.987 31.9296  -3
   6   3   9 462.987 31.9296  -2
  -6   6  10 462.987 31.9296   1
   5   4   9 387.555 24.9215  -2
  -5   6  10 387.555 24.9215   1
   4   4   9 123.573 17.1729  -2
  -4   6  10 123.573 17.1729   1
   4   7   6 103.685 14.5543  -3
  -4   6  10 103.685 14.5543   1
   3   8   6 643.252 25.9910  -3
  -3   6  10 643.252 25.9910   1
  -2   6  10 616.893 24.1461   1
   1   8   7 184.558 12.2317  -3
   1   5  10 184.558 12.2317  -2
  -1   6  10 184.558 12.2317   1
   0   6  10 7.01519 7.26643  -2
   0   6  10 7.01519 7.26643   1
   1   6  10 236.449 11.2630   1
  -2   9   8 -7.5455 13.8140  -3
   2   6  10 -7.5455 13.8140   1
   3   6  10 584.928 30.2682   1
   5   6  10 62.4513 8.20710   1
  -6  10  10 14.1212 13.6830  -3
  -6   9  11 14.1212 13.6830  -2
   6   6  10 14.1212 13.6830   1
  -9   7  10 285.389 20.2793   1
  -8   7  10 389.937 19.5376   1
  -7   7  10 13.5772 5.01867   1
   6   4   9 157.396 16.4535  -2
  -6   7  10 157.396 16.4535   1
   5   8   5 10.9450 15.3764  -3
  -5   7  10 10.9450 15.3764   1
   4   5   9 24.4509 15.4266  -2
  -4   7  10 24.4509 15.4266   1
  -3   7  10 407.217 17.1995   1
   2   9   6 549.973 35.8757  -3
  -2   7  10 549.973 35.8757   1
   1   6  10 18.8483 9.06422  -2
  -1   7  10 18.8483 9.06422   1
   0   7  10 613.565 24.6589  -2
   0   7  10 613.565 24.6589   1
   1   7  10 388.330 16.3802   1
  -2  10   8 -2.7018 10.7437  -3
   2   7  10 -2.7018 10.7437   1
  -4   9  11 201.609 12.1978  -2
   4   7  10 201.609 12.1978   1
  -8   8  10 660.575 40.2118   1
   6   5   9 457.804 30.2782  -2
  -6   8  10 457.804 30.2782   1
  -5   8  10 45.5664 10.1551   1
   4   6   9 99.1373 17.2304  -2
  -4   8  10 99.1373 17.2304   1
  -3   8  10 650.268 25.6002   1
  -2   8  10 379.691 16.2755   1
   1   7  10 41.7484 16.1812  -2
  -1   8  10 41.7484 16.1812   1
   0   8  10 60.9058 8.67427  -2
   0   8  10 60.9058 8.67427   1
   2   8  10 9.21282 3.55312   1
  -3   9  11 436.860 31.8759  -2
   3   8  10 436.860 31.8759   1
  -4  10  11 222.209 22.0169  -2
   4   8  10 222.209 22.0169   1
  -5  12   8 257.564 19.4333  -3
  -4  10  11 257.564 19.4333  -2
   4   8  10 257.564 19.4333   1
  -8   9  10 402.571 26.2767   1
   5  10   4 389.488 26.9799  -3
   6   6   9 389.488 26.9799  -2
  -6   9  10 389.488 26.9799   1
  -5   9  10 87.6028 11.6986   1
  -4   9  10 5.03353 6.89051   1
  -1   9  10 -1.4930 4.72879   1
  -2  12   7 -3.2443 8.53843  -3
   1   9  10 -3.2443 8.53843   1
  -3  12   7 70.9174 21.2625  -3
  -2  10  10 70.9174 21.2625  -2
   2   9  10 70.9174 21.2625   1
  -4  12   8 522.898 29.5144  -3
  -3  10  11 522.898 29.5144  -2
   3   9  10 522.898 29.5144   1
   6   7   9 847.568 50.4640  -2
  -6  10  10 847.568 50.4640   1
   4  11   4 98.4977 17.3439  -3
  -5  10  10 98.4977 17.3439   1
   4   8   9 43.2204 15.7464  -2
  -4  10  10 43.2204 15.7464   1
  -3  10  10 -6.2316 4.54771   1
   1  12   5 628.791 41.5575  -3
   2   9  10 628.791 41.5575  -2
  -2  10  10 628.791 41.5575   1
   0  12   6 -4.8818 18.7990  -3
   1   9  10 -4.8818 18.7990  -2
  -1  10  10 -4.8818 18.7990   1
   0  10  10 454.456 19.8114  -2
   0  10  10 454.456 19.8114   1
   1  10  10 55.2218 6.64921   1
   3   9  10 46.7882 17.8677  -2
  -3  11  10 46.7882 17.8677   1
  -2  11  10 103.881 13.2707   1
  -1 -10  11 42.8083 5.41644   1
   4  -7  13 222.691 13.1050  -3
   0 -10  11 222.691 13.1050  -2
   0 -10  11 222.691 13.1050   1
   3  -7  13 7.75024 11.5653  -3
   1 -10  11 7.75024 11.5653   1
  -2  -9  11 251.668 19.3193  -2
   2 -10  11 251.668 19.3193   1
   7  -7  11 -3.9912 13.6882  -3
  -3  -9  11 -3.9912 13.6882   1
   2 -10  11 244.770 19.9682  -2
  -2  -9  11 244.770 19.9682   1
   5  -6  12 222.409 12.9928  -3
  -1  -9  11 222.409 12.9928   1
   0  -9  11 146.254 11.6898  -2
   0  -9  11 146.254 11.6898   1
   3  -6  13 67.6599 14.1402  -3
  -1  -9  11 67.6599 14.1402  -2
   1  -9  11 67.6599 14.1402   1
   1  -5  14 11.5966 12.8242  -3
   3  -9  11 11.5966 12.8242   1
   5  -9  11 51.3857 9.46669   1
  -5  -8  11 563.542 22.2426   1
   4 -10  10 36.5983 7.83645  -2
  -4  -8  11 36.5983 7.83645   1
   3 -10  10 72.3072 10.2625  -2
  -3  -8  11 72.3072 10.2625   1
   2  -9  11 343.042 22.7031  -2
  -2  -8  11 343.042 22.7031   1
  -1  -8  11 425.966 18.4885   1
   0  -8  11 307.159 20.6236  -2
   0  -8  11 307.159 20.6236   1
   1  -8  11 353.129 15.2025   1
   2  -8  11 38.9798 8.09134   1
   3  -8  11 43.4639 6.70222   1
   5  -8  11 143.232 12.6784   1
  -6  -7  11 55.1431 6.47686   1
   8  -5  10 511.035 31.1122  -3
  -5  -7  11 511.035 31.1122   1
   4  -9  10 10.0812 9.69333  -2
  -4  -7  11 10.0812 9.69333   1
  -2  -7  11 170.593 12.5618   1
   4  -4  12 222.858 19.5238  -3
  -1  -7  11 222.858 19.5238   1
   3  -4  12 88.6258 10.1848  -3
   0  -7  11 88.6258 10.1848  -2
   0  -7  11 88.6258 10.1848   1
  -1  -7  11 1049.89 58.2770  -2
   1  -7  11 1049.89 58.2770   1
   1  -3  13 4.73698 17.1308  -3
   2  -7  11 4.73698 17.1308   1
  -2  -6  11 -10.175 11.5938  -2
   2  -7  11 -10.175 11.5938   1
   3  -7  11 211.149 11.0092   1
   5  -7  11 488.649 29.2494   1
  -7  -4  12 158.792 19.1187  -2
   7  -7  11 158.792 19.1187   1
  -7  -6  11 117.072 8.23308   1
   6  -9  10 11.9243 10.4987  -2
  -6  -6  11 11.9243 10.4987   1
  -5  -6  11 619.298 35.2517   1
   3  -8  10 368.658 16.9891  -2
  -3  -6  11 368.658 16.9891   1
   5  -3  11 60.3983 16.8760  -3
   2  -7  11 60.3983 16.8760  -2
  -2  -6  11 60.3983 16.8760   1
  -1  -6  11 450.011 17.9812   1
   3  -3  12 94.5060 15.8144  -3
   0  -6  11 94.5060 15.8144  -2
   0  -6  11 94.5060 15.8144   1
   0  -6  11 60.6745 7.95758  -2
   0  -6  11 60.6745 7.95758   1
   2  -3  12 1096.14 41.3370  -3
  -1  -6  11 1096.14 41.3370  -2
   1  -6  11 1096.14 41.3370   1
   2  -6  11 0.54018 3.64663   1
   0  -2  13 3.06421 7.58429  -3
   3  -6  11 3.06421 7.58429   1
  -4  -4  12 249.576 21.6280  -2
   4  -6  11 249.576 21.6280   1
   5  -6  11 295.749 19.5792   1
   8  -6  11 23.3919 7.61209   1
   7  -9   9 157.012 19.8931  -2
  -7  -5  11 157.012 19.8931   1
   6  -8  10 26.9187 13.0592  -2
  -6  -5  11 26.9187 13.0592   1
  -5  -5  11 587.100 22.8326   1
   4  -7  10 385.956 24.1605  -2
  -4  -5  11 385.956 24.1605   1
   6  -3  10 126.084 15.4285  -3
   3  -7  10 126.084 15.4285  -2
  -3  -5  11 126.084 15.4285   1
  -2  -5  11 88.0387 6.49147   1
   4  -2  11 242.152 17.5682  -3
  -1  -5  11 242.152 17.5682   1
   0  -5  11 79.3275 7.51706  -2
   0  -5  11 79.3275 7.51706   1
   1  -5  11 1079.13 53.7982   1
   1  -2  12 476.414 28.2090  -3
   2  -5  11 476.414 28.2090   1
   3  -5  11 386.075 16.1295   1
  -1  -1  13 114.352 12.0902  -3
  -4  -3  12 114.352 12.0902  -2
   4  -5  11 114.352 12.0902   1
   5  -5  11 256.024 11.1109   1
   8  -5  11 23.3069 7.01506   1
  -8  -4  11 328.338 14.5914   1
   7  -8   9 50.6546 16.8796  -2
  -7  -4  11 50.6546 16.8796   1
  -5  -4  11 614.874 23.7652   1
   4  -6  10 89.3194 8.65228  -2
  -4  -4  11 89.3194 8.65228   1
   3  -6  10 516.641 29.2945  -2
  -3  -4  11 516.641 29.2945   1
  -2  -4  11 217.937 10.2913   1
  -1  -4  11 262.388 11.6796   1
   0  -4  11 38.4922 6.87598  -2
   0  -4  11 38.4922 6.87598   1
  -1  -4  11 1204.42 66.1664  -2
   1  -4  11 1204.42 66.1664   1
   2  -4  11 276.119 12.3347   1
   3  -4  11 232.773 11.1625   1
  -4  -2  12 1.03233 9.74357  -2
   4  -4  11 1.03233 9.74357   1
  -2   0  13 236.635 20.1602  -3
   5  -4  11 236.635 20.1602   1
   8  -4  11 92.1820 12.1874   1
  10  -2   8 424.865 27.7658  -3
  -8  -3  11 424.865 27.7658   1
   6  -6  10 97.1331 12.5862  -2
  -6  -3  11 97.1331 12.5862   1
   7  -1   9 112.696 10.0632  -3
  -5  -3  11 112.696 10.0632   1
   4  -5  10 152.323 14.6444  -2
  -4  -3  11 152.323 14.6444   1
   3  -5  10 229.040 18.1433  -2
  -3  -3  11 229.040 18.1433   1
  -2  -3  11 826.779 30.8978   1
  -1  -3  11 14.1782 3.53469   1
   2   0  11 -15.761 12.2258  -3
   0  -3  11 -15.761 12.2258  -2
   0  -3  11 -15.761 12.2258   1
  -1  -3  11 923.952 51.7781  -2
   1  -3  11 923.952 51.7781   1
   2  -3  11 111.016 7.35498   1
  -1   1  12 494.133 17.8771  -3
   3  -3  11 494.133 17.8771   1
  -4  -1  12 161.697 15.8713  -2
   4  -3  11 161.697 15.8713   1
  -5  -1  12 146.498 12.5476  -2
   5  -3  11 146.498 12.5476   1
  -7  -2  11 34.1104 6.45986   1
   8  -1   8 246.668 14.3529  -3
   6  -5  10 246.668 14.3529  -2
  -6  -2  11 246.668 14.3529   1
   5  -5  10 109.839 13.9113  -2
  -5  -2  11 109.839 13.9113   1
   6   0   9 461.249 28.7658  -3
   4  -4  10 461.249 28.7658  -2
  -4  -2  11 461.249 28.7658   1
  -2  -2  11 951.380 35.2459   1
   0  -2  11 181.454 14.1207  -2
   0  -2  11 181.454 14.1207   1
   1   1  11 841.222 32.2011  -3
  -1  -2  11 841.222 32.2011  -2
   1  -2  11 841.222 32.2011   1
   2  -2  11 4.05382 3.24443   1
   3  -2  11 637.570 20.6980   1
  -2   2  12 797.344 42.2821  -3
  -4   0  12 797.344 42.2821  -2
   4  -2  11 797.344 42.2821   1
  -5   0  12 25.5991 8.94556  -2
   5  -2  11 25.5991 8.94556   1
  -6   1  12 -3.4682 14.6753  -2
   6  -2  11 -3.4682 14.6753   1
   9  -6   9 7.07216 11.3362  -2
  -9  -1  11 7.07216 11.3362   1
  -8  -1  11 829.385 32.4608   1
   9   0   7 15.1153 12.5295  -3
  -7  -1  11 15.1153 12.5295   1
   6  -4  10 201.740 11.5725  -2
  -6  -1  11 201.740 11.5725   1
   7   0   8 18.1667 17.5705  -3
   5  -4  10 18.1667 17.5705  -2
  -5  -1  11 18.1667 17.5705   1
   4  -3  10 376.910 16.5956  -2
  -4  -1  11 376.910 16.5956   1
   5   1   9 466.955 19.3892  -3
  -3  -1  11 466.955 19.3892   1
  -2  -1  11 1138.70 41.7413   1
  -1  -1  11 2.45322 3.20093   1
   1  -1  11 99.1433 7.78081   1
   0   2  11 862.464 44.1153  -3
   2  -1  11 862.464 44.1153   1
   3  -1  11 919.899 34.8636   1
  -2   3  12 895.914 35.3022  -3
  -4   1  12 895.914 35.3022  -2
   4  -1  11 895.914 35.3022   1
  -5   1  12 62.0585 10.4158  -2
   5  -1  11 62.0585 10.4158   1
  -6   2  12 68.7209 10.3473  -2
   6  -1  11 68.7209 10.3473   1
  -5   4  13 258.415 17.8219  -3
   7  -1  11 258.415 17.8219   1
   8  -1  11 -0.0112 6.46704   1
   9  -5   9 9.78214 14.0575  -2
  -9   0  11 9.78214 14.0575   1
  -8   0  11 897.658 34.2555   1
  -7   0  11 188.030 10.2880   1
   6  -3  10 494.290 20.6863  -2
  -6   0  11 494.290 20.6863   1
   5  -3  10 184.328 12.2703  -2
  -5   0  11 184.328 12.2703   1
   4  -2  10 366.744 16.3911  -2
  -4   0  11 366.744 16.3911   1
  -3   0  11 82.6041 6.72147   1
  -2   0  11 2152.21 77.2801   1
  -1   0  11 -1.9909 3.34385   1
   0   0  11 329.048 19.5747  -2
   0   0  11 329.048 19.5747   1
   1   0  11 151.563 9.18611   1
   2   0  11 229.820 11.0386   1
   3   0  11 582.133 22.9912   1
  -4   2  12 854.335 33.3479  -2
   4   0  11 854.335 33.3479   1
  -6   3  12 412.729 28.7148  -2
   6   0  11 412.729 28.7148   1
   7   0  11 170.573 10.5684   1
   8   0  11 216.410 17.7128   1
  -8   1  11 571.401 24.0885   1
   8   2   7 318.758 22.7170  -3
  -7   1  11 318.758 22.7170   1
   6  -2  10 749.521 29.2160  -2
  -6   1  11 749.521 29.2160   1
   5  -2  10 192.026 12.5532  -2
  -5   1  11 192.026 12.5532   1
   5   3   8 87.7686 13.7220  -3
  -4   1  11 87.7686 13.7220   1
   5   3   8 102.835 14.6830  -3
   4  -1  10 102.835 14.6830  -2
  -4   1  11 102.835 14.6830   1
  -3   1  11 6.42514 3.45261   1
  -2   1  11 2129.88 102.792   1
  -1   1  11 208.852 10.3065   1
   0   1  11 747.098 38.2482  -2
   0   1  11 747.098 38.2482   1
   1   1  11 460.066 18.6836   1
   2   1  11 502.371 20.1705   1
  -2   5  11 226.299 16.3061  -3
   3   1  11 226.299 16.3061   1
  -4   3  12 1521.42 56.6485  -2
   4   1  11 1521.42 56.6485   1
  -5   3  12 16.3677 15.7773  -2
   5   1  11 16.3677 15.7773   1
   7   1  11 28.6398 5.08343   1
   8   1  11 124.991 10.8868   1
  -9   2  11 50.9857 9.77281   1
  -7   2  11 382.831 16.4782   1
   7   3   7 742.249 40.6038  -3
   6  -1  10 742.249 40.6038  -2
  -6   2  11 742.249 40.6038   1
   5  -1  10 634.945 34.8571  -2
  -5   2  11 634.945 34.8571   1
   4   0  10 323.917 22.8392  -2
  -4   2  11 323.917 22.8392   1
   4   4   8 3.58202 7.78013  -3
  -3   2  11 3.58202 7.78013   1
  -2   2  11 1042.33 39.0752   1
   0   2  11 1038.14 51.6296  -2
   0   2  11 1038.14 51.6296   1
   1   5   9 1036.69 61.0062  -3
   0   2  11 1036.69 61.0062  -2
   0   2  11 1036.69 61.0062   1
   0   5  10 39.3825 8.30064  -3
   1   2  11 39.3825 8.30064   1
   2   2  11 27.4644 4.90975   1
   3   2  11 5.77753 3.63961   1
  -3   6  11 1463.62 54.7084  -3
  -4   4  12 1463.62 54.7084  -2
   4   2  11 1463.62 54.7084   1
  -5   4  12 112.218 11.1520  -2
   5   2  11 112.218 11.1520   1
  -6   7  12 26.8336 11.6142  -3
   7   2  11 26.8336 11.6142   1
  -9   3  11 219.892 16.4197   1
  -8   3  11 83.5307 11.1291   1
   8   4   6 87.8522 11.8183  -3
  -7   3  11 87.8522 11.8183   1
   6   0  10 131.473 10.1825  -2
  -6   3  11 131.473 10.1825   1
   6   4   7 928.720 49.0078  -3
   5   0  10 928.720 49.0078  -2
  -5   3  11 928.720 49.0078   1
   4   1  10 46.4599 13.8662  -2
  -4   3  11 46.4599 13.8662   1
  -3   3  11 77.4883 7.58053   1
  -2   3  11 262.850 12.1123   1
   2   5   9 472.017 34.0598  -3
   1   2  11 472.017 34.0598  -2
  -1   3  11 472.017 34.0598   1
   1   6   9 1029.74 39.2484  -3
   0   3  11 1029.74 39.2484  -2
   0   3  11 1029.74 39.2484   1
   1   3  11 349.451 14.9957   1
  -1   6  10 192.299 14.6101  -3
   2   3  11 192.299 14.6101   1
   3   3  11 -4.7095 4.04682   1
  -4   5  12 989.320 49.9032  -2
   4   3  11 989.320 49.9032   1
  -3   7  11 1077.54 64.6748  -3
  -4   5  12 1077.54 64.6748  -2
   4   3  11 1077.54 64.6748   1
  -4   7  11 123.297 12.8234  -3
  -5   5  12 123.297 12.8234  -2
   5   3  11 123.297 12.8234   1
  -6   6  12 549.867 36.3167  -2
   6   3  11 549.867 36.3167   1
  -6   8  12 51.2791 17.0441  -3
   7   3  11 51.2791 17.0441   1
  -9   4  11 337.261 22.2790   1
  -8   4  11 10.5514 8.00166   1
  -7   4  11 160.618 10.3912   1
   6   1  10 439.247 19.2999  -2
  -6   4  11 439.247 19.2999   1
   5   2  10 2279.77 111.046  -2
  -5   4  11 2279.77 111.046   1
  -4   4  11 115.716 8.81095   1
  -3   4  11 186.167 9.97896   1
  -2   4  11 102.908 7.45101   1
   1   3  11 163.634 11.4756  -2
  -1   4  11 163.634 11.4756   1
   0   4  11 536.280 21.8972  -2
   0   4  11 536.280 21.8972   1
   1   4  11 705.488 27.2618   1
   2   4  11 26.2180 5.05187   1
   3   4  11 56.0154 6.69288   1
  -4   6  12 146.998 19.4921  -2
   4   4  11 146.998 19.4921   1
  -6   7  12 390.826 18.2998  -2
   6   4  11 390.826 18.2998   1
   6   2  10 186.949 16.6955  -2
  -6   5  11 186.949 16.6955   1
  -5   5  11 589.621 36.5414   1
   4   7   7 35.6968 9.58862  -3
  -4   5  11 35.6968 9.58862   1
  -3   5  11 728.101 28.2357   1
  -2   5  11 46.9864 5.42945   1
   0   5  11 275.780 13.5992  -2
   0   5  11 275.780 13.5992   1
   1   5  11 1511.95 55.8095   1
   2   5  11 79.9856 7.11784   1
  -3   6  12 99.2487 18.7426  -2
   3   5  11 99.2487 18.7426   1
  -5   7  12 207.522 22.1304  -2
   5   5  11 207.522 22.1304   1
  -6   8  12 207.503 18.1522  -2
   6   5  11 207.503 18.1522   1
  -9   6  11 536.352 32.9617   1
   6   3  10 53.1101 14.9010  -2
  -6   6  11 53.1101 14.9010   1
  -5   6  11 630.486 38.2886   1
  -4   6  11 14.4552 5.52519   1
   3   8   7 1146.17 43.1755  -3
  -3   6  11 1146.17 43.1755   1
  -2   6  11 25.9916 4.89963   1
   0   9   8 395.743 17.9761  -3
   0   6  11 395.743 17.9761  -2
   0   6  11 395.743 17.9761   1
  -1   9   9 934.786 57.8556  -3
  -1   6  12 934.786 57.8556  -2
   1   6  11 934.786 57.8556   1
  -1   9   9 845.182 43.1631  -3
   1   6  11 845.182 43.1631   1
   2   6  11 1.29856 3.35774   1
   3   6  11 341.929 19.3562   1
  -4  10  10 -17.873 17.5225  -3
  -4   8  12 -17.873 17.5225  -2
   4   6  11 -17.873 17.5225   1
   5   6  11 83.0245 8.92901   1
   6   4  10 1.65038 14.3231  -2
  -6   7  11 1.65038 14.3231   1
  -5   7  11 368.817 24.8533   1
   4   9   6 3.94582 16.1127  -3
  -4   7  11 3.94582 16.1127   1
  -3   7  11 1008.53 38.2259   1
   2   9   7 908.272 46.4454  -3
  -2   7  11 908.272 46.4454   1
   1   9   8 60.4148 21.1747  -3
   1   6  11 60.4148 21.1747  -2
  -1   7  11 60.4148 21.1747   1
   0  10   8 -21.781 17.7322  -3
   0   7  11 -21.781 17.7322  -2
   0   7  11 -21.781 17.7322   1
   1   7  11 527.003 21.3586   1
   2   7  11 -3.9609 6.22781   1
   3   7  11 790.294 39.9394   1
  -4   9  12 -4.9897 10.3096  -2
   4   7  11 -4.9897 10.3096   1
   6   5  10 262.201 22.1690  -2
  -6   8  11 262.201 22.1690   1
  -4   8  11 8.04637 4.51447   1
  -3   8  11 351.789 15.6717   1
  -2   8  11 478.861 19.7510   1
   1   8  11 217.176 11.0292   1
   2   8  11 25.9630 4.14225   1
  -3   9  12 509.338 35.7191  -2
   3   8  11 509.338 35.7191   1
  -5   9  11 7.45856 6.51711   1
   3  11   5 88.0838 20.0494  -3
   4   7  10 88.0838 20.0494  -2
  -4   9  11 88.0838 20.0494   1
   2  11   6 151.380 18.6576  -3
  -3   9  11 151.380 18.6576   1
  -2   9  11 423.471 17.9950   1
   1   8  11 2.88989 15.6728  -2
  -1   9  11 2.88989 15.6728   1
  -1  12   7 133.800 19.6588  -3
   0   9  11 133.800 19.6588  -2
   0   9  11 133.800 19.6588   1
  -2  12   8 160.788 20.7094  -3
   1   9  11 160.788 20.7094   1
  -4  10  11 54.9783 11.4436   1
  -2  10  11 191.562 10.9614   1
  -1  10  11 -1.1233 4.97855   1
   5  -6  13 82.2828 7.16236  -3
  -1  -9  12 82.2828 7.16236   1
   4  -6  13 65.1531 11.7170  -3
   0  -9  12 65.1531 11.7170  -2
   0  -9  12 65.1531 11.7170   1
   3  -5  14 32.5563 13.2850  -3
   1  -9  12 32.5563 13.2850   1
   2  -5  14 434.818 28.6109  -3
  -2  -8  12 434.818 28.6109  -2
   2  -9  12 434.818 28.6109   1
   3  -9  12 44.1032 9.19593   1
   3 -10  11 2.90433 9.51396  -2
  -3  -8  12 2.90433 9.51396   1
   2  -9  12 616.253 34.4775  -2
  -2  -8  12 616.253 34.4775   1
  -1  -8  12 109.389 7.74036   1
  -1  -8  12 -15.184 11.8387  -2
   1  -8  12 -15.184 11.8387   1
   2  -8  12 132.928 22.7390   1
   3  -8  12 77.7269 10.3008   1
   5  -8  12 25.0132 7.07492   1
   8  -5  11 207.133 18.0568  -3
  -5  -7  12 207.133 18.0568   1
   4  -9  11 59.2650 11.4008  -2
  -4  -7  12 59.2650 11.4008   1
   3  -9  11 -1.4466 9.19162  -2
  -3  -7  12 -1.4466 9.19162   1
   2  -8  12 458.338 27.4281  -2
  -2  -7  12 458.338 27.4281   1
  -1  -7  12 354.266 22.1811   1
  -1  -7  12 99.4262 17.0722  -2
   1  -7  12 99.4262 17.0722   1
   2  -7  12 42.3583 7.62059   1
   3  -7  12 14.9648 6.32418   1
   5  -7  12 63.8550 10.8858   1
   9  -4  10 55.6198 12.2145  -3
  -6  -6  12 55.6198 12.2145   1
   8  -4  11 341.587 23.2492  -3
  -5  -6  12 341.587 23.2492   1
   7  -4  11 94.6455 10.8042  -3
   4  -8  11 94.6455 10.8042  -2
  -4  -6  12 94.6455 10.8042   1
   4  -3  12 242.863 13.1990  -3
  -1  -6  12 242.863 13.1990   1
   0  -6  12 301.194 14.1026  -2
   0  -6  12 301.194 14.1026   1
  -1  -6  12 172.217 17.6993  -2
   1  -6  12 172.217 17.6993   1
   2  -6  12 131.234 12.7321   1
   0  -2  14 20.0616 16.3870  -3
   3  -6  12 20.0616 16.3870   1
   9  -3  10 65.0395 10.3046  -3
   6  -8  11 65.0395 10.3046  -2
  -6  -5  12 65.0395 10.3046   1
   8  -3  10 475.322 20.0464  -3
  -5  -5  12 475.322 20.0464   1
   6  -3  11 104.914 11.3990  -3
   3  -7  11 104.914 11.3990  -2
  -3  -5  12 104.914 11.3990   1
  -2  -5  12 80.3229 9.41598   1
   4  -2  12 417.463 24.3412  -3
  -1  -5  12 417.463 24.3412   1
   3  -2  12 246.120 13.9520  -3
   0  -5  12 246.120 13.9520  -2
   0  -5  12 246.120 13.9520   1
  -1  -5  12 923.788 35.2462  -2
   1  -5  12 923.788 35.2462   1
   1  -1  13 163.151 16.6249  -3
   2  -5  12 163.151 16.6249   1
   3  -5  12 65.3515 7.30162   1
  -1  -1  14 639.433 27.8005  -3
  -4  -3  13 639.433 27.8005  -2
   4  -5  12 639.433 27.8005   1
   5  -5  12 239.653 18.1311   1
   7  -8  10 222.576 20.7306  -2
  -7  -4  12 222.576 20.7306   1
   6  -7  11 72.8820 8.90040  -2
  -6  -4  12 72.8820 8.90040   1
  -5  -4  12 732.409 41.1764   1
   4  -6  11 78.2997 13.2822  -2
  -4  -4  12 78.2997 13.2822   1
   3  -6  11 940.651 48.6784  -2
  -3  -4  12 940.651 48.6784   1
   5  -1  11 159.162 15.6703  -3
  -2  -4  12 159.162 15.6703   1
  -1  -4  12 241.196 11.1316   1
  -1  -4  12 829.917 47.3672  -2
   1  -4  12 829.917 47.3672   1
   2  -4  12 14.1998 4.16179   1
   0   0  13 179.007 12.3478  -3
   3  -4  12 179.007 12.3478   1
  -4  -2  13 49.8604 14.8537  -2
   4  -4  12 49.8604 14.8537   1
  -8  -3  12 190.033 10.3158   1
  -7  -3  12 116.058 10.9508   1
   7  -1  10 578.362 34.8226  -3
  -5  -3  12 578.362 34.8226   1
   4  -5  11 213.548 17.0270  -2
  -4  -3  12 213.548 17.0270   1
   3  -5  11 140.814 11.0541  -2
  -3  -3  12 140.814 11.0541   1
  -2  -3  12 48.1280 6.33466   1
  -1  -3  12 519.218 20.4393   1
   0  -3  12 58.8303 7.98747  -2
   0  -3  12 58.8303 7.98747   1
  -1  -3  12 1952.47 70.7731  -2
   1  -3  12 1952.47 70.7731   1
   2  -3  12 57.7837 6.67219   1
   3  -3  12 698.325 26.8015   1
  -4  -1  13 204.314 17.7155  -2
   4  -3  12 204.314 17.7155   1
  -5  -1  13 406.287 20.4024  -2
   5  -3  12 406.287 20.4024   1
  -7  -2  12 11.8286 4.30702   1
   5  -5  11 1080.66 60.2833  -2
  -5  -2  12 1080.66 60.2833   1
   7   0  10 965.803 51.3570  -3
   5  -5  11 965.803 51.3570  -2
  -5  -2  12 965.803 51.3570   1
   6   0  10 424.307 19.3336  -3
   4  -4  11 424.307 19.3336  -2
  -4  -2  12 424.307 19.3336   1
  -3  -2  12 450.098 18.1804   1
  -2  -2  12 275.975 12.4104   1
   3   1  11 220.685 17.7316  -3
  -1  -2  12 220.685 17.7316   1
   0  -2  12 112.284 9.05964  -2
   0  -2  12 112.284 9.05964   1
   2  -2  12 348.854 14.9845   1
   3  -2  12 288.344 13.7833   1
  -4   0  13 -10.179 10.5117  -2
   4  -2  12 -10.179 10.5117   1
  -5   0  13 115.320 11.7704  -2
   5  -2  12 115.320 11.7704   1
  10   0   8 403.229 26.2507  -3
  -8  -1  12 403.229 26.2507   1
   6  -4  11 110.129 13.4783  -2
  -6  -1  12 110.129 13.4783   1
   5   1  10 338.620 16.1857  -3
  -3  -1  12 338.620 16.1857   1
   4   2  10 1448.24 79.5138  -3
  -2  -1  12 1448.24 79.5138   1
   1  -1  12 137.751 15.8256  -2
  -1  -1  12 137.751 15.8256   1
   2   2  11 -7.4172 9.18246  -3
   0  -1  12 -7.4172 9.18246  -2
   0  -1  12 -7.4172 9.18246   1
  -1  -1  12 837.276 43.2644  -2
   1  -1  12 837.276 43.2644   1
   0   3  12 339.910 21.5087  -3
   2  -1  12 339.910 21.5087   1
   3  -1  12 369.568 16.2643   1
  -2   3  13 180.452 14.9636  -3
  -4   1  13 180.452 14.9636  -2
   4  -1  12 180.452 14.9636   1
  -5   1  13 165.794 13.0160  -2
   5  -1  12 165.794 13.0160   1
   9  -5  10 -3.4990 13.7614  -2
  -9   0  12 -3.4990 13.7614   1
  -8   0  12 685.236 26.8353   1
  -7   0  12 8.36656 6.32619   1
   6  -3  11 94.1689 9.71593  -2
  -6   0  12 94.1689 9.71593   1
   5  -3  11 302.942 15.5329  -2
  -5   0  12 302.942 15.5329   1
   4  -2  11 409.110 26.8102  -2
  -4   0  12 409.110 26.8102   1
  -3   0  12 499.782 19.9330   1
  -2   0  12 543.398 21.3603   1
   1   0  12 73.9674 13.3050  -2
  -1   0  12 73.9674 13.3050   1
   0   0  12 39.6903 10.5522  -2
   0   0  12 39.6903 10.5522   1
   1   0  12 1122.27 42.0827   1
   2   0  12 192.837 10.2616   1
  -1   4  12 342.732 16.6259  -3
   3   0  12 342.732 16.6259   1
  -4   2  13 666.877 27.3607  -2
   4   0  12 666.877 27.3607   1
  -3   4  13 5.40636 15.6498  -3
  -5   2  13 5.40636 15.6498  -2
   5   0  12 5.40636 15.6498   1
  -5   5  14 460.908 32.2855  -3
   7   0  12 460.908 32.2855   1
  -8   1  12 639.465 25.4382   1
  -7   1  12 30.4431 5.17657   1
   6  -2  11 191.923 12.2057  -2
  -6   1  12 191.923 12.2057   1
   5  -2  11 13.5387 9.96895  -2
  -5   1  12 13.5387 9.96895   1
   4  -1  11 682.054 36.3367  -2
  -4   1  12 682.054 36.3367   1
  -3   1  12 199.652 10.2882   1
  -2   1  12 1272.67 46.6677   1
  -1   1  12 32.8705 5.71472   1
   0   1  12 215.240 12.0337  -2
   0   1  12 215.240 12.0337   1
   1   1  12 281.292 12.9219   1
   2   1  12 257.490 12.1874   1
   3   1  12 378.350 16.3357   1
  -4   3  13 554.525 23.5966  -2
   4   1  12 554.525 23.5966   1
  -5   3  13 38.8481 12.8453  -2
   5   1  12 38.8481 12.8453   1
  -6   4  13 18.0810 15.3491  -2
   6   1  12 18.0810 15.3491   1
   7   1  12 430.738 18.8454   1
  -9   2  12 8.88085 6.67366   1
  -7   2  12 16.4274 5.02133   1
   7   4   8 634.599 26.7472  -3
   6  -1  11 634.599 26.7472  -2
  -6   2  12 634.599 26.7472   1
   5   4   9 400.031 30.9419  -3
   4   0  11 400.031 30.9419  -2
  -4   2  12 400.031 30.9419   1
  -3   2  12 205.388 10.6226   1
  -2   2  12 1023.88 50.9603   1
   0   2  12 244.289 12.8586  -2
   0   2  12 244.289 12.8586   1
   1   2  12 1.18681 3.78637   1
  -1   6  11 430.909 19.3357  -3
   2   2  12 430.909 19.3357   1
   3   2  12 152.625 9.25105   1
  -6   5  13 163.714 19.5288  -2
   6   2  12 163.714 19.5288   1
  -9   3  12 49.8864 10.0573   1
  -8   3  12 232.185 17.8161   1
   8   4   7 173.676 18.2695  -3
  -7   3  12 173.676 18.2695   1
   6   0  11 485.143 20.7908  -2
  -6   3  12 485.143 20.7908   1
   5   5   8 103.560 17.1216  -3
   4   1  11 103.560 17.1216  -2
  -4   3  12 103.560 17.1216   1
   4   5   9 24.6138 12.7455  -3
  -3   3  12 24.6138 12.7455   1
   3   6   9 1613.75 92.4599  -3
  -2   3  12 1613.75 92.4599   1
   1   2  12 52.0755 17.5641  -2
  -1   3  12 52.0755 17.5641   1
   1   6  10 843.207 32.8715  -3
   0   3  12 843.207 32.8715  -2
   0   3  12 843.207 32.8715   1
   1   3  12 84.3392 7.19416   1
   2   3  12 362.549 15.6362   1
  -2   7  11 315.111 15.3783  -3
   3   3  12 315.111 15.3783   1
  -6   6  13 119.801 15.4895  -2
   6   3  12 119.801 15.4895   1
  -5   8  12 130.693 21.3836  -3
  -6   6  13 130.693 21.3836  -2
   6   3  12 130.693 21.3836   1
  -8   4  12 74.1787 12.3534   1
  -7   4  12 299.376 14.8194   1
   6   1  11 632.326 37.9228  -2
  -6   4  12 632.326 37.9228   1
  -4   4  12 47.0359 8.92335   1
  -3   4  12 31.3597 4.70783   1
  -2   4  12 384.110 25.5839   1
   1   3  12 -0.9807 11.5572  -2
  -1   4  12 -0.9807 11.5572   1
   0   4  12 401.034 17.8712  -2
   0   4  12 401.034 17.8712   1
   0   7  10 243.678 17.2556  -3
   1   4  12 243.678 17.2556   1
   2   4  12 -2.3018 3.64807   1
   3   4  12 -5.0174 5.29960   1
  -4   6  13 690.156 27.9073  -2
   4   4  12 690.156 27.9073   1
  -4   8  12 -22.085 20.8794  -3
  -5   6  13 -22.085 20.8794  -2
   5   4  12 -22.085 20.8794   1
  -7   5  12 90.6121 16.6413   1
   6   7   7 191.330 23.2785  -3
   6   2  11 191.330 23.2785  -2
  -6   5  12 191.330 23.2785   1
  -4   5  12 2.87362 4.39311   1
  -3   5  12 199.805 10.8325   1
  -2   5  12 52.6507 5.93935   1
   0   5  12 843.288 32.8762  -2
   0   5  12 843.288 32.8762   1
   1   5  12 253.185 12.0712   1
   2   5  12 46.8405 7.90627   1
   3   5  12 20.4646 4.86314   1
  -4   7  13 343.046 16.9348  -2
   4   5  12 343.046 16.9348   1
  -5   7  13 19.5435 10.5687  -2
   5   5  12 19.5435 10.5687   1
  -4   6  12 -1.6871 5.57705   1
  -3   6  12 2.21612 3.97492   1
   2   9   8 49.5488 13.3317  -3
  -2   6  12 49.5488 13.3317   1
   1   5  12 100.573 10.7701  -2
  -1   6  12 100.573 10.7701   1
   0   9   9 384.836 29.6424  -3
   0   6  12 384.836 29.6424  -2
   0   6  12 384.836 29.6424   1
   1   6  12 463.849 19.4623   1
  -2  10  10 -10.973 11.1001  -3
   2   6  12 -10.973 11.1001   1
  -3   7  13 41.3471 18.3158  -2
   3   6  12 41.3471 18.3158   1
  -4  10  11 12.1888 9.92383  -3
   4   6  12 12.1888 9.92383   1
  -3   7  12 199.821 16.9077   1
  -2   7  12 34.0246 5.71580   1
   0  10   9 202.935 16.8614  -3
   0   7  12 202.935 16.8614  -2
   0   7  12 202.935 16.8614   1
   1   7  12 411.488 17.5016   1
   2   7  12 6.67838 3.84263   1
  -3  11  10 0.01875 8.82382  -3
   3   7  12 0.01875 8.82382   1
  -3  11  10 8.04161 19.1025  -3
  -3   8  13 8.04161 19.1025  -2
   3   7  12 8.04161 19.1025   1
   6   5  11 90.0601 16.7961  -2
  -6   8  12 90.0601 16.7961   1
  -5   8  12 288.873 21.4687   1
  -4   8  12 4.34029 4.74382   1
  -3   8  12 277.322 13.5444   1
   2  10   8 1.54228 14.2137  -3
  -2   8  12 1.54228 14.2137   1
  -1   8  12 48.7965 8.81196   1
   0   8  12 32.8052 9.28483  -2
   0   8  12 32.8052 9.28483   1
  -1  11   9 561.684 30.5770  -3
   1   8  12 561.684 30.5770   1
  -4   9  12 35.0412 7.66488   1
  -3   9  12 393.248 17.3926   1
  -2   9  12 107.991 8.73430   1
   1   8  12 60.9801 16.6915  -2
  -1   9  12 60.9801 16.6915   1
  -1  -8  13 1.68447 3.81449   1
  -1  -8  13 151.444 16.6567  -2
   1  -8  13 151.444 16.6567   1
  -2  -7  13 399.654 26.6489  -2
   2  -8  13 399.654 26.6489   1
   3  -9  12 35.0607 9.74182  -2
  -3  -7  13 35.0607 9.74182   1
   6  -4  13 624.588 37.0768  -3
  -2  -7  13 624.588 37.0768   1
   2  -8  13 533.099 30.8410  -2
  -2  -7  13 533.099 30.8410   1
   5  -4  13 97.7853 17.6688  -3
  -1  -7  13 97.7853 17.6688   1
   0  -7  13 172.115 16.5914  -2
   0  -7  13 172.115 16.5914   1
  -1  -7  13 10.7301 10.6060  -2
   1  -7  13 10.7301 10.6060   1
  -2  -6  13 479.140 30.4616  -2
   2  -7  13 479.140 30.4616   1
   3  -7  13 68.2899 13.2936   1
   4  -7  13 177.204 14.8222   1
   4  -8  12 111.507 12.5130  -2
  -4  -6  13 111.507 12.5130   1
   7  -3  12 123.229 19.2329  -3
   4  -8  12 123.229 19.2329  -2
  -4  -6  13 123.229 19.2329   1
   3  -8  12 12.2498 15.0227  -2
  -3  -6  13 12.2498 15.0227   1
   2  -7  13 632.930 34.9077  -2
  -2  -6  13 632.930 34.9077   1
  -1  -6  13 46.7612 9.80122   1
   3  -6  13 24.4909 5.31601   1
   5  -6  13 42.2373 12.5669   1
   8  -3  11 275.421 13.6390  -3
  -5  -5  13 275.421 13.6390   1
   4  -7  12 36.1163 11.3544  -2
  -4  -5  13 36.1163 11.3544   1
  -1  -5  13 417.918 25.2277   1
   0  -5  13 281.519 19.4806  -2
   0  -5  13 281.519 19.4806   1
  -1  -5  13 155.614 12.3837  -2
   1  -5  13 155.614 12.3837   1
   1  -1  14 140.641 15.6026  -3
   2  -5  13 140.641 15.6026   1
   3  -5  13 0.95157 6.37428   1
   6  -7  12 131.003 10.3309  -2
  -6  -4  13 131.003 10.3309   1
   8  -2  11 544.393 31.0482  -3
  -5  -4  13 544.393 31.0482   1
  -1  -4  13 293.513 13.2406   1
   3   0  13 278.754 23.1411  -3
   0  -4  13 278.754 23.1411  -2
   0  -4  13 278.754 23.1411   1
   2  -4  13 4.52101 4.28317   1
   0   0  14 -18.572 12.5756  -3
   3  -4  13 -18.572 12.5756   1
   6  -6  12 23.1344 8.87851  -2
  -6  -3  13 23.1344 8.87851   1
   5  -6  12 709.200 38.7885  -2
  -5  -3  13 709.200 38.7885   1
  -3  -3  13 55.0621 9.52284   1
  -2  -3  13 153.657 8.97458   1
   4   0  12 412.012 25.5677  -3
  -1  -3  13 412.012 25.5677   1
   0  -3  13 203.014 17.1542  -2
   0  -3  13 203.014 17.1542   1
  -1  -3  13 1020.31 38.8414  -2
   1  -3  13 1020.31 38.8414   1
   2  -3  13 40.2747 5.26080   1
   3  -3  13 -6.0115 5.50623   1
  -7  -2  13 232.042 11.5229   1
   8   0  10 103.926 11.8433  -3
   6  -5  12 103.926 11.8433  -2
  -6  -2  13 103.926 11.8433   1
  -5  -2  13 656.448 34.6933   1
   4  -4  12 144.180 10.9788  -2
  -4  -2  13 144.180 10.9788   1
   5   1  11 159.653 16.7870  -3
  -3  -2  13 159.653 16.7870   1
  -2  -2  13 106.656 7.84100   1
   3   1  12 127.824 17.1062  -3
  -1  -2  13 127.824 17.1062   1
   0  -2  13 186.701 11.7835  -2
   0  -2  13 186.701 11.7835   1
   2  -2  13 -0.4214 5.13610   1
   3  -2  13 44.7434 9.02521   1
  -6   1  14 220.038 22.4451  -2
   6  -2  13 220.038 22.4451   1
   4  -3  12 442.906 28.7514  -2
  -4  -1  13 442.906 28.7514   1
   5   2  11 348.863 25.1916  -3
  -3  -1  13 348.863 25.1916   1
   4   2  11 32.3774 9.07683  -3
  -2  -1  13 32.3774 9.07683   1
  -1  -1  13 349.144 15.1314   1
  -1  -1  13 1183.08 59.4701  -2
   1  -1  13 1183.08 59.4701   1
   0   3  13 -7.4648 10.5837  -3
   2  -1  13 -7.4648 10.5837   1
   3  -1  13 82.1901 8.04244   1
  -6   2  14 128.897 13.5192  -2
   6  -1  13 128.897 13.5192   1
  -8   0  13 322.316 14.9461   1
  -7   0  13 111.205 8.50088   1
   5  -3  12 755.246 44.6936  -2
  -5   0  13 755.246 44.6936   1
   6   2  10 164.225 21.2593  -3
   4  -2  12 164.225 21.2593  -2
  -4   0  13 164.225 21.2593   1
   6   2  10 88.2202 13.8609  -3
  -4   0  13 88.2202 13.8609   1
  -3   0  13 314.474 14.1210   1
   3   3  11 249.385 18.2016  -3
  -1   0  13 249.385 18.2016   1
   1   0  13 568.303 29.8982   1
   2   0  13 464.106 19.8574   1
  -1   4  13 382.152 18.0533  -3
   3   0  13 382.152 18.0533   1
  -4   5  14 -15.739 17.5550  -3
  -6   3  14 -15.739 17.5550  -2
   6   0  13 -15.739 17.5550   1
  -8   1  13 254.963 13.1489   1
  -7   1  13 22.2906 5.09973   1
   5  -2  12 266.637 15.2810  -2
  -5   1  13 266.637 15.2810   1
   4  -1  12 227.221 21.2198  -2
  -4   1  13 227.221 21.2198   1
  -3   1  13 154.537 9.58085   1
  -2   1  13 699.448 35.8836   1
  -1   1  13 146.869 11.6138   1
   0   1  13 -3.5302 10.5969  -2
   0   1  13 -3.5302 10.5969   1
   1   1  13 648.982 25.6529   1
   2   1  13 9.30441 4.10586   1
   3   1  13 357.777 15.8919   1
  -5   3  14 183.210 13.4449  -2
   5   1  13 183.210 13.4449   1
  -4   6  14 -9.5301 22.9661  -3
  -6   4  14 -9.5301 22.9661  -2
   6   1  13 -9.5301 22.9661   1
  -8   2  13 450.951 19.8777   1
  -7   2  13 2.32827 5.21797   1
   5  -1  12 188.304 21.0557  -2
  -5   2  13 188.304 21.0557   1
  -4   2  13 123.454 11.3146   1
   4   5  10 208.762 18.3880  -3
  -3   2  13 208.762 18.3880   1
  -2   2  13 336.626 19.3854   1
  -1   2  13 9.16808 4.96379   1
   1   2  13 228.557 11.4722   1
  -1   6  12 85.6232 10.8810  -3
   2   2  13 85.6232 10.8810   1
   3   2  13 176.069 11.2785   1
  -8   3  13 371.047 24.5490   1
  -4   3  13 410.421 23.3327   1
  -3   3  13 292.959 17.9415   1
   3   6  10 532.750 28.9258  -3
  -2   3  13 532.750 28.9258   1
   0   3  13 240.606 22.2893  -2
   0   3  13 240.606 22.2893   1
   0   7  11 212.846 17.8420  -3
   1   3  13 212.846 17.8420   1
   2   3  13 120.785 14.5797   1
  -4   5  14 264.111 18.4290  -2
   4   3  13 264.111 18.4290   1
  -5   5  14 10.9541 17.3128  -2
   5   3  13 10.9541 17.3128   1
  -7   4  13 21.2077 6.52982   1
  -3   4  13 284.486 17.6002   1
  -2   4  13 715.087 28.0532   1
   0   4  13 96.6667 18.3146  -2
   0   4  13 96.6667 18.3146   1
   1   4  13 31.0131 5.05254   1
   2   4  13 155.708 11.7964   1
  -2   8  12 205.677 18.0185  -3
   3   4  13 205.677 18.0185   1
  -2   8  12 274.208 20.2595  -3
  -3   5  14 274.208 20.2595  -2
   3   4  13 274.208 20.2595   1
  -4   6  14 355.756 22.1022  -2
   4   4  13 355.756 22.1022   1
  -3   9  12 431.616 34.9585  -3
  -4   6  14 431.616 34.9585  -2
   4   4  13 431.616 34.9585   1
  -4   5  13 41.7019 10.2977   1
  -3   5  13 22.5238 8.50627   1
  -2   5  13 1170.55 44.5823   1
   1   4  13 33.4961 17.9821  -2
  -1   5  13 33.4961 17.9821   1
   1   5  13 1.70902 4.07092   1
  -1   9  11 116.827 19.2819  -3
   2   5  13 116.827 19.2819   1
   3   5  13 256.899 12.4143   1
  -4   6  13 25.4986 6.72898   1
  -3   6  13 -1.4044 4.67790   1
  -2   6  13 671.211 34.7975   1
   1   9  10 34.0583 14.8176  -3
   1   5  13 34.0583 14.8176  -2
  -1   6  13 34.0583 14.8176   1
   0   6  13 235.056 13.5855  -2
   0   6  13 235.056 13.5855   1
   1   6  13 194.327 10.7104   1
  -2  10  11 48.1317 11.8875  -3
   2   6  13 48.1317 11.8875   1
  -4   7  13 2.92100 6.37500   1
  -3   7  13 41.1027 8.44599   1
   2  10   9 165.016 19.4192  -3
  -2   7  13 165.016 19.4192   1
   0   7  13 831.538 50.7549  -2
   0   7  13 831.538 50.7549   1
   0  10  10 916.885 47.5225  -3
   0   7  13 916.885 47.5225  -2
   0   7  13 916.885 47.5225   1
   1   7  13 69.3658 7.15203   1
  -2   8  13 4.96124 4.31037   1
  -2  -6  14 242.549 11.7736   1
  -1  -6  14 -0.3509 4.09789   1
   0  -6  14 47.7682 13.6195  -2
   0  -6  14 47.7682 13.6195   1
  -2  -5  14 186.395 20.2385  -2
   2  -6  14 186.395 20.2385   1
   2  -2  15 164.973 21.0584  -3
   2  -6  14 164.973 21.0584   1
   3  -6  14 31.4991 5.95124   1
  -2  -5  14 698.255 39.6565   1
  -1  -5  14 12.5704 6.42604   1
   3  -1  14 79.7990 15.8506  -3
   0  -5  14 79.7990 15.8506  -2
   0  -5  14 79.7990 15.8506   1
  -1  -5  14 46.8482 8.72060  -2
   1  -5  14 46.8482 8.72060   1
   2  -5  14 365.178 16.1604   1
   3  -5  14 204.006 15.9212   1
   4  -5  14 294.824 20.2626   1
   7  -1  12 75.5043 14.8074  -3
   4  -6  13 75.5043 14.8074  -2
  -4  -4  14 75.5043 14.8074   1
   5  -1  13 393.041 22.4254  -3
  -2  -4  14 393.041 22.4254   1
  -1  -4  14 68.9070 7.54627   1
   3   0  14 133.959 17.7351  -3
   0  -4  14 133.959 17.7351  -2
   0  -4  14 133.959 17.7351   1
   2  -4  14 379.901 22.3847   1
   3  -4  14 17.8728 6.74255   1
  -4  -2  15 616.407 35.2553  -2
   4  -4  14 616.407 35.2553   1
   8  -1  11 189.781 19.6650  -3
  -5  -3  14 189.781 19.6650   1
   4  -5  13 111.505 10.4341  -2
  -4  -3  14 111.505 10.4341   1
  -2  -3  14 956.105 36.0427   1
  -1  -3  14 304.291 21.7130   1
   0  -3  14 163.274 17.6022  -2
   0  -3  14 163.274 17.6022   1
   3  -3  14 -3.6349 5.83414   1
  -4  -1  15 615.318 34.9396  -2
   4  -3  14 615.318 34.9396   1
   5  -3  14 35.3036 8.04111   1
   8   0  11 80.2660 15.4536  -3
  -6  -2  14 80.2660 15.4536   1
   5  -5  13 257.488 14.8396  -2
  -5  -2  14 257.488 14.8396   1
   4  -4  13 48.5773 13.0737  -2
  -4  -2  14 48.5773 13.0737   1
  -3  -2  14 -2.0008 4.17114   1
  -2  -2  14 265.917 12.7871   1
  -1  -2  14 512.102 31.1845   1
   1  -2  14 102.857 16.0259   1
   2  -2  14 23.0888 6.18041   1
   3  -2  14 13.3903 6.20475   1
   5  -2  14 183.640 15.1036   1
   7   1  11 580.424 34.5210  -3
   5  -4  13 580.424 34.5210  -2
  -5  -1  14 580.424 34.5210   1
   4   2  12 149.250 19.9126  -3
  -2  -1  14 149.250 19.9126   1
  -1  -1  14 404.741 24.5199   1
   2  -1  14 185.088 13.4518   1
   3  -1  14 2.42357 5.53502   1
  -3   4  15 261.083 21.2292  -3
   5  -1  14 261.083 21.2292   1
   8   2  10 25.0115 15.6312  -3
   6  -3  13 25.0115 15.6312  -2
  -6   0  14 25.0115 15.6312   1
   5  -3  13 769.290 41.6156  -2
  -5   0  14 769.290 41.6156   1
  -3   0  14 183.236 10.9380   1
  -1   0  14 245.261 15.8515   1
   2   0  14 -3.3586 4.66133   1
  -1   4  14 69.6146 14.6528  -3
   3   0  14 69.6146 14.6528   1
  -4   2  15 129.929 15.2663  -2
   4   0  14 129.929 15.2663   1
   6  -2  13 51.3942 11.0492  -2
  -6   1  14 51.3942 11.0492   1
  -4   1  14 190.601 14.1967   1
  -2   1  14 2.36452 7.28426   1
   1   1  14 1204.87 59.4488   1
   3   1  14 76.2645 8.44614   1
  -2   6  14 102.345 26.9582  -3
  -4   3  15 102.345 26.9582  -2
   4   1  14 102.345 26.9582   1
  -4   3  15 77.6482 13.3796  -2
   4   1  14 77.6482 13.3796   1
  -4   2  14 79.3669 10.6376   1
  -3   2  14 304.345 18.5258   1
  -2   2  14 266.773 18.3071   1
  -1   2  14 148.850 13.3310   1
   1   2  14 541.522 28.6127   1
   2   2  14 161.081 10.6067   1
   3   2  14 322.206 14.9682   1
   4   2  14 6.75757 4.43502   1
   6   0  13 138.841 17.2424  -2
  -6   3  14 138.841 17.2424   1
  -3   3  14 352.220 20.5760   1
   2   6  12 79.5540 16.3652  -3
   1   2  14 79.5540 16.3652  -2
  -1   3  14 79.5540 16.3652   1
   1   3  14 393.739 21.9806   1
   2   3  14 80.9538 7.89506   1
  -2   8  13 265.763 19.3283  -3
   3   3  14 265.763 19.3283   1
   7   6   9 48.7295 16.8876  -3
   6   1  13 48.7295 16.8876  -2
  -6   4  14 48.7295 16.8876   1
   5   1  13 211.839 19.6565  -2
  -5   4  14 211.839 19.6565   1
   4   7  10 44.9108 13.7103  -3
  -3   4  14 44.9108 13.7103   1
   1   3  14 7.53158 13.2249  -2
  -1   4  14 7.53158 13.2249   1
   0   4  14 59.2911 12.0233  -2
   0   4  14 59.2911 12.0233   1
   0   8  12 308.251 15.7187  -3
   1   4  14 308.251 15.7187   1
   2   4  14 139.926 9.25353   1
  -4   5  14 356.822 21.6873   1
  -3   5  14 87.8305 10.5319   1
  -2   5  14 242.357 16.0282   1
   2   8  11 -9.0005 16.3179  -3
   1   4  14 -9.0005 16.3179  -2
  -1   5  14 -9.0005 16.3179   1
   0   5  14 86.0545 10.5536  -2
   0   5  14 86.0545 10.5536   1
   1   5  14 151.875 9.61620   1
  -4   6  14 120.998 12.3786   1
  -3   6  14 26.9624 6.51537   1
  -2   6  14 301.008 14.5114   1
   1   5  14 32.5267 10.3888  -2
  -1   6  14 32.5267 10.3888   1
   0   6  14 69.3493 10.3626  -2
   0   6  14 69.3493 10.3626   1
  -2  -4  15 159.786 9.75179   1
   4   0  14 2.42680 15.9456  -3
  -1  -4  15 2.42680 15.9456   1
   0  -4  15 59.9542 13.6918  -2
   0  -4  15 59.9542 13.6918   1
   2   0  15 149.600 19.2341  -3
  -1  -4  15 149.600 19.2341  -2
   1  -4  15 149.600 19.2341   1
   2  -4  15 330.927 20.2641   1
   6   0  13 -6.6843 11.3060  -3
  -3  -3  15 -6.6843 11.3060   1
  -2  -3  15 439.513 18.3918   1
   4   1  14 -6.1228 13.1203  -3
  -1  -3  15 -6.1228 13.1203   1
   0  -3  15 40.1478 12.6014  -2
   0  -3  15 40.1478 12.6014   1
   1   1  15 292.246 22.7807  -3
   2  -3  15 292.246 22.7807   1
   4  -4  14 139.016 11.7229  -2
  -4  -2  15 139.016 11.7229   1
  -3  -2  15 -0.3824 7.66582   1
   5   1  13 547.227 31.8610  -3
  -2  -2  15 547.227 31.8610   1
  -1  -2  15 100.393 10.8947   1
   1  -2  15 6.24426 5.62896   1
   2  -2  15 361.229 21.0900   1
   3  -2  15 16.1511 6.31186   1
  -4  -1  15 16.0752 6.16405   1
  -3  -1  15 12.1858 5.14456   1
  -2  -1  15 612.045 32.1799   1
  -1  -1  15 59.3911 9.61449   1
   2   3  14 184.591 18.4754  -3
   0  -1  15 184.591 18.4754  -2
   0  -1  15 184.591 18.4754   1
   1  -1  15 45.6034 8.85901   1
   2  -1  15 110.431 10.8648   1
   6   3  12 13.0003 11.2798  -3
  -4   0  15 13.0003 11.2798   1
  -3   0  15 31.4491 6.07586   1
  -2   0  15 72.2687 10.0159   1
   2   0  15 25.6181 6.23072   1
  -4   1  15 3.09285 5.43671   1
   5   4  12 40.4521 11.8141  -3
  -3   1  15 40.4521 11.8141   1
  -2   1  15 93.6856 10.3577   1
   1   1  15 235.178 15.3016   1
   0   5  14 -10.450 12.7240  -3
   2   1  15 -10.450 12.7240   1
  -4   2  15 25.6279 6.85060   1
  -3   2  15 8.51360 5.60363   1
   4   5  12 4.34357 14.4948  -3
  -2   2  15 4.34357 14.4948   1
  -1   2  15 151.807 12.0393   1
   0   2  15 15.1062 11.6928  -2
   0   2  15 15.1062 11.6928   1
   1   2  15 433.337 23.8074   1
   0   6  14 -3.4664 13.8916  -3
   2   2  15 -3.4664 13.8916   1
  -4   3  15 174.782 13.9590   1
  -3   3  15 56.2014 9.74280   1
   1   2  15 138.428 15.8881  -2
  -1   3  15 138.428 15.8881   1
   1   3  15 365.459 20.7970   1
  -3   4  15 124.178 11.8760   1
  -2   4  15 28.8414 6.25358   1
   1   3  15 76.6602 14.5200  -2
  -1   4  15 76.6602 14.5200   1
   0   0   0    0.00    0.00   0
;
_shelx_hkl_checksum              7709
loop_
_space_group_symop_operation_xyz
'x, y, z'
'-x, -y, -z'
loop_
_atom_site_label
_atom_site_type_symbol
_atom_site_fract_x
_atom_site_fract_y
_atom_site_fract_z
_atom_site_U_iso_or_equiv
_atom_site_adp_type
_atom_site_occupancy
_atom_site_site_symmetry_order
_atom_site_calc_flag
_atom_site_refinement_flags_posn
_atom_site_refinement_flags_adp
I1 I 0.76084(4) 0.45670(3) 0.59302(3) 0.01172(11) Uani 1 1 d . .
Cu1 Cu 0.42596(8) 0.44543(7) 0.61832(6) 0.01147(14) Uani 1 1 d . .
Cl2 Cl -0.1770(2) -0.0244(2) 0.7113(2) 0.0378(4) Uani 1 1 d . .
Cl1 Cl 0.0342(2) 0.7124(2) 0.99399(19) 0.0381(4) Uani 1 1 d . .
N2 N 0.3014(6) 0.2132(5) 0.6423(4) 0.0115(7) Uani 1 1 d . .
N1 N 0.4100(5) 0.5803(5) 0.7968(4) 0.0112(7) Uani 1 1 d . .
C6 C 0.1295(6) 0.1732(6) 0.6646(5) 0.0126(9) Uani 1 1 d . .
H6A H 0.0657 0.2543 0.6707 0.015 Uiso 1 1 calc R U
C7 C 0.0422(6) 0.0173(6) 0.6789(5) 0.0122(9) Uani 1 1 d . .
C8 C 0.1304(7) -0.1018(6) 0.6670(5) 0.0149(9) Uani 1 1 d . .
H8A H 0.0708 -0.2094 0.6732 0.018 Uiso 1 1 calc R U
C10 C 0.3883(7) 0.0957(6) 0.6354(5) 0.0144(9) Uani 1 1 d . .
H10A H 0.5108 0.1228 0.6227 0.017 Uiso 1 1 calc R U
C4 C 0.5509(7) 0.7491(7) 0.9929(6) 0.0186(10) Uani 1 1 d . .
H4A H 0.6571 0.8011 1.0453 0.022 Uiso 1 1 calc R U
C9 C 0.3084(7) -0.0623(6) 0.6459(6) 0.0153(9) Uani 1 1 d . .
H9A H 0.3740 -0.1419 0.6387 0.018 Uiso 1 1 calc R U
C1 C 0.2529(6) 0.5981(6) 0.8357(5) 0.0129(9) Uani 1 1 d . .
H1A H 0.1483 0.5455 0.7816 0.016 Uiso 1 1 calc R U
C5 C 0.5555(7) 0.6547(6) 0.8756(5) 0.0155(9) Uani 1 1 d . .
H5A H 0.6667 0.6416 0.8493 0.019 Uiso 1 1 calc R U
C3 C 0.3880(7) 0.7675(7) 1.0338(6) 0.0183(10) Uani 1 1 d . .
H3A H 0.3802 0.8306 1.1151 0.022 Uiso 1 1 calc R U
C2 C 0.2403(7) 0.6914(6) 0.9529(5) 0.0148(9) Uani 1 1 d . .
loop_
_atom_site_aniso_label
_atom_site_aniso_U_11
_atom_site_aniso_U_22
_atom_site_aniso_U_33
_atom_site_aniso_U_23
_atom_site_aniso_U_13
_atom_site_aniso_U_12
I1 0.00780(16) 0.01330(17) 0.01471(17) 0.00011(10) -0.00019(11) 0.00411(11)
Cu1 0.0098(3) 0.0106(3) 0.0140(3) -0.0010(2) 0.0008(2) 0.0025(2)
Cl2 0.0343(9) 0.0357(9) 0.0425(9) 0.0012(7) 0.0012(7) 0.0068(7)
Cl1 0.0336(9) 0.0463(10) 0.0364(9) -0.0038(7) 0.0042(7) 0.0127(7)
N2 0.0136(19) 0.0114(18) 0.0097(17) -0.0001(14) -0.0002(14) 0.0037(15)
N1 0.0115(19) 0.0101(18) 0.0125(18) 0.0004(14) 0.0010(15) 0.0036(15)
C6 0.013(2) 0.011(2) 0.014(2) -0.0024(16) -0.0010(17) 0.0038(17)
C7 0.010(2) 0.013(2) 0.012(2) 0.0029(16) 0.0016(17) -0.0003(17)
C8 0.018(2) 0.011(2) 0.015(2) 0.0011(16) -0.0026(18) 0.0017(19)
C10 0.017(2) 0.013(2) 0.014(2) 0.0005(17) 0.0003(18) 0.0054(19)
C4 0.013(2) 0.023(3) 0.018(2) -0.004(2) -0.0028(19) 0.002(2)
C9 0.016(2) 0.012(2) 0.020(2) 0.0007(17) 0.0027(18) 0.0067(19)
C1 0.012(2) 0.013(2) 0.015(2) 0.0003(17) 0.0025(17) 0.0034(17)
C5 0.012(2) 0.018(2) 0.016(2) -0.0001(18) -0.0001(18) 0.0037(19)
C3 0.016(2) 0.024(3) 0.016(2) -0.0039(19) -0.0004(19) 0.007(2)
C2 0.014(2) 0.019(2) 0.014(2) 0.0009(18) 0.0030(18) 0.0088(19)
loop_
_atom_type_symbol
_atom_type_description
_atom_type_scat_dispersion_real
_atom_type_scat_dispersion_imag
_atom_type_scat_source
C C 0.0040 0.0020
'XDISP Program in WinGX L.Kissel & R.H.Pratt Acta Cryst A46 170 1990'
H H 0.0000 0.0000
'XDISP Program in WinGX L.Kissel & R.H.Pratt Acta Cryst A46 170 1990'
N N 0.0076 0.0040
'XDISP Program in WinGX L.Kissel & R.H.Pratt Acta Cryst A46 170 1990'
Cl Cl 0.1697 0.1896
'XDISP Program in WinGX L.Kissel & R.H.Pratt Acta Cryst A46 170 1990'
Cu Cu 0.2913 1.4803
'XDISP Program in WinGX L.Kissel & R.H.Pratt Acta Cryst A46 170 1990'
I I -0.3071 2.1212
'XDISP Program in WinGX L.Kissel & R.H.Pratt Acta Cryst A46 170 1990'
loop_
_geom_angle_atom_site_label_1
_geom_angle_atom_site_label_2
_geom_angle_atom_site_label_3
_geom_angle
_geom_angle_site_symmetry_1
_geom_angle_site_symmetry_3
Cu1 I1 Cu1 61.30(2) . 2_666
N2 Cu1 N1 110.33(16) . .
N2 Cu1 I1 108.13(12) . .
N1 Cu1 I1 107.35(12) . .
N2 Cu1 I1 104.86(11) . 2_666
N1 Cu1 I1 107.36(11) . 2_666
I1 Cu1 I1 118.69(2) . 2_666
N2 Cu1 Cu1 123.80(12) . 2_666
N1 Cu1 Cu1 125.81(12) . 2_666
I1 Cu1 Cu1 59.85(2) . 2_666
I1 Cu1 Cu1 58.85(2) 2_666 2_666
C6 N2 C10 117.5(4) . .
C6 N2 Cu1 121.1(3) . .
C10 N2 Cu1 121.4(3) . .
C5 N1 C1 118.1(4) . .
C5 N1 Cu1 121.1(3) . .
C1 N1 Cu1 120.8(3) . .
N2 C6 C7 122.1(4) . .
N2 C6 H6A 119.0 . .
C7 C6 H6A 119.0 . .
C8 C7 C6 119.9(5) . .
C8 C7 Cl2 120.6(4) . .
C6 C7 Cl2 119.4(4) . .
C7 C8 C9 118.6(4) . .
C7 C8 H8A 120.7 . .
C9 C8 H8A 120.7 . .
N2 C10 C9 123.3(5) . .
N2 C10 H10A 118.3 . .
C9 C10 H10A 118.3 . .
C5 C4 C3 119.1(5) . .
C5 C4 H4A 120.5 . .
C3 C4 H4A 120.5 . .
C10 C9 C8 118.5(5) . .
C10 C9 H9A 120.8 . .
C8 C9 H9A 120.8 . .
N1 C1 C2 121.5(5) . .
N1 C1 H1A 119.3 . .
C2 C1 H1A 119.3 . .
N1 C5 C4 122.9(5) . .
N1 C5 H5A 118.5 . .
C4 C5 H5A 118.5 . .
C2 C3 C4 117.6(5) . .
C2 C3 H3A 121.2 . .
C4 C3 H3A 121.2 . .
C3 C2 C1 120.8(5) . .
C3 C2 Cl1 120.4(4) . .
C1 C2 Cl1 118.8(4) . .
loop_
_geom_bond_atom_site_label_1
_geom_bond_atom_site_label_2
_geom_bond_distance
_geom_bond_site_symmetry_2
I1 Cu1 2.6219(7) .
I1 Cu1 2.6490(7) 2_666
Cu1 N2 2.056(4) .
Cu1 N1 2.066(4) .
Cu1 I1 2.6490(7) 2_666
Cu1 Cu1 2.6873(12) 2_666
Cl2 C7 1.719(5) .
Cl1 C2 1.729(5) .
N2 C6 1.343(6) .
N2 C10 1.344(6) .
N1 C5 1.341(6) .
N1 C1 1.346(6) .
C6 C7 1.385(7) .
C6 H6A 0.9500 .
C7 C8 1.368(7) .
C8 C9 1.386(7) .
C8 H8A 0.9500 .
C10 C9 1.381(7) .
C10 H10A 0.9500 .
C4 C5 1.377(7) .
C4 C3 1.397(7) .
C4 H4A 0.9500 .
C9 H9A 0.9500 .
C1 C2 1.385(7) .
C1 H1A 0.9500 .
C5 H5A 0.9500 .
C3 C2 1.367(7) .
C3 H3A 0.9500 .
