#------------------------------------------------------------------------------
#$Date: 2015-11-06 06:46:49 +0200 (Fri, 06 Nov 2015) $
#$Revision: 170074 $
#$URL: svn://www.crystallography.net/cod/cif/4/12/47/4124718.cif $
#------------------------------------------------------------------------------
#
# This file is available in the Crystallography Open Database (COD),
# http://www.crystallography.net/
#
# All data on this site have been placed in the public domain by the
# contributors.
#
data_4124718
loop_
_publ_author_name
'See, Yi Yang'
'Herrmann, Aaron T.'
'Aihara, Yoshinori'
'Baran, Phil S.'
_publ_section_title
;
 Scalable C-H Oxidation with Copper: Synthesis of Polyoxypregnanes.
;
_journal_issue                   43
_journal_name_full               'Journal of the American Chemical Society'
_journal_page_first              13776
_journal_page_last               13779
_journal_paper_doi               10.1021/jacs.5b09463
_journal_volume                  137
_journal_year                    2015
_chemical_absolute_configuration ad
_chemical_formula_moiety         'C21 H36 O5, H2 O'
_chemical_formula_sum            'C21 H38 O6'
_chemical_formula_weight         386.51
_space_group_crystal_system      triclinic
_space_group_IT_number           1
_space_group_name_Hall           'P 1'
_space_group_name_H-M_alt        'P 1'
_symmetry_space_group_name_Hall  'P 1'
_symmetry_space_group_name_H-M   'P 1'
_atom_sites_solution_hydrogens   mixed
_audit_creation_date             2015-10-08
_audit_creation_method
;
Olex2 1.2-beta
(compiled 2015.09.30 svn.r3233 for OlexSys, GUI svn.r5103)
;
_cell_angle_alpha                91.304(7)
_cell_angle_beta                 91.320(7)
_cell_angle_gamma                115.381(4)
_cell_formula_units_Z            1
_cell_length_a                   6.2827(6)
_cell_length_b                   7.1127(6)
_cell_length_c                   12.6469(13)
_cell_measurement_temperature    100(2)
_cell_volume                     510.13(9)
_computing_cell_refinement       'SAINT v8.34A (Bruker, 2013)'
_computing_data_collection       'APEX2 v2013.10-0 (Bruker, 2013)'
_computing_data_reduction        'SAINT v8.34A (Bruker, 2013)'
_computing_molecular_graphics    'Olex2 (Dolomanov et al., 2009)'
_computing_publication_material  'Olex2 (Dolomanov et al., 2009)'
_computing_structure_refinement  'ShelXL (Sheldrick, 2015)'
_computing_structure_solution    'XT (Sheldrick, 2008)'
_diffrn_ambient_temperature      100.0
_diffrn_detector                 'Bruker APEX-II CCD'
_diffrn_detector_area_resol_mean 7.9
_diffrn_detector_type            'CCD Area Detector'
_diffrn_measured_fraction_theta_full 0.963
_diffrn_measured_fraction_theta_max 0.956
_diffrn_measurement_device       'Kappa Four-Circle Diffractometer'
_diffrn_measurement_device_type  'Bruker X8 APEX II'
_diffrn_measurement_method       '\w and \f scans'
_diffrn_radiation_monochromator  'Double Bounce Multilayer Mirrors'
_diffrn_radiation_probe          x-ray
_diffrn_radiation_type           CuK\a
_diffrn_radiation_wavelength     1.54178
_diffrn_reflns_av_R_equivalents  0.0433
_diffrn_reflns_av_unetI/netI     0.0598
_diffrn_reflns_laue_measured_fraction_full 0.963
_diffrn_reflns_laue_measured_fraction_max 0.956
_diffrn_reflns_limit_h_max       7
_diffrn_reflns_limit_h_min       -7
_diffrn_reflns_limit_k_max       8
_diffrn_reflns_limit_k_min       -7
_diffrn_reflns_limit_l_max       15
_diffrn_reflns_limit_l_min       -15
_diffrn_reflns_number            6603
_diffrn_reflns_point_group_measured_fraction_full 0.816
_diffrn_reflns_point_group_measured_fraction_max 0.809
_diffrn_reflns_theta_full        67.500
_diffrn_reflns_theta_max         68.034
_diffrn_reflns_theta_min         3.498
_diffrn_source                   'Micro Focus Rotating Anode'
_diffrn_source_type              'Bruker FR-591'
_diffrn_standards_number         0
_exptl_absorpt_coefficient_mu    0.733
_exptl_absorpt_correction_T_max  0.5209
_exptl_absorpt_correction_T_min  0.4278
_exptl_absorpt_process_details
;
SADABS-2014/4 (Bruker,2014/4) was used for absorption correction.
wR2(int) was 0.1047 before and 0.0667 after correction.
The Ratio of minimum to maximum transmission is 0.8213.
The \l/2 correction factor is 0.00150.
;
_exptl_crystal_colour            colourless
_exptl_crystal_colour_primary    colourless
_exptl_crystal_density_diffrn    1.258
_exptl_crystal_description       irregular
_exptl_crystal_F_000             212
_exptl_crystal_size_max          0.15
_exptl_crystal_size_mid          0.065
_exptl_crystal_size_min          0.04
_refine_diff_density_max         0.228
_refine_diff_density_min         -0.173
_refine_diff_density_rms         0.041
_refine_ls_abs_structure_details
;
 Flack x determined using 984 quotients [(I+)-(I-)]/[(I+)+(I-)]
 (Parsons, Flack and Wagner, Acta Cryst. B69 (2013) 249-259).
;
_refine_ls_abs_structure_Flack   0.03(17)
_refine_ls_extinction_method     none
_refine_ls_goodness_of_fit_ref   1.064
_refine_ls_hydrogen_treatment    constr
_refine_ls_matrix_type           full
_refine_ls_number_parameters     250
_refine_ls_number_reflns         3029
_refine_ls_number_restraints     10
_refine_ls_restrained_S_all      1.093
_refine_ls_R_factor_all          0.0453
_refine_ls_R_factor_gt           0.0410
_refine_ls_shift/su_max          0.000
_refine_ls_shift/su_mean         0.000
_refine_ls_structure_factor_coef Fsqd
_refine_ls_weighting_details
'w=1/[\s^2^(Fo^2^)+(0.0562P)^2^+0.0111P] where P=(Fo^2^+2Fc^2^)/3'
_refine_ls_weighting_scheme      calc
_refine_ls_wR_factor_gt          0.1042
_refine_ls_wR_factor_ref         0.1070
_reflns_Friedel_coverage         0.692
_reflns_friedel_fraction_full    0.669
_reflns_friedel_fraction_max     0.662
_reflns_number_gt                2754
_reflns_number_total             3029
_reflns_threshold_expression     'I > 2\s(I)'
_cod_data_source_file            ja5b09463_si_008.cif
_cod_data_source_block           small_cell_a
_cod_depositor_comments
;
The following automatic conversions were performed:

'_diffrn_radiation_probe' value 'X-ray' changed to 'x-ray' according
to
/usr/data/users/saulius/crontab/automatic-downloads/rss-feeds/ACS/lib/dictionaries/cif_core.dic
dictionary named 'cif_core.dic' version 2.4.2 from 2011-04-26.

Automatic conversion script
Id: cif_fix_values 3271 2015-04-21 07:52:19Z andrius 

 Adding full bibliography for 4124715--4124721.cif.
;
_cod_original_cell_volume        510.13(8)
_cod_database_code               4124718
_shelx_space_group_comment
;
The symmetry employed for this shelxl refinement is uniquely defined
by the following loop, which should always be used as a source of
symmetry information in preference to the above space-group names.
They are only intended as comments.
;
_olex2_refinement_description
;
1. Fixed Uiso
 At 1.2 times of:
  All C(H) groups, All C(H,H) groups
 At 1.5 times of:
  All C(H,H,H) groups, All O(H,H,H,H,H,H,H) groups
2. Restrained distances
 O3-H3 = O2-H2A = O4-H4
 0.84 with sigma of 0.02
 O5-H5
 0.84 with sigma of 0.02
 O1-H1
 0.84 with sigma of 0.02
 O6-H6A = O6-H6B
 0.84 with sigma of 0.02
3.a Free rotating group:
 O6(H4,H2A,H3,H5,H1)
3.b Ternary CH refined with riding coordinates:
 C2(H2), C9(H9), C11(H11), C12(H12), C15(H15), C20(H20)
3.c Secondary CH2 refined with riding coordinates:
 C4(H4A,H4B), C5(H5A,H5B), C10(H10A,H10B), C13(H13A,H13B), C14(H14A,H14B),
 C18(H18A,H18B), C19(H19A,H19B), C21(H21A,H21B)
3.d Idealised Me refined as rotating group:
 C1(H1A,H1B,H1C), C8(H8A,H8B,H8C), C17(H17A,H17B,H17C)
;
_shelx_res_file
;
    small_cell_a.res created by SHELXL-2014/7

TITL Small_cell_a.res in P1
REM Old TITL Small_cell in P1
REM SHELXT solution in P1
REM R1 0.113, Rweak 0.034, Alpha 0.000, Orientation as input
REM Flack x = -0.041 ( 0.179 ) from Parsons' quotients
REM Formula found by SHELXT: C21 O6
CELL 1.54178 6.2827 7.1127 12.6469 91.304 91.32 115.381
ZERR 1 0.0006 0.0006 0.0013 0.007 0.007 0.004
LATT -1
SFAC C H O
UNIT 21 38 6
DFIX 0.84 O3 H3 O2 H2a O4 H4
DFIX 0.84 O5 H5
DFIX 0.84 O1 H1
DFIX 0.84 O6 H6a O6 H6b

L.S. 10
PLAN  15
TEMP -173.15
ACTA 135
BOND $H
LIST 6
fmap 2
MORE -1
CONF
REM <olex2.extras>
REM <HklSrc "%.\\Baran539_0m.hkl">
REM </olex2.extras>

WGHT    0.056200    0.011100
FVAR       1.34156
C1    1    0.191151    0.723885    0.973206    11.00000    0.03199    0.03583 =
         0.03345   -0.00472    0.00690    0.01468
AFIX 137
H1A   2    0.034555    0.658599    1.003139    11.00000   -1.50000
H1B   2    0.215289    0.857894    0.944225    11.00000   -1.50000
H1C   2    0.311778    0.746390    1.028785    11.00000   -1.50000
AFIX   0
O1    3    0.179988    0.386736    0.927442    11.00000    0.04750    0.02209 =
         0.03026   -0.00063    0.01105    0.00297
C2    1    0.209501    0.582383    0.885520    11.00000    0.02289    0.02495 =
         0.02879   -0.00297    0.00035    0.00613
AFIX  13
H2    2    0.076974    0.553400    0.832882    11.00000   -1.20000
AFIX   0
O2    3    0.626338    0.744728    0.906660    11.00000    0.02315    0.02299 =
         0.02651   -0.00515   -0.00395    0.00882
C3    1    0.439498    0.678576    0.826780    11.00000    0.01485    0.01979 =
         0.02635   -0.00238   -0.00413    0.00665
O3    3    0.874905    0.793038    0.727514    11.00000    0.01692    0.02015 =
         0.03121   -0.00328   -0.00226    0.00354
C4    1    0.452418    0.866582    0.764492    11.00000    0.02684    0.01943 =
         0.03136   -0.00150   -0.00248    0.01292
AFIX  23
H4A   2    0.293348    0.862184    0.755675    11.00000   -1.20000
H4B   2    0.556026    0.997974    0.803231    11.00000   -1.20000
AFIX   0
O4    3    0.083609    0.228068    0.728218    11.00000    0.03060    0.02099 =
         0.02998   -0.00425    0.00871   -0.00789
C5    1    0.551611    0.856218    0.655869    11.00000    0.02746    0.01467 =
         0.02883    0.00187   -0.00245    0.00953
AFIX  23
H5A   2    0.425511    0.810649    0.599739    11.00000   -1.20000
H5B   2    0.676338    0.993741    0.638441    11.00000   -1.20000
AFIX   0
O5    3    0.508276    0.332582    0.053727    11.00000    0.12855    0.05374 =
         0.02107    0.00093    0.00871    0.05077
C6    1    0.652966    0.695935    0.667263    11.00000    0.01430    0.01605 =
         0.02649   -0.00039   -0.00193    0.00395
C7    1    0.477620    0.532076    0.740336    11.00000    0.01849    0.01551 =
         0.02233   -0.00081    0.00023    0.00622
C8    1    0.577028    0.388156    0.786256    11.00000    0.03265    0.02116 =
         0.02754   -0.00163   -0.00165    0.01590
AFIX 137
H8A   2    0.651275    0.342200    0.730313    11.00000   -1.50000
H8B   2    0.448988    0.266639    0.815232    11.00000   -1.50000
H8C   2    0.694595    0.463302    0.842681    11.00000   -1.50000
AFIX   0
C9    1    0.247235    0.402903    0.673593    11.00000    0.01916    0.01946 =
         0.02605   -0.00059    0.00060    0.00232
AFIX  13
H9    2    0.169694    0.495681    0.655928    11.00000   -1.20000
AFIX   0
C10   1    0.291968    0.312469    0.571382    11.00000    0.02014    0.01869 =
         0.02460   -0.00253    0.00035    0.00157
AFIX  23
H10A  2    0.139934    0.236538    0.531628    11.00000   -1.20000
H10B  2    0.354690    0.210331    0.588770    11.00000   -1.20000
AFIX   0
C11   1    0.463630    0.474200    0.500389    11.00000    0.01953    0.02036 =
         0.02399    0.00106   -0.00192    0.00866
AFIX  13
H11   2    0.392589    0.571491    0.481913    11.00000   -1.20000
AFIX   0
C12   1    0.696597    0.604329    0.563380    11.00000    0.02118    0.01432 =
         0.02798   -0.00043    0.00294    0.00569
AFIX  13
H12   2    0.766984    0.507019    0.582792    11.00000   -1.20000
AFIX   0
C13   1    0.873784    0.770498    0.496197    11.00000    0.03337    0.02077 =
         0.03447   -0.00189    0.00980    0.00014
AFIX  23
H13A  2    1.025687    0.840981    0.536696    11.00000   -1.20000
H13B  2    0.815602    0.876291    0.480199    11.00000   -1.20000
AFIX   0
C14   1    0.913227    0.677173    0.392723    11.00000    0.04237    0.02564 =
         0.04146   -0.00505    0.02089   -0.00172
AFIX  23
H14A  2    0.984707    0.580467    0.408221    11.00000   -1.20000
H14B  2    1.023548    0.789611    0.349559    11.00000   -1.20000
AFIX   0
C15   1    0.679116    0.559997    0.330701    11.00000    0.04880    0.02261 =
         0.02881    0.00422    0.01058    0.01193
AFIX  13
H15   2    0.609195    0.661630    0.322441    11.00000   -1.20000
AFIX   0
C16   1    0.501697    0.379605    0.393899    11.00000    0.02737    0.02081 =
         0.02335    0.00029    0.00065    0.01079
C17   1    0.590420    0.212201    0.413972    11.00000    0.03120    0.02520 =
         0.02839   -0.00252   -0.00052    0.01319
AFIX 137
H17A  2    0.723606    0.267101    0.465493    11.00000   -1.50000
H17B  2    0.641304    0.174100    0.347418    11.00000   -1.50000
H17C  2    0.462839    0.088818    0.441787    11.00000   -1.50000
AFIX   0
C18   1    0.267497    0.282336    0.328293    11.00000    0.03239    0.04023 =
         0.02853   -0.00758   -0.00563    0.01988
AFIX  23
H18A  2    0.154736    0.159385    0.364636    11.00000   -1.20000
H18B  2    0.199718    0.384710    0.324662    11.00000   -1.20000
AFIX   0
C19   1    0.296976    0.215350    0.215266    11.00000    0.04726    0.05053 =
         0.02551   -0.00947   -0.00659    0.03033
AFIX  23
H19A  2    0.348691    0.102167    0.218226    11.00000   -1.20000
H19B  2    0.143231    0.160708    0.175820    11.00000   -1.20000
AFIX   0
C20   1    0.475087    0.395163    0.157874    11.00000    0.08717    0.04377 =
         0.02396    0.00034    0.00191    0.04355
AFIX  13
H20   2    0.413735    0.503080    0.151189    11.00000   -1.20000
AFIX   0
C21   1    0.710973    0.493995    0.219052    11.00000    0.06557    0.02968 =
         0.03029    0.00307    0.01662    0.01538
AFIX  23
H21A  2    0.780595    0.392929    0.222516    11.00000   -1.20000
H21B  2    0.820700    0.617043    0.181767    11.00000   -1.20000
AFIX   6

O6    3    0.782643    0.133199    0.026698    11.00000    0.07010    0.02899 =
         0.04036   -0.00728   -0.00834    0.01232
H4    2    0.084828    0.257682    0.790399    11.00000   -1.50000
H2A   2    0.758287    0.793444    0.874667    11.00000   -1.50000
H3    2    0.935735    0.920394    0.715586    11.00000   -1.50000
H5    2    0.422801    0.334537    0.003568    11.00000   -1.50000
H1    2    0.070949    0.353613    0.971628    11.00000   -1.50000
PART 1
AFIX   5
H6B   2    0.693893   -0.008701   -0.002382    11.00000   -1.50000
PART 0
H6A   2    0.706952    0.234659    0.051438    11.00000   -1.50000
AFIX   0
HKLF 4

REM  Small_cell_a.res in P1
REM R1 =  0.0410 for    2754 Fo > 4sig(Fo)  and  0.0453 for all    3029 data
REM    250 parameters refined using     10 restraints

END

WGHT      0.0562      0.0111

REM Highest difference peak  0.228,  deepest hole -0.173,  1-sigma level  0.041
Q1    1   0.6747  0.6595  0.6178  11.00000  0.05    0.23
Q2    1   0.3685  0.4495  0.7146  11.00000  0.05    0.22
Q3    1   0.5959  0.5513  0.5375  11.00000  0.05    0.20
Q4    1   0.4585  0.5839  0.7853  11.00000  0.05    0.19
Q5    1   0.8029  0.6392  0.3576  11.00000  0.05    0.19
Q6    1   0.4000  0.3462  0.3567  11.00000  0.05    0.18
Q7    1   0.5900  0.7671  0.6610  11.00000  0.05    0.18
Q8    1   0.4718  0.4283  0.4457  11.00000  0.05    0.18
Q9    1   0.8910  0.7282  0.4414  11.00000  0.05    0.17
Q10   1   0.5956  0.4791  0.3647  11.00000  0.05    0.16
Q11   1   0.5465  0.3114  0.4032  11.00000  0.05    0.16
Q12   1   0.2817  0.3624  0.6196  11.00000  0.05    0.16
Q13   1   0.8947  0.2260  0.0054  11.00000  0.05    0.15
Q14   1   0.5616  0.5990  0.7017  11.00000  0.05    0.15
Q15   1   0.6970  0.5177  0.2781  11.00000  0.05    0.15
;
_shelx_res_checksum              60247
_shelx_hkl_file
;
  -1   0   0 2910.08 173.380  19
  -1   0   0 3206.76 173.608  15
   1   0   0 3115.71 173.578  15
  -2   0   0 298.829 18.4815  15
  -2   0   0 286.112 17.0110  23
  -2   0   0 302.540 17.2846  19
   2   0   0 284.958 18.4254  15
  -3   0   0 394.701 23.1409  19
  -3   0   0 384.763 22.2675  13
  -4   0   0 79.9372 5.57272  13
  -4   0   0 84.7523 6.33632   7
  -4   0   0 79.8419 7.00249  19
   4   0   0 78.6526 6.49112  17
   4   0   0 88.5967 7.37150   2
  -5   0   0 248.690 15.0862   7
  -5   0   0 226.637 14.5678  13
   5   0   0 268.056 16.5365   2
   5   0   0 231.859 15.6877  17
  -6   0   0 8.92823 2.72765   7
   6   0   0 9.39055 4.22409   2
  -7   1   0 8.15981 2.04162   7
   6  -1   0 81.8946 7.30781  17
   6  -1   0 85.3453 8.66085   2
  -6   1   0 77.8602 7.01943   7
  -6   1   0 79.8028 5.84838  13
   5  -1   0 18.4316 5.20385  17
   5  -1   0 41.2538 6.98882   2
  -5   1   0 20.3701 3.28158   7
  -5   1   0 19.7735 3.49779  12
  -5   1   0 17.6741 3.28712  13
  -4   1   0 104.419 6.55086  13
  -4   1   0 99.9424 7.89448  19
   3  -1   0 161.099 10.8969  23
  -3   1   0 161.840 9.53824  13
  -3   1   0 163.488 10.4747  19
   2  -1   0 235.731 15.5922  15
   2  -1   0 234.002 14.4682  23
  -2   1   0 256.927 14.3532  19
   1  -1   0 5421.40 301.320   8
  -1   1   0 5257.71 300.423  19
   0  -1   0 4442.32 247.211  19
   0  -1   0 4559.62 248.080  15
   0   1   0 4211.18 246.783   6
   0   1   0 4329.18 247.072  15
  -1  -1   0 545.555 31.3948  19
  -1  -1   0 512.049 31.1222  23
  -1  -1   0 573.504 32.1523  15
   1   1   0 565.689 32.2429  15
  -2  -1   0 386.311 22.0769  13
  -2  -1   0 355.426 24.2298  15
  -2  -1   0 383.397 22.7600  19
  -2  -1   0 418.239 22.4088  23
  -3  -1   0 6.58694 2.21435  23
  -3  -1   0 6.58986 2.31484  19
  -3  -1   0 8.19346 1.51364  13
  -4  -1   0 1249.68 66.5874  13
  -4  -1   0 1133.84 66.6258   7
  -4  -1   0 1209.19 67.9625  19
   4   1   0 1132.39 67.1424  17
   4   1   0 1148.68 67.4812   2
  -5  -1   0 129.273 8.39625  13
  -5  -1   0 128.717 9.40715   7
   5   1   0 139.453 9.97266  17
   5   1   0 124.886 10.5787   2
  -6  -1   0 17.0068 3.79066   7
   6   1   0 17.7508 4.93260   2
   7  -2   0 9.32358 4.28869   2
  -7   2   0 7.98450 2.31579   7
   6  -2   0 21.8780 7.03135   2
  -6   2   0 11.4051 2.39631  13
  -6   2   0 15.0398 2.17164  14
  -6   2   0 15.7166 3.06831   7
  -6   2   0 17.0100 3.45453  12
   5  -2   0 75.0283 8.32214   2
  -5   2   0 81.7643 5.63222  13
  -5   2   0 88.9544 5.91204  12
  -5   2   0 70.7266 6.58180   7
  -5   2   0 74.6056 5.40871  14
  -5   2   0 65.6520 7.50020  19
   4  -2   0 133.825 10.2299  23
  -4   2   0 125.051 9.20541  19
  -4   2   0 132.673 8.01655  13
   3  -2   0 148.383 9.81028  23
  -3   2   0 135.900 8.47700  13
  -3   2   0 150.142 9.39015  19
   2  -2   0 547.443 31.1206  23
   2  -2   0 540.110 31.8294   8
  -2   2   0 549.365 31.2027  19
   1  -2   0 2157.32 119.159   8
  -1   2   0 2046.45 118.679   6
   0  -2   0 2127.91 118.566  19
   0  -2   0 2101.88 119.218  15
   0   2   0 2093.93 119.357  15
   0   2   0 2083.78 118.696   6
  -1  -2   0 247.410 14.5804  19
  -1  -2   0 229.906 15.7625  15
  -1  -2   0 248.855 14.1462  23
   1   2   0 245.876 15.0359   6
  -2  -2   0 159.795 9.64978  23
  -2  -2   0 156.454 10.1849  19
  -2  -2   0 150.193 9.18653  13
   2   2   0 150.964 11.1331   6
  -3  -2   0 747.084 41.9669  19
  -3  -2   0 789.348 41.3959  23
  -3  -2   0 739.244 40.8027  13
   3   2   0 705.227 41.7498   2
   3   2   0 673.220 42.3890   6
   3   2   0 819.876 42.8011  21
   3   2   0 725.487 41.3548  17
   3   2   0 666.963 40.7806  11
   3   2   0 590.685 40.7728   5
  -4  -2   0 437.181 27.3128   7
  -4  -2   0 460.191 27.0583  13
   4   2   0 482.206 28.4477   2
   4   2   0 498.933 28.0242  17
  -5  -2   0 9.38860 2.51139   7
   5   2   0 8.14380 3.34988  17
   5   2   0 14.4335 5.33807   2
  -7   3   0 4.60018 2.44470   7
  -6   3   0 9.02637 2.23140  13
  -6   3   0 15.2156 2.51121  12
  -6   3   0 15.2864 3.08350   7
  -6   3   0 15.0609 3.08638  14
  -5   3   0 55.2949 4.58922  13
  -5   3   0 54.7660 4.85813  12
  -5   3   0 59.0619 4.56168  14
  -5   3   0 53.5881 5.73466   7
   4  -3   0 13.3492 3.99369  23
  -4   3   0 13.4077 3.02505  18
  -4   3   0 13.4837 2.44497  13
  -4   3   0 9.49133 2.69099  24
   3  -3   0 60.8828 5.33924  23
  -3   3   0 50.8623 3.65702  13
  -3   3   0 57.0363 4.23285  18
   2  -3   0 41.5894 5.86999   8
   2  -3   0 55.1543 3.66048  23
   1  -3   0 534.237 31.8766   8
   1  -3   0 525.238 31.6649  15
  -1   3   0 527.338 30.8519   6
   0  -3   0 115.677 6.75305  23
   0  -3   0 111.468 7.43197  19
   0   3   0 117.814 8.29734   6
  -1  -3   0 128.067 8.21919  19
  -1  -3   0 116.167 7.32324  13
  -1  -3   0 113.777 7.56612  23
   1   3   0 138.867 9.46217   6
  -2  -3   0 16.7267 2.53650  13
  -2  -3   0 23.8789 3.50917  23
  -2  -3   0 19.5647 3.76005  19
   2   3   0 12.9725 2.23160   5
   2   3   0 13.4993 4.00834   6
   2   3   0 23.8866 8.09397  21
  -3  -3   0 383.693 21.8340  13
  -3  -3   0 375.963 22.0766   7
  -3  -3   0 397.326 22.5520  23
   3   3   0 384.826 22.7242  17
   3   3   0 353.436 23.0873   2
   3   3   0 358.335 21.9813  11
   3   3   0 402.916 24.9562  21
   3   3   0 364.276 22.0412   5
  -4  -3   0 72.3460 6.09025   7
  -4  -3   0 57.7515 4.60676  13
   4   3   0 65.8947 5.32031   5
   4   3   0 65.2283 7.11641   2
   4   3   0 62.1375 6.60774  17
  -7   4   0 12.0834 2.57692   7
  -6   4   0 75.3699 5.60713  12
  -6   4   0 66.3534 5.26944  14
  -6   4   0 71.0543 6.62383   7
   5  -4   0 184.045 14.1025  23
  -5   4   0 179.327 13.4728   4
  -5   4   0 198.727 11.4871  14
  -5   4   0 194.457 11.6117  18
  -5   4   0 191.945 11.6496  12
  -5   4   0 183.516 12.1693   7
   4  -4   0 115.635 9.23683  23
  -4   4   0 119.107 7.81419  24
  -4   4   0 114.753 7.36246  10
  -4   4   0 118.181 7.49765  14
  -4   4   0 117.987 7.57946  12
  -4   4   0 117.531 9.51567   4
  -4   4   0 111.561 7.97750   7
  -4   4   0 125.138 7.68672  18
   3  -4   0 140.931 9.25008  23
  -3   4   0 137.209 8.91021  24
  -3   4   0 149.393 8.82715  18
   2  -4   0 157.845 9.49845  23
   2  -4   0 162.743 12.3824   8
  -2   4   0 166.551 9.70559  18
  -2   4   0 158.515 11.5066   6
   1  -4   0 54.1112 7.98001   8
  -1   4   0 53.3817 6.14702   6
   0  -4   0 9.98157 1.90438  23
   0  -4   0 9.23256 5.89475   8
   0   4   0 10.2095 2.58790   9
   0   4   0 9.00959 4.88577  21
   0   4   0 11.2382 3.53881   6
  -1  -4   0 84.7567 5.51051  23
   1   4   0 71.1754 7.78352   6
   1   4   0 71.4765 10.2603  21
   1   4   0 69.7468 5.47229   5
   1   4   0 73.1505 5.66455  10
  -2  -4   0 36.2022 4.57365  23
   2   4   0 36.1642 3.97798  11
   2   4   0 57.9266 12.0650   6
   2   4   0 36.5236 10.3415  21
   2   4   0 38.4034 4.28302   5
  -3  -4   0 48.8984 5.34528   7
   3   4   0 49.3446 9.79299  21
   3   4   0 48.2236 4.64215   5
  -4  -4   0 80.7361 5.83362   7
   4   4   0 80.6515 5.62774   5
  -7   5   0 22.2863 4.51603   7
  -6   5   0 215.220 13.8066   7
  -6   5   0 222.983 13.2989  18
  -6   5   0 204.383 14.6320   4
  -6   5   0 248.510 13.2583  14
   5  -5   0 7.48237 4.64747  23
  -5   5   0 2.55708 2.23205  18
  -5   5   0 -0.1345 2.66482   7
  -5   5   0 0.41515 4.10439   4
  -5   5   0 -0.8372 1.81532  10
  -5   5   0 4.98736 2.46734  24
  -5   5   0 1.67553 1.77409  14
   4  -5   0 16.3253 3.85750  23
  -4   5   0 16.5020 3.36387  18
  -4   5   0 16.2429 3.78955  24
  -4   5   0 15.2320 2.96598  14
  -4   5   0 10.8455 2.55536   7
  -4   5   0 13.2235 4.03020   4
  -4   5   0 8.44770 1.74524  10
   3  -5   0 152.934 9.78878  23
  -3   5   0 157.843 9.65070  24
  -3   5   0 156.245 10.7944   4
  -3   5   0 127.884 10.7997   7
  -3   5   0 165.899 9.44094  18
  -3   5   0 145.447 9.05767  10
   2  -5   0 26.2825 2.80415  23
  -2   5   0 33.7677 3.60503  24
  -2   5   0 29.1952 2.78710  10
  -2   5   0 29.7091 8.85783  21
  -2   5   0 29.6150 3.06459  18
  -2   5   0 29.9615 4.58378   4
  -2   5   0 32.7204 6.77012   6
   1  -5   0 166.305 9.46214  23
  -1   5   0 163.275 9.70892  10
  -1   5   0 144.373 13.9232  21
  -1   5   0 163.308 12.2539   6
  -1   5   0 166.785 10.9268   4
   0  -5   0 71.0242 4.85204  23
   0   5   0 65.6754 11.2060  21
   0   5   0 66.0384 5.23327  10
   0   5   0 65.2912 5.20292   5
   0   5   0 72.8314 8.12532   6
  -1  -5   0 0.73034 1.94497  23
   1   5   0 1.57767 5.77219  21
   1   5   0 3.91096 1.95691   5
   2   5   0 107.846 7.32874   5
   2   5   0 100.708 12.7670  21
  -3  -5   0 57.1572 4.70006   7
   3   5   0 51.9169 8.56301  21
   3   5   0 61.6146 4.68769   5
   7  -6   0 42.2296 5.09692   3
  -6   6   0 30.5620 6.17961   4
  -6   6   0 18.7207 3.13803  18
  -6   6   0 23.6870 2.94792  14
  -5   6   0 44.1244 4.74350  24
  -5   6   0 36.6222 7.08114   4
  -5   6   0 39.3071 3.72691  14
  -5   6   0 41.6308 4.17272  18
   4  -6   0 -2.0814 3.28475  23
  -4   6   0 2.98563 3.99910   4
  -4   6   0 5.65867 1.75706  10
  -4   6   0 0.93486 2.03395  18
  -4   6   0 5.81933 2.75038  24
   3  -6   0 111.421 8.22138  23
  -3   6   0 119.048 7.58958  10
  -3   6   0 127.885 8.29943  24
  -3   6   0 137.074 9.63854   4
  -3   6   0 112.682 7.80608  18
   2  -6   0 701.024 37.8402  23
  -2   6   0 713.585 38.7476   4
  -2   6   0 545.753 40.9296  21
  -2   6   0 677.349 37.7246  10
  -2   6   0 677.529 38.0011  24
   1  -6   0 47.5489 3.73429  23
  -1   6   0 57.0588 4.75081  10
  -1   6   0 50.6271 11.7979  21
   0   6   0 119.186 8.12754   5
   0   6   0 123.704 14.4017  21
   0   6   0 121.246 8.13016  10
   1   6   0 180.866 16.5779  21
   1   6   0 193.423 11.6429   5
   2   6   0 16.9402 5.61647  21
   2   6   0 14.4108 2.89831   5
  -6   7   0 2.04184 3.25455   4
  -5   7   0 11.2144 4.15658   4
  -5   7   0 11.6182 2.22795  18
  -4   7   0 22.8225 6.31966   4
  -4   7   0 24.4729 3.34906  10
  -4   7   0 28.9999 3.38869  18
  -3   7   0 38.1703 6.57282   4
  -3   7   0 34.6620 3.80684  10
  -3   7   0 36.2108 3.45511  18
  -2   7   0 83.8060 5.76678  10
  -2   7   0 66.1106 13.2165  21
  -1   7   0 18.3007 6.75590  21
  -1   7   0 21.4466 3.70575  10
   0   7   0 23.0781 7.06859  21
   0   7   0 26.2863 3.61479   5
   1   7   0 5.16969 2.33862   5
  -5   8   0 15.2233 4.51413   4
  -4   8   0 3.54913 3.51374   4
  -3   8   0 75.1994 5.33944  10
  -2   8   0 43.5811 3.85989  10
  -4   8  -1 1.77333 3.43054   4
  -5   8  -1 3.56560 3.26365   4
   1   7  -1 26.2325 4.73833   5
   0   7  -1 44.5986 4.40391   5
   0   7  -1 37.2591 10.9925  21
  -1   7  -1 42.7846 10.9735  21
  -1   7  -1 45.7883 4.42533  10
  -2   7  -1 63.1020 4.57690  10
  -2   7  -1 35.2787 11.4823  21
  -3   7  -1 168.295 10.1014  24
  -3   7  -1 155.041 11.3812   4
  -3   7  -1 155.119 9.68066  18
  -3   7  -1 157.102 9.93771  10
  -4   7  -1 13.0738 2.37124  18
  -4   7  -1 8.18079 4.13594   4
  -4   7  -1 11.8262 3.00504  24
  -5   7  -1 26.6947 6.22145   4
  -5   7  -1 16.1997 2.96958  18
  -6   7  -1 14.0286 4.83858   4
   2   6  -1 36.1916 3.84778   5
   2   6  -1 35.2554 9.54915  21
   1   6  -1 95.1660 6.92472   5
   1   6  -1 103.039 12.8709  21
   0   6  -1 51.6353 12.1241  21
   0   6  -1 50.6495 5.05018  10
   0   6  -1 47.2951 4.74716   5
  -1   6  -1 138.853 8.43022  10
  -1   6  -1 122.652 14.3081  21
  -2   6  -1 202.801 12.5534   4
  -2   6  -1 155.840 16.2039  21
  -2   6  -1 196.550 11.3135  18
  -2   6  -1 194.146 11.3053  10
  -2   6  -1 187.905 11.5223  24
  -3   6  -1 51.0877 4.75331  24
  -3   6  -1 51.9958 6.63181   4
  -3   6  -1 45.1726 4.13364  18
  -3   6  -1 44.2503 3.90395  10
   3  -6   1 44.9864 4.78406  23
  -4   6  -1 42.3944 4.10298  18
  -4   6  -1 45.4023 4.74242  24
  -4   6  -1 39.2866 7.20625   4
   4  -6   1 35.9713 5.99769  23
  -5   6  -1 9.68862 4.45191   4
  -5   6  -1 12.3247 2.40087  18
  -5   6  -1 14.9979 2.99564  24
  -5   6  -1 14.7380 2.81001  14
  -6   6  -1 22.3039 5.83102   4
  -6   6  -1 7.59540 1.74456  14
  -6   6  -1 5.46462 1.91248  18
   3   5  -1 52.1490 4.48297   5
   3   5  -1 52.6775 8.80120  21
   2   5  -1 56.0147 11.2068  21
   2   5  -1 42.8159 4.72668   5
   1   5  -1 354.935 20.8431   5
   1   5  -1 357.533 25.1162  21
  -1  -5   1 350.504 20.7756  23
   0   5  -1 64.0331 7.89091   6
   0   5  -1 52.8253 11.2640  21
   0   5  -1 51.6004 6.27116   9
   0   5  -1 48.3244 4.85508  10
   0   5  -1 55.9749 4.73449   5
   0  -5   1 57.8792 4.07831  23
  -1   5  -1 73.5989 10.7961  21
  -1   5  -1 75.1382 6.56666   9
  -1   5  -1 90.5254 8.59973   6
  -1   5  -1 76.7137 5.37532  10
  -2   5  -1 203.047 11.3163  18
  -2   5  -1 178.492 11.1040  10
  -2   5  -1 200.157 11.5996  24
  -2   5  -1 210.681 14.1413   6
  -2   5  -1 152.866 14.8198  21
  -2   5  -1 199.185 12.3305   4
  -3   5  -1 210.415 14.0160  10
  -3   5  -1 238.652 15.4606   4
  -3   5  -1 252.608 14.5485  24
  -3   5  -1 263.908 14.3273  18
   3  -5   1 247.390 14.6360  23
  -4   5  -1 44.8029 6.93915   4
  -4   5  -1 30.1867 3.75221  18
  -4   5  -1 28.3902 4.11530  24
  -4   5  -1 29.1170 3.38273  14
   4  -5   1 25.4428 4.33277  23
  -5   5  -1 23.1651 7.11052   4
  -5   5  -1 21.1986 3.34156  14
  -5   5  -1 19.5518 3.90354  24
  -5   5  -1 14.1715 3.37091  18
  -5   5  -1 14.0744 2.63019  12
   5  -5   1 22.8184 5.30317  23
  -6   5  -1 126.383 7.28377  14
  -6   5  -1 107.823 9.50396   4
  -6   5  -1 104.986 7.23179  18
  -7   5  -1 32.9019 3.03286  14
   4   4  -1 30.0058 3.38436   5
  -4  -4   1 28.6034 3.77220   7
   3   4  -1 52.0727 5.09101   5
   3   4  -1 59.0477 10.1413  21
  -3  -4   1 53.3003 5.37470   7
   2   4  -1 533.052 32.6535  21
   2   4  -1 562.508 33.7315   6
   2   4  -1 487.505 29.4072   5
  -2  -4   1 477.796 29.9220  13
  -2  -4   1 504.734 29.6393  23
   1   4  -1 7.91146 3.99151   6
   1   4  -1 14.1690 2.46358  10
   1   4  -1 6.50074 2.88497   9
   1   4  -1 9.53425 2.04780   5
   1   4  -1 14.9346 5.52222  21
  -1  -4   1 17.0759 3.08492  13
  -1  -4   1 13.2848 1.97780  23
   0   4  -1 92.1149 10.2529  21
   0   4  -1 84.0154 7.10967   9
   0   4  -1 106.983 8.61292   6
   0  -4   1 105.123 5.97883  23
   0  -4   1 98.8214 7.89699  19
  -1   4  -1 195.044 11.2515  18
  -1   4  -1 204.789 12.9013   6
   1  -4   1 188.571 14.3937   8
   1  -4   1 179.480 12.1631  19
  -2   4  -1 8.72780 1.61849  18
  -2   4  -1 5.20692 3.25763   6
  -3   4  -1 791.909 45.1166  24
  -3   4  -1 819.224 45.0094  18
   3  -4   1 766.561 45.2751  23
  -4   4  -1 7.44539 2.85529  13
  -4   4  -1 11.4488 3.95465   4
  -4   4  -1 6.72507 1.73116  14
  -4   4  -1 7.11145 2.00675  18
  -4   4  -1 6.39854 2.29643  24
  -4   4  -1 8.32131 2.14203  12
   4  -4   1 3.92545 3.51784  23
  -5   4  -1 22.2292 4.96422   4
  -5   4  -1 24.1582 3.41536  14
  -5   4  -1 16.8120 3.21600   7
  -5   4  -1 30.6239 3.49277  18
  -5   4  -1 21.8734 3.54838  12
   5  -4   1 33.8366 5.90326  23
  -6   4  -1 19.0929 3.05135  14
  -6   4  -1 12.3291 2.52943  12
  -6   4  -1 22.7612 4.94147   7
  -6   4  -1 21.7457 6.83158   4
  -7   4  -1 12.0616 2.45875  14
  -7   4  -1 5.28602 2.00049   7
   5   3  -1 19.5031 4.73117   2
  -5  -3   1 24.6956 3.05414   7
   4   3  -1 31.9236 8.75867  21
   4   3  -1 22.9317 5.95450   2
   4   3  -1 28.9921 3.94283   5
  -4  -3   1 27.4708 4.72182   7
  -4  -3   1 29.0279 3.05985  13
   3   3  -1 845.335 48.2948   2
   3   3  -1 811.172 47.3402   5
   3   3  -1 782.604 47.8207  17
   3   3  -1 876.998 49.7566  21
  -3  -3   1 863.936 47.3205   7
  -3  -3   1 794.581 47.7028  23
  -3  -3   1 831.212 47.2091  13
   2   3  -1 264.815 15.4108   2
   2   3  -1 240.584 16.0929   6
   2   3  -1 242.373 14.2065   5
   2   3  -1 244.683 16.9433  21
  -2  -3   1 229.750 13.9828  13
  -2  -3   1 216.600 14.3242  23
  -2  -3   1 225.187 15.1092  19
   1   3  -1 9.38948 3.22195   6
  -1  -3   1 6.50865 1.49545  23
  -1  -3   1 5.97415 2.05753  19
  -1  -3   1 7.27720 1.38389  13
   0   3  -1 251.691 14.8482   6
   0  -3   1 233.151 14.5021  19
   0  -3   1 231.158 15.4483  15
  -1   3  -1 943.950 55.4219   6
   1  -3   1 965.132 56.2434   8
   1  -3   1 996.606 56.0543  15
  -2   3  -1 5482.87 318.868  13
   2  -3   1 5887.46 318.900  23
   2  -3   1 5646.00 319.890   8
  -3   3  -1 485.608 27.1003  18
  -3   3  -1 470.675 26.9871  13
   3  -3   1 466.394 27.5653  23
  -4   3  -1 11.9926 2.00841  18
  -4   3  -1 11.0315 2.31097  13
  -4   3  -1 12.0387 2.26832  24
   4  -3   1 9.96159 3.93629  23
  -5   3  -1 155.918 9.52895  13
  -5   3  -1 139.350 10.2028   7
  -5   3  -1 145.820 11.3863   4
  -5   3  -1 157.922 9.41184  14
  -5   3  -1 158.737 9.69215  12
  -6   3  -1 10.8525 2.53887  12
  -6   3  -1 11.5359 2.07651  14
  -6   3  -1 9.84391 2.33847  13
  -6   3  -1 9.81512 2.86963   7
  -7   3  -1 5.00443 1.72678  12
  -7   3  -1 2.23908 2.50677   7
   5   2  -1 3.72356 3.47093   2
  -5  -2   1 1.35766 2.29144   7
   4   2  -1 649.779 36.3140   2
   4   2  -1 590.003 37.2104  21
   4   2  -1 637.912 35.9307  17
  -4  -2   1 574.984 34.9764  13
  -4  -2   1 601.753 35.0902   7
   3   2  -1 574.392 34.5482   6
   3   2  -1 632.902 33.8956   2
   3   2  -1 633.370 34.9456  21
   3   2  -1 520.641 32.7910   5
   3   2  -1 503.405 33.2626  17
  -3  -2   1 582.897 32.7732  13
  -3  -2   1 576.531 33.2806  23
  -3  -2   1 584.395 32.8454   7
  -3  -2   1 548.692 33.8739  19
   2   2  -1 233.467 15.2102   6
  -2  -2   1 231.491 14.3383  19
  -2  -2   1 221.365 13.3560  13
  -2  -2   1 233.543 13.7265  23
   1   2  -1 42.5444 5.61240   6
   1   2  -1 35.3141 8.98653  15
  -1  -2   1 48.5701 4.30307  19
  -1  -2   1 51.6117 3.59113  23
  -1  -2   1 42.7239 5.74416  15
   0   2  -1 432.564 24.3890   6
   0   2  -1 411.716 24.9776  15
   0  -2   1 429.097 24.7912  15
   0  -2   1 405.817 24.2873  19
  -1   2  -1 1962.39 113.012   6
   1  -2   1 2037.21 113.331   8
   2  -2   1 1071.29 59.0908  23
   2  -2   1 1018.05 59.3165   8
  -3   2  -1 237.670 13.8195  13
  -3   2  -1 241.605 14.6354  19
   3  -2   1 238.790 14.8461  23
  -4   2  -1 66.0123 4.47140  13
  -4   2  -1 59.5191 5.86760  19
   4  -2   1 54.0887 7.41969  23
  -5   2  -1 84.4288 5.80295  14
  -5   2  -1 92.4128 6.14057  13
  -5   2  -1 87.3493 6.22332  12
  -5   2  -1 81.7907 6.93560   7
   5  -2   1 78.9136 8.68367   2
  -6   2  -1 140.628 8.34442  12
  -6   2  -1 121.663 9.05842   7
  -6   2  -1 139.173 8.32555  13
   6  -2   1 104.934 10.5017   2
  -7   2  -1 32.5872 3.61512  12
  -7   2  -1 36.6608 4.21816   7
   7  -2   1 31.1288 5.00366   2
   6   1  -1 14.0993 5.14065   2
  -6  -1   1 10.3126 2.21825   7
   5   1  -1 4.85710 4.18519   2
   5   1  -1 2.13850 3.62730  17
  -5  -1   1 1.15654 2.65983   7
  -5  -1   1 0.91367 1.89139  13
   4   1  -1 156.142 9.79292   2
   4   1  -1 95.9173 8.52390  17
   4   1  -1 99.2982 11.1067  21
  -4  -1   1 105.740 7.27525  13
  -4  -1   1 87.2339 8.73072  19
  -4  -1   1 121.811 7.85414   7
   3   1  -1 100.267 10.2498  21
  -3  -1   1 88.5604 5.91694  13
  -3  -1   1 90.7138 7.23872  19
  -3  -1   1 88.4420 6.78886  23
  -2  -1   1 161.851 9.74262  23
  -2  -1   1 159.534 10.2143  19
  -2  -1   1 159.115 11.4533  15
  -2  -1   1 156.892 9.37780  13
   1   1  -1 274.696 16.6490  15
  -1  -1   1 255.643 15.3945  23
  -1  -1   1 271.486 16.3646  15
  -1  -1   1 268.837 15.7665  19
   0   1  -1 2310.04 127.702  15
   0   1  -1 2199.65 127.525   6
   0  -1   1 2283.72 127.646  15
  -1   1  -1 9999.99 562.666  19
  -2   1  -1 2130.93 115.505  19
   2  -1   1 2039.03 116.189  15
   2  -1   1 1966.85 115.422  23
  -3   1  -1 188.373 10.4922  13
  -3   1  -1 178.681 11.3185  19
   3  -1   1 162.868 11.8464  23
  -4   1  -1 21.0406 2.69407  13
  -4   1  -1 22.0223 4.05696  19
  -5   1  -1 484.052 26.6912  12
  -5   1  -1 444.460 26.9178   7
  -5   1  -1 466.782 26.6562  13
   5  -1   1 465.961 27.3342  17
   5  -1   1 446.248 28.0088   2
  -6   1  -1 147.549 9.93878   7
  -6   1  -1 139.865 9.10958  13
  -6   1  -1 145.880 9.00625  12
   6  -1   1 155.451 10.2978  17
   6  -1   1 133.918 11.2689   2
  -7   1  -1 0.87025 1.83279   7
   6   0  -1 0.94879 3.84869   2
  -6   0   1 7.97517 2.64472   7
   5   0  -1 30.1328 7.01584   2
  -5   0   1 29.3669 5.20598   7
  -5   0   1 23.5037 3.58809  13
   4   0  -1 117.328 8.46376  17
   4   0  -1 108.690 8.72199   2
  -4   0   1 117.656 7.85188   7
  -4   0   1 119.496 7.39128  13
  -4   0   1 114.107 8.95471  19
  -3   0   1 122.048 8.06981  19
  -3   0   1 106.089 6.85620  13
   2   0  -1 1025.66 62.4443  15
  -2   0   1 1073.57 61.4435  23
  -2   0   1 1158.41 61.7827  19
   1   0  -1 224.445 14.1608  15
   1   0  -1 230.780 14.6955   8
  -1   0   1 221.371 13.4653  19
  -1   0   1 249.004 14.0363  15
   0   0  -1 1586.65 96.0508  15
   0   0  -1 1859.23 96.1624   8
   0   0   1 1716.77 96.1359   8
   0   0   1 1659.74 96.0816  15
  -1   0  -1 441.072 26.6058  19
  -1   0  -1 488.808 27.2554  15
   1   0   1 474.047 27.2271  15
  -2   0  -1 6.60461 3.41661  15
  -2   0  -1 9.79386 1.84366  19
  -2   0  -1 9.14327 1.61751  23
   2   0   1 5.12541 3.17545  15
  -3   0  -1 431.522 25.1569  13
  -3   0  -1 451.731 26.0496  19
  -4   0  -1 28.1972 2.99014  13
  -4   0  -1 24.8160 4.36405   7
  -4   0  -1 25.0266 4.30658  19
   4   0   1 27.5786 4.93022   2
   4   0   1 31.4988 4.26238  17
  -5   0  -1 483.989 29.1566   7
  -5   0  -1 479.349 28.8597  13
   5   0   1 524.599 30.2764   2
   5   0   1 515.610 29.7363  17
  -6   0  -1 4.76963 2.64894   7
   6   0   1 8.39131 3.11406  17
   6   0   1 2.83071 3.49589   2
  -7   1   1 29.9270 3.80947   7
   6  -1  -1 19.3309 6.53388   2
  -6   1   1 6.05472 2.35942  13
  -6   1   1 9.73447 2.75207   7
   5  -1  -1 79.7027 8.43255   2
   5  -1  -1 68.1038 7.01215  17
  -5   1   1 69.2027 6.48756   7
  -5   1   1 69.9275 5.49336  13
  -4   1   1 30.4111 4.52634  19
  -4   1   1 28.5620 3.07690  13
  -3   1   1 716.733 43.6244  13
  -3   1   1 829.200 44.4170  19
   2  -1  -1 257.718 17.1016  15
   2  -1  -1 277.018 17.1878   8
   2  -1  -1 269.475 16.0532  23
  -2   1   1 280.898 15.9197  19
   1  -1  -1 1022.30 57.9244   8
  -1   1   1 1008.15 57.2493  19
   0  -1  -1 1242.73 71.0300  15
   0  -1  -1 1299.22 71.2196   8
   0  -1  -1 1204.32 70.4401  19
   0   1   1 1233.12 70.6062   6
   0   1   1 1276.77 71.1057  15
  -1  -1  -1 1333.97 76.1843  23
  -1  -1  -1 1300.90 76.3451  19
  -1  -1  -1 1422.04 77.1785  15
   1   1   1 1346.70 77.1770  15
  -2  -1  -1 0.50933 1.57446  19
  -2  -1  -1 -0.2249 1.60445  23
  -2  -1  -1 0.48379 1.04810  13
  -3  -1  -1 87.4111 6.95352  19
  -3  -1  -1 95.6314 6.67363  23
  -3  -1  -1 87.4062 5.74460  13
  -4  -1  -1 50.4261 4.16836  13
  -4  -1  -1 40.1575 5.80692  19
  -4  -1  -1 56.4182 5.51717   7
   4   1   1 70.2005 6.70687   2
   4   1   1 46.5788 5.59146  17
  -5  -1  -1 29.9179 5.48256   7
  -5  -1  -1 25.8425 3.46372  13
   5   1   1 44.6616 6.79985   2
   5   1   1 22.3973 5.60898  17
  -6  -1  -1 19.1100 3.91312   7
   6   1   1 16.9934 4.67739   2
  -7   2   1 1.48574 2.22461   7
   6  -2  -1 4.99324 4.36386   2
  -6   2   1 7.83326 2.12163  12
  -6   2   1 7.87419 2.84478   7
  -6   2   1 7.79941 2.21992  13
   5  -2  -1 9.28392 4.13437   2
  -5   2   1 7.52101 2.29553  12
  -5   2   1 8.62028 2.16681  13
  -5   2   1 1.53059 3.09024  19
  -5   2   1 3.91574 2.63423   7
  -5   2   1 7.41819 1.90633  14
   4  -2  -1 86.8774 8.37612  23
  -4   2   1 83.2937 6.89872  19
  -4   2   1 88.1274 5.67624  13
  -4   2   1 88.1611 5.82618  18
   3  -2  -1 171.236 13.4899   8
   3  -2  -1 199.661 12.2565  23
  -3   2   1 189.811 11.1266  13
  -3   2   1 206.666 11.9363  19
   2  -2  -1 32.0301 5.29582   8
   2  -2  -1 23.6479 3.37533  23
  -2   2   1 22.2157 2.63302  19
   1  -2  -1 76.8773 4.69096  23
   1  -2  -1 77.4356 6.87518   8
   1  -2  -1 83.9179 7.29842  15
  -1   2   1 78.5967 5.79474   6
   0  -2  -1 520.802 31.3317  15
   0  -2  -1 532.952 30.1880  19
   0  -2  -1 524.243 29.9936  23
   0   2   1 545.587 30.5373   6
   0   2   1 529.213 31.5164  15
  -1  -2  -1 558.544 32.1795  19
  -1  -2  -1 514.866 33.3260  15
  -1  -2  -1 566.587 31.9100  23
   1   2   1 601.530 32.6184   6
  -2  -2  -1 69.7011 5.41972  19
  -2  -2  -1 61.9401 4.33153  13
  -2  -2  -1 67.2913 5.17718  23
   2   2   1 64.1649 7.14419   6
  -3  -2  -1 42.3830 4.83853  23
  -3  -2  -1 39.6753 3.30234  13
  -3  -2  -1 31.5905 4.53913  19
   3   2   1 33.9263 7.56830   1
   3   2   1 42.0426 4.57830  17
   3   2   1 33.8756 11.0433  21
   3   2   1 35.4466 5.69928   2
   3   2   1 38.3945 4.08186  11
   3   2   1 30.5278 6.78133   6
   3   2   1 38.0044 3.66281   5
  -4  -2  -1 22.4306 3.25696   7
  -4  -2  -1 26.0342 3.20198  13
   4   2   1 26.4268 5.09036  17
   4   2   1 22.1933 6.07989   2
  -5  -2  -1 77.5879 6.50720   7
   5   2   1 75.7244 6.87894  17
   5   2   1 74.6663 7.32130   2
  -7   3   1 50.8124 5.16969   7
  -6   3   1 6.05567 1.97477  14
  -6   3   1 3.80214 2.17614  12
  -6   3   1 5.87501 2.93498   7
  -5   3   1 40.9585 4.37348  18
  -5   3   1 50.7911 4.53148  12
  -5   3   1 53.1878 5.80879   7
  -5   3   1 41.2623 4.35435  13
  -5   3   1 46.5823 4.14096  14
   4  -3  -1 49.5693 6.64296  23
  -4   3   1 44.5640 3.95142  18
  -4   3   1 25.1195 4.77926  24
   3  -3  -1 84.0032 6.60027  23
  -3   3   1 80.3471 5.49411  18
   2  -3  -1 35.7413 3.41486  23
   2  -3  -1 38.0590 6.21373   8
   1  -3  -1 234.457 15.5357   8
   1  -3  -1 218.077 15.1963  15
   1  -3  -1 217.348 12.9180  23
  -1   3   1 239.256 14.2110   6
   0  -3  -1 602.599 36.4455   8
   0  -3  -1 577.600 34.1879  19
   0  -3  -1 588.616 33.6382  23
   0   3   1 605.598 34.4611   6
  -1  -3  -1 54.5500 4.29323  23
  -1  -3  -1 58.6134 4.67643  19
   1   3   1 54.5323 6.34411   6
  -2  -3  -1 114.029 7.25370  23
  -2  -3  -1 104.904 6.72600  13
   2   3   1 97.4398 6.60836  11
   2   3   1 112.536 10.6620  21
   2   3   1 97.8511 9.01409   6
   2   3   1 81.2246 9.18312   1
   2   3   1 101.772 6.73627   5
  -3  -3  -1 242.130 13.9516  13
  -3  -3  -1 223.005 14.4119  23
   3   3   1 217.440 17.0866  21
   3   3   1 223.725 13.7337  11
   3   3   1 231.827 13.8175   5
   3   3   1 241.218 14.5632  17
   3   3   1 215.136 15.4008   2
  -4  -3  -1 63.7599 6.14484   7
   4   3   1 60.5564 6.53124  17
   4   3   1 69.4109 7.05786   2
  -5  -3  -1 81.7049 5.76848   7
   7  -4  -1 15.1698 4.89604   3
  -7   4   1 5.79774 2.21210   7
  -6   4   1 110.596 7.53115  14
  -6   4   1 112.881 8.73746   7
  -6   4   1 123.197 7.74492  12
   5  -4  -1 120.511 11.5033  23
  -5   4   1 140.200 10.6606   4
  -5   4   1 139.624 8.49296  14
  -5   4   1 130.435 8.71563  18
  -5   4   1 128.174 8.48186  12
   4  -4  -1 22.7275 4.14976  23
  -4   4   1 12.5574 3.83209   4
  -4   4   1 15.2330 2.28636  12
  -4   4   1 10.4774 2.59002   7
  -4   4   1 20.1389 3.41542  18
  -4   4   1 21.0065 3.55763  24
  -4   4   1 15.8876 2.83928  14
   3  -4  -1 192.667 11.8492  23
  -3   4   1 185.667 11.4027  24
  -3   4   1 189.983 11.3793  18
   2  -4  -1 56.4196 7.88945   8
   2  -4  -1 54.4203 4.03049  23
  -2   4   1 49.6437 6.24141   6
  -2   4   1 49.9531 4.09277  18
   1  -4  -1 27.1541 2.27123  23
   1  -4  -1 26.8850 7.20342   8
  -1   4   1 32.6134 5.32803   6
   0  -4  -1 25.3617 2.69108  23
   0  -4  -1 30.3380 8.46127   8
   0   4   1 25.0310 5.47547   6
   0   4   1 24.3316 5.67975  21
  -1  -4  -1 142.399 8.35182  23
   1   4   1 114.612 8.30641  10
   1   4   1 141.569 10.4011   6
   1   4   1 134.329 12.9145  21
   1   4   1 116.484 7.87370  11
   1   4   1 127.054 8.16652   5
   1   4   1 125.275 10.9002   1
  -2  -4  -1 17.6274 2.99711  23
   2   4   1 14.6999 3.36038   5
   2   4   1 11.7024 2.17071  11
   2   4   1 16.3416 6.05938  21
  -3  -4  -1 72.6585 6.29825   7
   3   4   1 63.7109 10.4891  21
   3   4   1 68.7076 5.85968  11
   3   4   1 71.2521 5.53953   5
   3   4   1 70.7342 6.48997  17
  -4  -4  -1 25.9762 3.59249   7
   4   4   1 30.5517 3.83135   5
   7  -5  -1 7.95265 3.13774   3
  -7   5   1 1.59268 1.84765  11
  -7   5   1 1.96015 2.07598   7
  -6   5   1 122.354 7.80926  10
  -6   5   1 126.575 8.85398   7
  -6   5   1 118.798 7.94428  18
  -6   5   1 125.698 7.86537  14
   5  -5  -1 40.5446 7.83291  23
  -5   5   1 38.9528 3.98837  10
  -5   5   1 29.5844 3.70833  14
  -5   5   1 35.8657 6.88715   4
  -5   5   1 33.1014 4.20665  18
  -5   5   1 42.4303 5.54287   7
   4  -5  -1 7.39108 3.80084  23
  -4   5   1 11.1721 1.86670  10
  -4   5   1 13.6615 2.62360  18
  -4   5   1 11.8089 2.44117  11
  -4   5   1 14.1053 2.78953  24
  -4   5   1 11.8231 2.62972   7
  -4   5   1 8.01767 1.85186  14
  -4   5   1 13.3479 3.88027   4
   3  -5  -1 32.7712 4.36351  23
  -3   5   1 26.7677 4.20439   7
  -3   5   1 26.1843 3.51076  11
  -3   5   1 26.9040 2.91821  10
  -3   5   1 30.6164 3.55104  18
  -3   5   1 36.2876 3.97352  24
  -3   5   1 26.0033 5.54820   4
   2  -5  -1 76.0028 5.27522  23
  -2   5   1 78.0185 5.20691  18
  -2   5   1 61.1767 10.2474  21
  -2   5   1 75.2632 8.36928   6
  -2   5   1 75.0716 5.53378  24
  -2   5   1 80.4261 6.70687   4
  -2   5   1 77.4247 5.03000  10
   1  -5  -1 254.932 14.3607  23
  -1   5   1 218.888 18.4698  21
  -1   5   1 234.482 14.3077  10
  -1   5   1 253.976 15.4998   4
  -1   5   1 229.599 14.3467  11
  -1   5   1 254.976 16.6969   6
  -1   5   1 276.820 14.7440   5
   0  -5  -1 224.319 12.3311  23
   0   5   1 190.301 12.0846  11
   0   5   1 215.963 14.6336   6
   0   5   1 200.704 12.2767  10
   0   5   1 199.275 17.0087  21
   0   5   1 199.914 12.3722   5
  -1  -5  -1 2.17737 2.09976  23
   1   5   1 0.76821 1.95100   5
   1   5   1 0.69831 1.66916  11
   1   5   1 0.80844 5.75483  21
   1   5   1 -3.7676 2.84174  10
   2   5   1 106.981 7.18852  11
   2   5   1 109.778 7.33076   5
   2   5   1 97.8953 12.6488  21
  -3  -5  -1 55.1817 4.49965   7
   3   5   1 53.2988 4.25384   5
   3   5   1 42.2868 8.38722  21
   7  -6  -1 28.9203 4.63526   3
  -6   6   1 1.28829 1.57224  14
  -6   6   1 5.17258 2.39619   7
  -6   6   1 0.28714 1.89941  18
  -6   6   1 -0.5687 2.48438  11
  -6   6   1 5.66226 3.57018   4
  -6   6   1 2.03249 2.89035  10
  -5   6   1 6.64902 4.03556   4
  -5   6   1 5.35326 2.65427   7
  -5   6   1 1.84799 2.44359  11
  -5   6   1 3.95873 1.73212  14
  -5   6   1 2.95575 1.92208  10
  -5   6   1 4.19328 2.36785  18
   4  -6  -1 6.28515 3.63838  23
  -4   6   1 5.56697 2.30872  18
  -4   6   1 2.16783 2.64089   7
  -4   6   1 2.63235 3.05811  11
  -4   6   1 10.1588 2.98319  24
  -4   6   1 2.62324 1.81747  10
  -4   6   1 3.43814 3.83215   4
   3  -6  -1 113.808 7.82826  23
  -3   6   1 103.563 7.07115  18
  -3   6   1 100.460 8.86755   4
  -3   6   1 100.609 6.92286  10
  -3   6   1 119.482 7.70133  24
   2  -6  -1 149.398 8.97535  23
  -2   6   1 148.471 10.5608   4
  -2   6   1 118.759 15.1915  21
  -2   6   1 142.003 8.78500  10
   1  -6  -1 48.8489 4.04802  23
  -1   6   1 50.0736 4.54615  10
  -1   6   1 43.1837 12.0306  21
   0   6   1 27.9914 3.88724   5
   0   6   1 23.7011 4.41957  10
   0   6   1 33.8453 11.3768  21
   1   6   1 119.979 7.81636   5
   1   6   1 113.624 13.9418  21
  -2  -6  -1 5.55060 1.63003   7
   2   6   1 6.18016 5.01102  21
   2   6   1 7.98612 1.82808   5
  -6   7   1 27.7647 5.13383   4
  -5   7   1 12.0929 2.34209  18
  -5   7   1 11.9349 4.17255   4
  -5   7   1 9.54301 2.02549  10
  -4   7   1 9.80292 2.28665  18
  -4   7   1 4.18235 2.10317  10
  -4   7   1 6.77858 4.24838   4
  -3   7   1 21.7333 3.64170  10
  -3   7   1 23.2835 6.38928   4
  -2   7   1 15.2694 2.47171  10
  -1   7   1 85.9203 5.88340  10
  -1   7   1 59.6398 12.9498  21
   0   7   1 20.5186 3.23221   5
   0   7   1 7.42100 6.44271  21
  -5   8   1 25.1957 4.78411   4
  -4   8   1 33.8835 3.40265  10
  -3   8   1 81.2019 5.62785  10
  -2   8   1 36.4400 3.75625  10
  -4   8  -2 2.35637 3.33867   4
  -5   8  -2 10.8821 3.73430   4
   0   7  -2 85.5685 11.7629  21
  -1   7  -2 45.3703 10.4839  21
  -3   7  -2 6.87432 3.71323   4
  -3   7  -2 6.38958 2.23709  24
  -3   7  -2 7.77764 1.92304  18
  -4   7  -2 14.8225 3.83024  24
  -4   7  -2 14.3915 2.98262  18
  -4   7  -2 19.7539 6.17245   4
  -5   7  -2 18.3215 2.94340  18
  -5   7  -2 22.1233 3.94931  24
  -5   7  -2 24.0308 6.44253   4
  -6   7  -2 15.5913 4.82357   4
  -6   7  -2 9.26851 2.03675  14
   2   6  -2 33.9884 3.77446   5
   2   6  -2 32.4984 9.78635  21
   1   6  -2 204.532 12.4240   5
   1   6  -2 193.974 17.2833  21
   0   6  -2 251.797 14.4707   5
   0   6  -2 220.121 19.2367  21
  -1   6  -2 53.7399 4.59818  10
  -1   6  -2 50.0044 11.1959  21
  -1   6  -2 46.0757 6.51875   9
  -2   6  -2 20.0033 6.67463   4
  -2   6  -2 20.4618 2.84204  18
  -2   6  -2 21.6355 3.32346  24
  -3   6  -2 4.32314 2.32798  24
  -3   6  -2 0.70858 3.32248   4
  -3   6  -2 1.42719 1.83439  18
   3  -6   2 6.45783 2.27619  23
  -4   6  -2 181.036 13.7735   4
  -4   6  -2 202.157 11.8665  18
  -4   6  -2 209.640 12.2668  24
   4  -6   2 184.758 12.9731  23
  -5   6  -2 39.9550 3.96023  18
  -5   6  -2 48.2363 7.51915   4
  -5   6  -2 43.1775 4.65906  24
  -5   6  -2 41.3334 3.83940  14
  -6   6  -2 7.94093 1.90273  18
  -6   6  -2 11.3369 1.89281  14
  -6   6  -2 17.1107 4.31426   4
  -7   6  -2 34.6515 3.42287  14
   3   5  -2 14.2673 3.22348   5
   3   5  -2 9.11792 4.85179  21
   2   5  -2 165.786 10.7035   5
   2   5  -2 168.569 15.4960  21
   1   5  -2 85.4479 6.36774   5
   1   5  -2 74.8129 12.8479  21
  -1  -5   2 77.7719 5.80902  23
   0   5  -2 42.3080 7.24609   6
   0   5  -2 35.8769 10.4822  21
   0   5  -2 35.0026 5.67993   9
   0   5  -2 38.0536 4.32782  10
   0   5  -2 36.9089 4.30563   5
   0  -5   2 49.0526 3.41511  23
  -1   5  -2 86.1776 5.82600  10
  -1   5  -2 90.8174 5.60964  18
  -1   5  -2 76.9021 7.01387   9
  -1   5  -2 89.6338 10.8844  21
  -1   5  -2 86.7500 8.94866   6
  -2   5  -2 213.746 11.9999  18
  -2   5  -2 199.649 12.9931   4
  -2   5  -2 197.930 14.5624   6
  -2   5  -2 198.238 12.2825  24
  -3   5  -2 12.8720 2.72573  18
  -3   5  -2 6.78167 3.18564   4
  -3   5  -2 14.0793 2.59281  24
   3  -5   2 12.3337 2.56540  23
  -4   5  -2 74.3376 5.15641  18
  -4   5  -2 49.5416 7.83650   4
  -4   5  -2 68.0713 5.12560  14
  -4   5  -2 61.0126 5.09612  12
  -4   5  -2 76.6234 5.67969  24
   4  -5   2 79.2829 7.37191  23
  -5   5  -2 26.9866 3.77351  12
  -5   5  -2 21.3916 7.58926   4
  -5   5  -2 22.8903 3.44131  18
  -5   5  -2 23.0418 4.06029  24
  -5   5  -2 28.5519 3.54339  14
   5  -5   2 23.0182 5.22578  23
  -6   5  -2 46.0736 7.13938   4
  -6   5  -2 46.2529 3.98052  14
  -6   5  -2 48.1517 4.48119  12
  -7   5  -2 5.20188 1.43004  14
   4   4  -2 48.6237 8.72915  21
   4   4  -2 58.1525 4.43898   5
   3   4  -2 10.8858 2.52044   5
   3   4  -2 4.99162 5.45734  21
   3   4  -2 10.0866 7.85551   2
  -3  -4   2 8.72321 1.83430  13
   2   4  -2 129.188 13.6159  21
   2   4  -2 152.930 9.18614   5
  -2  -4   2 127.699 9.17410  23
  -2  -4   2 140.917 8.77925  13
   1   4  -2 101.833 8.54715   9
   1   4  -2 106.292 7.77834   5
   1   4  -2 131.794 12.5562  21
   1   4  -2 114.866 10.0571   6
  -1  -4   2 130.604 8.95848  19
  -1  -4   2 132.652 7.75762  23
  -1  -4   2 121.327 7.56140  13
   0   4  -2 17.1839 2.90002   9
   0   4  -2 23.7460 4.13312   6
   0   4  -2 16.6107 4.99273  21
   0  -4   2 13.7884 1.92061  23
   0  -4   2 9.85763 2.52288  19
  -1   4  -2 410.047 23.6240   6
  -1   4  -2 371.957 22.1126  18
   1  -4   2 384.552 24.8293   8
  -2   4  -2 698.161 39.6104  18
  -3   4  -2 660.649 38.4940  24
  -3   4  -2 704.695 38.3787  18
   3  -4   2 658.112 38.7269  23
  -4   4  -2 3.28980 3.78562   4
  -4   4  -2 7.40967 2.02321  13
  -4   4  -2 10.1771 1.94821  14
  -4   4  -2 12.8040 2.04685  18
  -4   4  -2 3.28409 1.88653  12
  -4   4  -2 10.5105 2.38757  24
   4  -4   2 3.80929 3.80924  23
  -5   4  -2 79.7190 6.10732  12
  -5   4  -2 79.2062 5.68978  14
  -5   4  -2 80.3920 5.90212  13
  -5   4  -2 72.0724 5.66173  18
  -5   4  -2 86.8486 9.08193   4
   5  -4   2 79.0767 9.16916  23
  -6   4  -2 55.2339 7.33825   4
  -6   4  -2 62.7160 4.54377  14
  -6   4  -2 51.7838 4.76438  13
  -7   4  -2 15.2006 2.71339  12
  -7   4  -2 14.5334 2.44002  14
   5   3  -2 3.44401 3.28378   2
  -5  -3   2 13.8279 3.15795  16
   4   3  -2 23.6892 8.76830  21
   4   3  -2 22.7282 3.86791   5
   4   3  -2 19.1185 5.99678   2
  -4  -3   2 22.3231 3.01341  13
  -4  -3   2 23.2241 4.39824   7
   3   3  -2 220.877 17.5636  21
   3   3  -2 235.878 14.0162   5
   3   3  -2 270.886 15.4866   2
  -3  -3   2 217.598 13.7146  13
  -3  -3   2 191.184 14.1864  23
  -3  -3   2 232.279 14.0497   7
   2   3  -2 8.74619 4.15747   6
   2   3  -2 12.9682 5.07567  21
   2   3  -2 14.6928 5.01373   2
   2   3  -2 15.5036 3.17670   5
   2   3  -2 10.1139 2.77196  17
  -2  -3   2 11.7990 2.28493  23
  -2  -3   2 13.6873 3.18021  19
  -2  -3   2 12.0672 1.96736  13
   1   3  -2 239.144 16.3458   9
   1   3  -2 286.710 20.7504  21
   1   3  -2 276.124 16.9435   6
  -1  -3   2 259.765 16.4422  19
  -1  -3   2 272.974 15.5985  23
   0   3  -2 703.150 40.2609   6
   0  -3   2 709.581 40.2607  19
   0  -3   2 673.845 40.6058  15
  -1   3  -2 273.670 17.4875   6
   1  -3   2 299.150 17.8551  15
  -2   3  -2 268.297 14.5850  13
   2  -3   2 237.432 14.6773  23
  -3   3  -2 224.218 13.1326  13
  -3   3  -2 231.344 13.2280  18
   3  -3   2 221.673 13.9966  23
  -4   3  -2 74.6307 5.73342  24
  -4   3  -2 78.9345 7.60305   4
  -4   3  -2 81.2335 5.41382  18
  -4   3  -2 91.6314 6.03660  14
  -4   3  -2 79.5808 5.47954  13
   4  -3   2 69.7927 8.22210  23
  -5   3  -2 95.7178 6.01419  14
  -5   3  -2 79.4646 8.96596   4
  -5   3  -2 89.4445 6.19442  12
  -5   3  -2 75.1707 7.03888   7
  -5   3  -2 98.7725 6.26383  13
   5  -3   2 69.2601 9.88651   2
  -6   3  -2 27.9994 3.75910  13
  -6   3  -2 34.5064 4.22363  12
  -6   3  -2 30.2778 3.43151  14
  -6   3  -2 29.9642 5.03600   7
   6  -3   2 35.0072 7.33511   2
  -7   3  -2 14.1609 2.91671   7
  -7   3  -2 20.9007 2.57487  12
   5   2  -2 13.9233 3.94345   2
  -5  -2   2 6.68043 2.36173   7
   4   2  -2 49.4396 9.38916  21
   4   2  -2 55.2035 6.57996  17
   4   2  -2 37.2528 4.64535   5
   4   2  -2 33.4399 6.93004   2
  -4  -2   2 41.6652 4.12097  13
  -4  -2   2 40.3810 5.53174   7
   3   2  -2 143.501 9.66788   2
   3   2  -2 137.876 11.2924  21
   3   2  -2 111.090 10.1940   6
   3   2  -2 97.8538 8.58853  17
   3   2  -2 120.944 7.96386   5
  -3  -2   2 120.541 8.02391   7
  -3  -2   2 113.042 9.19650  19
  -3  -2   2 122.443 7.73232  13
  -3  -2   2 118.567 8.46972  23
   2   2  -2 24.3378 4.32087   6
  -2  -2   2 29.2560 3.39643  23
  -2  -2   2 26.5868 4.08979  19
  -2  -2   2 25.6925 2.77369  13
   1   2  -2 577.470 35.4320  15
   1   2  -2 637.611 34.7946   6
  -1  -2   2 577.667 35.1112  15
  -1  -2   2 609.460 34.0882  23
  -1  -2   2 592.778 34.6971  19
   0   2  -2 330.512 19.5115   6
   0  -2   2 332.249 19.7068  15
  -1   2  -2 59.4316 5.25124   6
  -2   2  -2 191.631 11.2510  13
   2  -2   2 195.162 13.0481  15
   2  -2   2 199.285 11.8082  23
  -3   2  -2 243.566 15.0367  19
  -3   2  -2 246.813 14.2554  13
   3  -2   2 250.702 15.4590  23
  -4   2  -2 0.40712 2.31103  19
  -4   2  -2 2.76570 1.50852  13
   4  -2   2 1.97026 3.88407  23
  -5   2  -2 83.8798 6.46764   7
  -5   2  -2 55.9963 4.88625  14
  -5   2  -2 70.1676 5.60117  12
  -5   2  -2 71.8462 5.29571  13
  -6   2  -2 75.0478 6.40888  13
  -6   2  -2 84.2661 6.54999  12
  -6   2  -2 92.4829 7.44111   7
   6  -2   2 125.420 9.53591   2
  -7   2  -2 11.4871 2.20492  12
  -7   2  -2 11.9759 2.26077   7
   7  -2   2 12.4388 4.61479   2
   6   1  -2 8.76994 3.66283   2
  -6  -1   2 5.88672 1.94334   7
   5   1  -2 4.72864 4.11659   2
  -5  -1   2 0.93525 2.53551   7
  -5  -1   2 4.13034 2.00580  13
   4   1  -2 20.5019 6.22208   2
   4   1  -2 37.4659 8.51232  21
   4   1  -2 16.7479 4.97507  17
  -4  -1   2 27.1145 4.29513   7
  -4  -1   2 23.1386 6.69439  19
  -4  -1   2 26.2475 3.25762  13
   3   1  -2 1.26373 3.84525  21
  -3  -1   2 2.83690 2.50466  19
  -3  -1   2 -1.0161 1.36620  13
  -3  -1   2 1.71366 1.99330  23
  -2  -1   2 43.8811 3.56813  13
  -2  -1   2 73.4027 6.28571  15
  -2  -1   2 43.6635 4.15780  23
  -2  -1   2 48.7499 4.77851  19
   1   1  -2 1705.11 96.1181  15
  -1  -1   2 1712.73 95.8924  19
  -1  -1   2 1680.92 96.0620  15
  -1  -1   2 1678.81 95.5116  23
   0   1  -2 406.356 24.3309   6
   0  -1   2 444.503 24.2582  15
   1  -1   2 638.790 38.1008  23
   1  -1   2 703.957 38.4895  15
  -2   1  -2 1159.25 64.9276  19
   2  -1   2 1113.53 64.9445  23
   2  -1   2 1155.38 65.6302  15
  -3   1  -2 338.913 18.4764  13
  -3   1  -2 331.668 19.2857  19
   3  -1   2 288.793 19.5228  23
  -4   1  -2 13.4448 2.87280  19
  -4   1  -2 11.6751 2.46728  13
   4  -1   2 5.09834 3.14173   2
  -5   1  -2 70.7300 5.73251  12
  -5   1  -2 67.7507 6.50085   7
  -5   1  -2 66.2265 5.33288  13
   5  -1   2 78.5975 8.05366   2
   5  -1   2 65.4866 6.23515  17
  -6   1  -2 93.9799 6.16733  12
  -6   1  -2 88.3979 7.26766   7
  -6   1  -2 90.3577 6.13841  13
   6  -1   2 75.3551 8.55349   2
   6  -1   2 88.7782 7.41939  17
   6   0  -2 26.9714 5.93829   2
  -6   0   2 25.7750 4.47386   7
   5   0  -2 40.8705 7.33491   2
   5   0  -2 46.6186 6.42968  17
  -5   0   2 46.0439 4.33345  13
  -5   0   2 37.4477 5.70464   7
   4   0  -2 164.823 11.2907  17
   4   0  -2 159.379 11.9990   2
  -4   0   2 173.224 10.3254  13
  -4   0   2 179.163 11.9433  19
  -4   0   2 174.506 10.7026   7
  -3   0   2 54.0505 5.41117  19
  -3   0   2 57.0319 3.97018  13
   2   0  -2 546.545 32.2230  15
  -2   0   2 527.820 31.0307  23
  -2   0   2 566.253 31.3895  19
  -2   0   2 532.578 31.1600  13
   1   0  -2 11.2944 4.22651   8
   1   0  -2 10.5830 2.90382  15
  -1   0   2 8.66636 1.66274  19
   0   0  -2 325.786 19.0298  15
   0   0  -2 337.541 19.5420   8
  -1   0  -2 270.065 17.3432   8
  -1   0  -2 317.180 17.7597  15
  -1   0  -2 281.121 16.8493  19
   1   0   2 302.198 17.6865  15
  -2   0  -2 20.0752 2.65283  23
  -2   0  -2 19.7518 1.96686  13
  -2   0  -2 21.5569 5.49638  15
  -2   0  -2 22.0145 2.90627  19
   2   0   2 17.8514 3.00483  23
  -3   0  -2 241.539 14.5661  19
  -3   0  -2 228.899 13.6180  13
  -4   0  -2 39.2123 4.93834   7
  -4   0  -2 38.0970 4.15051  12
  -4   0  -2 40.1429 5.00708  19
  -4   0  -2 42.8716 3.67056  13
   4   0   2 40.9247 4.62483  17
  -5   0  -2 240.532 14.7028  13
  -5   0  -2 270.190 14.8533  12
  -5   0  -2 244.878 15.3319   7
   5   0   2 248.040 15.6147  17
   5   0   2 231.970 16.4146   2
  -6   0  -2 10.1031 2.66550   7
   6   0   2 14.7774 3.52568  17
   6   0   2 6.33586 3.82548   2
  -7   1   2 39.6366 3.96452   7
   6  -1  -2 7.13675 4.22015   2
  -6   1   2 1.89150 1.93864  13
  -6   1   2 0.59205 2.55810   7
   5  -1  -2 37.4690 7.45140   2
  -5   1   2 41.7329 5.19845   7
  -5   1   2 47.2440 4.28994  13
  -4   1   2 45.2122 5.37485  19
  -4   1   2 49.7677 3.96013  13
  -3   1   2 216.755 12.5224  19
  -3   1   2 184.923 11.5768  13
   2  -1  -2 339.726 21.0119   8
   2  -1  -2 310.073 20.4787  15
   2  -1  -2 321.890 19.4532  23
  -2   1   2 356.203 19.3828  19
   1  -1  -2 692.095 40.9064  23
   1  -1  -2 740.856 41.9376   8
  -1   1   2 729.225 40.8157  19
   0  -1  -2 278.826 17.0535  23
   0  -1  -2 300.474 16.9298  19
   0  -1  -2 306.480 18.2694   8
   0  -1  -2 317.820 18.1739  15
   0   1   2 290.917 17.2007   6
   0   1   2 299.506 18.1292  15
  -1  -1  -2 1529.70 82.5997  15
  -1  -1  -2 1389.63 81.5974  19
  -1  -1  -2 1406.41 81.4774  23
   1   1   2 1455.37 82.5709  15
  -2  -1  -2 406.019 23.6221  23
  -2  -1  -2 399.769 23.8946  19
  -2  -1  -2 419.525 23.2701  13
  -3  -1  -2 195.991 12.6380  19
  -3  -1  -2 198.100 11.6340  13
  -4  -1  -2 61.5374 4.61286  13
  -4  -1  -2 61.6594 6.24037   7
   4   1   2 56.9914 5.74460  17
   4   1   2 64.7823 6.86132   2
  -5  -1  -2 7.91129 2.74544   7
  -5  -1  -2 6.26378 1.81781  13
   5   1   2 10.1853 3.09981  17
   5   1   2 9.58358 4.29344   2
  -6  -1  -2 33.0142 4.30252   7
   6   1   2 34.0640 4.45210  17
   6   1   2 27.5925 5.01036   2
  -7   2   2 21.1210 4.03685   7
   6  -2  -2 88.3428 7.92651   3
  -6   2   2 94.2836 7.25030   7
  -6   2   2 92.8916 6.34311  13
  -5   2   2 8.89696 2.11398  13
  -5   2   2 3.00408 3.35066  19
  -5   2   2 7.88964 1.92247  14
  -5   2   2 6.47176 2.19828  12
  -5   2   2 2.64674 2.55154   7
  -4   2   2 20.5523 3.19207  18
  -4   2   2 18.2964 4.02611  19
  -4   2   2 21.0440 2.70361  13
   3  -2  -2 78.9907 8.68735   8
   3  -2  -2 60.3481 6.33828  23
  -3   2   2 70.1110 5.39944  19
  -3   2   2 66.6964 4.41193  13
   2  -2  -2 280.437 17.8195   8
   2  -2  -2 275.047 16.0690  23
  -2   2   2 263.589 15.7703  19
   1  -2  -2 938.694 54.3373   8
   1  -2  -2 956.479 54.2954  15
   1  -2  -2 952.387 52.9899  23
  -1   2   2 905.007 53.3533   6
   0  -2  -2 344.411 20.6981   8
   0  -2  -2 310.181 18.4721  19
   0  -2  -2 303.895 20.0355  15
   0  -2  -2 334.189 18.5584  23
   0   2   2 322.284 18.9987   6
   0   2   2 331.785 20.3292  15
  -1  -2  -2 530.672 32.8595  19
  -1  -2  -2 559.281 32.7391  23
   1   2   2 635.004 33.3899   6
  -2  -2  -2 286.006 16.7017  23
  -2  -2  -2 268.273 16.1291  13
  -2  -2  -2 283.631 16.9631  19
   2   2   2 286.459 17.7356   6
  -3  -2  -2 20.3330 3.90420  19
  -3  -2  -2 23.4445 2.72891  13
  -3  -2  -2 22.2999 4.37123  23
   3   2   2 20.5834 3.88554  17
   3   2   2 23.5375 7.68666   1
   3   2   2 19.0684 4.63805   6
   3   2   2 21.5291 5.39611   2
   3   2   2 21.0125 3.06007   5
   3   2   2 18.6395 3.62583  11
  -4  -2  -2 8.19506 2.66652   7
  -4  -2  -2 4.11362 1.69307  13
   4   2   2 6.79820 4.10088   2
   4   2   2 5.53306 2.72705  17
  -5  -2  -2 80.9173 6.44443   7
   5   2   2 86.7410 6.62123  17
   5   2   2 62.9480 6.86395   2
   7  -3  -2 53.2498 5.81030   3
  -7   3   2 66.4249 5.46174   7
  -6   3   2 2.09332 3.06337   7
  -6   3   2 5.79366 2.11675  12
  -5   3   2 18.2685 2.83033  18
  -5   3   2 15.4222 3.07985   7
  -5   3   2 19.3473 3.57070  12
  -5   3   2 17.8686 3.36189  14
   4  -3  -2 28.1440 4.70533  23
  -4   3   2 20.5998 3.43734  18
   3  -3  -2 30.7722 4.91037  23
   3  -3  -2 42.4913 7.62236   8
  -3   3   2 25.4549 3.49128  18
   2  -3  -2 467.183 26.5014  23
   2  -3  -2 453.492 28.6965   8
   1  -3  -2 60.2149 7.69647   8
   1  -3  -2 50.2287 3.81200  23
  -1   3   2 50.9399 5.40644   6
   0  -3  -2 287.234 16.7807  23
   0  -3  -2 296.409 20.0405   8
   0   3   2 286.807 17.6191   6
  -1  -3  -2 42.4397 3.91595  23
  -1  -3  -2 38.5727 9.01733   8
   1   3   2 43.1400 5.62688   6
  -2  -3  -2 7.47460 2.54656  23
   2   3   2 10.1467 2.04677  11
   2   3   2 6.84477 3.87515   1
   2   3   2 8.79662 2.33885  17
   2   3   2 8.70485 4.60881  21
   2   3   2 5.30817 1.74193   5
   2   3   2 5.65336 3.77183   6
  -3  -3  -2 52.7087 5.66735  23
   3   3   2 53.3907 4.63206   5
   3   3   2 46.8203 5.68578  17
   3   3   2 45.6821 5.14415  11
  -4  -3  -2 5.55109 2.55607   7
   4   3   2 6.65048 2.91918  17
  -5  -3  -2 100.046 6.63851   7
   7  -4  -2 29.0679 4.98641   3
  -7   4   2 25.4984 4.25064   7
  -7   4   2 11.6300 2.26486  10
  -6   4   2 10.6743 3.16303   7
  -6   4   2 15.7846 3.27366  14
  -6   4   2 5.93636 2.30629  18
   5  -4  -2 90.1106 10.1778  23
  -5   4   2 96.8364 7.08119  18
  -5   4   2 99.2523 6.66059  14
  -5   4   2 97.1778 7.86591   7
   4  -4  -2 34.3079 6.70663  23
  -4   4   2 31.9406 4.07738  18
  -4   4   2 34.8773 3.61263  14
  -4   4   2 34.5550 4.08879  24
  -4   4   2 37.6008 6.01465   4
  -4   4   2 39.5722 4.67453   7
   3  -4  -2 163.913 10.4655  23
  -3   4   2 152.531 9.81193  24
  -3   4   2 161.304 9.81023  18
   2  -4  -2 23.3252 7.46713   8
   2  -4  -2 22.2758 3.35150  23
  -2   4   2 17.2636 2.85450  18
  -2   4   2 14.8873 6.38211  21
  -2   4   2 13.9063 3.79000   6
   1  -4  -2 50.2904 8.47181   8
   1  -4  -2 52.7042 3.81629  23
  -1   4   2 40.9027 8.60144  21
  -1   4   2 49.7531 6.03129   6
   0  -4  -2 87.0126 5.72072  23
   0  -4  -2 87.2026 10.7249   8
   0   4   2 81.5202 7.55098   6
   0   4   2 72.5485 10.1135  21
  -1  -4  -2 322.031 17.0348  23
   1   4   2 303.648 18.5126   6
   1   4   2 286.356 16.6900   5
   1   4   2 254.683 19.6879  21
   1   4   2 273.091 16.5838  10
   1   4   2 282.165 18.7023   1
   1   4   2 267.631 16.4985  11
  -2  -4  -2 6.23694 2.63364  23
   2   4   2 3.56752 1.94671   5
   2   4   2 -0.1568 5.28616  21
   2   4   2 4.23312 4.51810   1
   2   4   2 2.82600 1.90976  11
  -3  -4  -2 17.4565 2.88679   7
   3   4   2 24.0315 3.31771  11
   3   4   2 17.8097 3.40655  17
   3   4   2 20.8954 3.44989   5
  -4  -4  -2 2.92657 1.71287   7
   7  -5  -2 10.6570 3.28628   3
  -7   5   2 6.51324 2.21388   7
  -7   5   2 3.88817 1.97690  11
  -6   5   2 4.60792 2.83886   7
  -6   5   2 4.37789 2.54862  11
  -6   5   2 4.28587 1.94821  14
  -6   5   2 0.95547 2.12735  18
  -6   5   2 1.05764 2.00534  10
   5  -5  -2 44.9822 7.82712  23
  -5   5   2 40.0633 5.71041   7
  -5   5   2 36.1310 3.85133  14
  -5   5   2 39.8435 4.47252  18
  -5   5   2 37.5617 6.66861   4
  -5   5   2 37.1870 4.84205  11
  -5   5   2 41.3655 4.31337  10
   4  -5  -2 91.9835 8.79242  23
  -4   5   2 97.2331 6.87451  18
  -4   5   2 94.8027 6.32867  10
  -4   5   2 95.1236 8.48626   4
  -4   5   2 90.6746 6.29320  14
  -4   5   2 94.8651 7.27810   7
  -4   5   2 96.3115 6.63337  11
   3  -5  -2 37.7005 5.16488  23
  -3   5   2 42.0948 4.17691  11
  -3   5   2 45.6343 4.55618   7
  -3   5   2 52.9693 5.97813   4
  -3   5   2 41.5791 4.55030  24
  -3   5   2 42.4380 3.62445  10
  -3   5   2 38.2316 4.20399  18
   2  -5  -2 197.522 11.3870  23
  -2   5   2 187.424 10.8867  10
  -2   5   2 186.472 11.0228  11
  -2   5   2 190.116 12.1562   4
  -2   5   2 188.062 11.0660  18
  -2   5   2 189.833 13.5694   6
  -2   5   2 146.869 15.6803  21
   1  -5  -2 25.3421 3.03692  23
  -1   5   2 15.9748 5.35400   4
  -1   5   2 18.8042 4.61977   6
  -1   5   2 18.1338 2.92792  10
  -1   5   2 24.3958 6.43456  21
  -1   5   2 18.0285 3.00754   5
  -1   5   2 27.3791 4.61056  16
  -1   5   2 18.2952 2.65245  11
   0  -5  -2 235.481 13.7426  23
   0   5   2 218.518 13.4527  10
   0   5   2 220.876 13.3878  11
   0   5   2 232.638 13.7268   5
   0   5   2 212.542 18.3911  21
   0   5   2 242.892 15.6976   6
  -1  -5  -2 2.44227 2.26859  23
   1   5   2 1.11767 1.70344  11
   1   5   2 -0.9362 2.84894  10
   1   5   2 0.09982 1.93382   5
   1   5   2 -2.6500 5.63192  21
   2   5   2 58.2004 5.02764  11
   2   5   2 65.1419 4.91423   5
   2   5   2 50.6164 10.6521  21
  -3  -5  -2 34.2485 3.71662   7
   3   5   2 32.7928 3.30312   5
   7  -6  -2 29.0944 5.18848   3
   6  -6  -2 34.2965 5.89203   3
  -6   6   2 42.8803 5.01518   7
  -6   6   2 46.0316 4.19802  11
  -6   6   2 48.5643 4.05841  10
  -6   6   2 30.7703 5.89401   4
  -6   6   2 53.7850 4.10170  18
  -5   6   2 114.969 7.98287  18
  -5   6   2 110.783 9.88822   4
  -5   6   2 122.435 8.54998   7
  -5   6   2 131.588 8.54486  14
  -5   6   2 113.933 7.95400  11
  -5   6   2 125.808 7.78117  10
   4  -6  -2 89.7880 9.10319  23
  -4   6   2 120.508 9.52067   4
  -4   6   2 97.1051 7.26278  18
  -4   6   2 96.9977 7.17962  11
  -4   6   2 112.701 7.06635  10
  -4   6   2 115.150 7.95024   7
   3  -6  -2 215.084 13.3783  23
  -3   6   2 202.077 12.5227  11
  -3   6   2 198.090 12.5262  18
  -3   6   2 218.202 14.1654   4
  -3   6   2 214.488 12.3999  10
   2  -6  -2 152.903 9.91512  23
  -2   6   2 148.347 16.4323  21
  -2   6   2 146.160 9.52312  11
  -2   6   2 155.055 9.58137  10
  -2   6   2 171.118 11.3996   4
   1  -6  -2 4.64908 2.05134  23
  -1   6   2 7.65299 1.90235  11
  -1   6   2 1.30096 6.28766  21
  -1   6   2 5.89687 2.28136  10
  -1   6   2 9.82234 2.10305   5
   0   6   2 38.8536 4.21315   5
   0   6   2 31.5808 3.66584  11
   0   6   2 29.8834 4.54710  10
   0   6   2 32.0874 7.80264  21
   1   6   2 17.8043 3.51614   5
   1   6   2 20.2047 3.12548  11
   1   6   2 18.3123 6.52418  21
  -2  -6  -2 49.9485 4.04355   7
   2   6   2 45.7623 3.95801   5
  -6   7   2 2.81293 2.98792   4
  -5   7   2 53.1213 4.19444  10
  -5   7   2 47.0725 4.14490  18
  -5   7   2 38.9137 6.58142   4
  -4   7   2 9.28742 2.26943  10
  -4   7   2 13.8396 4.47263   4
  -4   7   2 10.6360 2.36059  18
  -3   7   2 6.76645 2.23521  10
  -3   7   2 10.2974 4.41815   4
  -2   7   2 44.8612 4.53996  10
  -1   7   2 59.5911 12.5752  21
  -1   7   2 58.7594 5.01040  10
   0   7   2 125.062 7.41498   5
   0   7   2 84.8024 13.6395  21
  -4   8   2 -0.1849 1.67027  10
  -3   8   2 44.5170 4.03465  10
  -2   8   2 18.9957 3.16706  10
   0   7  -3 6.89373 6.07944  21
  -1   7  -3 7.92305 6.89027  21
  -3   7  -3 39.9899 7.45547   4
  -3   7  -3 31.6958 3.88454  24
  -3   7  -3 30.9984 3.36483  18
  -4   7  -3 38.1309 6.68657   4
  -4   7  -3 44.1156 4.51969  24
  -4   7  -3 38.0995 3.67606  18
  -5   7  -3 42.2021 6.32765   4
  -5   7  -3 25.5977 3.17288  18
  -5   7  -3 32.9919 4.10920  24
  -6   7  -3 15.5043 2.45530  14
  -6   7  -3 17.4900 4.59140   4
   2   6  -3 11.8879 5.67130  21
   2   6  -3 13.9589 3.13317   5
   1   6  -3 63.4676 11.7958  21
   1   6  -3 69.6515 5.83660   5
   0   6  -3 29.5101 4.42762   5
   0   6  -3 29.5149 11.0738  21
  -1   6  -3 111.835 9.02997   9
  -1   6  -3 112.468 13.0254  21
  -2   6  -3 223.050 13.7719  24
  -2   6  -3 240.869 13.6305  18
  -2   6  -3 226.019 14.9124   9
  -3   6  -3 18.1126 2.90609  18
  -3   6  -3 15.8024 3.76255  24
  -3   6  -3 11.3232 3.87659   4
  -4   6  -3 15.4230 3.74042  24
  -4   6  -3 17.5023 3.10720  18
  -4   6  -3 9.47089 4.36761   4
  -4   6  -3 13.5032 2.11872  14
  -5   6  -3 31.3661 3.39024  14
  -5   6  -3 26.6800 7.19615   4
  -5   6  -3 30.6619 3.40505  18
  -5   6  -3 28.3822 4.30974  24
  -6   6  -3 21.8269 6.28212   4
  -6   6  -3 15.0152 3.31953  24
  -6   6  -3 23.2711 2.75204  14
   3   5  -3 15.9753 3.30895   5
   3   5  -3 19.0260 5.83744  21
   2   5  -3 -2.2399 5.69819  21
   2   5  -3 -2.2378 2.35917   5
   1   5  -3 100.172 7.15343   5
   1   5  -3 93.7721 13.1482  21
  -1  -5   3 95.9182 6.67523  23
   0   5  -3 28.5001 5.59998   9
   0   5  -3 34.3369 7.10150   6
   0   5  -3 20.6671 3.86178  10
   0   5  -3 20.1565 6.35015  21
   0   5  -3 24.1666 3.98978   5
   0  -5   3 30.1037 2.76804  23
  -1   5  -3 114.526 6.90084  18
  -1   5  -3 113.494 10.1405   6
  -1   5  -3 100.743 11.4964  21
  -1   5  -3 106.643 8.17544   9
  -2   5  -3 17.2639 4.25306   9
  -2   5  -3 17.2448 4.27203   4
  -2   5  -3 12.7576 4.58290   6
  -2   5  -3 18.6224 2.66934  18
  -2   5  -3 15.1597 3.38838  24
  -3   5  -3 6.19684 3.14794   4
  -3   5  -3 15.3188 2.86895  18
  -3   5  -3 17.9399 3.80693  24
  -3   5  -3 15.2795 2.83575  14
   3  -5   3 16.9754 3.02736  23
  -4   5  -3 100.270 6.67431  14
  -4   5  -3 96.7077 9.48589   4
  -4   5  -3 101.210 6.69651  18
  -4   5  -3 101.080 7.20836  24
   4  -5   3 95.2332 8.76195  23
  -5   5  -3 19.4950 3.97666  24
  -5   5  -3 16.2644 3.09490  18
  -5   5  -3 22.9664 5.24827   4
  -5   5  -3 17.0701 3.22524  14
  -5   5  -3 16.2658 2.67398  12
   5  -5   3 22.3470 6.22118  23
  -6   5  -3 17.7894 4.76009   4
  -6   5  -3 13.4223 2.34665  12
  -6   5  -3 9.62966 1.94400  14
  -7   5  -3 21.4432 2.36287  14
   4   4  -3 3.77134 1.79132   5
   4   4  -3 10.5930 4.56309  21
   3   4  -3 29.1248 6.58449   2
   3   4  -3 25.9741 4.41822   5
   3   4  -3 20.5227 6.05088  21
  -3  -4   3 24.1807 3.00160  13
   2   4  -3 94.9166 7.41935   5
   2   4  -3 100.389 9.36049   2
   2   4  -3 96.7458 12.6719  21
  -2  -4   3 100.210 6.69383  13
  -2  -4   3 97.9583 7.09661  23
   1   4  -3 260.508 17.9201   9
   1   4  -3 331.313 21.0858  21
   1   4  -3 290.585 19.2071   6
   1   4  -3 287.939 17.5308   5
  -1  -4   3 295.347 17.3785  13
  -1  -4   3 319.624 17.5448  23
  -1  -4   3 294.680 18.7139  19
   0   4  -3 75.9285 6.58076   9
   0   4  -3 78.6025 7.78481   6
   0   4  -3 78.9959 9.27825  21
   0  -4   3 80.6702 5.12866  23
   0  -4   3 75.0335 6.78381  19
  -1   4  -3 881.907 51.9087   9
  -1   4  -3 923.068 51.6718  18
  -1   4  -3 937.259 52.9785   6
  -2   4  -3 235.659 13.6943  24
  -2   4  -3 234.072 13.4786  18
   2  -4   3 222.343 13.5237  23
  -3   4  -3 18.6553 3.19560  24
  -3   4  -3 18.6829 2.68817  18
  -3   4  -3 26.9897 8.09140   4
   3  -4   3 17.8476 3.21954  23
  -4   4  -3 143.450 9.80505  12
  -4   4  -3 149.194 11.9410   4
  -4   4  -3 158.151 9.87929  13
  -4   4  -3 167.008 10.0826  24
  -4   4  -3 168.111 9.74781  18
  -4   4  -3 165.773 9.76631  14
   4  -4   3 155.153 11.7595  23
  -5   4  -3 36.6428 4.29806  13
  -5   4  -3 38.5309 3.90153  14
  -5   4  -3 28.3856 7.66041   4
  -5   4  -3 34.1458 4.33228  12
  -5   4  -3 38.9165 4.17884  18
  -5   4  -3 41.3216 4.75081  24
  -6   4  -3 10.9296 2.55247  13
  -6   4  -3 33.2219 6.68496   4
  -6   4  -3 20.8030 3.77774  12
  -6   4  -3 18.6913 3.06884  14
  -7   4  -3 12.1725 2.51240  12
  -7   4  -3 10.2681 2.18456  14
   5   3  -3 56.5911 7.24620   2
   4   3  -3 37.0084 6.55047   2
   4   3  -3 36.1238 4.33549   5
   4   3  -3 33.3295 9.06642  21
  -4  -3   3 39.4257 3.74473  13
   3   3  -3 111.309 9.48978   2
   3   3  -3 100.482 7.50737   5
   3   3  -3 105.662 12.3293  21
  -3  -3   3 96.3074 7.61498  23
  -3  -3   3 102.172 7.04251  13
   2   3  -3 549.685 32.2816   5
   2   3  -3 475.135 32.4738   9
   2   3  -3 640.377 34.8483  21
   2   3  -3 558.932 33.1074   2
   2   3  -3 560.028 33.7571   6
  -2  -3   3 578.944 32.4944  23
  -2  -3   3 554.614 33.4279  19
  -2  -3   3 575.071 32.1512  13
   1   3  -3 188.855 13.9999   9
   1   3  -3 258.765 16.3213  21
   1   3  -3 233.686 15.0352   6
  -1  -3   3 240.009 13.7352  23
  -1  -3   3 238.143 14.8007  19
   0   3  -3 69.5849 6.62631   6
   0  -3   3 74.9169 6.33949  19
   0  -3   3 73.8191 4.81355  23
  -1   3  -3 310.356 18.8394   6
   2  -3   3 186.958 11.3452  23
  -3   3  -3 33.1753 3.04394  13
  -3   3  -3 36.1550 3.11718  18
   3  -3   3 29.5495 5.31833  23
  -4   3  -3 27.8350 3.23468  13
  -4   3  -3 28.7818 2.99933  18
  -4   3  -3 24.9628 3.58269  12
  -4   3  -3 21.8257 3.37440  24
  -4   3  -3 27.6514 3.33825  14
  -4   3  -3 24.6661 6.63635   4
   4  -3   3 33.1506 5.27614  23
   4  -3   3 23.2796 6.41674   2
  -5   3  -3 31.1126 3.43348  14
  -5   3  -3 29.8247 3.87155  12
  -5   3  -3 32.3400 3.68363  13
  -5   3  -3 19.8173 7.18726   4
   5  -3   3 29.4528 7.07605   2
  -6   3  -3 15.4569 5.40820   4
  -6   3  -3 10.6081 2.41831  13
  -6   3  -3 11.0742 1.99035  14
  -6   3  -3 13.1416 2.65050  12
   6  -3   3 18.0470 6.50925   2
  -7   3  -3 3.47103 1.49742  12
   5   2  -3 27.7209 5.82598   2
   5   2  -3 24.0310 7.59844  21
  -5  -2   3 33.3656 4.30978  16
  -5  -2   3 30.8470 4.19892   7
   4   2  -3 27.9470 6.69567   2
   4   2  -3 25.5008 9.50887  21
   4   2  -3 29.4688 4.32798   5
  -4  -2   3 28.2077 4.80055   7
  -4  -2   3 30.0145 3.57476  13
   3   2  -3 37.7189 9.12173  21
   3   2  -3 34.2996 5.17365  17
   3   2  -3 40.1828 6.18169   2
   3   2  -3 39.1418 4.57097   5
   3   2  -3 34.9038 6.81588   6
  -3  -2   3 31.9794 5.28404  19
  -3  -2   3 43.3277 5.15064   7
  -3  -2   3 37.0882 3.76811  13
  -3  -2   3 34.9581 4.55363  23
   2   2  -3 136.156 10.8714  21
   2   2  -3 100.080 9.03090   6
   2   2  -3 104.416 13.3857  20
  -2  -2   3 102.730 6.96789  13
  -2  -2   3 116.264 7.50089  23
  -2  -2   3 107.265 8.18249  19
   1   2  -3 2756.88 162.396   6
  -1  -2   3 3011.94 162.681  19
  -1  -2   3 2856.89 161.960  23
   0   2  -3 637.867 35.5580   6
   0  -2   3 645.388 35.5489  15
   0  -2   3 575.745 35.1054  23
  -1   2  -3 384.573 22.7988   6
   1  -2   3 396.762 22.3382  23
  -2   2  -3 115.624 6.77121  13
   2  -2   3 107.017 8.04061  23
   2  -2   3 112.453 8.52348  15
  -3   2  -3 361.465 20.6021  13
   3  -2   3 357.655 21.7426  23
  -4   2  -3 168.275 11.1536  12
  -4   2  -3 157.737 10.1228  13
   4  -2   3 178.981 11.8534   2
  -5   2  -3 13.7580 2.86224  14
  -5   2  -3 15.4087 2.94035   7
  -5   2  -3 15.1017 3.21409  13
  -5   2  -3 17.5167 4.53387   4
  -5   2  -3 19.3618 3.98171  12
   5  -2   3 31.4736 6.82567   2
  -6   2  -3 11.9128 2.42643  13
  -6   2  -3 26.1973 4.66945   7
  -6   2  -3 16.0700 2.67587  12
   6  -2   3 23.5016 6.73321   2
  -7   2  -3 4.29453 1.28288  12
   7  -2   3 5.52199 3.65177   2
   6   1  -3 9.40909 3.59567   2
  -6  -1   3 9.24039 1.92237   7
   5   1  -3 20.4318 6.44624   2
   5   1  -3 16.8022 5.47047  21
  -5  -1   3 21.6779 4.57655   7
  -5  -1   3 23.8045 3.48730  13
  -5  -1   3 22.3785 4.23994  16
   4   1  -3 69.8255 9.75858   6
   4   1  -3 132.966 11.3824  21
   4   1  -3 96.1996 9.05775   2
  -4  -1   3 103.372 7.61371   7
  -4  -1   3 106.938 6.96983  13
   3   1  -3 52.2572 11.9227  20
  -3  -1   3 56.2099 4.21860  13
  -3  -1   3 54.7439 5.79368  19
  -3  -1   3 58.0357 5.27380  23
  -2  -1   3 2835.51 162.260  13
  -2  -1   3 2939.22 163.039  19
  -2  -1   3 2873.34 162.519  23
   1   1  -3 2405.76 129.625   6
   1   1  -3 2268.23 129.781  15
  -1  -1   3 2261.61 129.811  19
  -1  -1   3 2249.64 129.411  23
   0   1  -3 627.661 34.2319   6
   0  -1   3 575.677 34.2480  23
   1  -1   3 1118.66 57.5207  15
   1  -1   3 905.774 57.1224   8
  -2   1  -3 144.978 8.92473  19
  -2   1  -3 139.158 8.24137  13
   2  -1   3 137.187 10.2041  15
  -3   1  -3 436.533 25.2293  19
  -3   1  -3 419.237 24.3894  13
  -4   1  -3 53.7163 4.20098  13
  -4   1  -3 51.5926 5.98368   7
  -4   1  -3 53.6551 5.36614  19
  -4   1  -3 55.6180 4.42816  12
   4  -1   3 65.7017 7.29437  17
   4  -1   3 45.7229 6.25667   2
  -5   1  -3 142.426 9.93792   7
  -5   1  -3 138.518 9.05849  13
  -5   1  -3 143.474 9.40478  12
   5  -1   3 155.632 11.4840   2
   5  -1   3 142.475 9.95619  17
  -6   1  -3 68.1047 5.31797  12
  -6   1  -3 68.7323 6.25801   7
   6  -1   3 73.7675 7.86012   2
   6  -1   3 64.3591 6.58082  17
   6   0  -3 55.5228 6.79174   2
  -6   0   3 48.0196 5.03347   7
   5   0  -3 31.4589 9.32329  21
   5   0  -3 29.9259 6.94194   2
  -5   0   3 24.3786 5.09239   7
  -5   0   3 24.7012 5.59263  16
  -5   0   3 31.5804 3.79451  13
   4   0  -3 78.2696 8.01392   2
   4   0  -3 88.9216 7.50441  17
  -4   0   3 90.5371 5.92769  13
  -4   0   3 87.6697 6.46243   7
  -4   0   3 83.7286 7.68131  19
  -3   0   3 100.786 6.34022  13
  -3   0   3 101.260 7.71838  19
   2   0  -3 1766.92 107.058  15
  -2   0   3 1958.88 106.281  23
  -2   0   3 1813.32 105.978  13
  -2   0   3 1990.12 106.605  19
   1   0  -3 73.2876 8.46316   8
   1   0  -3 79.0451 6.30481  15
  -1   0   3 77.5646 5.40032  19
  -1   0   3 75.2687 5.41448  23
   0   0  -3 707.250 40.8749   8
   0   0  -3 700.256 40.0909  15
  -1   0  -3 1077.01 63.3467   8
  -1   0  -3 1193.72 63.6431  15
  -1   0  -3 1111.70 63.0209  19
   1   0   3 993.793 63.1655  23
   1   0   3 1193.04 63.6302  15
  -2   0  -3 3623.12 201.354  15
  -2   0  -3 3675.47 200.619   8
  -2   0  -3 3547.18 199.793  13
  -2   0  -3 3731.10 200.307  19
   2   0   3 3183.17 200.325  23
  -3   0  -3 959.860 52.9916  13
  -3   0  -3 911.651 53.7663  19
  -4   0  -3 22.7777 5.08899   7
  -4   0  -3 27.0140 3.00846  13
  -4   0  -3 32.7202 3.55506  12
  -4   0  -3 28.2029 4.54910  19
   4   0   3 30.0993 4.19716  17
   4   0   3 20.0838 5.13579   2
  -5   0  -3 42.1629 3.87794  13
  -5   0  -3 44.2978 4.70223  12
  -5   0  -3 41.9631 5.89050   7
   5   0   3 51.8174 5.69673  17
   5   0   3 27.9076 6.42104   2
  -6   0  -3 -0.4979 2.02250   7
   6   0   3 6.04786 3.13425  17
   6   0   3 1.17197 3.14117   2
  -7   1   3 33.7354 4.95733   7
   6  -1  -3 18.8112 4.47333   2
  -6   1   3 12.0971 2.76030   7
  -6   1   3 8.74752 2.65758  13
   5  -1  -3 10.7620 4.47888   2
  -5   1   3 11.8582 2.80253   7
  -5   1   3 13.4735 2.40797  13
  -4   1   3 42.6801 5.41848  19
  -4   1   3 42.2534 5.04160   7
  -4   1   3 46.2635 3.75525  13
  -3   1   3 64.9672 4.46479  13
  -3   1   3 77.2000 5.79841  19
   2  -1  -3 171.539 13.3693   8
   2  -1  -3 168.891 10.9290  23
  -2   1   3 183.752 10.7309  19
   1  -1  -3 290.088 17.3225  23
   1  -1  -3 297.343 18.8460   8
  -1   1   3 306.932 17.1093  19
   0  -1  -3 324.621 19.6819   8
   0  -1  -3 317.910 18.3521  23
   0  -1  -3 332.857 19.4443  15
   0   1   3 318.012 19.4379  15
   0   1   3 305.254 18.2993   6
  -1  -1  -3 597.636 36.9360   8
  -1  -1  -3 648.232 36.9333  15
  -1  -1  -3 605.372 35.6223  23
  -1  -1  -3 631.428 35.6980  19
   1   1   3 630.533 35.8655   6
   1   1   3 648.568 37.0025  15
  -2  -1  -3 3287.06 185.733   8
  -2  -1  -3 3194.26 184.497  19
  -2  -1  -3 3289.18 184.230  23
  -2  -1  -3 3306.88 183.943  13
  -3  -1  -3 212.030 13.6216  19
  -3  -1  -3 216.061 12.5888  13
  -4  -1  -3 21.5936 3.84348  12
  -4  -1  -3 23.4201 3.29477   7
  -4  -1  -3 27.7955 3.13423  13
   4   1   3 16.4982 4.93769   6
   4   1   3 25.7284 5.96158   2
   4   1   3 21.8279 4.23898  17
  -5  -1  -3 61.5993 4.92973  13
  -5  -1  -3 66.5680 6.63096   7
   5   1   3 71.4745 6.62908  17
   5   1   3 83.5430 7.79123   2
  -6  -1  -3 23.8885 3.68113   7
   6   1   3 26.4135 3.97414  17
   6   1   3 23.7294 4.52551   2
  -7   2   3 41.0366 4.60507   7
   6  -2  -3 100.141 8.43902   3
  -6   2   3 109.569 8.05412   7
  -5   2   3 4.25390 2.02729  13
  -5   2   3 2.31106 2.17602  12
  -5   2   3 2.54424 2.60222   7
  -4   2   3 1.98860 2.14456  18
  -4   2   3 1.99113 1.66241  13
   3  -2  -3 148.810 10.5576  23
   3  -2  -3 160.422 13.3144   8
  -3   2   3 153.726 9.78636  19
   2  -2  -3 60.5639 8.17689   8
   2  -2  -3 60.3908 5.33658  23
   1  -2  -3 695.702 40.8478  15
   1  -2  -3 693.761 39.4419  23
   1  -2  -3 726.317 41.1946   8
  -1   2   3 663.169 39.6954   6
   0  -2  -3 173.004 12.3629   8
   0  -2  -3 158.600 11.7346  15
   0  -2  -3 164.687 9.86322  23
   0   2   3 162.206 10.1786   6
  -1  -2  -3 416.116 23.0824  23
  -1  -2  -3 384.233 23.0798  19
  -1  -2  -3 395.812 25.6612   8
   1   2   3 401.785 23.5672   6
  -2  -2  -3 74.2885 5.67466  19
  -2  -2  -3 63.3768 9.82949   8
  -2  -2  -3 75.1329 5.86518  23
   2   2   3 79.9814 7.23908   6
  -3  -2  -3 43.5632 3.64995  13
   3   2   3 41.7050 4.76748  17
   3   2   3 47.4282 4.06190   5
   3   2   3 49.3820 6.03697   2
   3   2   3 39.8579 6.85649   6
   3   2   3 44.0527 4.53866  11
   3   2   3 46.9735 7.92702   1
  -4  -2  -3 0.70231 2.70069   7
   4   2   3 3.30323 2.63295  17
   4   2   3 2.43120 3.83386   2
  -5  -2  -3 11.6399 2.55255   7
   5   2   3 9.77746 3.38279   2
   5   2   3 14.4385 3.94584  17
   7  -3  -3 127.702 9.35899   3
   7  -3  -3 144.210 8.97209  22
  -7   3   3 149.812 9.11853   7
   6  -3  -3 110.259 9.12442   3
  -6   3   3 95.7779 8.20130   7
  -5   3   3 17.1877 3.42505  14
  -5   3   3 12.9108 3.10800   7
  -5   3   3 17.9155 3.90392  18
   4  -3  -3 237.627 15.6561  23
  -4   3   3 229.860 13.9709  18
  -4   3   3 242.467 13.9461  12
  -4   3   3 222.922 14.0398   7
  -4   3   3 233.403 13.7289  14
   3  -3  -3 0.07128 2.80016  23
   3  -3  -3 7.92417 5.41604   8
  -3   3   3 0.61446 1.98340  18
   2  -3  -3 663.585 41.5538   8
   2  -3  -3 705.965 39.2021  23
   1  -3  -3 82.6537 5.29668  23
   1  -3  -3 71.0907 9.01529   8
  -1   3   3 62.9195 6.29138   6
   0  -3  -3 83.2495 5.71670  23
   0  -3  -3 87.1752 9.70712   8
   0   3   3 74.5031 6.71799   6
  -1  -3  -3 115.480 12.0071   8
  -1  -3  -3 125.591 7.82417  23
   1   3   3 101.395 10.9823  21
   1   3   3 122.256 8.76540   6
  -2  -3  -3 40.4747 4.82254  23
   2   3   3 30.1056 4.27177  17
   2   3   3 36.6335 3.76684  11
   2   3   3 41.2180 6.25758   6
   2   3   3 31.6051 6.83906   1
   2   3   3 27.7433 8.03815  21
   2   3   3 34.5043 3.87149   5
   3   3   3 33.1370 4.94851  17
   3   3   3 31.8783 8.18295   1
   3   3   3 26.5757 4.76944  11
   3   3   3 32.9047 3.96361   5
  -4  -3  -3 -0.6474 2.33939   7
   4   3   3 1.54019 2.39466  17
  -5  -3  -3 81.4405 7.36893   7
   7  -4  -3 55.7099 5.79913   3
  -7   4   3 50.6885 4.93105   7
  -7   4   3 37.2109 4.01744  10
  -6   4   3 6.26255 3.12313   7
  -6   4   3 2.47770 2.28134  18
   5  -4  -3 36.5411 9.57904  23
  -5   4   3 41.2562 3.99530  14
  -5   4   3 31.3156 4.49502  18
  -5   4   3 39.4093 6.00785   7
   4  -4  -3 17.3502 4.75631  23
  -4   4   3 12.2921 2.03783  14
  -4   4   3 14.2960 2.65022  18
  -4   4   3 8.51242 3.39745   4
  -4   4   3 13.3080 2.71167   7
   3  -4  -3 238.472 19.7033   8
   3  -4  -3 287.412 16.4917  23
  -3   4   3 277.214 15.7259  18
  -3   4   3 260.399 15.3542  10
   2  -4  -3 30.8774 4.06028  23
   2  -4  -3 45.9109 8.98281   8
  -2   4   3 30.8327 3.31236  18
  -2   4   3 12.8284 5.97347  21
   1  -4  -3 167.396 9.71938  23
   1  -4  -3 168.376 14.0388   8
  -1   4   3 162.092 11.2484   6
  -1   4   3 126.223 13.1611  21
   0  -4  -3 16.3118 2.40133  23
   0  -4  -3 13.1319 6.46260   8
   0   4   3 16.2998 2.14782  10
   0   4   3 10.6755 5.22061  21
   0   4   3 15.8567 2.98396   5
   0   4   3 15.9732 3.67196   6
   0   4   3 19.6427 2.95326  16
  -1  -4  -3 62.0992 5.73862  23
   1   4   3 63.4257 7.20481   6
   1   4   3 71.4608 8.00581   1
   1   4   3 65.0609 5.51512  10
   1   4   3 62.4607 5.00657   5
   1   4   3 53.5475 10.1661  21
   1   4   3 62.6633 5.05026  11
  -2  -4  -3 102.599 7.89140  23
   2   4   3 86.8326 12.0970  21
   2   4   3 104.832 7.07525   5
   2   4   3 111.723 10.8747   1
   2   4   3 100.394 7.11762  11
   3   4   3 17.9351 3.31710   5
   3   4   3 16.6458 3.89354  17
   3   4   3 25.8494 3.31030  11
  -4  -4  -3 2.16809 1.90500   7
   7  -5  -3 26.5953 3.47019  22
   7  -5  -3 4.70639 2.98660   3
  -7   5   3 14.7417 3.11342  11
  -7   5   3 10.7498 2.14705  10
  -7   5   3 8.45530 2.20850   7
   6  -5  -3 71.4792 8.07285   3
  -6   5   3 85.8781 6.51225  11
  -6   5   3 88.3169 5.99116  10
  -6   5   3 86.0132 7.06854   7
  -6   5   3 87.3419 6.07025  18
   5  -5  -3 43.6589 8.54537  23
  -5   5   3 60.0961 5.62561  11
  -5   5   3 52.7809 5.34858  18
  -5   5   3 56.3577 4.74792  14
  -5   5   3 66.2999 7.38110   4
  -5   5   3 67.9065 5.30944  10
  -5   5   3 70.8869 6.54683   7
   4  -5  -3 605.294 37.5206  23
  -4   5   3 651.621 36.5369  18
  -4   5   3 635.868 36.1354  10
  -4   5   3 646.499 37.2394   4
  -4   5   3 650.687 36.4680   7
  -4   5   3 620.100 36.3023  11
   3  -5  -3 319.143 20.1212  23
  -3   5   3 342.182 20.2871   4
  -3   5   3 323.417 19.0567  10
  -3   5   3 336.628 19.2868  11
  -3   5   3 345.282 19.4849   7
  -3   5   3 319.942 19.4111  18
   2  -5  -3 284.705 16.1023  23
  -2   5   3 260.688 16.0023  16
  -2   5   3 257.758 15.4035  10
  -2   5   3 272.472 16.7144   4
  -2   5   3 240.835 20.9390  21
  -2   5   3 274.808 15.6165  11
   1  -5  -3 62.7192 5.13590  23
  -1   5   3 59.3844 4.48484  11
  -1   5   3 64.5958 7.61745   6
  -1   5   3 59.2442 4.54860  10
  -1   5   3 59.5590 4.92266   5
  -1   5   3 42.2697 11.7737  21
  -1   5   3 62.3147 5.84423  16
   0  -5  -3 53.4173 4.93055  23
   0   5   3 47.2173 6.65430   6
   0   5   3 39.6973 3.91730  11
   0   5   3 34.6310 10.9511  21
   0   5   3 47.0442 4.62790   5
   0   5   3 42.5754 4.64946  10
   0   5   3 43.9650 7.69072   1
  -1  -5  -3 9.78755 2.84616  23
   1   5   3 9.31588 2.94109  10
   1   5   3 8.19431 6.15941  21
   1   5   3 15.2740 5.06117   1
   1   5   3 10.0060 2.23588   5
   1   5   3 10.4457 2.14917  11
   2   5   3 13.1168 5.73303  21
   2   5   3 14.2476 3.12710   5
   2   5   3 15.9548 2.60394  11
  -3  -5  -3 53.3518 4.46341   7
   3   5   3 51.4763 3.96703   5
   6  -6  -3 51.5199 4.52352  22
   6  -6  -3 31.5659 5.71901   3
  -6   6   3 43.6756 4.20219  11
  -6   6   3 43.4540 4.08576  18
  -6   6   3 44.1386 4.06504  10
  -6   6   3 41.0668 4.97410   7
   5  -6  -3 64.2930 6.82809   3
  -5   6   3 63.0825 7.37378   4
  -5   6   3 56.4019 5.27579  18
  -5   6   3 59.2254 5.39048  11
  -5   6   3 69.0704 6.06179   7
  -5   6   3 72.3996 5.26885  10
   4  -6  -3 384.960 23.5913  23
  -4   6   3 355.395 20.9281   7
  -4   6   3 366.116 22.0039   4
  -4   6   3 331.085 20.6014  11
  -4   6   3 362.990 20.5055  10
  -4   6   3 337.207 20.7329  18
   3  -6  -3 74.9957 6.97786  23
  -3   6   3 71.3051 5.41367  11
  -3   6   3 71.5857 5.45706  10
  -3   6   3 67.0377 5.22952  18
  -3   6   3 73.6726 8.02169   4
   2  -6  -3 4.29772 2.56953  23
  -2   6   3 7.83691 2.16607  10
  -2   6   3 17.4240 6.18282   4
  -2   6   3 6.59151 1.94465  11
  -2   6   3 8.78837 3.25624  16
   1  -6  -3 32.4681 4.47174  23
  -1   6   3 33.3019 4.12664   5
  -1   6   3 29.9024 3.98714  10
  -1   6   3 26.4773 7.77008  21
  -1   6   3 33.4312 3.72919  11
   0   6   3 92.0719 6.61283  10
   0   6   3 69.8650 13.5957  21
   0   6   3 84.6650 6.07158  11
   0   6   3 95.6847 6.53317   5
   1   6   3 139.132 8.72344  11
   1   6   3 158.153 8.98127   5
   1   6   3 113.839 13.8369  21
  -2  -6  -3 77.8605 5.45082   7
   2   6   3 81.4062 5.36046   5
  -6   7   3 12.6383 2.35242  11
  -5   7   3 63.4268 7.00476   4
  -5   7   3 67.6836 4.88294  10
  -5   7   3 53.8299 4.74737  18
  -5   7   3 63.3714 4.83583  11
  -4   7   3 3.88426 2.01719  11
  -4   7   3 8.36527 4.25901   4
  -4   7   3 6.38124 2.22981  10
  -4   7   3 4.55090 2.02997  18
  -3   7   3 172.061 10.1095  10
  -3   7   3 155.659 9.98044  11
  -2   7   3 60.6438 4.82939  11
  -2   7   3 69.0230 5.23228  10
  -1   7   3 23.8039 3.08140  11
  -1   7   3 21.4116 3.79390  10
   0   7   3 368.564 20.0433   5
   0   7   3 321.665 19.8335  11
  -4   8   3 16.8060 2.73530  10
  -3   8   3 6.29532 1.86243  10
  -2   8   3 16.4351 2.93034  10
   0   7  -4 6.11333 8.78351  21
  -3   7  -4 61.3512 4.49299  18
  -3   7  -4 57.0209 4.87522  24
  -4   7  -4 23.5492 3.19535  18
  -4   7  -4 31.4527 4.15400  24
  -4   7  -4 37.0586 6.36335   4
  -5   7  -4 7.89529 2.03836  18
  -5   7  -4 9.01323 4.02555   4
  -5   7  -4 6.18674 2.52208  24
  -6   7  -4 42.4298 6.94748   4
   2   6  -4 7.28364 2.08213   5
   1   6  -4 6.02324 5.86262  21
   1   6  -4 5.63841 2.48958   5
   0   6  -4 136.160 14.3520  21
   0   6  -4 142.388 8.96277   5
   0   6  -4 119.796 10.0404   9
  -1   6  -4 36.4129 6.49591   9
  -2   6  -4 46.9104 3.94659  18
  -2   6  -4 44.1756 4.16709  24
  -2   6  -4 41.4028 6.63437   9
  -3   6  -4 22.6993 3.86432  24
  -3   6  -4 20.8715 3.12056  18
  -3   6  -4 14.4825 4.20858   4
   3  -6   4 26.1516 4.01986  23
  -4   6  -4 26.4046 3.29761  18
  -4   6  -4 28.0726 7.01415   4
  -4   6  -4 23.3030 3.95138  24
  -4   6  -4 22.8760 3.31631  14
  -5   6  -4 16.5157 2.99341  18
  -5   6  -4 17.3660 4.95873   4
  -5   6  -4 17.7194 2.88784  14
  -5   6  -4 17.2828 3.92842  24
  -6   6  -4 1.64974 2.06165  24
  -6   6  -4 4.06463 1.49046  14
  -6   6  -4 3.99330 3.81430   4
   3   5  -4 32.1184 3.63505   5
   3   5  -4 26.9762 10.5096  21
   2   5  -4 15.0980 6.37124  21
   2   5  -4 12.2603 2.83992   5
   1   5  -4 45.8049 5.46438   5
   1   5  -4 56.9430 11.7427  21
   1   5  -4 42.0450 6.47406   9
  -1  -5   4 54.9604 4.50317  23
  -1  -5   4 52.3871 4.36218  13
   0   5  -4 97.2395 9.51517   6
   0   5  -4 91.9066 7.97581   9
   0   5  -4 93.4396 6.74662   5
   0   5  -4 85.9940 11.8915  21
   0  -5   4 88.7814 6.01275  23
  -1   5  -4 602.638 37.8680   6
  -1   5  -4 592.776 36.4307   9
  -1   5  -4 652.879 35.9918  18
   1  -5   4 671.001 35.8940  23
  -2   5  -4 40.7978 5.39936   9
  -2   5  -4 35.0783 3.48896  18
  -2   5  -4 34.9262 4.09296  24
   2  -5   4 35.5359 4.03826  23
  -3   5  -4 32.6172 5.95009   4
  -3   5  -4 36.4480 6.65347   9
  -3   5  -4 33.7305 3.61296  14
  -3   5  -4 36.4575 3.58860  18
  -3   5  -4 30.4204 4.24628  24
  -4   5  -4 146.517 8.99483  18
  -4   5  -4 133.466 11.3854   4
  -4   5  -4 141.580 9.03819  14
  -4   5  -4 147.545 9.51907  24
  -5   5  -4 119.243 10.5014   4
  -5   5  -4 111.234 7.18360  18
  -5   5  -4 106.525 7.35107  12
  -5   5  -4 105.568 7.61856  24
  -5   5  -4 106.535 7.20116  14
  -6   5  -4 79.0600 5.76062  12
  -6   5  -4 84.2403 5.48483  14
  -6   5  -4 76.0181 8.51696   4
  -7   5  -4 26.4359 2.94011  14
   4   4  -4 93.4329 6.32225   5
   3   4  -4 1.24041 4.41994   2
   3   4  -4 1.14561 2.42401   5
   3   4  -4 -0.9065 5.41500  21
  -3  -4   4 3.22752 1.71179  13
   2   4  -4 83.3467 12.6416  21
   2   4  -4 86.2154 8.87181   2
   2   4  -4 75.7261 6.62494   5
  -2  -4   4 76.5536 6.25111  23
  -2  -4   4 83.3703 5.89600  13
   1   4  -4 348.417 21.6786   2
   1   4  -4 347.238 22.1210   6
   1   4  -4 333.581 20.9646   9
   1   4  -4 395.702 23.9990  21
   1   4  -4 349.961 20.5586   5
  -1  -4   4 338.658 20.4869  23
  -1  -4   4 331.335 21.7864  19
   0   4  -4 629.980 38.4607   9
   0   4  -4 673.580 40.1935  21
   0   4  -4 651.203 39.4392   6
   0   4  -4 647.248 38.3924   5
   0  -4   4 702.278 39.6186  19
   0  -4   4 716.555 38.2089  23
  -1   4  -4 815.227 44.5057   9
  -1   4  -4 804.336 45.5308   6
  -1   4  -4 744.684 44.3133  24
  -1   4  -4 809.020 44.2106  18
   1  -4   4 726.986 44.2100  23
  -2   4  -4 27.1753 2.71050  18
  -2   4  -4 20.8475 4.09581   9
  -2   4  -4 24.9745 3.40942  24
  -3   4  -4 104.279 7.59429   9
  -3   4  -4 105.515 9.01021   4
  -3   4  -4 117.169 6.95324  18
  -3   4  -4 105.574 7.22358  24
  -3   4  -4 111.331 7.05736  14
   3  -4   4 104.173 8.49311  23
  -4   4  -4 99.9299 6.72519  24
  -4   4  -4 92.1779 6.53997  13
  -4   4  -4 102.252 9.33365   4
  -4   4  -4 87.5080 6.15397  18
  -4   4  -4 82.3459 6.40193  12
  -4   4  -4 90.0548 6.31697  14
  -5   4  -4 113.577 7.01124  24
  -5   4  -4 102.179 6.62101  14
  -5   4  -4 69.5525 9.69708   4
  -5   4  -4 94.1396 6.84122  12
  -5   4  -4 94.5489 6.91633  13
   5  -4   4 92.8156 9.98095  23
  -6   4  -4 7.63422 4.43598   4
  -6   4  -4 11.5702 3.48777  13
  -6   4  -4 13.1899 2.77892  14
  -6   4  -4 8.89585 2.40057  12
  -7   4  -4 15.8515 2.33824  12
  -7   4  -4 9.47860 1.93010  14
   4   3  -4 106.696 8.69385   2
   4   3  -4 73.4191 10.8554  21
   4   3  -4 95.6159 6.85598   5
   3   3  -4 49.5387 11.2089  21
   3   3  -4 53.1603 5.55987   5
   3   3  -4 65.5968 7.83222   2
  -3  -3   4 57.5560 4.88210  13
  -3  -3   4 56.2292 5.46671  23
   2   3  -4 104.564 9.16530   6
   2   3  -4 123.304 11.8767  21
   2   3  -4 85.7615 7.92220   9
   2   3  -4 116.531 9.15296   2
   2   3  -4 101.605 7.48008   5
  -2  -3   4 109.421 7.50184  23
  -2  -3   4 104.991 7.00605  13
  -2  -3   4 98.5543 8.59058  19
   1   3  -4 332.134 22.3702   9
   1   3  -4 369.670 23.1641   6
   1   3  -4 373.096 27.1009  20
   1   3  -4 440.623 24.5170  21
  -1  -3   4 383.546 22.2276  23
  -1  -3   4 397.241 23.3986  19
   0   3  -4 1609.45 89.6978   6
   0   3  -4 1577.15 88.8782  18
   0   3  -4 1599.62 93.1282  20
   0  -3   4 1523.50 89.0087  23
   0  -3   4 1572.52 90.0206  19
  -1   3  -4 372.049 21.2749  18
  -1   3  -4 373.758 22.0888   6
   1  -3   4 359.294 21.2501  23
  -2   3  -4 702.546 39.8154  18
   2  -3   4 702.097 40.2365  23
  -3   3  -4 6.02411 1.56453  18
  -3   3  -4 8.09109 1.76416  13
  -3   3  -4 5.48555 1.89114  24
  -3   3  -4 5.10310 2.28172   9
   3  -3   4 5.15678 3.45935  23
  -4   3  -4 472.684 29.9059   4
  -4   3  -4 531.070 28.9104  24
  -4   3  -4 519.030 28.7880  13
  -4   3  -4 535.431 28.7492  14
  -4   3  -4 538.395 29.5441   9
  -4   3  -4 483.517 28.8072  12
   4  -3   4 433.141 29.7086   2
  -5   3  -4 623.910 35.8378  12
  -5   3  -4 597.568 37.0453   4
  -5   3  -4 602.218 35.6351  14
  -5   3  -4 622.844 35.8097  13
   5  -3   4 678.130 37.3560   2
  -6   3  -4 5.63360 2.45537  12
  -6   3  -4 2.11888 2.13927  13
  -6   3  -4 7.69217 4.19036   4
  -6   3  -4 4.82875 1.73165  14
   6  -3   4 12.9074 4.27993   2
  -7   3  -4 3.57685 1.38366  12
   5   2  -4 10.0768 4.38843  21
   5   2  -4 14.4946 5.45452   2
  -5  -2   4 17.7502 4.17301  16
   4   2  -4 28.3386 9.58817  21
   4   2  -4 30.7479 4.51381   5
   4   2  -4 34.5617 7.00157   2
  -4  -2   4 31.9615 3.91061  13
   3   2  -4 52.6735 6.72665   2
   3   2  -4 52.0345 5.14233   5
   3   2  -4 45.7069 7.36971   6
   3   2  -4 52.8014 9.51768  21
  -3  -2   4 54.5013 4.41484  13
  -3  -2   4 55.4081 5.34235  23
  -3  -2   4 50.5884 6.22884  19
   2   2  -4 46.1898 6.40259   6
   2   2  -4 45.3812 5.16021   9
   2   2  -4 53.2652 12.2045  20
   2   2  -4 67.9204 9.12523  21
  -2  -2   4 54.1749 4.24274  13
  -2  -2   4 55.9703 5.96245  19
  -2  -2   4 54.3046 4.86525  23
   1   2  -4 2104.94 115.817   6
  -1  -2   4 2035.82 116.137  19
  -1  -2   4 1992.79 115.403  23
   0   2  -4 110.957 7.26333   6
   0  -2   4 97.9304 6.83100  23
  -1   2  -4 58.4655 4.91741   6
   1  -2   4 41.4606 4.47528  23
  -2   2  -4 225.981 13.0849  13
  -3   2  -4 405.056 23.1789  13
  -4   2  -4 992.973 56.0324  14
  -4   2  -4 1023.33 56.1153  13
  -4   2  -4 1012.14 56.1960  12
   4  -2   4 960.161 57.3897  23
   4  -2   4 956.246 57.1013   2
  -5   2  -4 36.6763 7.28406   4
  -5   2  -4 34.6254 4.75052  12
  -5   2  -4 24.6258 3.39082  14
  -5   2  -4 32.4479 3.96485  13
   5  -2   4 54.2496 7.39764   2
  -6   2  -4 13.1881 2.56873  13
  -6   2  -4 13.1850 2.51516  12
   6  -2   4 17.1716 4.74405   2
  -7   2  -4 22.0777 2.72084  12
   6   1  -4 16.7565 4.03912   2
   5   1  -4 4.32705 4.31952   2
   5   1  -4 5.91008 5.01049  21
  -5  -1   4 8.05542 2.17541  13
  -5  -1   4 8.31758 2.57372  16
  -5  -1   4 6.76422 2.39828   7
   4   1  -4 97.1071 7.83145   5
   4   1  -4 114.005 11.8001  21
   4   1  -4 70.6002 9.64580   6
   4   1  -4 111.379 9.46067   2
  -4  -1   4 110.501 7.15736  13
  -4  -1   4 116.943 7.81125   7
   3   1  -4 30.4140 10.7597  20
   3   1  -4 27.0439 5.66702   2
  -3  -1   4 36.3478 4.53854  23
  -3  -1   4 31.6992 3.23463  13
  -3  -1   4 37.3943 5.08647  19
  -2  -1   4 834.745 46.1500  23
  -2  -1   4 786.326 45.7559  13
  -2  -1   4 801.952 46.6634  19
   1   1  -4 928.208 50.6019   6
  -1  -1   4 867.399 50.9786  19
  -1  -1   4 870.389 50.5305  23
   0   1  -4 470.435 27.8914   6
   0  -1   4 511.271 28.1684  23
   1  -1   4 85.8862 6.70981  23
   1  -1   4 91.3667 6.36414  15
  -2   1  -4 107.076 6.43786  13
   2  -1   4 117.085 8.25919  23
   2  -1   4 100.623 8.53224  15
  -3   1  -4 1258.21 69.9526  13
  -3   1  -4 1264.81 70.7482  19
   3  -1   4 1190.70 70.9321  23
  -4   1  -4 66.7980 5.26877  12
  -4   1  -4 67.0526 6.40485  19
  -4   1  -4 75.0955 5.01312  13
   4  -1   4 74.4077 5.88261  17
   4  -1   4 68.1287 6.82013   2
  -5   1  -4 5.09513 2.62584  12
  -5   1  -4 5.43150 2.72711   7
  -5   1  -4 6.35741 2.03601  13
   5  -1   4 6.85986 2.78350  17
   5  -1   4 4.63488 4.00342   2
  -6   1  -4 26.4666 4.50865   7
  -6   1  -4 23.8012 3.61011  12
   6  -1   4 25.1124 6.18195   2
   6  -1   4 22.4196 4.84340  17
   6   0  -4 11.1578 4.20994   2
  -6   0   4 19.2712 3.95647   7
   5   0  -4 77.3592 8.29065   2
   5   0  -4 76.9722 10.2931  21
  -5   0   4 77.6751 6.67755   7
  -5   0   4 63.7584 6.24863  16
  -5   0   4 73.1018 5.60057  13
   4   0  -4 15.9287 5.68458   2
  -4   0   4 16.7997 2.65106   7
  -4   0   4 18.0182 3.19142  13
  -4   0   4 15.3530 3.68396  19
  -4   0   4 19.6087 2.84548  16
   3   0  -4 63.2276 10.9484  20
  -3   0   4 59.7343 4.39629  13
  -3   0   4 64.8417 5.85816  19
   2   0  -4 463.230 28.3532   8
   2   0  -4 397.103 26.6118  15
  -2   0   4 462.507 25.7164  19
  -2   0   4 411.699 24.8960  13
  -2   0   4 455.161 25.3650  23
   1   0  -4 125.711 10.9979   8
   1   0  -4 121.125 8.34224  15
  -1   0   4 117.425 8.06426  23
  -1   0   4 128.552 8.15498  19
   0   0  -4 504.704 29.1676   8
   0   0  -4 511.664 27.9117  15
   0   0   4 437.781 27.9219  23
  -1   0  -4 602.383 34.0944  15
  -1   0  -4 553.612 34.0377   8
   1   0   4 629.075 34.1411  15
   1   0   4 552.887 33.6652  23
  -2   0  -4 502.496 28.5708  13
  -2   0  -4 484.481 30.9605  15
  -2   0  -4 522.658 29.1975  19
  -3   0  -4 899.385 50.6397  13
  -3   0  -4 888.957 51.4887  19
  -4   0  -4 93.4605 7.57184   7
  -4   0  -4 103.209 6.42025  13
  -4   0  -4 98.4609 7.88307  19
  -4   0  -4 103.946 6.96283  12
   4   0   4 79.0415 8.31676   2
   4   0   4 100.996 7.28111  17
  -5   0  -4 22.6523 3.10359  13
  -5   0  -4 24.3880 4.32527  12
  -5   0  -4 21.5965 3.35375   7
   5   0   4 24.7429 6.25598   2
   5   0   4 24.9657 4.96116  17
  -6   0  -4 11.3803 2.36756   7
  -6   0  -4 8.70984 1.78087  12
   6   0   4 13.2018 3.91829   2
   6   0   4 9.15010 3.02903  17
   6  -1  -4 36.9604 6.35375   2
  -6   1   4 36.5362 4.72314   7
   5  -1  -4 7.39119 3.73804   3
   5  -1  -4 14.1633 4.62535   2
  -5   1   4 7.38677 2.68222   7
  -5   1   4 3.48965 4.73641  16
  -5   1   4 10.5505 2.25515  13
   4  -1  -4 50.1355 6.44894   2
   4  -1  -4 53.0147 5.88610   3
  -4   1   4 61.8407 4.39306  13
  -4   1   4 56.8810 5.41861  16
  -4   1   4 62.4722 5.38400   7
  -4   1   4 58.9173 6.14835  19
   3  -1  -4 99.3102 12.1207   8
  -3   1   4 98.9777 6.23547  13
  -3   1   4 106.464 7.44451  19
   2  -1  -4 58.4187 5.51143  23
   2  -1  -4 71.4032 9.47467   8
  -2   1   4 64.2444 4.89599  19
   1  -1  -4 344.737 20.8647  15
   1  -1  -4 314.295 19.8413  23
   1  -1  -4 365.381 21.7870   8
  -1   1   4 345.548 19.6771  19
   0  -1  -4 56.8866 6.87412   8
   0  -1  -4 47.7875 5.87506  15
   0  -1  -4 50.6732 4.14128  23
   0   1   4 49.1546 3.59189   6
  -1  -1  -4 524.137 33.0021  15
  -1  -1  -4 566.299 33.1397   8
  -1  -1  -4 546.102 31.6763  23
  -1  -1  -4 557.039 31.7021  19
   1   1   4 575.444 31.8177   6
  -2  -1  -4 336.796 19.7226  19
  -2  -1  -4 322.990 22.3976   8
  -2  -1  -4 339.832 19.5820  23
  -2  -1  -4 332.679 19.0491  13
  -3  -1  -4 221.567 13.5667  19
  -3  -1  -4 229.881 13.1199  12
  -3  -1  -4 218.212 12.4307  13
   3   1   4 210.720 13.7056   2
   3   1   4 187.051 12.9334  17
   3   1   4 203.695 12.7473  11
  -4  -1  -4 18.2098 2.96473  13
  -4  -1  -4 21.0357 3.91902  12
  -4  -1  -4 18.7514 3.18422   7
   4   1   4 14.6566 4.14556  17
   4   1   4 29.7727 10.7364   1
   4   1   4 22.5764 5.97341   2
  -5  -1  -4 24.2034 5.05771   7
  -5  -1  -4 31.9884 3.69698  12
   5   1   4 18.5339 5.82930   2
   5   1   4 32.6780 4.60759  17
   6   1   4 10.2748 2.65528  17
  -7   2   4 58.4508 4.92339   7
   6  -2  -4 246.515 15.6745   3
  -6   2   4 245.676 15.2103   7
   5  -2  -4 -0.2206 3.27948   3
  -5   2   4 2.25196 2.60475   7
  -5   2   4 6.99507 2.60678  18
  -4   2   4 163.384 9.63043   7
  -4   2   4 136.457 9.93147  16
   3  -2  -4 214.576 14.0643  23
   3  -2  -4 221.825 17.0397   8
   2  -2  -4 1332.05 75.0564  23
   2  -2  -4 1314.02 77.0336   8
   1  -2  -4 1665.05 93.2392  23
   1  -2  -4 1576.82 94.4487  15
   1  -2  -4 1710.02 95.1223   8
   0  -2  -4 105.404 9.61011  15
   0  -2  -4 129.121 10.8067   8
   0  -2  -4 126.930 7.77965  23
   0   2   4 119.861 7.92015   6
  -1  -2  -4 189.652 14.6664   8
  -1  -2  -4 201.330 11.8738  23
   1   2   4 190.707 12.1843   6
  -2  -2  -4 -1.8588 4.59921   8
  -2  -2  -4 2.86354 2.26574  23
   2   2   4 0.84247 2.94925   6
  -3  -2  -4 98.9574 6.74614  12
   3   2   4 103.831 10.3644   1
   3   2   4 92.5706 7.02841  11
   3   2   4 102.661 8.25863   2
   3   2   4 96.7060 7.21891  17
   3   2   4 67.8828 12.2985   6
  -4  -2  -4 29.1939 5.55370   7
   4   2   4 28.4001 6.06043   2
   4   2   4 28.1371 4.85337  17
  -5  -2  -4 16.4055 2.63544   7
   5   2   4 17.6153 4.40102   2
   5   2   4 14.1900 4.34566  17
   7  -3  -4 196.685 12.4056   3
   7  -3  -4 193.546 11.7624  22
  -7   3   4 198.333 11.9203   7
   6  -3  -4 196.342 13.7254   3
  -6   3   4 210.208 13.0876   7
  -5   3   4 8.52703 3.02000   7
  -5   3   4 2.84670 2.63332  18
   4  -3  -4 77.1572 8.31796  23
  -4   3   4 71.9562 5.11188  14
  -4   3   4 72.7241 5.69620  18
  -4   3   4 56.9457 5.73423   7
   3  -3  -4 74.0911 10.3069   8
   3  -3  -4 53.4040 6.52536  23
  -3   3   4 53.4917 4.97962  18
   2  -3  -4 1057.21 58.7943  23
   2  -3  -4 1006.48 61.3309   8
   1  -3  -4 140.018 12.7203   8
   1  -3  -4 160.703 9.33101  23
  -1   3   4 134.910 9.88614   6
   0  -3  -4 149.435 8.94881  23
   0  -3  -4 141.770 12.7246   8
   0   3   4 124.433 9.39776   6
  -1  -3  -4 -0.1167 5.16230   8
  -1  -3  -4 2.72158 2.23292  23
   1   3   4 0.47083 2.17114   5
   1   3   4 2.66027 2.73768   6
   1   3   4 -0.2752 4.36158  21
  -2  -3  -4 77.1454 6.60908  23
  -2  -3  -4 75.4376 5.35952  12
   2   3   4 75.1098 5.43392   5
   2   3   4 65.0530 11.4652   6
   2   3   4 73.0533 8.73386   1
   2   3   4 72.1489 5.50216  11
   2   3   4 66.3972 5.93220  17
   3   3   4 267.749 15.8595   5
   3   3   4 272.143 18.4986   1
   3   3   4 253.106 16.4240  17
   3   3   4 271.581 16.0161  11
  -4  -3  -4 31.2487 5.00454   7
   4   3   4 27.5978 4.69822  17
   7  -4  -4 30.1757 4.82836   3
   7  -4  -4 22.4947 3.84910  22
  -7   4   4 22.8795 3.32957  11
  -7   4   4 16.9380 3.12180  10
  -7   4   4 27.1509 4.01278   7
   6  -4  -4 53.1293 6.93400   3
  -6   4   4 46.2932 5.96953   7
  -6   4   4 40.7819 4.49643  18
  -5   4   4 9.63940 2.88444  18
  -5   4   4 9.21214 3.02526   7
   4  -4  -4 37.3695 7.44075  23
  -4   4   4 27.9279 3.43804  14
  -4   4   4 30.1098 4.51417   7
  -4   4   4 23.3107 5.67345   4
  -4   4   4 31.5360 4.31092  18
  -4   4   4 31.2736 3.61825  10
   3  -4  -4 691.680 47.6176   8
   3  -4  -4 764.834 44.2486  23
  -3   4   4 781.253 43.6025  18
  -3   4   4 784.221 43.4214  11
  -3   4   4 775.173 43.4661   7
  -3   4   4 784.749 44.0958   4
  -3   4   4 761.247 43.2339  10
   2  -4  -4 306.858 22.3388   8
   2  -4  -4 293.218 27.0823  20
   2  -4  -4 306.038 18.1190  23
  -2   4   4 277.497 17.5204  18
  -2   4   4 324.933 17.7294  10
   1  -4  -4 177.096 15.0385   8
   1  -4  -4 162.493 10.4418  23
  -1   4   4 121.065 13.9111  21
  -1   4   4 168.809 10.1085  10
  -1   4   4 169.960 11.6431   6
  -1   4   4 184.451 13.0494   4
   0  -4  -4 37.4968 4.47332  23
   0   4   4 27.2457 6.46219   1
   0   4   4 34.6141 3.70843  11
   0   4   4 34.3026 3.82029  10
   0   4   4 31.6358 4.49158  16
   0   4   4 28.2319 8.96761  21
   0   4   4 31.6486 3.57402   5
   0   4   4 37.3738 5.67590   6
  -1  -4  -4 33.9563 4.92034  23
   1   4   4 25.0997 3.57464  11
   1   4   4 20.4143 6.16528  21
   1   4   4 28.4059 3.73391   5
   1   4   4 31.6354 4.39829  10
   1   4   4 33.0114 7.45301   1
  -2  -4  -4 301.012 19.4045  23
   2   4   4 315.593 18.7986  11
   2   4   4 342.506 21.1203   1
   2   4   4 313.623 18.7562   5
   3   4   4 49.4284 4.29566   5
   3   4   4 50.6079 5.07830  11
  -4  -4  -4 9.82794 1.85531   7
   7  -5  -4 6.45230 2.11914  22
   7  -5  -4 20.2707 4.30961   3
  -7   5   4 8.39580 1.92471  11
  -7   5   4 15.5703 3.25888   7
   6  -5  -4 14.7958 4.02259   3
  -6   5   4 21.4913 4.64615   7
  -6   5   4 11.9443 2.42641  10
  -6   5   4 12.3233 2.80046  11
  -6   5   4 13.6418 2.68905  18
   5  -5  -4 60.6245 7.31227   3
  -5   5   4 60.9823 5.07326  10
  -5   5   4 55.1015 5.31112  18
  -5   5   4 51.3334 5.45805  11
  -5   5   4 57.9887 6.35883   7
   4  -5  -4 583.004 35.8017  23
  -4   5   4 607.924 34.2441  10
  -4   5   4 592.538 34.6431  18
  -4   5   4 588.790 34.4090  11
  -4   5   4 605.497 35.3446   4
  -4   5   4 628.410 34.6270   7
   3  -5  -4 637.729 36.6827  23
  -3   5   4 620.754 36.3702  16
  -3   5   4 607.225 35.5405  10
  -3   5   4 640.089 35.9174  18
  -3   5   4 608.837 35.6863  11
  -3   5   4 651.253 35.8999   7
  -3   5   4 616.487 36.5636   4
   2  -5  -4 193.224 11.6530  23
  -2   5   4 178.760 10.7225  11
  -2   5   4 175.983 11.2970  16
  -2   5   4 165.125 12.0994   4
  -2   5   4 172.113 10.5378  10
   1  -5  -4 37.2951 4.86984  23
  -1   5   4 26.7827 7.41262  21
  -1   5   4 35.0656 4.14165   5
  -1   5   4 36.6275 3.60325  11
  -1   5   4 38.3217 3.73941  10
  -1   5   4 38.7211 5.16204  16
   0  -5  -4 59.6225 6.12972  23
   0   5   4 39.6054 11.8315  21
   0   5   4 69.2015 5.43161   5
   0   5   4 71.1614 8.59487   1
   0   5   4 67.3402 5.48934  10
   0   5   4 67.3499 5.05855  11
   1   5   4 273.349 15.3430   5
   1   5   4 294.559 18.1381   1
   1   5   4 256.593 15.1790  11
   1   5   4 252.968 15.2333  10
   1   5   4 193.486 19.0716  21
   2   5   4 98.0635 6.53058  11
   2   5   4 86.7486 6.40361   5
  -3  -5  -4 18.2330 3.28583   7
   3   5   4 22.1282 3.28961   5
   6  -6  -4 14.5025 3.69465  22
   6  -6  -4 18.8629 5.03391   3
  -6   6   4 17.9857 3.51009  18
  -6   6   4 17.0689 3.29558  11
  -6   6   4 14.1600 2.34385  10
  -6   6   4 24.3325 4.19752   7
   5  -6  -4 5.29759 3.55236   3
  -5   6   4 7.78344 2.57512  18
  -5   6   4 7.36520 2.83236   7
  -5   6   4 7.21263 2.34634  10
  -5   6   4 5.25913 4.02185   4
  -5   6   4 8.88789 2.45302  11
  -4   6   4 169.484 10.7064  11
  -4   6   4 162.155 12.4329   4
  -4   6   4 181.502 10.8222  18
  -4   6   4 173.481 11.2323   7
  -4   6   4 172.343 10.5583  10
   3  -6  -4 -3.9723 3.24631  23
  -3   6   4 0.62197 2.00632  18
  -3   6   4 5.93457 4.29723   4
  -3   6   4 2.16878 1.97940  11
  -3   6   4 1.20022 2.00451  10
   2  -6  -4 64.9219 6.47393  23
  -2   6   4 66.5271 6.94563  16
  -2   6   4 73.8157 5.43390  11
  -2   6   4 73.8662 5.58878  10
   1  -6  -4 115.533 14.3387  20
  -1   6   4 114.510 14.9765  21
  -1   6   4 83.4791 6.93145   5
  -1   6   4 90.6518 6.91456  10
  -1   6   4 95.4838 6.72387  11
   0   6   4 141.217 9.01435  10
   0   6   4 110.695 14.8046  21
   0   6   4 145.218 8.79665  11
   0   6   4 146.044 9.05835   5
  -1  -6  -4 349.362 24.5470  20
   1   6   4 273.542 22.5851  21
   1   6   4 374.425 19.7379  11
   1   6   4 356.274 19.8210   5
  -2  -6  -4 67.5422 5.78061   7
   2   6   4 95.3288 6.06951  11
   2   6   4 91.8706 5.94472   5
  -5   7   4 210.655 13.2624  11
  -5   7   4 240.842 13.2626  10
  -4   7   4 52.9501 4.39196  10
  -4   7   4 34.6195 4.23343  18
  -4   7   4 46.3965 4.03898  11
  -3   7   4 38.0715 4.03515  10
  -3   7   4 35.3947 3.87861  11
  -2   7   4 9.31355 2.09328  11
  -2   7   4 13.6845 2.33705  10
   1  -7  -4 9.90876 5.50318  20
  -1   7   4 15.8197 2.49545  10
  -1   7   4 14.8490 3.30916   5
  -1   7   4 13.2089 2.05782  11
   0   7   4 121.597 7.65675  11
   0   7   4 129.867 7.87436   5
  -3   8   4 58.3760 4.33188  10
  -1   7  -5 75.0159 6.96469   9
  -2   7  -5 61.9579 6.45076   9
  -3   7  -5 73.1654 5.53101  24
  -3   7  -5 73.7456 5.15716  18
  -4   7  -5 13.9891 4.22682   4
  -4   7  -5 23.3050 3.72855  24
  -4   7  -5 19.3860 2.74940  18
  -5   7  -5 6.16351 2.31186  24
  -5   7  -5 3.85113 3.57757   4
   2   6  -5 22.5098 4.09362   5
   1   6  -5 1.64186 2.40096   5
   1   6  -5 4.28524 5.39444  21
   0   6  -5 29.0540 6.11183   9
   0   6  -5 37.7697 10.1897  21
  -1   6  -5 62.2695 7.32787   9
  -2   6  -5 347.978 19.5886  18
  -2   6  -5 327.615 19.6757  24
  -2   6  -5 333.604 20.5005   9
  -3   6  -5 36.2285 7.44713   4
  -3   6  -5 32.2941 3.56643  18
  -3   6  -5 30.3431 5.48508   9
  -3   6  -5 28.3062 4.16244  24
  -4   6  -5 4.88824 1.99885  18
  -4   6  -5 4.93883 1.86744  14
  -4   6  -5 7.46150 4.64007   4
  -4   6  -5 5.57216 2.47381  24
  -5   6  -5 10.7214 2.09478  18
  -5   6  -5 16.0797 4.93289   4
  -5   6  -5 11.4424 1.94446  14
  -5   6  -5 10.5997 2.77173  24
  -6   6  -5 57.8549 3.83831  14
  -6   6  -5 43.2668 6.14870   4
   3   5  -5 2.12226 1.89216   5
   2   5  -5 37.0551 11.0043  21
   2   5  -5 29.1490 4.71483   5
   1   5  -5 28.5184 10.7875  21
   1   5  -5 26.8552 3.63310   5
   1   5  -5 26.3935 4.28266   9
  -1  -5   5 29.7323 3.52597  13
   0   5  -5 118.039 7.93917   5
   0   5  -5 100.499 8.90046   9
   0   5  -5 101.835 12.4415  21
   0  -5   5 104.199 7.00298  23
  -1   5  -5 813.858 47.9826   9
  -1   5  -5 855.684 47.5678  18
   1  -5   5 841.029 47.6016  23
  -2   5  -5 181.922 11.3427   9
  -2   5  -5 170.266 10.3317  18
  -2   5  -5 165.122 10.6559  24
   2  -5   5 157.970 10.7671  23
  -3   5  -5 81.2599 6.77297  24
  -3   5  -5 99.8080 8.46897   4
  -3   5  -5 98.4737 7.76743   9
  -3   5  -5 92.3146 6.23220  18
  -3   5  -5 86.2437 6.16475  14
   3  -5   5 84.3459 7.77742  23
  -4   5  -5 243.688 14.8504  24
  -4   5  -5 234.998 14.4472  18
  -4   5  -5 245.696 14.5173  14
  -4   5  -5 266.029 16.6355   4
   4  -5   5 222.456 16.1306  23
  -5   5  -5 3.51178 1.83640  14
  -5   5  -5 6.39063 4.90543   4
  -5   5  -5 1.81605 2.36888  12
  -5   5  -5 6.58177 2.51590  24
  -5   5  -5 4.50145 1.94033  18
  -6   5  -5 46.4991 7.58332   4
  -6   5  -5 57.0409 4.48710  12
  -6   5  -5 62.4729 4.24881  14
   4   4  -5 32.7316 4.71901   5
  -4  -4   5 34.7670 3.75239  16
   3   4  -5 21.9735 6.39856  21
   3   4  -5 31.6741 4.67204   5
   2   4  -5 59.4494 6.40185   5
   2   4  -5 69.0780 12.0861  21
  -2  -4   5 66.3151 5.55602  23
  -2  -4   5 68.5255 5.30015  13
   1   4  -5 198.921 15.6400  21
   1   4  -5 181.058 11.8417   5
   1   4  -5 172.708 12.3928   9
  -1  -4   5 181.462 11.4467  23
   0   4  -5 326.670 19.9092   9
   0   4  -5 315.357 20.7312   6
   0   4  -5 341.463 21.9143  21
   0   4  -5 324.372 19.6130   5
   0  -4   5 351.926 19.5657  23
   0  -4   5 338.126 21.0875  19
  -1   4  -5 286.145 16.5674  24
  -1   4  -5 259.983 17.9745   6
  -1   4  -5 298.572 16.4348  18
  -1   4  -5 285.376 16.9513   9
   1  -4   5 272.555 16.6945  23
  -2   4  -5 33.6661 3.25285  18
  -2   4  -5 30.1425 3.79190  24
  -2   4  -5 29.1910 4.61554   9
   2  -4   5 34.3700 4.69934  23
  -3   4  -5 4.29885 2.07438  24
  -3   4  -5 5.42428 1.86221  14
  -3   4  -5 4.04656 2.59931   9
  -3   4  -5 5.64754 1.79606  18
  -3   4  -5 1.18917 3.37100   4
  -4   4  -5 94.4999 8.38490   9
  -4   4  -5 130.875 7.87526  24
  -4   4  -5 122.123 7.22951  18
  -4   4  -5 115.439 7.34007  14
  -4   4  -5 82.0237 9.93001   4
  -4   4  -5 101.021 7.38041  12
   4  -4   5 128.163 10.2671  23
  -5   4  -5 266.122 17.3532   4
  -5   4  -5 243.864 14.8685  14
  -5   4  -5 240.996 15.0383  12
  -5   4  -5 249.948 15.0666  24
   5  -4   5 274.047 19.9607  23
   5  -4   5 247.739 18.8065   2
  -6   4  -5 65.0401 7.74066   4
  -6   4  -5 62.9749 4.64165  14
  -6   4  -5 61.5211 5.12330  12
  -7   4  -5 25.5918 2.57565  12
   4   3  -5 19.9884 4.35091   5
   4   3  -5 31.4026 6.29879   2
   4   3  -5 25.9630 6.02181  21
   3   3  -5 21.3018 4.87849   5
   3   3  -5 20.8473 6.34523  21
   3   3  -5 14.9681 4.93004   2
  -3  -3   5 17.6286 3.06491  23
  -3  -3   5 20.3635 3.54611  13
   2   3  -5 151.088 10.1891   5
   2   3  -5 164.433 14.1596  21
   2   3  -5 168.169 11.7496   2
   2   3  -5 132.174 10.6267   9
  -2  -3   5 153.269 10.1466  23
  -2  -3   5 152.202 9.72199  13
  -2  -3   5 154.974 11.6677  19
   1   3  -5 23.1043 4.05388   5
   1   3  -5 23.3682 5.29713   6
   1   3  -5 29.2241 4.74294   9
   1   3  -5 24.0550 6.17385   2
   1   3  -5 26.4996 11.0846  20
   1   3  -5 30.2686 7.87291  21
  -1  -3   5 26.5333 5.06804  19
  -1  -3   5 28.5627 3.53678  23
   0   3  -5 129.767 9.16807   6
   0   3  -5 135.579 13.5638  20
   0   3  -5 125.144 8.57535   9
   0  -3   5 122.261 8.22461  23
   0  -3   5 122.931 9.40654  19
  -1   3  -5 76.7557 6.88286   6
  -1   3  -5 78.6389 5.13058  18
   1  -3   5 73.4130 5.95654  23
  -2   3  -5 202.637 11.5434  18
  -2   3  -5 185.351 11.9399   9
   2  -3   5 198.807 12.5155  23
  -3   3  -5 96.7047 6.42851  13
  -3   3  -5 112.526 7.15834   9
  -3   3  -5 90.3656 6.24819  18
   3  -3   5 96.4715 8.50171  23
  -4   3  -5 337.987 21.1273   4
  -4   3  -5 363.321 20.0138   9
  -4   3  -5 314.586 19.6562  24
  -4   3  -5 322.455 19.5654  13
  -4   3  -5 304.888 19.5950  12
  -4   3  -5 314.482 19.4645  14
   4  -3   5 395.514 21.1741   2
  -5   3  -5 509.173 29.4854  12
  -5   3  -5 488.816 30.8947   4
  -5   3  -5 538.380 29.5147  13
  -5   3  -5 508.988 29.2815  14
   5  -3   5 509.468 30.9992   2
  -6   3  -5 35.9462 6.95320   4
  -6   3  -5 17.5065 3.04127  14
  -6   3  -5 26.7068 4.01198  12
   6  -3   5 53.9468 7.10262   2
  -7   3  -5 10.6199 1.97573  12
   5   2  -5 22.0612 5.93369   2
   5   2  -5 26.9895 7.54989  21
  -5  -2   5 20.5251 4.22562  16
   4   2  -5 3.18054 2.43620   5
   4   2  -5 5.97988 5.42493  21
   4   2  -5 11.5926 4.60739   2
  -4  -2   5 10.6824 2.38439  13
   3   2  -5 -0.3617 3.77754   2
   3   2  -5 0.06757 5.23210  21
   3   2  -5 0.74109 2.45258   5
  -3  -2   5 1.65019 2.28175  23
  -3  -2   5 0.11476 1.87694  13
   2   2  -5 8.68713 4.95480  20
   2   2  -5 6.63140 3.49979   6
   2   2  -5 8.80669 3.40338   2
   2   2  -5 11.8589 2.69818   5
   2   2  -5 12.9989 5.00666  21
   2   2  -5 11.5673 2.89725   9
  -2  -2   5 14.5104 2.24643  13
  -2  -2   5 14.9595 3.40067  19
  -2  -2   5 14.6945 2.58718  23
   1   2  -5 527.117 33.6542  20
   1   2  -5 499.069 30.1414   6
  -1  -2   5 511.544 29.8632  23
  -1  -2   5 532.989 30.7669  19
   0  -2   5 150.072 9.59424  23
   1  -2   5 6.09624 2.27464  23
  -2   2  -5 197.296 11.4041  13
   2  -2   5 189.793 12.6174  23
  -3   2  -5 25.9455 2.76402  13
   3  -2   5 21.0986 4.12509  23
  -4   2  -5 189.640 11.0046  13
  -4   2  -5 182.658 10.8655  14
  -4   2  -5 186.469 11.2018  12
   4  -2   5 166.761 12.4424   2
  -5   2  -5 25.0479 3.60609  13
  -5   2  -5 26.2531 4.56495  12
  -5   2  -5 20.5840 4.22442  14
  -5   2  -5 24.0805 5.10548   4
   5  -2   5 29.1601 7.00348   2
  -6   2  -5 15.5805 2.55630  12
   6  -2   5 12.5690 4.47846   2
   5   1  -5 26.1405 8.94832  21
   5   1  -5 33.0560 6.59150   2
  -5  -1   5 26.6858 4.76289  16
  -5  -1   5 28.4817 3.67790  13
   4   1  -5 193.185 13.6894   2
   4   1  -5 176.720 12.2813   5
   4   1  -5 201.083 15.9075  21
  -4  -1   5 199.692 11.8492  13
   3   1  -5 20.6915 11.1042  20
   3   1  -5 22.4966 4.04579   5
   3   1  -5 23.1915 5.57419   2
  -3  -1   5 24.9242 3.18027  13
  -3  -1   5 22.7935 4.01888  19
  -3  -1   5 21.7514 3.28399  23
   2   1  -5 63.3024 7.12303   6
   2   1  -5 81.3510 11.7259  20
  -2  -1   5 83.7060 6.24908  23
  -2  -1   5 79.2332 6.70773  19
  -1  -1   5 114.894 8.24283  19
  -1  -1   5 111.438 7.65486  23
   0  -1   5 101.154 7.19220  23
   1  -1   5 375.238 22.2049  23
  -2   1  -5 146.957 8.74014  13
   2  -1   5 149.756 10.6160  23
  -3   1  -5 390.235 22.3724  13
  -4   1  -5 104.409 6.57773  13
  -4   1  -5 98.7439 6.79771  12
   4  -1   5 101.688 7.26609  17
   4  -1   5 90.7426 8.50647   2
  -5   1  -5 58.5541 5.58727  12
  -5   1  -5 54.1500 4.59926  13
   5  -1   5 59.7004 6.02971  17
   5  -1   5 56.0525 7.45814   2
  -6   1  -5 1.60570 1.91341  12
   6  -1   5 4.64071 3.97529   2
   6  -1   5 3.38640 2.79270  17
   6   0  -5 4.51579 3.78280   2
  -6   0   5 2.02056 2.19272   7
   5   0  -5 242.406 17.4975  21
   5   0  -5 234.968 16.0864   2
  -5   0   5 246.584 14.4147   7
  -5   0   5 224.204 14.5221  16
  -5   0   5 232.295 14.1416  13
   4   0  -5 118.765 10.2437   2
  -4   0   5 133.506 8.91329  16
  -4   0   5 116.849 9.75982  19
  -4   0   5 123.631 8.71835   7
  -4   0   5 138.602 8.24100  13
   3   0  -5 8.44812 4.58401  20
  -3   0   5 11.0300 2.26438  13
  -3   0   5 11.2372 2.94082  19
   2   0  -5 60.8863 10.0304   8
  -2   0   5 68.6478 5.50588  23
  -2   0   5 57.2582 4.20105  13
  -2   0   5 66.0891 5.58647  19
   1   0  -5 839.361 46.1455   8
  -1   0   5 726.650 43.9893  23
  -1   0   5 745.442 44.1644  19
   0   0  -5 348.194 21.5991   8
   0   0  -5 341.663 19.7372  15
   0   0   5 324.066 19.9491  23
  -1   0  -5 204.848 14.4678   8
  -1   0  -5 229.205 14.2705  15
   1   0   5 226.483 14.3399  15
   1   0   5 231.294 13.9124  23
  -2   0  -5 113.332 6.79663  13
  -3   0  -5 99.0305 6.08730  13
   3   0   5 93.2741 7.99226   2
  -4   0  -5 49.8962 5.74695   7
  -4   0  -5 52.4801 4.13699  13
  -4   0  -5 49.9000 5.01120  12
   4   0   5 46.9221 6.81394   2
   4   0   5 55.2298 5.26622  17
  -5   0  -5 11.5870 2.68360  13
  -5   0  -5 11.7306 2.71821  12
  -5   0  -5 15.6063 2.86723   7
   5   0   5 9.02373 4.03210   2
   5   0   5 16.3270 4.67905  17
  -6   0  -5 14.7969 2.37042  12
   6   0   5 23.1541 4.37383  17
   6   0   5 15.2310 5.03360   2
  -6   1   5 103.012 7.58063   7
   5  -1  -5 28.2814 5.65602   3
   5  -1  -5 32.0475 7.02751   2
   5  -1  -5 24.0051 5.54076  22
  -5   1   5 16.9478 3.10583  16
  -5   1   5 24.4322 5.00358   7
   4  -1  -5 96.9509 7.84000   3
  -4   1   5 94.7576 6.28710  13
  -4   1   5 102.776 7.03671   7
  -4   1   5 85.6462 7.26085  16
   3  -1  -5 140.304 13.9197   8
  -3   1   5 125.445 8.93124  19
   2  -1  -5 261.650 18.6597   8
  -2   1   5 248.569 15.1663  19
   1  -1  -5 3334.67 205.472  23
   1  -1  -5 3823.67 207.276   8
   1  -1  -5 3787.63 206.211  15
   0  -1  -5 724.954 45.4696  23
   0  -1  -5 861.784 47.3659   8
   0  -1  -5 814.477 46.3602  15
  -1  -1  -5 536.260 32.9707  15
  -1  -1  -5 553.409 33.0861   8
  -1  -1  -5 554.298 31.4585  23
  -2  -1  -5 105.332 7.26145  19
  -3  -1  -5 104.339 6.30726  13
  -3  -1  -5 96.0017 6.63264  12
   3   1   5 98.7393 7.07742  17
   3   1   5 89.2610 9.29110   1
   3   1   5 94.5548 6.76528  11
   3   1   5 104.285 8.22462   2
  -4  -1  -5 46.7619 5.99123   7
  -4  -1  -5 49.2682 4.92278  12
  -4  -1  -5 41.9707 4.73840  13
   4   1   5 53.8000 5.29077  17
   4   1   5 45.7645 6.82588   2
  -5  -1  -5 21.8225 3.03459   7
  -5  -1  -5 18.9950 3.43552  12
   5   1   5 24.0197 4.64016  17
   5   1   5 17.9760 5.55072   2
   6  -2  -5 187.567 10.8589  22
   6  -2  -5 150.967 11.7937   3
  -6   2   5 181.292 11.2429   7
   5  -2  -5 19.0524 6.06924   3
  -5   2   5 24.5270 5.34988   7
  -5   2   5 32.3744 4.13049  18
  -5   2   5 21.3564 5.34394  16
   4  -2  -5 142.021 10.1495   3
  -4   2   5 150.203 9.27987   7
  -4   2   5 135.080 9.53499  16
   3  -2  -5 12.6170 6.43214   8
   2  -2  -5 1175.31 70.7779   8
   2  -2  -5 1230.90 68.4507  23
   1  -2  -5 4357.81 243.583   8
   1  -2  -5 4218.48 241.502  23
   0  -2  -5 247.278 17.6437   8
   0  -2  -5 247.862 14.8333  23
  -1  -2  -5 19.9661 7.31749   8
  -1  -2  -5 29.5591 4.05721  23
  -2  -2  -5 32.1631 3.45987  12
   2   2   5 35.1519 3.88412  17
   2   2   5 34.0936 3.93133  11
   2   2   5 32.4587 6.55035   1
   2   2   5 33.6798 3.40125   5
  -3  -2  -5 93.4717 6.77777  12
   3   2   5 95.3189 6.95252  11
   3   2   5 112.644 10.4572   1
   3   2   5 84.9507 7.10419  17
  -4  -2  -5 33.1728 4.28193  12
  -4  -2  -5 38.8458 5.58192   7
   4   2   5 43.7679 6.03355   2
   4   2   5 30.9327 4.90535  17
  -5  -2  -5 21.0950 3.80175   7
   5   2   5 21.5327 3.89855  17
  -7   3   5 106.948 6.75522  10
  -7   3   5 108.927 7.11941   7
   6  -3  -5 21.0688 6.03041   3
   6  -3  -5 13.4600 3.03732  22
  -6   3   5 17.0408 3.18858   7
   5  -3  -5 35.9493 6.98363   3
  -5   3   5 30.9000 5.66854   7
  -5   3   5 25.3696 4.44320  18
   4  -3  -5 173.798 11.8078   3
  -4   3   5 161.522 10.6024  18
  -4   3   5 156.190 10.7058  16
  -4   3   5 170.792 10.6622   7
   3  -3  -5 24.9394 9.55658   8
   3  -3  -5 14.0319 3.98326  23
   2  -3  -5 939.284 56.6892   8
   2  -3  -5 899.594 55.8714  20
   2  -3  -5 978.509 53.7277  23
   1  -3  -5 109.432 7.75570  23
   1  -3  -5 98.1881 11.7331   8
   1  -3  -5 115.073 11.6019  20
   0  -3  -5 8.06791 2.40212  23
   0  -3  -5 5.83698 5.24893   8
  -1  -3  -5 8.15765 2.63340  23
   1   3   5 5.58835 1.75330   5
   1   3   5 7.76725 2.63634  16
   1   3   5 5.67592 2.01658  11
   1   3   5 7.55241 3.54853   1
  -2  -3  -5 190.475 10.9289  12
  -2  -3  -5 213.384 12.0649  23
   2   3   5 169.876 10.8530  11
   2   3   5 173.703 10.9085   5
   2   3   5 158.156 13.4540   1
   2   3   5 168.211 11.3202  17
  -3  -3  -5 455.507 26.0667  12
   3   3   5 427.085 28.1527   1
   3   3   5 485.533 26.2536  11
   3   3   5 427.002 26.0127   5
   3   3   5 457.795 26.5949  17
  -4  -3  -5 1.85421 2.33506   7
   4   3   5 0.55990 2.41046  17
   7  -4  -5 6.46509 2.84174   3
   7  -4  -5 23.4311 3.11256  22
  -7   4   5 10.5901 2.08723   7
  -7   4   5 10.3422 1.98141  11
  -7   4   5 7.72691 1.99718  10
   6  -4  -5 33.0404 6.11298   3
   6  -4  -5 27.0221 4.80432  22
  -6   4   5 24.4486 3.89837  18
  -6   4   5 30.1328 4.18134  10
  -6   4   5 30.9873 5.40214   7
   5  -4  -5 15.1626 4.17668   3
  -5   4   5 8.45906 2.89166  18
  -5   4   5 7.86628 3.13478   7
   4  -4  -5 41.6113 6.23142  23
   4  -4  -5 32.7209 6.79666   3
  -4   4   5 39.4224 4.51126  11
  -4   4   5 33.9274 4.10348  10
  -4   4   5 36.5638 4.83195  18
  -4   4   5 33.3025 4.80554   7
   3  -4  -5 553.871 34.5659  22
   3  -4  -5 642.814 35.6403  23
   3  -4  -5 610.219 35.4272   3
  -3   4   5 625.717 34.7235  18
  -3   4   5 592.307 35.2228   4
  -3   4   5 611.347 34.4649  11
  -3   4   5 611.903 34.6910  16
  -3   4   5 592.763 34.2917  10
  -3   4   5 604.444 34.5972   7
   2  -4  -5 117.550 15.0209  20
   2  -4  -5 168.232 10.8981  23
  -2   4   5 163.724 10.1600  16
  -2   4   5 170.083 10.9717   4
  -2   4   5 175.316 9.81831  11
  -2   4   5 161.465 9.86322  18
  -2   4   5 154.127 9.45241  10
  -2   4   5 166.014 10.0883   7
   1  -4  -5 124.753 8.35221  23
   1  -4  -5 127.035 13.5955  20
  -1   4   5 116.995 7.31102  11
  -1   4   5 87.8285 13.8312  21
  -1   4   5 110.937 7.10824  10
  -1   4   5 107.132 7.69073  16
   0  -4  -5 168.103 9.88805  23
   0   4   5 146.042 8.87189  10
   0   4   5 143.608 11.4297   1
   0   4   5 146.979 8.87744  11
   0   4   5 137.624 9.40786  16
   0   4   5 139.216 9.02434   5
   0   4   5 111.372 13.3119  21
  -1  -4  -5 3.55571 2.93926  23
  -1  -4  -5 1.44917 2.15724  12
   1   4   5 1.58509 2.47161  10
   1   4   5 3.06383 2.01584  11
   1   4   5 3.61826 1.96415   5
   1   4   5 2.57729 5.59559  21
   1   4   5 4.04575 4.04213   1
   2   4   5 223.527 13.7847   5
   2   4   5 216.721 16.1501   1
   2   4   5 245.430 13.9002  11
  -3  -4  -5 13.2731 2.57544   7
  -3  -4  -5 0.96471 4.28914  20
   3   4   5 14.1378 2.87752  11
   3   4   5 7.86993 1.71782   5
  -7   5   5 8.48081 2.66657  11
   6  -5  -5 23.4601 4.39835  22
   6  -5  -5 29.8314 5.74083   3
  -6   5   5 25.6447 3.97277  11
  -6   5   5 20.2075 3.71603  18
  -6   5   5 35.1738 5.04580   7
  -6   5   5 26.8602 3.74934  10
   5  -5  -5 20.9659 4.64633  22
   5  -5  -5 22.9143 6.03754   3
  -5   5   5 23.2493 3.42622  18
  -5   5   5 28.3234 4.39642  11
  -5   5   5 15.8140 2.66899  10
  -5   5   5 25.5381 5.42610   7
   4  -5  -5 114.348 9.41227   3
   4  -5  -5 113.364 10.3734  23
   4  -5  -5 117.840 8.09160  22
  -4   5   5 106.917 9.64991   4
  -4   5   5 114.059 8.10793  18
  -4   5   5 114.938 8.58284   7
  -4   5   5 122.835 7.58392  10
  -4   5   5 119.336 7.91494  11
   3  -5  -5 67.0369 7.73082  23
  -3   5   5 76.4952 5.91132  18
  -3   5   5 65.5661 6.52934   7
  -3   5   5 76.5336 6.27522  16
  -3   5   5 69.5533 7.86210   4
  -3   5   5 74.8216 5.33071  10
  -3   5   5 72.8249 5.50323  11
   2  -5  -5 29.5457 11.8798  20
   2  -5  -5 51.4613 6.16001  23
  -2   5   5 47.0530 5.16492  16
  -2   5   5 44.9594 4.02360  10
  -2   5   5 47.6211 4.11348  11
   1  -5  -5 5.01818 3.16827  23
   1  -5  -5 17.6776 10.6014  20
  -1   5   5 7.30596 2.22877   5
  -1   5   5 7.01487 2.11606  11
  -1   5   5 12.9089 2.23233  10
  -1   5   5 5.42148 3.01442  16
   0  -5  -5 42.1279 6.03411  23
   0   5   5 33.1149 12.3147  21
   0   5   5 55.5076 8.10350   1
   0   5   5 52.2630 4.97233  10
   0   5   5 56.3096 5.10403   5
   0   5   5 51.9731 4.78251  11
   1   5   5 100.188 13.0657  21
   1   5   5 86.1710 9.80433   1
   1   5   5 110.801 6.96836  11
  -2  -5  -5 36.1549 11.3171  20
   2   5   5 56.4516 4.38154   5
   2   5   5 60.6931 4.82606  11
   6  -6  -5 1.99245 2.16629  22
   6  -6  -5 -0.2439 2.97330   3
  -6   6   5 3.53352 1.95184  10
  -6   6   5 1.35395 2.01458  11
  -6   6   5 3.25188 2.68827   7
  -5   6   5 36.3406 4.16862  11
  -5   6   5 27.7060 6.10076   4
  -5   6   5 36.8765 5.13846   7
  -5   6   5 33.9642 4.18784  18
  -5   6   5 41.3723 4.17829  10
  -4   6   5 64.3157 7.64082   4
  -4   6   5 62.8805 5.02664  10
  -4   6   5 53.5758 5.06601  18
  -4   6   5 56.6766 5.13787  11
  -3   6   5 193.435 11.9843  11
  -3   6   5 198.831 11.8922  10
  -3   6   5 201.858 12.7900  16
  -2   6   5 48.4384 4.67882  10
  -2   6   5 47.4140 4.59793  11
  -2   6   5 49.7394 6.28677  16
   1  -6  -5 101.238 13.5787  20
  -1   6   5 85.0649 6.36109  10
  -1   6   5 88.4973 6.30427  11
  -1   6   5 75.2212 6.45091   5
   0  -6  -5 181.679 17.0793  20
   0   6   5 187.596 11.2735  11
   0   6   5 188.048 11.3475  10
   0   6   5 187.326 11.4581   5
  -1  -6  -5 40.6107 9.27733  20
   1   6   5 53.1219 4.15256   5
   1   6   5 52.3704 4.30001  11
  -5   7   5 18.7012 3.09490  10
  -5   7   5 9.99681 1.99644  11
  -4   7   5 4.04223 2.05662  10
  -4   7   5 0.07613 1.89056  11
  -3   7   5 16.7420 2.39669  10
  -3   7   5 18.8530 3.16786  11
  -2   7   5 0.37611 1.98055  10
  -2   7   5 -0.2181 1.79882  11
  -1   7   5 87.0548 6.07353   5
  -1   7   5 89.0077 6.05917  10
  -1   7   5 91.7936 5.91253  11
   0   7   5 4.09056 1.74009   5
   0   7   5 3.69182 1.60110  11
  -1   7  -6 34.7637 5.38699   9
  -2   7  -6 26.8969 5.28783   9
  -3   7  -6 12.3447 3.09767  24
  -4   7  -6 4.04402 1.79462  18
  -4   7  -6 6.22885 2.42306  24
  -5   7  -6 10.8177 3.53828   4
   1   6  -6 5.59427 5.06404  21
   1   6  -6 7.66326 2.49163   5
   0   6  -6 13.6992 3.74948   9
  -1   6  -6 9.72444 3.88430   9
  -2   6  -6 175.316 11.6873   9
  -2   6  -6 156.430 10.1719  24
  -3   6  -6 23.1407 4.01130  24
  -3   6  -6 25.4706 3.35782  18
  -3   6  -6 29.8383 6.16330   9
  -4   6  -6 27.3677 3.44185  18
  -4   6  -6 33.7779 3.50743  14
  -4   6  -6 36.8302 7.18572   4
  -4   6  -6 31.4788 4.29535  24
  -5   6  -6 5.72050 1.73682  14
  -5   6  -6 4.32963 4.49297   4
  -5   6  -6 5.29300 1.76507  18
  -5   6  -6 8.66634 2.32052  24
  -6   6  -6 55.4414 4.38041  14
  -6   6  -6 84.0344 6.46005   4
   2   5  -6 4.32774 5.50130  21
   2   5  -6 9.34451 2.70209   5
   1   5  -6 67.3232 7.73701   9
   1   5  -6 79.8038 11.7748  21
   1   5  -6 84.2724 6.87780   5
  -1  -5   6 80.3170 5.72164  13
   0   5  -6 107.330 7.72067   5
   0  -5   6 98.4090 7.01237  23
  -1   5  -6 238.928 15.2147   9
   1  -5   6 239.682 14.4569  23
  -2   5  -6 106.972 7.37882  14
  -2   5  -6 114.322 8.74636   9
  -2   5  -6 117.607 7.45815  18
  -2   5  -6 111.592 7.82953  24
   2  -5   6 110.017 8.22048  23
  -3   5  -6 2.97314 2.03434  18
  -3   5  -6 5.64232 3.95627   4
  -3   5  -6 3.96268 2.50478  24
  -3   5  -6 4.30940 2.05082  14
  -3   5  -6 6.92918 3.62319   9
   3  -5   6 7.66244 3.41903  23
  -4   5  -6 13.6550 3.97876   9
  -4   5  -6 7.99120 2.51347  24
  -4   5  -6 4.84266 2.01364  14
  -4   5  -6 14.1569 4.98248   4
  -4   5  -6 9.66154 2.21506  18
  -5   5  -6 33.6527 7.74756   4
  -5   5  -6 32.5890 3.72984  14
  -5   5  -6 44.1075 4.49913  24
  -6   5  -6 30.4632 6.38015   4
  -6   5  -6 33.1866 3.08819  14
  -6   5  -6 29.6269 3.12605  12
   3   4  -6 9.05814 5.96602  21
   3   4  -6 17.7776 4.19588   5
   2   4  -6 36.5535 5.53417   5
   2   4  -6 41.3248 11.2927  21
  -2  -4   6 34.9579 3.95757  13
   1   4  -6 147.663 13.8491  21
   1   4  -6 132.879 10.5082   9
   1   4  -6 151.017 9.85790   5
  -1  -4   6 138.912 9.44863  23
   0   4  -6 84.5953 7.27035   9
   0   4  -6 78.5707 6.55173   5
   0  -4   6 89.4203 6.34668  23
   0  -4   6 82.7880 8.09705  19
  -1   4  -6 23.5904 3.55173  24
  -1   4  -6 27.5126 3.24068  18
  -1   4  -6 23.1633 3.45087  14
  -1   4  -6 24.0134 5.21901   9
   1  -4   6 22.0765 4.26040  23
  -2   4  -6 10.9870 2.89864   9
  -2   4  -6 7.32942 1.98137  18
  -2   4  -6 6.03597 2.27496  24
  -2   4  -6 7.82876 2.08385  14
  -2   4  -6 15.2301 4.34941   3
   2  -4   6 7.17595 2.89094  23
  -3   4  -6 110.814 7.15731  18
  -3   4  -6 96.1665 9.42799   4
  -3   4  -6 114.919 7.33168  14
  -3   4  -6 111.262 7.62248  24
  -3   4  -6 114.635 8.17637   9
   3  -4   6 106.062 9.26938  23
  -4   4  -6 184.186 11.0334  14
  -4   4  -6 161.530 11.1964  24
  -4   4  -6 167.964 10.8365  18
  -4   4  -6 200.518 13.7453   4
  -4   4  -6 195.131 12.0082   9
   4  -4   6 157.623 13.3570  23
  -5   4  -6 87.4915 6.45717  12
  -5   4  -6 79.3278 6.28956  24
  -5   4  -6 96.8847 9.92929   4
  -5   4  -6 85.3788 6.21822  14
   5  -4   6 103.852 8.78179   2
  -6   4  -6 88.5828 5.71502  14
  -6   4  -6 82.8147 8.54091   4
  -6   4  -6 96.3758 5.88070  12
   6  -4   6 73.3449 8.08105   2
   4   3  -6 -0.2905 4.68916  21
   4   3  -6 -2.5903 2.35734   5
   4   3  -6 4.19058 4.12847   2
  -4  -3   6 2.88085 2.41408  16
   3   3  -6 15.0981 3.21272   5
   3   3  -6 10.9050 6.01577  21
   3   3  -6 14.0505 4.79455   2
  -3  -3   6 16.7092 3.28828  13
   2   3  -6 109.098 9.55610   9
   2   3  -6 143.029 13.9441  21
   2   3  -6 127.913 9.15678   5
   2   3  -6 137.072 10.8677   2
  -2  -3   6 120.277 8.90634  23
  -2  -3   6 133.336 8.43935  13
   1   3  -6 56.2429 9.33166  21
   1   3  -6 46.2448 5.29013   5
   1   3  -6 51.2875 12.8222  20
   1   3  -6 45.7444 5.45925   9
  -1  -3   6 50.9987 6.64410  19
  -1  -3   6 51.6911 4.84005  23
   0   3  -6 140.493 9.77511   9
   0   3  -6 154.668 15.6786  20
   0  -3   6 155.546 11.0829  19
   0  -3   6 151.285 9.71412  23
  -1   3  -6 156.999 9.53027  18
  -1   3  -6 161.058 10.0909   9
   1  -3   6 153.021 10.3744  23
  -2   3  -6 15.1812 2.64629  18
  -2   3  -6 11.5531 2.69720   9
   2  -3   6 12.0525 3.04694  23
  -3   3  -6 118.511 7.99477  18
  -3   3  -6 131.889 8.49553  22
  -3   3  -6 132.106 8.21772  14
  -3   3  -6 127.675 8.82567   9
   3  -3   6 141.223 10.4229  23
  -4   3  -6 37.5722 4.45317  12
  -4   3  -6 43.8012 4.38128  13
  -4   3  -6 47.0372 5.93527   9
  -4   3  -6 43.5795 4.11514  14
  -4   3  -6 42.3988 4.53707  24
  -4   3  -6 46.4076 7.83719   4
   4  -3   6 39.7833 7.98590  23
   4  -3   6 58.2649 7.30638   2
  -5   3  -6 91.0275 7.70249   9
  -5   3  -6 90.9002 6.49211  12
  -5   3  -6 85.0098 5.97290  14
  -5   3  -6 87.9437 6.30002  13
  -5   3  -6 82.4813 9.44897   4
   5  -3   6 80.9235 8.73983   2
  -6   3  -6 5.57186 2.18381  14
  -6   3  -6 10.6434 2.28516  12
  -6   3  -6 6.88343 3.96962   4
   6  -3   6 7.48921 4.33630   2
   5   2  -6 3.82062 5.59885  21
   5   2  -6 9.31899 4.18200   2
  -5  -2   6 6.65968 2.35329  16
   4   2  -6 48.7411 7.47962   2
   4   2  -6 41.4415 10.3432  21
   4   2  -6 34.0345 5.27713   5
  -4  -2   6 46.2977 4.31254  13
   3   2  -6 7.96239 4.36521   2
   3   2  -6 6.14183 5.94549  21
   3   2  -6 3.51018 2.80721   5
   3   2  -6 6.34272 6.05994  20
  -3  -2   6 5.41336 2.55804  23
  -3  -2   6 9.07796 2.32816  13
   2   2  -6 90.2229 6.90930   5
   2   2  -6 76.6589 7.90038   2
   2   2  -6 97.6550 14.2505  20
   2   2  -6 98.7381 11.1419  21
   2   2  -6 75.6827 8.78894   9
  -2  -2   6 88.3730 6.25828  13
  -2  -2   6 89.7819 8.17786  19
  -2  -2   6 98.8585 7.13603  23
   1   2  -6 2.47977 4.04698  20
   1   2  -6 5.79996 2.48718   9
  -1  -2   6 7.59942 3.06768  19
  -1  -2   6 5.03060 1.93183  23
   0   2  -6 562.931 35.7953  20
   0  -2   6 564.458 32.6235  23
  -1   2  -6 29.8620 2.81981  18
   1  -2   6 28.1283 4.61742  23
  -2   2  -6 66.5926 4.98664  18
  -2   2  -6 82.6092 5.63010   9
   2  -2   6 75.5467 7.12457  23
  -3   2  -6 48.2658 4.97097  22
  -3   2  -6 52.4145 4.08705  13
   3  -2   6 44.2423 7.17616  23
  -4   2  -6 176.537 10.5549  13
  -4   2  -6 167.067 10.4189  14
  -4   2  -6 169.100 10.8112  12
   4  -2   6 177.479 12.3525   2
  -5   2  -6 27.3793 4.89367  12
  -5   2  -6 27.6848 3.65888  13
   5  -2   6 32.2087 7.02492   2
  -6   2  -6 77.0457 7.93978   4
  -6   2  -6 89.4808 6.10220  12
   6  -2   6 83.9940 8.20743   2
   5   1  -6 71.8270 8.81071   2
   5   1  -6 97.6800 10.5100  21
  -5  -1   6 99.7858 7.07077  16
   4   1  -6 294.614 18.5154   5
   4   1  -6 285.257 19.7271   2
   4   1  -6 330.836 21.6625  21
  -4  -1   6 312.944 18.3695  16
  -4  -1   6 310.275 18.1196  13
   3   1  -6 39.6676 5.43870   5
   3   1  -6 56.6442 6.91216   2
   3   1  -6 55.8144 12.9090  20
  -3  -1   6 49.3715 4.45516  13
  -3  -1   6 55.4735 6.24307  19
   2   1  -6 37.9595 10.4280  20
  -2  -1   6 35.8063 4.94700  23
  -2  -1   6 34.9058 5.29740  19
   1   1  -6 20.0596 8.91403  20
  -1  -1   6 18.8447 3.81500  23
  -1  -1   6 12.8570 3.05776  19
   0  -1   6 87.6205 6.84425  23
   1  -1   6 147.722 10.2588  23
  -2   1  -6 190.049 11.4002  13
   2  -1   6 203.484 13.3005  23
  -3   1  -6 73.8646 4.95926  13
  -3   1  -6 69.3660 5.63930  22
  -4   1  -6 1.59216 1.67313  13
  -4   1  -6 1.01095 2.50664  12
   4  -1   6 2.76614 3.53430   2
   4  -1   6 4.23865 2.29411  17
  -5   1  -6 34.1239 4.90092  12
  -5   1  -6 33.8370 3.68297  13
   5  -1   6 35.7923 5.17021  17
   5  -1   6 39.9385 6.88258   2
  -6   1  -6 8.70351 1.95939  12
   6  -1   6 11.3971 2.88204  17
   6  -1   6 8.50004 3.82807   2
   6   0  -6 3.57224 3.88579   2
   5   0  -6 157.812 13.2880  21
   5   0  -6 137.629 11.7351   2
  -5   0   6 154.623 9.95390  16
  -5   0   6 143.004 9.25314  13
   4   0  -6 29.9165 5.58727   5
   4   0  -6 38.6576 7.39220   2
  -4   0   6 49.5423 5.63993  16
  -4   0   6 50.7297 4.20081  13
   3   0  -6 2.13692 3.33095   2
   3   0  -6 1.96992 4.35018  20
   3   0  -6 -5.0138 2.38711   5
  -3   0   6 2.09438 2.55631  19
  -3   0   6 2.76715 1.53421  13
  -3   0   6 0.47204 2.20054  16
   2   0  -6 77.5311 10.6564  20
   2   0  -6 63.1368 10.7570   8
  -2   0   6 73.5227 6.18207  19
  -2   0   6 70.7114 4.89290  13
  -2   0   6 78.7226 6.36810  23
   1   0  -6 211.335 15.5501   8
  -1   0   6 180.782 11.9628  23
  -1   0   6 178.187 11.9442  19
   0   0  -6 931.759 52.6304   8
   0   0   6 847.078 50.9049  23
  -1   0  -6 63.4850 4.12781  13
   1   0   6 64.7164 6.33712  23
  -2   0  -6 123.204 7.42376  13
  -3   0  -6 26.1364 2.74814  13
  -3   0  -6 22.3714 3.33168  12
  -3   0  -6 23.0745 3.91629  22
   3   0   6 26.2026 3.77368  17
   3   0   6 26.9250 5.36374   2
  -4   0  -6 2.83380 1.68066  13
  -4   0  -6 3.63496 2.54280  12
   4   0   6 2.70907 2.35986  17
   4   0   6 11.1385 4.01685   2
  -5   0  -6 15.2083 2.80146  12
  -5   0  -6 11.1779 2.58176  13
   5   0   6 16.9897 4.62988  17
   5   0   6 11.0182 4.12791   2
  -6   0  -6 2.32629 1.28445  12
   6   0   6 4.59868 3.06035   2
   6   0   6 3.22827 2.00034  17
   6  -1  -6 64.1020 8.22067  21
  -6   1   6 60.0935 5.52661   7
   5  -1  -6 121.806 8.86685  22
   5  -1  -6 88.1595 8.66260   3
  -5   1   6 105.569 8.21861   7
  -5   1   6 120.914 8.06348  16
   4  -1  -6 9.87737 2.65046  22
   4  -1  -6 12.9526 3.49567   3
  -4   1   6 13.1498 2.80383  16
  -4   1   6 11.0383 2.66730   7
   3  -1  -6 136.519 14.6772   8
   3  -1  -6 146.655 14.5781  20
   2  -1  -6 286.085 19.5357  20
   2  -1  -6 258.361 19.7429   8
   1  -1  -6 851.632 50.9485   8
   0  -1  -6 347.998 22.7396   8
  -1  -1  -6 204.226 15.5125  20
  -1  -1  -6 200.539 14.8576   8
  -2  -1  -6 38.5596 8.83093  20
  -3  -1  -6 44.3485 4.32121  12
   3   1   6 47.2528 6.15792   2
   3   1   6 52.2043 5.01262  17
   3   1   6 42.7024 7.91268   1
   3   1   6 47.9355 4.51924  11
  -4  -1  -6 15.8776 3.00966   7
  -4  -1  -6 16.9483 3.01990  12
   4   1   6 17.1773 6.07197   2
   4   1   6 15.5092 4.01919  17
  -5  -1  -6 11.7750 2.25601  12
  -5  -1  -6 12.0891 2.54222   7
   5   1   6 13.6293 4.96805   2
   5   1   6 13.6090 2.90541  17
   6  -2  -6 77.6547 6.09205  22
   6  -2  -6 84.2759 7.43322   3
  -6   2   6 80.9900 6.55818   7
   5  -2  -6 30.6900 4.58024  22
   5  -2  -6 16.7224 4.15492   3
  -5   2   6 16.5320 3.22835   7
  -5   2   6 23.3772 3.24775  16
  -5   2   6 29.7574 4.32831  18
   4  -2  -6 257.114 15.7860   3
   4  -2  -6 244.008 15.0205  22
  -4   2   6 226.850 15.1068  16
  -4   2   6 261.649 14.9894   7
   3  -2  -6 160.203 15.4067   8
  -3   2   6 161.505 10.9365  16
   2  -2  -6 299.670 18.7507  23
   2  -2  -6 320.235 21.2485  20
   2  -2  -6 305.122 21.8948   8
   1  -2  -6 55.6394 4.86216  23
   1  -2  -6 27.8250 9.10605  20
   1  -2  -6 51.9458 8.98690   8
   0  -2  -6 22.0667 8.24571   8
   0  -2  -6 29.2669 8.42970  20
   0  -2  -6 17.0100 2.97406  23
  -1  -2  -6 28.5963 8.07454   8
  -1  -2  -6 29.4528 8.58511  20
  -1  -2  -6 29.7357 4.56790  23
  -2  -2  -6 75.0937 5.46118  12
  -2  -2  -6 66.9502 11.1937  20
   2   2   6 68.1434 5.56858  17
   2   2   6 70.4739 5.23402   5
   2   2   6 66.2833 8.37364   1
   2   2   6 69.2524 5.30321  11
  -3  -2  -6 27.5660 4.20669  12
   3   2   6 31.5711 4.37260  11
   3   2   6 34.2431 4.39848  17
   3   2   6 31.9973 8.33443   1
  -4  -2  -6 45.5849 5.39810   7
  -4  -2  -6 36.7983 4.25145  12
   4   2   6 44.2544 5.06645  17
   4   2   6 42.1264 8.12638   1
   5   2   6 36.3124 4.07292  17
   6  -3  -6 14.4332 3.94780   3
   6  -3  -6 14.0396 2.94180  22
  -6   3   6 17.2657 3.40580  18
  -6   3   6 11.6208 2.78655   7
   5  -3  -6 149.117 9.46189  22
   5  -3  -6 125.782 10.5334   3
  -5   3   6 140.155 9.06153  18
  -5   3   6 124.845 9.65839  16
  -5   3   6 126.218 9.40787   7
   4  -3  -6 136.496 9.14879  22
   4  -3  -6 137.488 10.3798   3
  -4   3   6 124.661 9.19088  18
  -4   3   6 131.084 9.33737  16
  -4   3   6 140.378 9.11122   7
   3  -3  -6 59.3417 5.24799  22
   3  -3  -6 55.5005 7.14621  23
   3  -3  -6 61.6291 6.66362   3
  -3   3   6 65.1897 5.74782  16
  -3   3   6 62.1884 5.28297   7
  -3   3   6 50.3908 4.64707  11
   2  -3  -6 70.7701 10.9193  20
   2  -3  -6 91.1160 7.19938  23
   2  -3  -6 86.5524 11.7141   8
   1  -3  -6 435.130 29.1115  20
   1  -3  -6 460.851 25.5100  23
   1  -3  -6 399.154 29.0536   8
   0  -3  -6 40.3925 9.77423   8
   0  -3  -6 44.9450 5.51109  23
   0  -3  -6 47.7749 10.0439  20
   0   3   6 41.9850 5.15833  16
  -1  -3  -6 58.3992 4.79380  12
  -1  -3  -6 59.3403 6.37328  23
  -1  -3  -6 59.6198 11.4656  20
   1   3   6 65.6887 5.02209  11
   1   3   6 72.3881 7.71745   1
   1   3   6 61.3332 5.99699  16
   1   3   6 63.8275 4.91285   5
  -2  -3  -6 123.181 15.3505  20
  -2  -3  -6 127.496 8.34852  12
   2   3   6 128.978 8.23012  11
   2   3   6 124.795 11.0780   1
   2   3   6 131.720 8.28002   5
   2   3   6 120.107 8.62950  17
  -3  -3  -6 2.10070 2.14613  12
   3   3   6 1.30864 2.19083  17
   3   3   6 0.17279 2.52272  11
   3   3   6 3.36377 1.61255   5
   3   3   6 3.85998 4.09335   1
  -4  -3  -6 2.31016 1.71011   7
   4   3   6 1.96592 2.09329  17
   6  -4  -6 33.7280 4.74448  22
   6  -4  -6 19.3796 6.08797   3
  -6   4   6 24.4860 4.89520   7
  -6   4   6 30.5972 3.82048  18
  -6   4   6 30.4158 3.82857  10
  -6   4   6 31.0354 4.22313  11
   5  -4  -6 95.3285 8.68225   3
   5  -4  -6 87.4809 7.31492  22
  -5   4   6 95.4047 6.61801  10
  -5   4   6 88.9257 7.35339   7
  -5   4   6 86.8590 6.88830  11
  -5   4   6 79.5537 6.74935  18
   4  -4  -6 149.727 9.87396   3
   4  -4  -6 104.201 8.39356  22
  -4   4   6 103.172 8.19277  18
  -4   4   6 114.122 7.85912  11
  -4   4   6 103.233 8.49788  16
  -4   4   6 122.620 7.74167  10
  -4   4   6 128.593 8.49866   7
   3  -4  -6 29.3458 4.94750  23
   3  -4  -6 29.5633 4.49922  22
   3  -4  -6 29.1794 5.96702   3
  -3   4   6 32.1794 4.83189  16
  -3   4   6 32.9984 3.43799  10
  -3   4   6 28.4224 4.49727  18
  -3   4   6 32.4284 6.13414   4
  -3   4   6 34.6510 4.78622   7
  -3   4   6 34.6006 3.67865  11
   2  -4  -6 72.2738 7.11156  23
  -2   4   6 70.0625 5.80602  16
  -2   4   6 72.1639 5.17590  11
  -2   4   6 71.2348 5.49993  18
  -2   4   6 67.2859 4.88350  10
   1  -4  -6 9.18670 3.45947  23
   1  -4  -6 21.4736 10.5972  20
  -1   4   6 6.83025 2.42290  16
  -1   4   6 10.0248 1.98982  11
  -1   4   6 10.9007 1.96522  10
   0  -4  -6 37.1656 11.1309  20
   0  -4  -6 28.1615 5.33094  23
   0   4   6 31.9168 3.83189  11
   0   4   6 24.6279 4.42029  16
   0   4   6 12.6613 7.44966  21
   0   4   6 23.7038 3.80313   5
   0   4   6 28.3610 4.52366  10
   0   4   6 20.3896 6.50776   1
  -1  -4  -6 87.5383 14.3214  20
  -1  -4  -6 80.9655 7.77240  23
  -1  -4  -6 94.9181 6.59210  12
   1   4   6 91.3309 6.46178  11
   1   4   6 86.4300 9.43343   1
   1   4   6 85.7252 6.45907   5
  -2  -4  -6 21.2020 6.22562  20
  -2  -4  -6 42.0286 4.00094  12
   2   4   6 43.7642 7.73024   1
   2   4   6 43.2382 4.48070  11
   2   4   6 45.2346 4.00038   5
  -3  -4  -6 35.4391 4.51672   7
   3   4   6 26.5807 3.02541   5
   3   4   6 29.8420 4.13474  11
   6  -5  -6 28.7081 5.80898   3
   6  -5  -6 28.2250 4.30564  22
  -6   5   6 26.3875 3.75956  11
  -6   5   6 29.8257 4.58784   7
  -6   5   6 25.7701 3.58751  18
  -6   5   6 23.9628 3.52933  10
   5  -5  -6 2.47411 2.72396  22
   5  -5  -6 11.7219 3.85145   3
  -5   5   6 7.18230 2.29611  10
  -5   5   6 6.39534 2.53067  11
  -5   5   6 8.77726 2.79987  18
  -5   5   6 6.67942 2.89018   7
   4  -5  -6 51.2131 5.42192  22
   4  -5  -6 51.9197 7.28530   3
   4  -5  -6 55.0563 8.34701  23
  -4   5   6 66.0955 6.11457   7
  -4   5   6 61.1954 5.13099  11
  -4   5   6 61.5819 4.88698  10
  -4   5   6 56.7271 5.72334  16
  -4   5   6 51.4659 5.33727  18
   3  -5  -6 58.6888 7.91997  23
  -3   5   6 71.0803 5.16930  10
  -3   5   6 73.7183 6.44362  16
  -3   5   6 70.1343 5.82968  18
  -3   5   6 78.3629 5.73871  11
   2  -5  -6 99.4595 8.69079  23
  -2   5   6 103.564 7.94203  16
  -2   5   6 104.935 6.88706  10
  -2   5   6 104.541 7.09437  11
  -2   5   6 107.228 7.38076   5
   1  -5  -6 19.1006 12.1527  20
   1  -5  -6 8.99033 3.65187  23
  -1   5   6 13.1003 2.23462  10
  -1   5   6 11.8073 2.32108  11
  -1   5   6 12.9801 2.56524   5
  -1   5   6 12.5571 3.15362  16
   0  -5  -6 34.2609 6.21229  23
   0  -5  -6 55.1762 12.9829  20
   0   5   6 43.5016 4.54473  11
   0   5   6 37.9714 6.21267  16
   0   5   6 43.2522 4.61887  10
   0   5   6 42.1949 4.58405   5
   0   5   6 41.4418 7.83860   1
  -1  -5  -6 129.828 15.6131  20
  -1  -5  -6 122.903 8.29328  12
   1   5   6 138.415 8.32237  11
   1   5   6 124.144 8.30949   5
   1   5   6 120.463 11.0416   1
  -2  -5  -6 15.6465 9.71545  20
   2   5   6 19.3527 2.84059   5
   2   5   6 24.8369 3.50851  11
   6  -6  -6 12.3632 3.34196   3
   6  -6  -6 17.3090 3.74638  22
  -6   6   6 20.9518 2.85694  10
  -6   6   6 17.6423 2.96309  11
  -5   6   6 34.5705 3.93993  18
  -5   6   6 35.6586 4.17350  11
  -5   6   6 36.0536 3.91125  10
  -4   6   6 68.7187 4.88777  10
  -4   6   6 62.5213 5.15599  11
  -4   6   6 54.1854 4.99611  18
  -3   6   6 13.4423 3.10673  16
  -3   6   6 10.8445 2.25097  10
  -3   6   6 9.56561 2.24414  11
  -2   6   6 87.6329 6.15078  11
  -2   6   6 92.5974 7.64241  16
  -2   6   6 81.8053 6.11459  10
   1  -6  -6 89.4026 14.4699  20
  -1   6   6 104.675 6.87035  10
  -1   6   6 100.750 7.19714   5
  -1   6   6 109.130 6.98744  11
   0  -6  -6 28.7135 11.0117  20
   0   6   6 44.0557 4.00652  10
   0   6   6 37.0903 3.76117  11
   0   6   6 34.7632 3.95602   5
   1   6   6 14.6327 2.59510   5
   1   6   6 14.9190 2.99232  11
  -5   7   6 59.7547 4.37933  10
  -5   7   6 61.6446 4.38765  11
  -4   7   6 12.2507 2.04986  10
  -4   7   6 9.35215 2.05337  11
  -3   7   6 16.7118 3.10845  10
  -3   7   6 17.2023 3.15685  11
  -2   7   6 6.92403 1.91614  11
  -2   7   6 7.70480 1.88158  10
  -1   7   6 66.4648 4.50669  10
  -1   7   6 58.8042 4.53201   5
  -1   7   6 62.0240 4.47434  11
  -2   7  -7 9.93696 3.25871   9
  -3   7  -7 46.7442 4.14651  24
  -4   7  -7 14.9251 2.91134  24
   1   6  -7 12.4945 2.42941   5
   0   6  -7 31.5197 5.73736   9
  -1   6  -7 4.20148 3.63135   9
  -2   6  -7 50.8090 4.54511  24
  -2   6  -7 52.0369 6.61198   9
  -3   6  -7 51.1876 4.19182  14
  -3   6  -7 45.9842 4.81099  24
  -3   6  -7 48.4078 6.72064   9
  -4   6  -7 45.2226 3.94874  14
  -4   6  -7 47.9095 7.19900   4
  -4   6  -7 42.0595 3.90199  18
  -4   6  -7 43.9553 4.70435  24
  -5   6  -7 17.3223 3.58390  24
  -5   6  -7 14.1371 4.31098   4
  -5   6  -7 15.4624 2.61209  14
   2   5  -7 -1.4729 4.87145  21
  -2  -5   7 -0.1400 1.93355  16
   1   5  -7 7.94751 3.73433   9
   1   5  -7 8.34051 5.51677  21
   1   5  -7 22.5167 4.91230   5
  -1  -5   7 7.66886 2.03771  13
   0   5  -7 19.1227 3.96034   9
   0   5  -7 21.4979 4.96683   5
  -1   5  -7 1.67340 3.64482   9
   1  -5   7 1.62916 2.14538  23
  -2   5  -7 68.1935 7.39214   9
  -2   5  -7 63.7223 5.24957  14
  -2   5  -7 66.6892 5.69921  24
   2  -5   7 70.4654 6.53731  23
  -3   5  -7 19.5341 4.22375   9
  -3   5  -7 22.1059 4.16921  24
  -3   5  -7 20.1557 3.52369  14
  -3   5  -7 16.9387 5.84382   4
  -3   5  -7 21.5478 3.40631  18
   3  -5   7 19.2455 4.09211  23
  -4   5  -7 45.7475 4.39019  18
  -4   5  -7 53.2959 5.01783  24
  -4   5  -7 48.2383 6.73826   9
  -4   5  -7 52.0569 8.24892   4
  -4   5  -7 51.1500 4.45940  14
  -5   5  -7 30.4258 4.18395  24
  -5   5  -7 28.6987 3.32227  14
  -5   5  -7 29.8012 7.36251   4
  -6   5  -7 21.7621 2.63530  14
  -6   5  -7 32.0723 5.81925   4
   3   4  -7 50.6009 10.4135  21
   3   4  -7 64.2115 5.58040   5
  -3  -4   7 65.8878 5.36507  16
   2   4  -7 41.3035 10.7787  21
   2   4  -7 57.4718 6.10013   5
  -2  -4   7 41.8055 4.27891  13
   1   4  -7 57.3008 7.04015   9
   1   4  -7 64.0720 10.7577  21
   1   4  -7 78.9975 6.55324   5
  -1  -4   7 62.6083 5.76875  23
   0   4  -7 219.002 14.2675   5
   0   4  -7 232.744 14.6560   9
   0   4  -7 224.842 22.3835  20
   0  -4   7 237.417 14.2000  23
  -1   4  -7 28.3831 5.64891   9
  -1   4  -7 24.2581 3.65631  14
   1  -4   7 23.5777 4.86566  23
  -2   4  -7 134.808 8.59557  14
  -2   4  -7 136.681 8.54736  18
  -2   4  -7 124.830 11.1339   3
  -2   4  -7 137.402 9.51443   9
   2  -4   7 130.611 10.0625  23
  -3   4  -7 99.5848 8.14899   9
  -3   4  -7 91.4656 6.44463  18
  -3   4  -7 96.4777 7.09603  24
  -3   4  -7 96.7048 6.59287  14
  -3   4  -7 81.5367 9.02590   4
   3  -4   7 94.8030 9.10300  23
  -4   4  -7 17.8531 5.44623   4
  -4   4  -7 23.2813 4.13199   9
  -4   4  -7 23.7220 3.35705  18
  -4   4  -7 27.9916 4.29432  24
  -4   4  -7 27.8140 3.70085  14
   4  -4   7 26.8734 5.23182  23
  -5   4  -7 16.3108 4.14744   9
  -5   4  -7 7.20282 1.95870  14
  -5   4  -7 13.4447 5.17840   4
  -5   4  -7 13.3608 2.33040  12
  -5   4  -7 12.4719 2.58006  24
   5  -4   7 19.7709 6.16916   2
  -6   4  -7 18.2027 2.60270  12
  -6   4  -7 16.1177 2.53620  14
  -6   4  -7 18.7337 6.15729   4
   6  -4   7 21.7840 5.30816   2
   4   3  -7 23.6913 3.62623   5
   4   3  -7 30.6585 8.98128  21
  -4  -3   7 29.7314 4.28957  16
   3   3  -7 6.10540 3.06970   5
   3   3  -7 1.98834 5.56283  21
  -3  -3   7 2.25316 2.49872  16
  -3  -3   7 3.72409 2.19397  13
   2   3  -7 191.339 16.1292  21
   2   3  -7 146.611 12.0584   9
   2   3  -7 186.283 12.0290   5
   2   3  -7 184.909 20.7493  20
  -2  -3   7 190.364 11.3139  13
  -2  -3   7 182.519 11.8213  23
   1   3  -7 66.3542 14.4802  20
   1   3  -7 73.1119 10.4940  21
   1   3  -7 74.4258 6.37885   5
   1   3  -7 65.7452 6.26890   9
  -1  -3   7 69.4955 6.15503  23
  -1  -3   7 62.7248 7.42161  19
   0   3  -7 38.8974 11.9221  20
   0   3  -7 32.9809 4.74855   9
   0   3  -7 21.3375 5.09841   5
   0  -3   7 43.5089 6.20759  19
   0  -3   7 42.9688 4.68160  23
  -1   3  -7 100.792 7.21175   9
  -1   3  -7 94.5023 6.68179  14
   1  -3   7 93.0426 7.74825  23
  -2   3  -7 260.883 14.5567  14
  -2   3  -7 266.449 14.8904   9
  -2   3  -7 245.746 14.6250  22
  -2   3  -7 202.429 15.9212   3
  -2   3  -7 238.471 14.3721  18
   2  -3   7 251.687 15.8635  23
  -3   3  -7 214.769 14.4331  18
  -3   3  -7 278.736 15.2345   9
  -3   3  -7 256.552 14.6470  14
  -3   3  -7 240.664 14.8241  22
   3  -3   7 240.504 16.7247  23
  -4   3  -7 63.1193 5.47576  24
  -4   3  -7 59.6234 5.00530  14
  -4   3  -7 60.1222 5.36288  12
  -4   3  -7 75.5890 7.03080   9
   4  -3   7 54.3461 8.79917  23
   4  -3   7 74.5184 8.14692   2
  -5   3  -7 14.2129 2.57174  12
  -5   3  -7 8.10207 2.00535  14
  -5   3  -7 11.7215 3.67989   9
  -5   3  -7 9.16042 4.88172   4
   5  -3   7 11.0537 4.62372   2
  -6   3  -7 34.7334 3.81496  12
  -6   3  -7 42.7587 6.72031   4
   6  -3   7 48.0975 6.48906   2
  -5  -2   7 8.23293 2.27812  16
   4   2  -7 5.92218 2.76131   5
   4   2  -7 10.8465 4.57429   2
   4   2  -7 11.5573 5.64238  21
  -4  -2   7 11.9560 2.65667  13
  -4  -2   7 10.1982 2.75905  16
   3   2  -7 56.4803 11.3721  21
   3   2  -7 55.9324 8.11425   2
   3   2  -7 53.7147 15.5744  20
   3   2  -7 45.5015 6.38487   5
  -3  -2   7 52.0671 5.53341  16
  -3  -2   7 53.1356 4.85974  13
  -3  -2   7 57.0902 6.96611  23
   2   2  -7 160.145 10.8307   5
   2   2  -7 180.349 14.6669  21
   2   2  -7 139.320 11.8785   2
   2   2  -7 167.371 18.0232  20
  -2  -2   7 158.596 10.8801  23
  -2  -2   7 169.709 10.1604  13
  -2  -2   7 156.956 11.9841  19
   1   2  -7 3.35412 2.81715   5
   1   2  -7 3.42069 2.39168   9
   1   2  -7 0.13663 4.17326  20
   1   2  -7 0.62304 4.26638  21
  -1  -2   7 1.75423 2.27111  23
  -1  -2   7 1.88173 3.06654  19
   0   2  -7 256.051 15.6523   9
   0   2  -7 268.526 20.6052  20
   0  -2   7 264.999 16.1583  23
  -1   2  -7 6.70475 2.45820   9
   1  -2   7 7.13279 2.83903  23
  -2   2  -7 16.0628 3.98349   9
   2  -2   7 10.5638 3.64060  23
  -3   2  -7 0.84974 1.64135  14
  -3   2  -7 2.10889 1.90788  12
  -3   2  -7 3.01710 1.78878  13
  -3   2  -7 4.25944 2.49103  22
   3  -2   7 5.74817 4.11789  23
   3  -2   7 0.67032 2.09067  17
  -4   2  -7 133.349 8.70045  13
  -4   2  -7 142.137 8.99501  12
  -4   2  -7 134.775 8.53847  14
   4  -2   7 127.917 10.9669   2
   4  -2   7 142.202 9.44272  17
  -5   2  -7 16.8820 3.03672  12
  -5   2  -7 16.9108 3.37974  13
   5  -2   7 20.3883 6.53161   2
  -6   2  -7 60.4330 4.74720  12
  -6   2  -7 57.9214 6.94503   4
   6  -2   7 67.0465 6.99208   2
   5   1  -7 4.34228 4.59820  21
   5   1  -7 4.28635 4.58406   2
  -5  -1   7 6.30893 2.65700  16
   4   1  -7 59.0711 6.01121   5
   4   1  -7 43.5929 10.6542  21
   4   1  -7 78.3780 8.57756   2
  -4  -1   7 50.6291 5.87940  16
  -4  -1   7 51.0126 4.80837  13
   3   1  -7 58.5424 13.6583  20
   3   1  -7 61.7059 7.74628   2
   3   1  -7 59.3485 6.26615   5
  -3  -1   7 56.7698 5.89938  16
  -3  -1   7 67.4202 5.03645  13
   2   1  -7 178.098 13.5357   2
   2   1  -7 197.268 12.6322   5
   2   1  -7 216.255 18.3921  20
  -2  -1   7 207.548 13.5902  19
  -2  -1   7 209.845 13.0126  23
  -2  -1   7 195.462 12.1603  16
   1   1  -7 119.514 13.2000  20
  -1  -1   7 114.131 8.95024  19
  -1  -1   7 120.842 8.59566  23
   0   1  -7 172.912 14.8220  20
   0  -1   7 171.235 11.4174  23
   1  -1   7 59.8318 6.65932  23
  -2   1  -7 52.3977 3.89070  13
   2  -1   7 46.1873 7.05993  23
  -3   1  -7 15.3227 2.48108  12
  -3   1  -7 16.8121 2.86969  22
  -3   1  -7 14.7828 2.60554  13
   3  -1   7 14.3791 4.03002  17
  -4   1  -7 21.0553 4.29746  12
  -4   1  -7 24.2546 3.24683  13
   4  -1   7 22.6782 4.54499  17
   4  -1   7 16.9731 6.12023   2
  -5   1  -7 10.4171 2.83461  12
  -5   1  -7 7.27287 1.92244  13
   5  -1   7 14.4314 4.41231   2
   5  -1   7 11.1703 2.91239  17
  -6   1  -7 15.3947 2.64215  12
   6  -1   7 24.4415 5.26759   2
   6  -1   7 16.2172 4.72537  17
   5   0  -7 3.47554 4.75053  21
   5   0  -7 3.83558 4.95826   2
  -5   0   7 4.61686 2.76704  16
   4   0  -7 17.1139 3.11589   5
   4   0  -7 29.0166 7.65903   2
   4   0  -7 24.2623 6.01397   3
  -4   0   7 20.1973 3.69018  13
  -4   0   7 14.4117 3.21687  16
   3   0  -7 116.508 7.54903  22
   3   0  -7 101.499 8.84014   3
   3   0  -7 92.3619 9.56796   2
   3   0  -7 106.215 8.12335   5
   3   0  -7 130.734 14.8079  20
  -3   0   7 119.347 7.21788  13
  -3   0   7 115.106 8.07408  16
   2   0  -7 24.7908 9.57327  20
  -2   0   7 22.8013 4.22895  19
  -2   0   7 18.6710 2.80494  13
   1   0  -7 106.937 11.4588  20
   1   0  -7 83.7916 11.7375   8
  -1   0   7 102.501 7.48480  19
  -1   0   7 108.661 7.84260  23
   0   0  -7 289.213 20.6672   8
   0   0  -7 303.781 20.9294  20
   0   0   7 310.585 18.3891  23
  -1   0  -7 240.431 17.6088  20
  -2   0  -7 92.1934 5.87057  13
  -3   0  -7 16.2225 4.06231  22
  -3   0  -7 18.2705 3.83230  12
  -3   0  -7 20.2512 2.78979  13
   3   0   7 19.0676 3.74085  17
   3   0   7 22.3508 5.53995   2
  -4   0  -7 5.76341 2.81401  12
  -4   0  -7 4.73235 2.19601  13
   4   0   7 4.30661 2.50745  17
   4   0   7 3.39792 3.96438   2
  -5   0  -7 41.0582 4.91187  12
   5   0   7 48.3334 5.24491  17
   5   0   7 48.7559 6.49262   2
   6  -1  -7 24.3939 7.67942  21
  -6   1   7 27.9478 5.12748  16
   5  -1  -7 47.8823 6.69482   3
  -5   1   7 42.4421 5.49222  16
   4  -1  -7 12.4409 3.78128   3
   4  -1  -7 19.4490 4.17382  22
  -4   1   7 12.9281 2.95884  16
   3  -1  -7 97.9526 7.40761  22
   3  -1  -7 109.598 13.3834  20
   3  -1  -7 117.246 8.69393   3
  -3   1   7 100.490 7.61940  16
   2  -1  -7 19.5706 8.52519  20
   2  -1  -7 9.01120 6.22027   8
   1  -1  -7 209.348 16.1715  20
   1  -1  -7 199.768 16.3329   8
   0  -1  -7 62.7194 9.31037   8
  -1  -1  -7 33.6248 9.42271  20
  -2  -1  -7 23.3148 3.77101  22
  -2  -1  -7 20.0941 3.29895  12
  -2  -1  -7 32.2083 10.5078  20
   2   1   7 28.0934 6.47169   1
   2   1   7 23.0330 3.67137  17
  -3  -1  -7 28.8994 4.34585  12
   3   1   7 36.1830 6.11091   2
   3   1   7 27.0734 4.63595  17
   3   1   7 40.0050 8.10293   1
  -4  -1  -7 57.1918 5.64252  12
   4   1   7 60.1491 7.13734   2
   4   1   7 67.5623 5.92873  17
  -5  -1  -7 0.74358 1.72211  12
   5   1   7 0.72909 2.08954  17
   5   1   7 0.41844 2.69631   2
   6  -2  -7 31.4046 5.74299   3
   6  -2  -7 40.7335 4.25329  22
  -6   2   7 33.3692 4.87263   7
   5  -2  -7 39.2071 4.78115  22
   5  -2  -7 25.9770 6.63740   3
  -5   2   7 28.0743 5.09454   7
  -5   2   7 36.5631 4.53109  18
  -5   2   7 31.2373 5.10297  16
   4  -2  -7 303.430 17.7574   3
   4  -2  -7 274.166 16.6924  22
  -4   2   7 260.599 16.7962  16
  -4   2   7 268.670 16.6617   7
   3  -2  -7 80.2821 11.9024  20
   3  -2  -7 59.1292 5.68313  22
   3  -2  -7 74.8353 6.86941   3
  -3   2   7 64.2746 6.15523  16
   2  -2  -7 440.111 31.5018   8
   2  -2  -7 513.365 31.2775  20
   1  -2  -7 89.1991 11.7072  20
   1  -2  -7 121.773 12.3240   8
   0  -2  -7 142.126 14.4947   8
   0  -2  -7 184.380 15.6400  20
  -1  -2  -7 94.4920 13.1468  20
  -1  -2  -7 108.316 7.08462  12
   1   2   7 121.967 8.83260  16
   1   2   7 131.441 9.53000   1
   1   2   7 89.9297 7.27951  17
  -2  -2  -7 3.39385 4.34165  20
  -2  -2  -7 7.95785 2.36991  12
   2   2   7 9.19584 4.02435   1
   2   2   7 8.57682 2.09317  11
   2   2   7 7.93378 2.33966  17
   2   2   7 7.53174 1.84426   5
  -3  -2  -7 95.3697 7.08349  12
   3   2   7 92.7221 10.3821   1
   3   2   7 99.1016 7.31732  17
   3   2   7 99.6197 6.99712  11
  -4  -2  -7 5.45459 2.31039   7
  -4  -2  -7 2.51614 2.12743  12
   4   2   7 1.83592 4.35508   1
   4   2   7 3.75395 2.36412  17
   6  -3  -7 7.91950 3.71757   3
   6  -3  -7 2.74898 2.57545  22
  -6   3   7 4.19898 2.52050  18
  -6   3   7 4.06040 2.24869  11
  -6   3   7 1.65741 2.25795   7
   5  -3  -7 148.130 9.82175  22
   5  -3  -7 140.308 11.0178   3
  -5   3   7 137.456 9.59668   7
  -5   3   7 142.679 9.74378  16
  -5   3   7 141.979 9.44670  18
   4  -3  -7 591.250 31.4322   3
   4  -3  -7 528.045 30.4331  22
  -4   3   7 540.496 30.1703  11
  -4   3   7 501.440 30.4731  16
  -4   3   7 494.179 30.2294   7
  -4   3   7 494.688 30.4317  18
   3  -3  -7 5.24411 3.50900   3
   3  -3  -7 2.09665 2.61558  22
  -3   3   7 0.81971 1.93318  11
  -3   3   7 1.22633 2.47553  16
  -3   3   7 1.40145 1.74058  10
  -3   3   7 -0.1936 2.13840   7
   2  -3  -7 134.425 10.0266  23
   2  -3  -7 129.656 8.90110  22
   2  -3  -7 140.697 13.6586  20
  -2   3   7 144.193 8.49013  11
  -2   3   7 146.844 9.05520  16
  -2   3   7 122.745 8.75113   7
   1  -3  -7 270.821 16.8930  23
   1  -3  -7 258.532 21.0851  20
  -1   3   7 273.657 18.5027   1
  -1   3   7 280.258 16.1318  16
   0  -3  -7 509.129 28.5237  23
   0  -3  -7 501.275 32.7231  20
   0   3   7 460.298 27.4962  11
   0   3   7 439.930 29.0887   1
   0   3   7 497.955 27.7560  16
  -1  -3  -7 208.093 19.5985  20
  -1  -3  -7 214.538 13.6909  12
   1   3   7 254.527 15.8754   1
   1   3   7 238.880 13.6677  11
   1   3   7 222.238 14.1290  16
   1   3   7 230.621 13.7727   5
  -2  -3  -7 12.8550 2.52707  12
  -2  -3  -7 4.27581 5.02163  20
   2   3   7 9.27259 4.35913   1
   2   3   7 6.51540 2.15806  11
   2   3   7 9.78988 2.40776  17
   2   3   7 8.96072 2.03551   5
  -3  -3  -7 18.7941 3.38330  12
  -3  -3  -7 17.3672 2.81188   7
   3   3   7 9.56613 4.31110   1
   3   3   7 15.5620 3.80888  17
   3   3   7 17.7309 2.84588  11
  -4  -3  -7 23.4374 3.80167   7
   4   3   7 13.3291 3.24152  17
   6  -4  -7 21.3880 5.64206   3
   6  -4  -7 19.0716 4.15826  22
  -6   4   7 23.4984 4.05907  18
  -6   4   7 17.0222 3.59153  11
  -6   4   7 19.2826 3.88544   7
  -6   4   7 15.0169 2.42200  10
   5  -4  -7 110.254 9.87094   3
   5  -4  -7 131.291 8.67693  22
  -5   4   7 119.434 7.84634  10
  -5   4   7 128.104 8.24500  11
  -5   4   7 125.049 8.33373  18
  -5   4   7 120.874 8.58563   7
  -5   4   7 108.426 9.81678  16
   4  -4  -7 154.590 11.5323   3
   4  -4  -7 160.310 10.4162  22
  -4   4   7 163.270 10.2731  18
  -4   4   7 157.472 10.5010  16
  -4   4   7 152.098 9.66363  10
  -4   4   7 145.297 10.1939   7
  -4   4   7 162.495 9.93887  11
   3  -4  -7 148.460 9.58894  22
   3  -4  -7 151.287 11.1275   3
   3  -4  -7 130.786 11.5310  23
  -3   4   7 142.731 9.42392   7
  -3   4   7 142.202 9.76566  16
  -3   4   7 137.835 9.51263  18
  -3   4   7 148.549 9.14300  11
  -3   4   7 146.330 8.80894  10
   2  -4  -7 145.727 10.5563  23
   2  -4  -7 125.504 15.0007  20
  -2   4   7 147.918 9.29952  16
  -2   4   7 133.718 8.38848  10
  -2   4   7 139.127 8.57179  11
   1  -4  -7 101.740 8.62202  23
   1  -4  -7 85.6202 15.2159  20
  -1   4   7 101.211 7.12021  16
  -1   4   7 91.5071 9.25128   1
  -1   4   7 106.489 6.64670  11
   0  -4  -7 204.534 14.3665  23
   0  -4  -7 224.318 20.3431  20
   0   4   7 230.599 13.1077  11
   0   4   7 204.133 15.2044   1
   0   4   7 219.997 13.2689   5
   0   4   7 213.696 13.5392  16
  -1  -4  -7 16.2984 2.61605  12
  -1  -4  -7 5.41821 5.26248  20
   1   4   7 18.1368 3.64161  11
   1   4   7 19.4143 7.41315   1
   1   4   7 19.5622 3.80508   5
  -2  -4  -7 52.1896 13.3732  20
  -2  -4  -7 41.4457 4.36302  12
   2   4   7 45.1521 4.57500  11
   2   4   7 43.3752 7.24379   1
   2   4   7 45.3315 4.21847   5
  -3  -4  -7 25.9841 3.92843   7
   3   4   7 23.7171 3.65013  11
   6  -5  -7 15.0619 3.68476   3
   6  -5  -7 24.5188 3.88915  22
  -6   5   7 19.3025 3.01839  10
  -6   5   7 22.9865 3.23543  11
  -6   5   7 20.4114 3.69412   7
   5  -5  -7 6.23194 3.73579   3
   5  -5  -7 11.5083 2.88377  22
  -5   5   7 9.72355 2.23466  10
  -5   5   7 9.30331 2.45662  11
  -5   5   7 13.5637 2.76868  18
  -5   5   7 6.43970 2.60803   7
   4  -5  -7 67.2132 6.00217  22
  -4   5   7 75.1934 6.48513   7
  -4   5   7 77.5293 5.38277  10
  -4   5   7 74.0697 5.97681  18
  -4   5   7 75.2080 5.65051  11
  -4   5   7 68.5899 6.43993  16
   3  -5  -7 2.76068 4.09720  23
  -3   5   7 -0.2692 2.40280  18
  -3   5   7 2.54910 2.65559  16
  -3   5   7 -2.3045 1.98879  11
  -3   5   7 0.56150 1.78271  10
   2  -5  -7 81.0647 8.07749  23
   2  -5  -7 59.8314 13.3693  20
  -2   5   7 92.8787 6.14208  11
  -2   5   7 90.8646 6.97172  16
  -2   5   7 90.4987 5.80187  10
   1  -5  -7 533.323 37.4515  20
   1  -5  -7 478.574 32.7938  23
  -1   5   7 578.101 31.7164  10
  -1   5   7 580.073 32.2888  16
  -1   5   7 581.638 31.9227  11
  -1   5   7 578.373 32.1871   5
   0  -5  -7 122.223 7.47380  12
   0  -5  -7 97.1647 15.2268  20
   0   5   7 96.1899 8.47897  16
   0   5   7 112.050 7.41343  11
   0   5   7 115.750 10.2575   1
   0   5   7 107.992 7.61148   5
  -1  -5  -7 24.1049 3.57775  12
  -1  -5  -7 24.7263 11.8833  20
   1   5   7 32.4387 7.25867   1
   1   5   7 27.3377 3.62768   5
   1   5   7 26.4204 3.57686  11
   2   5   7 3.31415 1.36447   5
   2   5   7 9.32983 2.22830  11
  -6   6   7 6.01323 2.28680  11
  -5   6   7 20.0530 3.21452  11
  -5   6   7 13.2199 2.19114  10
  -4   6   7 5.23622 3.14236  16
  -4   6   7 7.52884 2.19690  11
  -4   6   7 7.36734 2.04780  10
  -4   6   7 4.39007 2.19092  18
  -3   6   7 55.2200 4.46279  10
  -3   6   7 56.4346 4.70136  11
  -3   6   7 51.2894 5.77124  16
  -2   6   7 132.710 9.30643   5
  -2   6   7 155.621 10.1223  16
  -2   6   7 151.643 9.07757  11
  -2   6   7 141.055 8.88804  10
  -1   6   7 33.0349 3.80292  11
  -1   6   7 30.2575 3.59355  10
  -1   6   7 30.2846 3.93154   5
   0  -6  -7 80.2294 12.2169  20
   0  -6  -7 75.0709 5.55750  12
   0   6   7 82.1921 5.66857   5
   0   6   7 82.2266 5.55491  11
   1   6   7 1.38896 1.62776  11
   1   6   7 1.66735 1.28193   5
  -4   7   7 24.3216 2.87757  10
  -4   7   7 20.8129 2.94753  11
  -3   7   7 8.75281 1.89072  11
  -3   7   7 9.89849 1.76628  10
  -2   7   7 43.6229 3.69982  11
  -2   7   7 43.7770 3.56463  10
  -1   7   7 18.3757 2.49704  11
   0   6  -8 40.3426 5.54095   9
  -1   6  -8 10.6151 3.80927   9
  -2   6  -8 7.27640 3.67941   9
  -2   6  -8 7.80079 2.29265  24
  -3   6  -8 51.8209 4.20348  14
  -3   6  -8 50.2678 4.82440  24
  -3   6  -8 51.1493 6.34452   9
  -4   6  -8 30.6173 3.24649  14
  -4   6  -8 34.5640 4.07361  24
  -4   6  -8 22.4600 5.67386   9
  -5   6  -8 10.8406 2.30765  14
  -5   6  -8 11.6766 3.71394   4
   2   5  -8 20.1564 3.73451   5
   1   5  -8 39.7714 6.40756   9
   1   5  -8 62.4797 5.69580   5
   0   5  -8 6.27022 3.51263   9
  -1   5  -8 31.4563 6.33427   9
  -2   5  -8 27.9473 3.71798  14
  -2   5  -8 29.3322 4.20341  24
  -2   5  -8 17.8730 4.08612   9
  -3   5  -8 58.8127 7.31837   9
  -3   5  -8 61.8921 4.99401  14
  -3   5  -8 56.5422 5.52036  24
  -4   5  -8 42.2767 4.67104  24
  -4   5  -8 39.6923 6.42328   9
  -4   5  -8 41.2681 7.74504   4
  -4   5  -8 36.6221 3.99287  14
  -5   5  -8 8.36839 4.65907   4
  -5   5  -8 15.0991 2.64469  24
  -5   5  -8 8.45769 1.86708  14
   3   4  -8 36.8275 4.19974   5
   3   4  -8 31.6399 9.70447  21
  -3  -4   8 32.1198 4.01115  16
   2   4  -8 9.99596 5.63788  21
   2   4  -8 22.1046 5.16514   5
  -2  -4   8 8.22417 2.54585  16
  -2  -4   8 9.72415 2.60780  13
   1   4  -8 21.0016 4.19536   9
   1   4  -8 47.0520 5.89311   5
   0   4  -8 214.282 14.1113   5
   0   4  -8 224.810 14.2849   9
   0   4  -8 224.730 22.5503  20
   0  -4   8 229.503 14.0913  23
  -1   4  -8 77.2711 7.03485   9
  -1   4  -8 68.6270 8.94205   3
  -1   4  -8 68.1463 5.61462  14
   1  -4   8 68.7670 6.88706  23
  -2   4  -8 -0.4445 3.25980   9
  -2   4  -8 2.44452 4.67201   3
  -2   4  -8 -0.9342 2.11052  14
   2  -4   8 0.65373 3.43451  23
  -3   4  -8 314.807 19.1624  24
  -3   4  -8 315.696 20.4323   4
  -3   4  -8 319.787 18.8114  14
  -3   4  -8 352.652 19.5652   9
   3  -4   8 288.257 20.3911  23
  -4   4  -8 50.8656 4.96216  14
  -4   4  -8 49.0988 5.55981  24
  -4   4  -8 76.9591 8.96604   4
  -4   4  -8 75.7151 7.11769   9
  -5   4  -8 3.11426 4.62911   4
  -5   4  -8 2.76844 3.34587   9
  -5   4  -8 6.67777 2.82852  24
  -5   4  -8 3.35289 1.84060  14
   5  -4   8 4.20099 4.13506   2
  -6   4  -8 18.7641 5.33854   4
  -6   4  -8 20.1262 2.26115  14
  -6   4  -8 14.5069 2.55047  12
   4   3  -8 33.7906 3.84288   5
  -4  -3   8 36.4129 4.19685  16
   3   3  -8 44.3185 5.81684   5
   3   3  -8 47.0396 10.2559  21
  -3  -3   8 47.3499 5.40404  16
  -3  -3   8 61.4681 6.41427  13
   2   3  -8 33.2165 14.2547  20
   2   3  -8 61.0526 6.52004   5
   2   3  -8 33.5501 10.1058  21
  -2  -3   8 38.8954 5.05988  16
  -2  -3   8 35.5824 4.94050  23
  -2  -3   8 45.5440 4.52264  13
   1   3  -8 75.4140 7.03969   9
   1   3  -8 70.2606 16.2669  20
   1   3  -8 93.7693 7.51828   5
  -1  -3   8 71.7459 6.81838  23
   0   3  -8 35.2379 5.02645   5
   0   3  -8 28.7344 6.87802   3
   0   3  -8 26.2359 4.30678  14
   0   3  -8 37.7810 12.5084  20
   0   3  -8 35.2186 5.21539   9
   0  -3   8 42.6609 5.43194  23
   0  -3   8 44.3126 6.32168  19
  -1   3  -8 13.9596 3.14589   9
  -1   3  -8 14.0375 4.46508   3
  -1   3  -8 9.02720 2.38078  14
   1  -3   8 8.05298 3.40239  23
  -2   3  -8 178.665 11.6192  22
  -2   3  -8 203.935 12.1114   9
  -2   3  -8 157.253 13.4149   3
  -2   3  -8 193.608 11.4854  14
   2  -3   8 199.381 13.4003  23
  -3   3  -8 129.625 8.91062  22
  -3   3  -8 137.697 9.67600   9
  -3   3  -8 124.870 8.44025  14
   3  -3   8 119.800 11.1114  23
  -4   3  -8 25.8270 7.70086   4
  -4   3  -8 23.8800 4.16409  24
  -4   3  -8 30.9943 5.70022   9
  -4   3  -8 23.6486 3.51134  14
   4  -3   8 25.2811 7.02278   2
  -5   3  -8 17.6331 3.74860   9
  -5   3  -8 16.4432 2.50712  12
  -5   3  -8 18.4695 5.21815   4
  -5   3  -8 13.9992 2.96039  14
   5  -3   8 14.5198 4.62354   2
  -6   3  -8 0.48365 1.52886  12
  -6   3  -8 2.63221 3.56426   4
   6  -3   8 4.90404 3.72200   2
   4   2  -8 7.43264 2.63451   5
   4   2  -8 2.51474 5.08641  21
  -4  -2   8 4.67870 2.38267  16
   3   2  -8 87.2986 16.2930  20
   3   2  -8 93.5556 12.3250  21
   3   2  -8 94.5774 7.72631   5
  -3  -2   8 96.6288 7.43795  16
  -3  -2   8 96.2224 6.70411  13
   2   2  -8 243.302 15.2042   5
   2   2  -8 227.704 22.3824  20
   2   2  -8 240.456 18.2604  21
  -2  -2   8 243.596 14.4505  13
  -2  -2   8 242.576 15.2223  23
  -2  -2   8 239.264 14.6149  16
   1   2  -8 55.9357 6.98561   3
   1   2  -8 54.3645 5.52563   9
   1   2  -8 53.6975 13.0432  20
   1   2  -8 61.2812 6.41479   5
  -1  -2   8 57.9953 6.92613  19
  -1  -2   8 54.5655 6.14963  23
   0   2  -8 30.0141 11.5063  20
   0   2  -8 24.1904 3.68741   5
   0   2  -8 31.0403 4.02065   9
   0  -2   8 27.0260 5.25971  23
  -1   2  -8 17.7646 4.44673   9
  -1   2  -8 22.0200 3.79380  14
   1  -2   8 30.0860 5.95020  23
  -2   2  -8 29.3876 4.62024   9
  -2   2  -8 25.8336 3.66415  14
  -2   2  -8 20.5741 4.24550  22
  -2   2  -8 23.0021 6.80345   3
   2  -2   8 21.3957 4.05948  17
   2  -2   8 18.9723 4.56312  23
  -3   2  -8 11.2652 3.14711  22
  -3   2  -8 7.62501 3.71857  12
  -3   2  -8 13.7886 3.35652   9
  -3   2  -8 7.39630 1.95029  14
   3  -2   8 9.67033 4.90729  23
   3  -2   8 8.69721 2.60423  17
  -4   2  -8 8.61972 3.69484   9
  -4   2  -8 4.93131 1.94445  14
  -4   2  -8 5.55178 2.52155  12
   4  -2   8 8.35713 4.43067   2
   4  -2   8 7.52189 2.79385  17
  -5   2  -8 7.35485 2.55381  12
  -5   2  -8 18.1695 3.79496   9
  -5   2  -8 12.5855 4.89377   4
   5  -2   8 10.7939 4.48905   2
  -6   2  -8 25.3585 2.73960  12
  -6   2  -8 19.9414 5.61176   4
   6  -2   8 22.6341 5.18174   2
   5   1  -8 7.45119 4.50681  21
  -5  -1   8 10.2881 2.57216  16
   4   1  -8 25.0166 9.65425  21
   4   1  -8 25.6653 4.86020   5
  -4  -1   8 23.5129 3.31193  13
  -4  -1   8 25.4087 4.93878  16
   3   1  -8 121.309 17.0215  20
   3   1  -8 95.3883 9.52929   3
   3   1  -8 104.230 8.68617   5
  -3  -1   8 116.402 8.08262  16
  -3  -1   8 117.427 7.46074  13
   2   1  -8 154.331 10.3194   5
   2   1  -8 142.425 10.9782   3
   2   1  -8 152.285 16.6843  20
  -2  -1   8 146.954 9.61290  16
  -2  -1   8 144.246 10.9810  19
  -2  -1   8 156.014 9.36811  13
  -2  -1   8 153.616 10.6666  23
   1   1  -8 22.4371 10.2111  20
   1   1  -8 23.0366 3.55091   5
  -1  -1   8 26.1626 5.15961  23
  -1  -1   8 32.2826 5.29388  19
   0   1  -8 206.673 17.3982  20
   0   1  -8 194.500 12.4864   9
   0  -1   8 221.913 13.6322  23
  -1   1  -8 51.8387 4.79807   9
  -1   1  -8 46.6003 10.0558  20
   1  -1   8 51.6601 6.78602  23
  -2   1  -8 68.4579 5.01014  14
  -2   1  -8 77.4348 8.36707   3
  -2   1  -8 60.6651 5.64327  22
   2  -1   8 66.2924 5.63825  17
  -3   1  -8 31.9397 3.51446  13
  -3   1  -8 31.6923 4.86731  22
  -3   1  -8 31.0857 4.11779  12
   3  -1   8 33.7388 4.90057  17
  -4   1  -8 3.80914 2.78365  12
  -4   1  -8 4.76160 2.02038  13
   4  -1   8 10.1132 4.20413   2
   4  -1   8 5.10658 2.63172  17
  -5   1  -8 20.5638 4.21874  12
   5  -1   8 16.2909 4.35569  17
   5  -1   8 13.6180 4.35633   2
  -6   1  -8 12.9686 2.45305  12
   5   0  -8 54.4621 9.35133  21
  -5   0   8 50.9752 5.55580  16
   4   0  -8 3.71072 3.48571   3
   4   0  -8 3.22941 6.13143  20
  -4   0   8 4.01315 2.84647  16
   3   0  -8 338.394 22.8277   3
   3   0  -8 397.718 28.2089  20
   3   0  -8 386.282 21.9209  22
  -3   0   8 378.566 22.1127  16
   2   0  -8 745.817 42.7835   3
   2   0  -8 704.191 41.9427  22
   2   0  -8 753.083 46.7578  20
  -2   0   8 741.395 42.0018  16
   1   0  -8 112.825 13.2862   8
   1   0  -8 125.090 13.2713  20
   0   0  -8 77.9138 10.6978  20
  -1   0  -8 582.396 36.6599  20
  -2   0  -8 1.13406 2.09292  12
  -2   0  -8 0.34267 2.25547  22
   2   0   8 0.71118 2.12354  17
   2   0   8 -0.5562 3.49247   1
  -3   0  -8 0.38381 2.56142  22
  -3   0  -8 2.38285 2.57005  12
   3   0   8 2.36645 2.35722  17
   3   0   8 11.4708 3.91702   2
  -4   0  -8 4.60318 2.86742  12
   4   0   8 7.05632 4.08910   2
   4   0   8 4.15407 2.56991  17
  -5   0  -8 70.2538 5.58534  12
   5   0   8 62.1262 6.86163   2
   5   0   8 81.8947 6.10485  17
  -6   1   8 33.3273 5.56378  16
   5  -1  -8 27.4031 5.82259   3
  -5   1   8 25.8710 4.62199  18
  -5   1   8 33.4413 5.00604  16
   4  -1  -8 35.7122 6.82078   3
   4  -1  -8 45.0912 4.83371  22
  -4   1   8 39.9628 5.71370  16
   3  -1  -8 1337.38 77.0019  22
   3  -1  -8 1492.07 82.1680  20
   3  -1  -8 1421.55 77.7915   3
  -3   1   8 1332.44 77.0578  16
  -3   1   8 1214.83 78.0172   1
   2  -1  -8 127.872 8.39403  22
   2  -1  -8 124.289 9.58150   3
   2  -1  -8 138.708 14.4408  20
  -2   1   8 138.119 8.54644  16
  -2   1   8 107.418 9.74067   1
   1  -1  -8 182.399 16.4986   8
   1  -1  -8 206.208 16.5487  20
   0  -1  -8 218.330 17.5373  20
   0  -1  -8 223.385 17.6791   8
  -1  -1  -8 222.268 13.8851  22
  -1  -1  -8 221.255 18.3472  20
  -1  -1  -8 230.405 13.8745  12
   1   1   8 220.786 14.1761  17
   1   1   8 271.882 15.8149   1
  -2  -1  -8 277.750 25.3104  20
  -2  -1  -8 214.529 15.3510  22
  -2  -1  -8 246.696 15.5017  12
   2   1   8 236.506 15.7960  17
   2   1   8 332.978 17.9450   1
  -3  -1  -8 25.0272 4.29463  12
   3   1   8 25.1633 4.50433  17
   3   1   8 13.0565 4.80766   1
   3   1   8 16.1368 4.27759   2
  -4  -1  -8 11.9437 2.84051  12
   4   1   8 12.7278 3.76146  17
   4   1   8 8.46693 3.76132   2
  -5  -1  -8 7.24668 1.65547  12
   5   1   8 8.76438 2.32038  17
   6  -2  -8 16.6818 4.95869   3
   6  -2  -8 25.9343 5.27559  22
   5  -2  -8 2.42060 2.66259  22
   5  -2  -8 1.33092 3.82599   3
  -5   2   8 1.69447 2.71675  16
  -5   2   8 3.52299 2.76136  18
   4  -2  -8 359.785 20.7874  22
   4  -2  -8 343.962 21.8362   3
  -4   2   8 348.361 20.8973  16
   3  -2  -8 350.328 21.5419  22
   3  -2  -8 394.619 27.1109  20
   3  -2  -8 366.329 22.3941   3
  -3   2   8 357.360 21.5873  16
   2  -2  -8 225.083 17.6524  20
   2  -2  -8 197.402 13.7613   3
   2  -2  -8 219.855 12.7505  22
  -2   2   8 222.695 12.8464  16
  -2   2   8 174.741 14.0852   1
   1  -2  -8 1.87283 2.20223  22
   1  -2  -8 0.16681 3.76180  20
  -1   2   8 0.57733 2.08114  16
  -1   2   8 1.03358 2.90916   1
   0  -2  -8 155.370 9.18634  22
   0  -2  -8 160.745 15.3307  20
   0   2   8 135.092 8.99480  16
   0   2   8 134.398 9.20912  17
   0   2   8 136.442 10.8570   1
  -1  -2  -8 2709.84 149.368  12
  -1  -2  -8 2742.04 153.368  20
   1   2   8 2483.05 149.621  17
   1   2   8 2660.47 150.704   1
  -2  -2  -8 233.628 15.1079  12
  -2  -2  -8 330.302 24.4252  20
   2   2   8 206.557 15.2573  17
   2   2   8 270.705 17.4771   1
   2   2   8 250.551 15.0161   5
   2   2   8 228.026 14.8998  11
  -3  -2  -8 40.7535 4.74253  12
   3   2   8 43.9747 4.43396  11
   3   2   8 36.7058 8.20271   1
   3   2   8 39.2540 4.63719  17
  -4  -2  -8 16.3812 3.36200  12
   4   2   8 16.8546 6.48905   1
   4   2   8 18.4628 3.75286  17
   6  -3  -8 30.8410 5.61475   3
   6  -3  -8 22.5081 4.01737  22
  -6   3   8 26.6263 3.21839  10
  -6   3   8 21.9889 3.06828  11
   5  -3  -8 82.4962 6.66055  22
   5  -3  -8 75.1663 7.96613   3
  -5   3   8 73.6931 6.26860   7
  -5   3   8 84.3327 6.26341  18
  -5   3   8 82.0526 6.69465  16
  -5   3   8 79.0756 6.01276  11
   4  -3  -8 57.6531 5.70684  22
   4  -3  -8 49.2180 7.56898   3
  -4   3   8 51.2756 5.39263  18
  -4   3   8 42.7545 5.25395   7
  -4   3   8 48.2408 4.45967  10
  -4   3   8 50.3946 4.82495  11
  -4   3   8 51.2771 5.98624  16
   3  -3  -8 68.9884 7.65066   3
   3  -3  -8 58.3625 5.94322  22
   3  -3  -8 72.3336 12.0060  20
  -3   3   8 59.4848 4.98476  11
  -3   3   8 60.3962 5.94484  16
  -3   3   8 66.5009 5.95578  10
  -3   3   8 61.4021 5.68084   7
   2  -3  -8 39.2850 4.60105  22
   2  -3  -8 57.0601 11.3735  20
   2  -3  -8 38.3415 7.18331   3
  -2   3   8 32.2934 9.29606   1
  -2   3   8 37.2663 3.74558  11
  -2   3   8 40.5615 4.58787  16
   1  -3  -8 11.4374 5.28670  20
   1  -3  -8 18.0629 3.76029  22
  -1   3   8 16.7555 6.46006   1
  -1   3   8 19.2135 2.87228  11
  -1   3   8 21.6967 4.05168  16
   0  -3  -8 803.768 47.3455  20
   0   3   8 635.291 42.8635   1
   0   3   8 668.551 41.3139  11
   0   3   8 804.000 41.6241  16
  -1  -3  -8 509.119 33.3660  20
  -1  -3  -8 436.635 26.7447  12
   1   3   8 488.271 27.0368  16
   1   3   8 410.989 28.3892   1
   1   3   8 472.765 26.6724  11
  -2  -3  -8 21.4665 3.97845  12
   2   3   8 14.3953 3.64122  17
   2   3   8 22.0836 7.48259   1
   2   3   8 15.3854 3.45724   5
   2   3   8 15.6345 2.35033  11
  -3  -3  -8 4.38231 2.05119  12
  -3  -3  -8 4.39907 2.25751   7
   3   3   8 3.75173 3.84216   1
   3   3   8 6.81189 2.24555  17
   3   3   8 7.22291 2.29742  11
   6  -4  -8 4.21176 2.29586  22
   6  -4  -8 2.38033 3.28900   3
  -6   4   8 2.26447 1.71100  10
  -6   4   8 3.98020 1.84625  11
  -6   4   8 2.22617 1.84980   7
   5  -4  -8 25.5824 6.12558   3
   5  -4  -8 26.6730 4.67947  22
  -5   4   8 29.6738 3.98096  11
  -5   4   8 28.8863 4.10165  18
  -5   4   8 27.5287 3.59139  10
  -5   4   8 24.0189 4.27993   7
  -5   4   8 25.8482 4.54480  16
   4  -4  -8 77.0298 7.88665   3
   4  -4  -8 73.3346 6.40263  22
  -4   4   8 70.3065 6.34774   7
  -4   4   8 72.9843 6.71276  16
  -4   4   8 77.0673 5.35370  10
  -4   4   8 76.6559 5.74534  11
  -4   4   8 78.1103 6.21955  18
   3  -4  -8 129.352 8.55285  22
  -3   4   8 121.782 8.04542  11
  -3   4   8 123.178 8.77816  16
  -3   4   8 118.583 7.70201  10
  -3   4   8 127.698 8.45009  18
   2  -4  -8 3.03347 4.46578  20
  -2   4   8 1.14289 1.77293  11
  -2   4   8 3.29281 2.49744  16
   1  -4  -8 53.4602 14.4694  20
  -1   4   8 66.9194 8.25894   1
  -1   4   8 66.0809 5.84932  16
  -1   4   8 71.5079 5.16486  11
   0  -4  -8 402.350 30.2492  20
   0   4   8 392.228 23.5805  16
   0   4   8 393.105 25.1313   1
   0   4   8 414.601 23.2555  11
   0   4   8 404.673 23.4663   5
  -1  -4  -8 39.0726 4.45809  12
  -1  -4  -8 86.4543 15.5640  20
   1   4   8 36.0061 4.12215  11
   1   4   8 35.6344 4.42021   5
   1   4   8 36.5151 7.71332   1
  -2  -4  -8 6.91435 2.11234  12
   2   4   8 5.08474 1.67709   5
   2   4   8 8.59457 2.20019  11
   2   4   8 10.4397 3.82852   1
   6  -5  -8 4.53136 2.08704  22
   6  -5  -8 4.55752 3.02430   3
  -6   5   8 2.98401 2.19555   7
  -6   5   8 3.22773 1.75058  11
   5  -5  -8 6.92795 3.58320   3
   5  -5  -8 10.9827 2.71746  22
  -5   5   8 10.4126 2.32154  11
  -5   5   8 6.69028 2.00086  10
  -5   5   8 9.15550 2.36641   7
  -5   5   8 10.6014 2.57736  18
   4  -5  -8 5.09846 2.52739  22
  -4   5   8 8.94383 2.81430  16
  -4   5   8 8.33560 2.69971  18
  -4   5   8 7.62161 2.23376  11
  -4   5   8 7.22842 1.93510  10
  -3   5   8 10.9405 2.90346  16
  -3   5   8 12.0358 1.93112  10
  -3   5   8 8.93444 2.20909  11
   2  -5  -8 35.8068 11.4182  20
  -2   5   8 36.3366 4.01106  11
  -2   5   8 30.1723 4.87754  16
  -2   5   8 31.8871 3.68296  10
   1  -5  -8 92.9561 15.4953  20
  -1   5   8 95.7803 7.18122   5
  -1   5   8 101.915 7.69588  16
  -1   5   8 103.543 6.85691  11
   0  -5  -8 10.4534 2.38937  12
   0  -5  -8 7.52388 5.03467  20
   0   5   8 9.84697 2.17954   5
   0   5   8 10.9031 2.09324  11
   0   5   8 9.59893 4.11262   1
  -1  -5  -8 35.0329 3.77869  12
   1   5   8 35.9601 7.08483   1
   1   5   8 33.4620 3.53626   5
   1   5   8 37.1039 3.79048  11
   2   5   8 25.8290 2.93582  11
  -5   6   8 32.7243 3.16948  10
  -5   6   8 33.5053 3.43469  11
  -4   6   8 67.1658 5.01138  11
  -4   6   8 60.4400 5.67652  16
  -4   6   8 66.9578 4.73200  10
  -3   6   8 97.0348 6.36006  10
  -3   6   8 98.4609 7.64300  16
  -3   6   8 99.1386 6.54117  11
  -2   6   8 56.4358 4.74701  10
  -2   6   8 57.8712 5.95724  16
  -2   6   8 64.5782 4.96286   5
  -2   6   8 58.6599 4.69585  11
   1  -6  -8 43.2050 4.20690  12
   1  -6  -8 39.9592 10.6685  20
  -1   6   8 41.1833 4.13282   5
  -1   6   8 45.9379 3.93972  11
   0  -6  -8 29.8655 2.98987  12
   0   6   8 28.5933 3.14701   5
   0   6   8 32.4667 3.21714  11
  -4   7   8 2.94364 1.75797  11
  -3   7   8 2.06993 1.54272  11
  -2   7   8 14.4874 2.37281  11
  -1   6  -9 13.5168 3.55104   9
  -2   6  -9 1.92983 3.64171   9
  -3   6  -9 10.6245 2.53017  24
  -3   6  -9 10.8142 1.84477  14
  -3   6  -9 13.8081 3.87552   9
  -4   6  -9 62.8978 5.02199  24
  -4   6  -9 63.3848 4.41476  14
   1   5  -9 4.27240 2.45594   5
   1   5  -9 1.40238 3.10482   9
   0   5  -9 31.4610 6.08618   9
  -1   5  -9 37.6022 6.14912   9
  -2   5  -9 14.0659 3.90285   9
  -2   5  -9 22.7826 3.59350  14
  -2   5  -9 22.9592 4.11727  24
  -3   5  -9 22.5054 4.29095  24
  -3   5  -9 26.5772 4.34285   9
  -3   5  -9 21.3545 3.59083  14
  -4   5  -9 151.446 10.2175   9
  -4   5  -9 149.563 11.2605   4
  -4   5  -9 151.105 9.57048  24
  -4   5  -9 153.761 9.15817  14
   4  -5   9 130.058 10.6312   2
  -5   5  -9 2.44920 3.80913   4
  -5   5  -9 4.45889 1.49767  14
   3   4  -9 5.70195 2.13987   5
   2   4  -9 52.2423 5.52748   5
   2   4  -9 34.6198 10.3098  21
   1   4  -9 34.7891 5.55541   5
   1   4  -9 24.0746 6.03497   9
  -1  -4   9 28.1985 3.77969  13
   0   4  -9 72.7345 7.35708   9
   0   4  -9 63.5849 8.38783   5
   0   4  -9 73.3822 16.4107  20
   0   4  -9 73.8049 5.76210  14
  -1   4  -9 22.8969 5.63403   9
  -1   4  -9 18.3477 3.96764  14
  -1   4  -9 22.6702 7.77778   3
   1  -4   9 16.1724 3.57797  23
  -2   4  -9 47.9770 8.83298   3
  -2   4  -9 46.6232 6.60388   9
  -2   4  -9 48.4803 4.94266  14
   2  -4   9 35.7418 6.71568  23
  -3   4  -9 66.1073 13.6782   4
  -3   4  -9 103.366 8.32431   9
  -3   4  -9 97.9484 6.70047  14
  -3   4  -9 89.2871 7.24615  24
  -4   4  -9 33.7009 6.08256   9
  -4   4  -9 28.0947 7.68552   4
  -4   4  -9 29.3469 4.44228  24
  -4   4  -9 23.6225 3.68817  14
   4  -4   9 25.9210 6.42779   2
  -5   4  -9 16.1889 2.71902  14
  -5   4  -9 13.5268 4.64994   4
  -5   4  -9 14.8474 3.28239   9
   5  -4   9 9.21863 4.10043   2
   3   3  -9 5.59548 2.71985   5
   3   3  -9 8.23558 5.02275  21
  -3  -3   9 4.94047 2.48833  16
   2   3  -9 32.1413 14.4520  20
   2   3  -9 45.9741 6.13208   5
   2   3  -9 34.9986 9.24150  21
  -2  -3   9 38.5492 4.87475  16
  -2  -3   9 37.9697 4.28709  13
   1   3  -9 57.6685 15.9343  20
   1   3  -9 50.1795 6.35474   9
   1   3  -9 65.4589 6.71802   5
  -1  -3   9 59.4584 6.16866  23
   0   3  -9 259.462 23.1537  20
   0   3  -9 226.488 16.7232   3
   0   3  -9 258.569 15.6164   9
   0   3  -9 235.550 15.5577   5
   0   3  -9 246.672 15.1651  14
   0  -3   9 290.992 16.3153  23
  -1   3  -9 89.7213 7.40639   9
  -1   3  -9 99.2390 9.61431   3
  -1   3  -9 74.7491 6.49895  14
  -2   3  -9 45.2959 5.33256  22
  -2   3  -9 50.6820 6.35228   9
  -2   3  -9 44.6448 4.85337  14
  -2   3  -9 50.0790 9.00187   3
   2  -3   9 37.9685 7.37855  23
  -3   3  -9 135.273 9.08804  14
  -3   3  -9 146.131 9.57615  22
  -3   3  -9 143.658 10.0851   9
   3  -3   9 127.951 11.5252  23
  -4   3  -9 54.1649 6.45622   9
  -4   3  -9 35.8703 4.71034  24
  -4   3  -9 39.9751 4.22123  14
  -4   3  -9 51.2716 8.20945   4
   4  -3   9 55.7107 7.50955   2
  -5   3  -9 8.73244 4.65642   4
  -5   3  -9 4.60736 1.70667  14
  -5   3  -9 5.40374 1.86355  12
  -5   3  -9 5.83147 3.13579   9
   5  -3   9 9.96504 4.34435   2
   4   2  -9 3.07071 4.72343  21
  -4  -2   9 8.11428 2.51267  16
   3   2  -9 54.0896 10.3632  21
   3   2  -9 50.4132 14.4364  20
   3   2  -9 66.5806 6.48654   5
  -3  -2   9 58.7565 5.87475  16
  -3  -2   9 56.6973 4.77721  13
   2   2  -9 18.0915 5.79096  21
   2   2  -9 13.6824 6.38916  20
   2   2  -9 28.2209 5.70850   5
  -2  -2   9 29.9489 5.04130  23
  -2  -2   9 24.8962 3.76628  13
  -2  -2   9 27.3372 4.63404  16
   1   2  -9 488.859 34.4322  20
   1   2  -9 484.104 28.2905   5
   1   2  -9 421.223 28.7032   3
  -1  -2   9 538.357 28.8099  23
   0   2  -9 36.4251 7.03465  22
   0   2  -9 33.1206 4.49982   9
   0   2  -9 34.5035 12.6183  20
   0   2  -9 33.3773 6.88598   3
   0  -2   9 32.4146 6.18302  23
   0  -2   9 50.8651 6.44486  19
   0  -2   9 37.7929 6.83351   1
  -1   2  -9 60.7145 5.40041  22
  -1   2  -9 54.0765 5.20878  14
  -1   2  -9 66.6704 5.64822   9
   1  -2   9 49.5237 7.49947  23
  -2   2  -9 24.2590 3.78489  14
  -2   2  -9 13.6920 5.00195   3
  -2   2  -9 23.4391 4.60235  22
  -2   2  -9 23.0881 4.84774   9
   2  -2   9 16.4628 4.72459  23
   2  -2   9 20.6176 4.06033  17
  -3   2  -9 42.4143 4.26100  14
  -3   2  -9 38.2566 6.16079   9
  -3   2  -9 49.6860 5.68545  22
   3  -2   9 47.5909 5.45634  17
  -4   2  -9 79.7627 6.04976  14
  -4   2  -9 83.5424 6.58759  12
  -4   2  -9 101.430 7.93325   9
   4  -2   9 89.2776 8.95098   2
   4  -2   9 94.4043 7.28836  17
  -5   2  -9 22.1341 6.62410   4
  -5   2  -9 19.1164 3.62088  12
  -5   2  -9 22.5901 4.70126   9
   5  -2   9 25.7427 6.11050   2
  -5  -1   9 12.9159 2.42271  16
   4   1  -9 24.9371 8.96332  21
  -4  -1   9 36.2721 4.85922  16
   3   1  -9 33.4716 5.46008   5
   3   1  -9 31.5029 14.0655  20
   3   1  -9 24.9886 6.31077   3
  -3  -1   9 29.0545 5.11482  16
  -3  -1   9 42.0070 5.13780  13
   2   1  -9 909.021 49.7283   5
   2   1  -9 856.435 55.0367  20
   2   1  -9 790.052 50.0263   3
  -2  -1   9 892.284 49.3575  16
  -2  -1   9 880.382 49.2439  13
   1   1  -9 439.504 23.6462   3
   1   1  -9 347.716 22.4018  22
   1   1  -9 374.072 28.1357  20
  -1  -1   9 373.532 23.3164  23
   0   1  -9 24.0641 4.40842   9
   0   1  -9 21.3831 10.4066  20
   0   1  -9 29.8185 6.71811   3
   0   1  -9 21.8450 4.14602  22
   0  -1   9 17.9370 3.92054  23
   0  -1   9 25.9029 6.02630   1
  -1   1  -9 2.90202 3.85452  20
  -1   1  -9 3.64913 2.50354  22
  -1   1  -9 4.77543 1.99169  14
  -1   1  -9 3.84951 4.08102   3
  -1   1  -9 5.02103 2.62191   9
   1  -1   9 4.25493 3.55707   1
  -2   1  -9 25.3813 7.55242   3
  -2   1  -9 22.9214 4.89327   9
  -2   1  -9 16.6075 3.19612  14
  -2   1  -9 12.0101 2.83173  22
   2  -1   9 20.6035 4.35764  17
  -3   1  -9 560.893 33.9580  12
  -3   1  -9 608.055 34.1256  22
   3  -1   9 605.146 34.5236  17
  -4   1  -9 83.9398 7.06802  12
   4  -1   9 84.3487 7.39953  17
   4  -1   9 107.781 8.89338   2
  -5   1  -9 -0.2348 3.00350   9
  -5   1  -9 1.27846 2.05745  12
   5  -1   9 -0.7698 3.64857   2
   5  -1   9 0.55114 2.14988  17
   5   0  -9 22.2161 7.84380  21
  -5   0   9 19.3255 4.51183  16
   4   0  -9 21.4307 13.4539  20
   4   0  -9 17.4830 5.73453   3
  -4   0   9 20.4881 4.58056  16
   3   0  -9 419.853 30.4825  20
   3   0  -9 405.275 23.6349  22
   3   0  -9 380.352 24.6393   3
  -3   0   9 417.422 23.8508  16
   2   0  -9 903.204 49.8302   3
   2   0  -9 841.790 53.8384  20
   2   0  -9 828.687 48.8689  22
  -2   0   9 852.783 48.8787  16
  -2   0   9 861.982 50.2307   1
   1   0  -9 68.9069 7.66349   3
   1   0  -9 73.8960 5.79488  22
   1   0  -9 67.0206 12.6235  20
  -1   0   9 66.4754 5.23402  16
  -1   0   9 56.5611 7.14507   1
   0   0  -9 3.42479 2.48492  22
   0   0  -9 2.57651 3.93832  20
   0   0  -9 10.2868 3.95119   3
   0   0   9 8.18972 3.46509   1
  -1   0  -9 3.31316 1.88836  14
  -1   0  -9 3.14189 3.66212  20
  -1   0  -9 3.44137 3.89077   3
  -1   0  -9 8.36024 2.54680  22
   1   0   9 6.75410 2.26360  17
   1   0   9 1.22626 3.55387   1
  -2   0  -9 431.773 23.2616  22
  -2   0  -9 383.918 23.1155  12
   2   0   9 411.639 23.6386  17
   2   0   9 363.932 24.8798   1
  -3   0  -9 216.681 13.0058  12
  -3   0  -9 207.266 13.0924  22
   3   0   9 202.661 14.4025   2
   3   0   9 218.505 13.5925  17
  -4   0  -9 10.4963 2.84675  12
   4   0   9 7.36940 2.52588  17
   4   0   9 8.13475 4.03595   2
  -5   0  -9 13.8990 2.14253  12
   5   0   9 11.8701 3.44851  17
   5   0   9 6.84007 2.87793   2
   5  -1  -9 17.4499 5.22407   3
  -5   1   9 22.0011 3.19214  18
  -5   1   9 14.4400 2.95408  16
   4  -1  -9 5.06693 3.92073   3
   4  -1  -9 8.59994 2.78721  22
  -4   1   9 7.13850 2.92260  16
   3  -1  -9 114.225 9.44703   3
   3  -1  -9 106.086 7.93342  22
   3  -1  -9 112.647 15.9806  20
  -3   1   9 107.409 9.99368   1
  -3   1   9 110.617 8.21650  16
   2  -1  -9 17.3669 4.36201   3
   2  -1  -9 19.7485 4.10096  22
   2  -1  -9 26.5787 11.6672  20
  -2   1   9 23.7901 3.97841  16
  -2   1   9 7.52795 3.55693   1
   1  -1  -9 213.242 14.2987  22
   1  -1  -9 272.757 15.6494   3
   1  -1  -9 236.204 19.5736  20
  -1   1   9 234.635 14.1702  16
  -1   1   9 232.982 15.7285   1
   0  -1  -9 55.3669 6.41188   3
   0  -1  -9 50.0810 11.0792  20
   0  -1  -9 56.5419 5.11810  22
   0   1   9 57.3849 7.01393   1
   0   1   9 48.2721 4.78049  17
  -1  -1  -9 190.165 11.9393  12
  -1  -1  -9 210.569 12.0584  22
  -1  -1  -9 195.485 18.1406  20
   1   1   9 183.385 13.9721   1
   1   1   9 198.176 12.3416  17
  -2  -1  -9 1104.54 63.3907  12
  -2  -1  -9 1149.87 63.3801  22
   2   1   9 1114.21 63.8517  17
   2   1   9 1096.96 64.9906   1
  -3  -1  -9 18.1677 3.02648  12
   3   1   9 7.02952 4.58684   1
   3   1   9 16.3710 4.24205  17
  -4  -1  -9 19.4315 3.71626  12
   4   1   9 15.1686 3.78229  17
   5  -2  -9 10.6386 3.85909   3
   5  -2  -9 5.95090 2.94062  22
  -5   2   9 8.02784 2.61040  18
  -5   2   9 9.47221 2.87285  16
   4  -2  -9 89.3715 7.36708  22
   4  -2  -9 103.565 9.26554   3
  -4   2   9 96.4100 7.74816  16
   3  -2  -9 42.0005 5.02547  22
   3  -2  -9 36.7819 6.75769   3
   3  -2  -9 43.1821 12.4047  20
  -3   2   9 26.2420 7.36508   1
  -3   2   9 32.9194 5.06269  16
   2  -2  -9 42.5683 5.12895  22
   2  -2  -9 49.7680 11.4945  20
   2  -2  -9 54.1010 7.06642   3
  -2   2   9 42.1979 5.16005  16
  -2   2   9 48.5652 7.04887   1
   1  -2  -9 83.7265 7.86551   3
   1  -2  -9 82.3861 6.55204  22
   1  -2  -9 82.3168 12.7119  20
  -1   2   9 77.8894 8.58511   1
  -1   2   9 88.2062 6.33730  16
   0  -2  -9 60.9964 5.14426  22
   0  -2  -9 71.9460 13.5350  20
   0   2   9 49.2383 4.79100  17
   0   2   9 54.6033 7.33710   1
   0   2   9 50.0468 4.91356  16
  -1  -2  -9 119.128 8.42425  12
  -1  -2  -9 173.577 18.3231  20
  -1  -2  -9 126.760 9.00017  22
   1   2   9 123.491 8.75530  17
   1   2   9 100.667 10.7055   1
  -2  -2  -9 45.5443 16.2771  20
  -2  -2  -9 13.3707 2.81234  12
   2   2   9 14.4690 3.37336   5
   2   2   9 14.9965 4.50331   1
   2   2   9 7.71700 2.47569  17
  -3  -2  -9 37.1496 4.43365  12
   3   2   9 19.8980 7.26408   1
   3   2   9 36.7706 4.40275  17
  -4  -2  -9 8.01311 1.80908  12
   4   2   9 9.90119 2.28829  17
   6  -3  -9 39.7383 4.29165  22
   6  -3  -9 44.4853 5.30171   3
   5  -3  -9 4.98724 2.75657  22
   5  -3  -9 7.30890 3.80085   3
  -5   3   9 0.96460 1.85959  10
  -5   3   9 5.43212 2.73887  16
  -5   3   9 6.56833 2.56034  18
   4  -3  -9 34.3594 6.85574   3
   4  -3  -9 24.4110 4.96802  22
  -4   3   9 21.8003 5.19790  16
  -4   3   9 23.9767 4.42497  18
   3  -3  -9 39.6912 7.02661   3
   3  -3  -9 49.7830 12.4502  20
   3  -3  -9 33.4083 5.02282  22
  -3   3   9 38.4540 5.36095  16
   2  -3  -9 111.627 10.3713   3
   2  -3  -9 122.150 8.11576  22
   2  -3  -9 126.990 15.2729  20
  -2   3   9 93.6784 9.84241   1
  -2   3   9 117.444 7.91814  16
   1  -3  -9 174.116 18.0696  20
   1  -3  -9 162.536 10.3598  22
  -1   3   9 150.431 12.4958   1
  -1   3   9 166.433 10.5007  16
   0  -3  -9 138.658 16.9753  20
   0   3   9 121.529 8.12579  11
   0   3   9 123.018 8.74655  16
   0   3   9 122.638 10.9790   1
  -1  -3  -9 46.9337 4.74834  12
   1   3   9 46.3636 5.91787  16
   1   3   9 38.9569 4.47574   5
   1   3   9 41.3238 4.06109  11
   1   3   9 37.2341 7.74593   1
  -2  -3  -9 203.058 21.9902  20
  -2  -3  -9 137.272 9.10448  12
   2   3   9 124.220 8.74545  11
   2   3   9 131.350 8.83890   5
   2   3   9 129.304 11.5260   1
  -3  -3  -9 15.2124 2.90457  12
   3   3   9 11.4285 4.18686   1
   3   3   9 12.5628 3.34920  17
   6  -4  -9 0.76675 2.20781  22
   6  -4  -9 1.41685 3.50330   3
   5  -4  -9 -0.3429 2.55325  22
   5  -4  -9 -1.5886 3.59148   3
  -5   4   9 0.65001 2.33571  18
  -5   4   9 0.72991 1.88895  11
  -5   4   9 0.49539 2.22857   7
  -5   4   9 0.27297 2.07249  16
  -5   4   9 0.40696 1.72019  10
   4  -4  -9 19.8226 6.06416   3
   4  -4  -9 16.7008 4.42860  22
  -4   4   9 11.5319 2.22896  11
  -4   4   9 20.6964 3.86149  18
  -4   4   9 16.3956 2.83215  10
  -4   4   9 14.6002 3.05398  16
   3  -4  -9 20.2950 4.49403  22
  -3   4   9 21.7183 4.62773  16
  -3   4   9 19.2717 3.81281  18
  -3   4   9 17.6085 3.35624  11
   2  -4  -9 16.7999 3.18676  22
   2  -4  -9 29.6030 11.7244  20
  -2   4   9 14.8766 3.22927  11
  -2   4   9 14.1334 2.91058  16
   1  -4  -9 6.74959 5.30676  20
  -1   4   9 4.64279 3.73174   1
  -1   4   9 7.41038 1.96829  11
  -1   4   9 9.07186 2.62887  16
   0  -4  -9 9.93546 2.60630  12
   0  -4  -9 41.1144 14.2386  20
   0   4   9 9.21815 2.05800  11
   0   4   9 10.4711 4.05477   1
   0   4   9 11.8745 2.97626  16
   0   4   9 8.46144 2.26027   5
  -1  -4  -9 34.1019 4.08034  12
   1   4   9 22.7769 6.98532   1
   1   4   9 27.3370 3.34726  11
   1   4   9 27.2348 3.63152   5
  -2  -4  -9 10.4014 2.06227  12
   2   4   9 14.2441 5.83685   1
   2   4   9 13.8792 2.46917   5
   2   4   9 15.0691 2.99528  11
   5  -5  -9 3.53873 2.41561  22
   5  -5  -9 7.65910 3.20031   3
  -5   5   9 5.35536 1.68765  10
  -5   5   9 5.29909 2.46154  16
  -5   5   9 4.32920 1.93045  11
   4  -5  -9 15.9383 4.14763  22
  -4   5   9 19.2134 3.28532  11
  -4   5   9 14.9979 2.08475  10
  -4   5   9 19.7849 3.38765  18
  -4   5   9 14.8581 2.89869  16
  -3   5   9 24.7477 4.67570  16
  -3   5   9 30.7032 3.56655  11
   2  -5  -9 23.5138 10.4371  20
  -2   5   9 3.01660 1.90705  11
  -2   5   9 1.30018 2.50278  16
   1  -5  -9 19.8574 10.9383  20
  -1   5   9 3.91333 2.76632  16
  -1   5   9 4.47624 1.92818  11
  -1   5   9 6.95321 2.18306   5
   0  -5  -9 27.4979 11.6279  20
   0  -5  -9 9.97880 2.21608  12
   0   5   9 10.1494 2.00062  11
   0   5   9 8.17814 3.92488   1
   0   5   9 8.78432 2.02563   5
  -1  -5  -9 30.1872 3.07326  12
   1   5   9 27.0888 3.19527  11
   1   5   9 27.2145 2.96548   5
   1   5   9 27.9764 5.63004   1
  -4   6   9 69.8300 4.94540  11
  -4   6   9 70.9649 5.59647  16
  -4   6   9 75.4693 5.41115  10
  -3   6   9 17.9636 2.96774  11
  -3   6   9 18.0869 3.10176  16
  -2   6   9 6.74820 1.77958   5
  -2   6   9 4.39145 2.78482  16
  -2   6   9 9.02589 1.86460  11
   1  -6  -9 7.09000 1.78938  12
  -1   6   9 8.62846 1.77228   5
  -1   6   9 9.95129 1.78322  11
   0   6   9 2.75857 1.49651  11
  -2   6 -10 6.17747 3.54443   9
  -3   6 -10 0.61306 1.32195  14
   0   5 -10 6.73855 3.32148   9
  -1   5 -10 84.3390 5.87822  14
  -1   5 -10 83.6103 7.49135   9
  -2   5 -10 -1.2599 3.53309   9
  -2   5 -10 3.31542 1.92109  14
  -2   5 -10 1.23141 2.33106  24
  -3   5 -10 17.3797 3.31875  14
  -3   5 -10 19.8345 4.10042  24
  -3   5 -10 20.3482 3.72282   9
  -4   5 -10 15.8010 3.27556   9
  -4   5 -10 17.2875 2.82910  14
  -4   5 -10 16.1488 3.63090  24
   4  -5  10 13.1043 3.85048   2
  -5   5 -10 3.53477 1.68473  14
   1   4 -10 17.8175 3.67721   9
   0   4 -10 189.163 12.6799   9
   0   4 -10 194.463 11.7739  14
  -1   4 -10 294.418 18.2508   3
  -1   4 -10 259.821 16.1015  14
  -1   4 -10 237.070 16.2052  24
  -1   4 -10 294.197 16.8489   9
  -2   4 -10 51.3236 5.78805  24
  -2   4 -10 58.2330 5.35795  14
  -2   4 -10 70.1934 7.03624   9
  -2   4 -10 76.7136 9.64835   3
  -3   4 -10 26.2881 3.70800  14
  -3   4 -10 24.5198 4.56238  24
  -3   4 -10 22.5671 5.59296   9
  -4   4 -10 25.9675 4.33420  24
  -4   4 -10 26.1625 6.99833   4
  -4   4 -10 27.5587 5.26250   9
  -4   4 -10 24.1975 3.39495  14
   4  -4  10 32.5436 6.47530   2
  -5   4 -10 18.2976 5.25394   4
  -5   4 -10 24.2104 2.51494  14
   5  -4  10 16.4168 5.01868   2
   3   3 -10 10.3486 6.36341  21
  -3  -3  10 7.59005 2.21762  16
   2   3 -10 11.3605 3.15422   5
   2   3 -10 8.58097 5.64345  20
   1   3 -10 180.147 20.5925  20
   1   3 -10 167.376 10.8396  14
   0   3 -10 204.120 12.6289  14
   0   3 -10 211.027 21.3628  20
   0   3 -10 197.341 14.6379   3
   0   3 -10 201.048 13.0766   9
   0  -3  10 191.488 14.5949   1
   0  -3  10 221.771 13.8000  23
  -1   3 -10 34.8041 5.83982   9
  -1   3 -10 27.5201 8.35033   3
  -1   3 -10 41.3410 4.82423  14
   1  -3  10 40.1977 6.77426  23
  -2   3 -10 19.0467 3.81844   9
  -2   3 -10 20.2439 4.18420  14
  -2   3 -10 20.7975 4.71926  22
  -2   3 -10 19.8905 5.88241   3
   2  -3  10 16.2234 4.65197  23
   2  -3  10 19.3177 4.59044  17
  -3   3 -10 45.4792 6.35031   9
  -3   3 -10 45.9459 4.57203  14
  -3   3 -10 49.5577 5.60897  22
  -3   3 -10 42.7093 7.77861   4
  -4   3 -10 0.44768 3.28725   9
  -4   3 -10 0.83369 4.60207   4
  -4   3 -10 2.92158 1.90584  14
  -4   3 -10 2.90483 2.44177  24
   4  -3  10 0.06878 4.09219   2
  -5   3 -10 9.15769 4.09928   4
  -5   3 -10 11.5376 2.97727   9
   5  -3  10 7.97370 3.88929   2
  -4  -2  10 12.0450 2.25543  16
  -4  -2  10 7.48562 3.50411   1
   3   2 -10 6.92159 4.89209  21
   3   2 -10 5.84594 5.04953  20
  -3  -2  10 10.9212 2.68537  16
   2   2 -10 54.8105 11.6742  21
   2   2 -10 42.3413 7.34342   3
   2   2 -10 55.1992 14.9811  20
  -2  -2  10 58.1087 4.77637  13
  -2  -2  10 56.1169 5.51900  16
   1   2 -10 254.764 16.5543   3
   1   2 -10 242.390 22.6668  20
  -1  -2  10 242.658 15.9223  23
   0   2 -10 61.8470 6.25376   9
   0   2 -10 59.8073 14.0256  20
   0   2 -10 67.0009 8.72662   3
   0   2 -10 58.7649 5.82025  22
   0  -2  10 76.2812 8.54052   1
   0  -2  10 71.8664 7.57799  23
  -1   2 -10 7.24835 2.83761  22
  -1   2 -10 8.72113 3.19575   9
  -1   2 -10 6.62173 2.42394  14
  -1   2 -10 7.24137 4.83283   3
   1  -2  10 5.73773 4.00415  23
   1  -2  10 4.96415 4.04846   1
  -2   2 -10 44.4045 4.71610  14
  -2   2 -10 45.6550 8.92873   3
  -2   2 -10 46.7471 5.62805  22
  -2   2 -10 44.9326 5.94083   9
   2  -2  10 44.8073 5.41412  17
  -3   2 -10 147.237 9.81270  22
  -3   2 -10 128.056 8.89379  14
  -3   2 -10 149.843 10.1086   9
   3  -2  10 141.546 9.89410  17
  -4   2 -10 176.991 10.8564  12
  -4   2 -10 184.490 11.5632   9
   4  -2  10 158.105 12.5780   2
   4  -2  10 187.122 11.4764  17
  -5   2 -10 4.92760 3.91632   4
  -5   2 -10 3.16701 2.66793   9
  -5   2 -10 6.84441 1.66289  12
   5  -2  10 6.27526 3.51476   2
   4   1 -10 3.51702 4.63259  21
  -4  -1  10 1.97594 2.41861  16
  -4  -1  10 1.66129 3.70144   1
   3   1 -10 34.7549 9.43775  21
   3   1 -10 32.3000 6.34434   3
   3   1 -10 37.4045 13.7283  20
  -3  -1  10 40.5862 5.19784  16
   2   1 -10 153.778 11.6234   3
   2   1 -10 151.864 18.2999  20
  -2  -1  10 162.160 10.2808  16
   1   1 -10 19.1997 4.50452  22
   1   1 -10 10.8837 5.42135  20
   1   1 -10 21.7453 6.43600   3
  -1  -1  10 21.3895 6.46159   1
   0   1 -10 45.5919 13.1040  20
   0   1 -10 54.2701 5.39212  22
   0   1 -10 61.8224 7.95542   3
   0  -1  10 55.9426 7.41456   1
  -1   1 -10 56.2613 7.97411   3
  -1   1 -10 71.5385 5.82682  22
  -1   1 -10 64.8369 5.41375  14
  -1   1 -10 72.6593 6.17845   9
  -1   1 -10 61.0305 12.4761  20
   1  -1  10 65.7868 5.85653  17
   1  -1  10 62.4300 8.27018   1
  -2   1 -10 45.3475 5.41432  22
  -2   1 -10 36.4152 5.59589   9
  -2   1 -10 34.2226 8.53304   3
  -2   1 -10 47.1885 4.33597  14
   2  -1  10 43.5283 5.40011  17
  -3   1 -10 76.9512 6.48347  22
  -3   1 -10 62.8055 5.71494  12
  -3   1 -10 75.4810 6.94254   9
   3  -1  10 64.6872 7.91932   2
   3  -1  10 69.4841 6.61078  17
  -4   1 -10 4.37462 2.33896  12
  -4   1 -10 6.25862 3.55267   9
   4  -1  10 5.62830 2.59639  17
   4  -1  10 2.27938 3.92165   2
  -5   1 -10 3.04493 1.55588  12
  -5   1 -10 2.54615 3.44727   4
   5  -1  10 3.52578 1.95330  17
   5  -1  10 3.54188 3.13885   2
  -5   0  10 8.12114 2.26450  16
   4   0 -10 28.3488 12.2123  20
   4   0 -10 19.0510 5.55921   3
  -4   0  10 29.3849 4.66835  16
  -4   0  10 20.0892 6.52745   1
   3   0 -10 79.9594 15.2041  20
   3   0 -10 78.4027 6.63263  22
   3   0 -10 82.1505 8.38782   3
  -3   0  10 89.3023 7.06472  16
  -3   0  10 90.6461 9.46957   1
   2   0 -10 0.82219 4.77416  20
   2   0 -10 0.43918 4.07129   3
   2   0 -10 3.38780 2.69807  22
  -2   0  10 0.82835 3.68041   1
  -2   0  10 -0.9047 2.41344  16
   1   0 -10 49.2824 5.19931  22
   1   0 -10 51.0822 7.31954   3
   1   0 -10 43.2372 12.4755  20
  -1   0  10 41.2838 4.96395  16
  -1   0  10 44.7892 6.90129   1
   0   0 -10 50.4654 5.22884  22
   0   0 -10 45.3536 7.17296   3
   0   0 -10 39.2902 12.3667  20
   0   0  10 34.6713 6.93298   1
  -1   0 -10 56.9601 5.46339   9
  -1   0 -10 52.9135 7.95170   3
  -1   0 -10 49.4561 5.22959  22
  -1   0 -10 45.9947 5.17696  14
  -1   0 -10 45.0021 11.9523  20
   1   0  10 51.9818 5.26004  17
   1   0  10 52.9277 8.09831   1
  -2   0 -10 3.94474 2.63818  22
  -2   0 -10 3.65719 2.23853  12
   2   0  10 3.98779 2.64372  17
   2   0  10 1.47400 4.45650   1
  -3   0 -10 42.4990 4.48189  12
  -3   0 -10 29.5110 4.79113  22
   3   0  10 39.4718 6.55324   2
   3   0  10 35.8294 5.11707  17
  -4   0 -10 30.3647 4.30978  12
   4   0  10 25.7496 5.64278   2
   4   0  10 36.1508 4.32273  17
   5  -1 -10 17.4011 4.94285   3
  -5   1  10 19.4477 4.09205  16
   4  -1 -10 34.5553 4.62333  22
   4  -1 -10 27.9614 6.60557   3
  -4   1  10 26.6628 7.98618   1
  -4   1  10 35.9890 5.32641  16
   3  -1 -10 2.16121 4.16906   3
   3  -1 -10 0.89680 2.70690  22
   3  -1 -10 2.64953 4.96227  20
  -3   1  10 1.60104 3.60320   1
  -3   1  10 2.20132 2.72533  16
   2  -1 -10 47.6349 12.6803  20
   2  -1 -10 49.6730 5.41616  22
   2  -1 -10 50.5854 7.41216   3
  -2   1  10 47.6879 5.24354  16
  -2   1  10 45.9730 7.26539   1
   1  -1 -10 6.97190 4.85289  20
   1  -1 -10 22.5309 6.40084   3
   1  -1 -10 18.5163 3.26143  22
  -1   1  10 27.0013 6.48519   1
  -1   1  10 16.6652 3.82739  16
   0  -1 -10 64.1678 7.33137   3
   0  -1 -10 48.2821 12.3260  20
   0  -1 -10 58.7859 5.32995  22
   0   1  10 55.2708 7.90017   1
   0   1  10 53.0406 5.11799  17
  -1  -1 -10 44.3017 4.64235  12
  -1  -1 -10 51.3267 4.79471  22
  -1  -1 -10 28.7045 12.5075  20
   1   1  10 42.5396 8.05145   1
   1   1  10 49.2152 5.11199  17
  -2  -1 -10 61.2503 5.61900  22
  -2  -1 -10 65.5043 5.50978  12
   2   1  10 65.3486 6.13345  17
   2   1  10 61.9926 8.84023   1
  -3  -1 -10 28.6401 4.41089  12
   3   1  10 31.2282 7.55774   1
   3   1  10 24.9342 4.18090  17
  -4  -1 -10 35.1659 3.76125  12
   4   1  10 35.5239 4.21321  17
   5  -2 -10 25.4196 5.71680   3
   5  -2 -10 10.1374 2.60055  22
  -5   2  10 17.2778 3.02864  18
  -5   2  10 18.7790 4.29902  16
   4  -2 -10 111.535 7.65819  22
   4  -2 -10 93.3832 9.21876   3
  -4   2  10 104.363 7.91850  16
   3  -2 -10 19.7507 6.68172   3
   3  -2 -10 23.0129 12.4449  20
   3  -2 -10 10.5843 3.07894  22
  -3   2  10 18.7384 6.89288   1
  -3   2  10 21.5370 4.89404  16
   2  -2 -10 37.2458 6.94842   3
   2  -2 -10 40.7992 12.2306  20
   2  -2 -10 39.2714 5.12686  22
  -2   2  10 30.9306 7.31213   1
  -2   2  10 37.1501 4.82141  16
   1  -2 -10 137.212 9.41206  22
   1  -2 -10 150.170 10.5742   3
   1  -2 -10 135.493 16.7446  20
  -1   2  10 150.828 11.4091   1
  -1   2  10 115.885 9.14219  17
  -1   2  10 155.383 9.27028  16
   0  -2 -10 60.8842 5.31022  12
   0  -2 -10 67.5826 5.57271  22
   0  -2 -10 53.7663 13.5707  20
   0   2  10 61.9176 5.80017  16
   0   2  10 73.7786 8.24538   1
   0   2  10 56.4158 5.25766  17
  -1  -2 -10 48.9695 5.07929  12
  -1  -2 -10 57.1046 5.05189  22
  -1  -2 -10 44.7255 16.5123  20
   1   2  10 56.0740 8.30253   1
   1   2  10 53.4396 5.21065  17
  -2  -2 -10 16.3785 2.73903  12
  -2  -2 -10 5.01488 7.80811  20
   2   2  10 18.3273 6.79456   1
   2   2  10 19.1390 3.93447  17
   2   2  10 17.5935 3.66605   5
  -3  -2 -10 1.24739 2.06444  12
   3   2  10 0.46108 1.84036  17
   3   2  10 2.08565 3.95286   1
   5  -3 -10 4.69375 3.60974   3
   5  -3 -10 0.72650 2.26205  22
  -5   3  10 5.56534 2.30605  18
  -5   3  10 2.30863 2.43592  16
   4  -3 -10 27.0086 6.55383   3
   4  -3 -10 28.7525 4.77009  22
  -4   3  10 29.5341 4.23690  18
  -4   3  10 34.0429 4.96009  16
   3  -3 -10 8.84600 2.97868  22
   3  -3 -10 22.5412 11.8354  20
   3  -3 -10 11.8849 4.18298   3
  -3   3  10 14.0773 2.90257  16
   2  -3 -10 29.0070 12.3433  20
   2  -3 -10 19.2938 5.30613   3
   2  -3 -10 32.3741 4.60717  22
  -2   3  10 28.2559 4.50727  16
  -2   3  10 20.1051 6.67864   1
   1  -3 -10 44.3042 12.7509  20
   1  -3 -10 41.7646 4.79604  22
  -1   3  10 46.6464 4.95654  16
  -1   3  10 46.0248 7.69893   1
   0  -3 -10 15.9313 2.71384  12
   0  -3 -10 27.2853 13.3246  20
   0   3  10 23.8382 4.55446  16
   0   3  10 9.17231 3.93894   1
  -1  -3 -10 2.02344 2.19014  12
  -1  -3 -10 4.09870 6.44551  20
   1   3  10 0.79702 3.60746   1
   1   3  10 1.87128 1.85652   5
  -2  -3 -10 73.7681 14.8194  20
  -2  -3 -10 109.606 6.93553  12
   2   3  10 103.806 9.25992   1
   2   3  10 101.561 6.51838   5
   2   3  10 98.7309 6.83464  17
  -3  -3 -10 31.8528 3.15380  12
   3   3  10 38.0244 5.50808   1
   5  -4 -10 35.8735 4.36929  22
   5  -4 -10 37.1122 5.72215   3
  -5   4  10 33.3409 4.16214  16
   4  -4 -10 5.35901 3.67088   3
   4  -4 -10 6.08760 2.82437  22
  -4   4  10 9.16848 2.56760  18
  -4   4  10 5.30507 2.63993  16
   3  -4 -10 0.35756 2.52124  22
   3  -4 -10 4.27865 6.39785  20
  -3   4  10 -0.7152 1.71874  11
  -3   4  10 2.36014 2.38153  18
  -3   4  10 1.58468 2.47912  16
   2  -4 -10 9.20447 5.00814  20
   2  -4 -10 7.95288 2.55813  22
  -2   4  10 6.30916 2.48507  16
  -2   4  10 5.38297 1.86927  11
   1  -4 -10 37.0932 12.4090  20
  -1   4  10 27.9153 3.38659  11
  -1   4  10 24.2798 4.53781  16
  -1   4  10 24.7151 6.76156   1
   0  -4 -10 51.5175 4.98985  12
   0  -4 -10 61.9147 14.4201  20
   0   4  10 50.0943 7.56471   1
   0   4  10 45.6654 5.40845  16
   0   4  10 48.5056 4.67040   5
   0   4  10 46.4264 4.08199  11
  -1  -4 -10 36.0349 4.08803  12
  -1  -4 -10 35.1260 14.8555  20
   1   4  10 33.2689 3.64113   5
   1   4  10 31.4830 6.52841   1
   1   4  10 33.5834 3.46313  11
  -2  -4 -10 1.48961 1.46404  12
   2   4  10 7.52102 3.36672   1
   4  -5 -10 27.0504 4.06447  22
  -4   5  10 24.5187 2.98395  11
  -4   5  10 25.0752 4.15049  16
  -3   5  10 5.35018 1.80276  11
  -3   5  10 6.24327 2.37899  16
   2  -5 -10 14.3031 8.81346  20
  -2   5  10 1.65586 2.41753  16
  -2   5  10 1.70496 1.86397   5
  -2   5  10 0.20155 1.69003  11
   1  -5 -10 70.2791 5.58288  12
   1  -5 -10 75.4325 11.6867  20
  -1   5  10 67.8342 5.93967  16
  -1   5  10 74.9201 5.49273   5
  -1   5  10 67.8087 5.00448  11
   0  -5 -10 4.73554 6.10342  20
   0  -5 -10 8.15311 1.89775  12
   0   5  10 6.95155 3.01294   1
   0   5  10 4.76534 1.68479   5
   0   5  10 8.03642 1.66680  11
  -3   6  10 11.3240 2.33196  11
  -3   6  10 13.2924 2.54488  16
   2  -6 -10 1.27743 1.49124  12
  -2   6  10 2.12923 1.44799  11
  -2   6  10 0.01377 2.21559  16
   1  -6 -10 9.04710 1.69627  12
  -1   5 -11 3.39010 1.65072  14
  -1   5 -11 7.75520 3.18098   9
  -2   5 -11 0.88115 2.22740  24
  -2   5 -11 -0.5422 3.03006   9
  -2   5 -11 0.53163 1.64573  14
  -3   5 -11 4.70320 1.68077  14
  -3   5 -11 3.74824 2.78086   9
  -3   5 -11 5.14222 2.43366  24
  -4   5 -11 5.94688 1.31535  14
  -2  -4  11 8.31849 3.45016   1
  -1  -4  11 4.75266 3.72627   1
   0   4 -11 32.3579 5.61870   9
   0   4 -11 26.3861 3.61647  14
  -1   4 -11 10.4336 2.67564  24
  -1   4 -11 14.2453 2.59187  14
  -1   4 -11 13.2429 3.43887   9
  -1   4 -11 17.8306 5.02277   3
  -2   4 -11 61.5381 6.78061   9
  -2   4 -11 65.6663 5.89023  24
  -2   4 -11 65.4996 5.24827  14
  -3   4 -11 40.9872 5.82949   9
  -3   4 -11 38.5170 4.80802  24
  -3   4 -11 37.8469 3.85048  14
  -4   4 -11 17.7138 3.50654  24
  -4   4 -11 11.3058 2.44075  14
  -4   4 -11 6.35203 4.17409   4
  -4   4 -11 6.51410 2.84652   9
   4  -4  11 0.74965 3.20023   2
  -3  -3  11 2.01918 2.81189   1
  -2  -3  11 34.2791 7.03639   1
   1   3 -11 25.9074 3.92857  14
   1   3 -11 20.7287 13.3106  20
   1   3 -11 33.9126 7.91185   3
  -1  -3  11 39.9761 4.14314  13
  -1  -3  11 32.7796 7.47963   1
   0   3 -11 2.37033 3.11118   9
   0   3 -11 4.16988 4.62058   3
   0   3 -11 1.61484 2.39815  14
   0   3 -11 1.11414 5.33134  20
   0  -3  11 2.72594 3.75480   1
  -1   3 -11 11.0716 3.52651   9
  -1   3 -11 19.6980 5.40018   3
  -1   3 -11 20.4135 4.05160  14
  -2   3 -11 23.1983 5.92475   3
  -2   3 -11 36.1330 4.32149  14
  -2   3 -11 31.7594 5.77997   9
  -2   3 -11 37.5293 4.99154  22
   2  -3  11 33.7148 5.04152  17
  -3   3 -11 15.0529 3.29910  14
  -3   3 -11 22.2712 3.74746   9
  -4   3 -11 30.1013 3.79985  24
  -4   3 -11 22.7211 6.43777   4
  -4   3 -11 25.5661 3.11422  14
  -4   3 -11 25.6528 4.71827   9
   4  -3  11 21.7781 6.09714   2
   3   2 -11 5.34157 4.30106  21
  -3  -2  11 7.73878 3.86413   1
  -3  -2  11 4.44715 2.26586  16
   2   2 -11 21.4181 12.1470  20
   2   2 -11 17.7011 6.13929   3
  -2  -2  11 26.9115 6.96914   1
   1   2 -11 111.550 10.1541   3
   1   2 -11 103.659 16.8660  20
  -1  -2  11 127.789 10.8954   1
   0   2 -11 34.3701 5.04460  22
   0   2 -11 34.1976 13.4669  20
   0   2 -11 46.0130 4.90663  14
   0   2 -11 39.2643 8.50637   3
   0  -2  11 48.6986 7.65659   1
  -1   2 -11 5.19837 3.19419   9
  -1   2 -11 2.54212 2.39905  14
  -1   2 -11 3.34081 2.93336  22
  -1   2 -11 8.26944 4.97162   3
   1  -2  11 3.19312 2.61794  17
   1  -2  11 4.27010 4.05454   1
  -2   2 -11 74.2494 6.64506  22
  -2   2 -11 65.7805 5.67197  14
  -2   2 -11 71.4020 9.70141   3
  -2   2 -11 75.4952 6.93137   9
   2  -2  11 72.5865 6.54413  17
  -3   2 -11 15.7508 3.32436  22
  -3   2 -11 17.4931 3.46565   9
  -3   2 -11 12.4344 2.24417  14
   3  -2  11 10.6897 2.93468  17
  -4   2 -11 3.40959 4.31771   4
  -4   2 -11 0.47734 2.79441   9
   4  -2  11 2.81101 2.21687  17
   4  -2  11 0.00826 3.74673   2
  -4  -1  11 65.4563 7.28718   1
  -4  -1  11 90.0689 5.99646  16
   3   1 -11 37.9445 12.2634  20
   3   1 -11 34.5057 6.03558   3
   3   1 -11 40.3664 8.53167  21
  -3  -1  11 41.5692 4.87427  16
  -3  -1  11 49.1340 7.41935   1
   2   1 -11 81.7166 15.3424  20
   2   1 -11 79.1910 8.51399   3
  -2  -1  11 92.9239 9.74267   1
  -2  -1  11 86.9986 6.58234  16
   1   1 -11 185.831 12.0227  22
   1   1 -11 193.101 19.8306  20
   1   1 -11 196.244 13.8800   3
  -1  -1  11 190.189 14.1372   1
   0   1 -11 61.7317 13.5428  20
   0   1 -11 76.5923 6.59065  22
   0   1 -11 96.2583 9.17841   3
   0  -1  11 80.2298 8.96987   1
  -1   1 -11 72.3324 6.02255  22
  -1   1 -11 57.2187 16.2906  20
  -1   1 -11 64.7953 5.35380  14
  -1   1 -11 67.1700 6.23484   9
  -1   1 -11 59.2830 8.58546   3
   1  -1  11 55.9804 8.45264   1
   1  -1  11 70.0477 6.11006  17
  -2   1 -11 48.2587 8.64375   3
  -2   1 -11 55.6476 6.09384   9
  -2   1 -11 54.9082 4.90892  14
  -2   1 -11 58.3974 6.06698  22
   2  -1  11 64.5374 6.12245  17
  -3   1 -11 58.7314 5.97422  22
  -3   1 -11 62.3572 6.17671   9
   3  -1  11 61.3733 5.91445  17
   3  -1  11 68.1225 7.53912   2
  -4   1 -11 7.39930 2.88328   9
  -4   1 -11 6.19416 1.88937  12
   4  -1  11 5.68488 3.58894   2
   4  -1  11 6.55115 2.41434  17
   4   0 -11 46.2102 14.0663  20
   4   0 -11 40.3006 8.13887  21
   4   0 -11 32.8304 5.58985   3
  -4   0  11 43.3342 4.79298  16
  -4   0  11 35.8760 6.18953   1
   3   0 -11 15.6566 3.96276  22
   3   0 -11 18.0800 4.23940   3
   3   0 -11 23.8592 12.7145  20
  -3   0  11 23.6343 4.56299  16
  -3   0  11 20.8246 7.05601   1
   2   0 -11 25.4792 4.73995  22
   2   0 -11 20.4367 12.6802  20
   2   0 -11 25.5450 6.87796   3
  -2   0  11 26.9068 4.64556  16
  -2   0  11 20.6978 7.10903   1
   1   0 -11 40.1691 5.15819  22
   1   0 -11 31.3100 13.2452  20
   1   0 -11 42.2049 7.37757   3
  -1   0  11 38.1819 7.30428   1
   0   0 -11 146.241 11.2011   3
   0   0 -11 143.505 9.56174  22
   0   0 -11 127.633 16.8660  20
   0   0  11 148.038 11.8474   1
  -1   0 -11 89.6787 7.30880  22
  -1   0 -11 75.5831 14.2645  20
  -1   0 -11 124.696 9.94947   3
   1   0  11 98.8847 7.84746  17
   1   0  11 112.405 9.84256   1
  -2   0 -11 31.8259 4.06456  12
  -2   0 -11 35.4191 4.96580  22
  -2   0 -11 33.2391 5.32014   9
   2   0  11 40.6475 4.98743  17
   2   0  11 25.0647 8.01066   1
  -3   0 -11 20.6957 4.41035  22
  -3   0 -11 27.6482 5.16425   9
  -3   0 -11 27.6846 3.76611  12
   3   0  11 23.0818 5.66503   2
   3   0  11 26.7760 4.51684  17
  -4   0 -11 38.9043 3.77200  12
  -4   0 -11 38.5171 4.85189   9
   4   0  11 35.4858 6.90818   2
   4   0  11 38.9236 4.18226  17
  -5   1  11 35.2064 4.02820  16
   4  -1 -11 2.62786 2.43625  22
   4  -1 -11 4.89808 3.60220   3
  -4   1  11 1.73791 3.98922   1
  -4   1  11 3.60168 2.56902  16
   3  -1 -11 45.1628 7.03218   3
   3  -1 -11 41.0473 13.0764  20
   3  -1 -11 36.8875 5.11715  22
  -3   1  11 46.7212 7.70257   1
  -3   1  11 40.9010 5.32600  16
   2  -1 -11 80.6376 14.8284  20
   2  -1 -11 85.0183 6.82772  22
   2  -1 -11 85.0401 8.66097   3
  -2   1  11 77.2549 8.90844   1
  -2   1  11 82.8796 6.62369  16
   1  -1 -11 261.507 22.5579  20
   1  -1 -11 273.531 17.4670   3
   1  -1 -11 287.246 16.3621  22
  -1   1  11 268.087 16.0813  16
  -1   1  11 254.245 18.0900   1
   0  -1 -11 108.100 7.87443  22
   0  -1 -11 100.143 15.6306  20
   0  -1 -11 117.962 9.55480   3
   0   1  11 117.008 10.1693   1
   0   1  11 102.032 7.79451  17
  -1  -1 -11 39.7847 4.65408  22
  -1  -1 -11 38.5559 4.18784  12
  -1  -1 -11 27.7775 6.84500  20
   1   1  11 36.1423 4.75264  17
   1   1  11 37.3156 7.86112   1
  -2  -1 -11 30.1218 4.57738  22
  -2  -1 -11 36.7549 4.18993  12
  -2  -1 -11 42.0146 5.75866   9
   2   1  11 40.2827 4.97106  17
   2   1  11 34.4628 7.77521   1
  -3  -1 -11 20.3815 4.37761   9
  -3  -1 -11 23.7034 3.75900  12
   3   1  11 30.4316 4.09735  17
   3   1  11 16.5615 6.65877   1
  -4  -1 -11 6.72908 1.62704  12
   4   1  11 6.88242 2.56510  17
   5  -2 -11 26.4313 3.66205  22
   5  -2 -11 38.8998 5.14119   3
  -5   2  11 29.5978 4.01122  16
   4  -2 -11 32.7833 4.60086  22
   4  -2 -11 22.3138 6.17967   3
  -4   2  11 34.4060 4.68960  16
   3  -2 -11 5.86530 2.87941  22
   3  -2 -11 4.91872 5.04551  20
   3  -2 -11 5.56421 3.98854   3
  -3   2  11 4.04509 3.72252   1
  -3   2  11 4.85821 2.52095  16
   2  -2 -11 18.9391 12.0726  20
   2  -2 -11 16.7272 4.36155   3
   2  -2 -11 20.3556 4.58288  22
  -2   2  11 20.8985 4.26233  16
  -2   2  11 11.1412 4.15201   1
   1  -2 -11 255.925 21.9634  20
   1  -2 -11 233.852 14.6177  22
   1  -2 -11 246.508 15.8458   3
  -1   2  11 219.607 14.6096  17
  -1   2  11 241.136 14.5081  16
  -1   2  11 246.734 16.6550   1
   0  -2 -11 8.80559 5.62814  20
   0  -2 -11 22.2665 4.04838  22
   0  -2 -11 27.2716 3.71755  12
   0   2  11 38.0775 7.00243   1
   0   2  11 22.4818 3.82393  17
  -1  -2 -11 16.3921 6.51837  20
  -1  -2 -11 28.9084 4.20476  12
  -1  -2 -11 26.0411 4.13411  22
   1   2  11 35.9181 6.75179   1
   1   2  11 31.2184 4.10297  17
  -2  -2 -11 38.0306 4.33905  12
   2   2  11 33.6452 7.35020   1
   2   2  11 38.2954 4.30795  17
  -3  -2 -11 162.913 9.27880  12
   3   2  11 158.438 9.55843  17
   3   2  11 135.470 10.8313   1
   5  -3 -11 6.72963 3.06097   3
   5  -3 -11 5.33756 2.10723  22
  -5   3  11 3.73806 2.07076  16
   4  -3 -11 24.2790 5.98639   3
   4  -3 -11 26.9617 4.34696  22
  -4   3  11 27.4861 4.43101  16
  -4   3  11 31.3792 3.76059  18
   3  -3 -11 1.63803 2.73633  22
   3  -3 -11 4.87724 3.75010   3
   3  -3 -11 3.50246 4.61006  20
  -3   3  11 2.37007 2.37670  16
  -3   3  11 2.31288 2.55729  18
   2  -3 -11 4.07823 2.61845  22
   2  -3 -11 5.41959 4.85882  20
  -2   3  11 2.88746 3.63558   1
  -2   3  11 3.64743 2.43965  16
   1  -3 -11 38.9538 13.1473  20
   1  -3 -11 43.6666 4.66099  22
  -1   3  11 45.6456 4.92999  16
  -1   3  11 41.7286 7.54750   1
   0  -3 -11 -3.7780 4.81261  20
   0  -3 -11 5.15476 2.31040  12
   0   3  11 2.17533 3.43942   1
   0   3  11 5.46376 2.56287  16
  -1  -3 -11 35.7263 4.19175  12
  -1  -3 -11 23.7927 6.73949  20
   1   3  11 37.1994 6.81667   1
   1   3  11 33.1643 3.69221   5
  -2  -3 -11 28.1384 3.14539  12
   2   3  11 22.2394 5.92655   1
   4  -4 -11 2.48107 3.22683   3
   4  -4 -11 0.28398 2.30654  22
  -4   4  11 -1.6919 2.25381  16
   3  -4 -11 20.8409 4.29429  22
  -3   4  11 21.5257 4.17263  16
   2  -4 -11 2.11261 4.17233  20
   2  -4 -11 -0.0149 2.19789  22
  -2   4  11 -0.6092 2.28314  16
   1  -4 -11 2.43400 2.17467  12
   1  -4 -11 0.71280 4.17174  20
  -1   4  11 7.03407 3.59295   1
  -1   4  11 3.37610 2.39601  16
   0  -4 -11 42.9963 4.49781  12
   0   4  11 41.0795 4.73754  16
   0   4  11 43.1128 4.11954   5
   0   4  11 51.5252 6.98121   1
  -1  -4 -11 6.40103 1.76726  12
   1   4  11 6.80091 3.12469   1
   1   4  11 5.87898 1.47902   5
  -4   5  11 3.76872 1.80231  16
  -3   5  11 59.3921 5.08362  16
  -2   5  11 1.26794 1.64483   5
  -2   5  11 1.34376 2.33977  16
   1  -5 -11 103.398 6.62646  12
  -1   5  11 98.7616 7.00059  16
  -1   5  11 102.488 6.59149   5
   0  -5 -11 8.52177 1.57540  12
   0   5  11 12.7286 2.66061   5
  -2   5 -12 11.7766 2.35428  14
  -3   5 -12 13.3688 2.77436  14
  -1  -4  12 0.43170 4.13046   1
   0   4 -12 7.97534 3.65593   9
   0   4 -12 10.4531 1.94024  14
  -1   4 -12 49.8483 5.78821   9
  -1   4 -12 54.4559 7.56704   3
  -1   4 -12 58.7959 4.54864  14
  -1   4 -12 50.0254 4.63127  24
  -2   4 -12 58.8783 5.83322   9
  -2   4 -12 58.2086 4.63258  14
  -2   4 -12 53.0396 5.04999  24
  -3   4 -12 2.44433 2.16900  24
  -3   4 -12 1.79239 2.66465   9
  -3   4 -12 3.02998 1.64011  14
   4  -4  12 5.41663 5.07880   2
  -2  -3  12 56.5217 6.55003   1
   1   3 -12 15.1185 3.02953  14
   1   3 -12 10.8703 4.09224   3
   1   3 -12 7.06719 4.95238  20
  -1  -3  12 6.15509 3.83265   1
   0   3 -12 9.23377 5.45756  20
   0   3 -12 21.2740 3.60910  14
   0   3 -12 24.6539 7.26141   3
   0  -3  12 19.2681 6.34523   1
  -1   3 -12 101.130 10.1750   3
  -1   3 -12 103.406 8.01938   9
  -1   3 -12 98.9650 6.99318  14
   1  -3  12 99.0047 7.46627  17
  -2   3 -12 194.530 12.4801   9
  -2   3 -12 186.399 14.1845   3
  -2   3 -12 197.994 12.0220  22
  -2   3 -12 200.741 11.8164  14
   2  -3  12 188.017 12.1391  17
  -3   3 -12 67.7129 5.01089  14
  -3   3 -12 73.7134 6.06654   9
  -3   3 -12 60.4749 5.65424  24
  -4   3 -12 7.93938 4.05751   4
  -4   3 -12 8.34595 1.93951  14
   4  -3  12 9.91755 3.56220   2
   3   2 -12 129.225 9.02081  14
  -3  -2  12 151.877 10.2696   1
   2   2 -12 12.3360 3.82337   3
   2   2 -12 7.26639 2.08716  14
   2   2 -12 4.64974 4.52176  20
  -2  -2  12 16.9508 6.21791   1
   1   2 -12 58.1049 5.15324  14
   1   2 -12 56.9659 7.95761   3
   1   2 -12 53.5075 13.6492  20
  -1  -2  12 67.3357 8.18543   1
   0   2 -12 71.9299 6.06261  22
   0   2 -12 73.5000 8.68262   3
   0   2 -12 76.6550 5.90759  14
   0   2 -12 64.9436 13.9064  20
   0  -2  12 74.6277 8.58506   1
  -1   2 -12 105.064 10.9277   3
  -1   2 -12 124.850 9.01688   9
  -1   2 -12 131.675 8.16551  14
  -1   2 -12 141.995 8.52239  22
   1  -2  12 143.208 8.84547  17
   1  -2  12 70.3020 10.7279   1
  -2   2 -12 140.479 9.30044  14
  -2   2 -12 160.779 10.2404   9
  -2   2 -12 145.886 9.85067  22
  -2   2 -12 156.730 12.2638   3
   2  -2  12 139.012 9.96516  17
  -3   2 -12 -0.6963 2.90424   9
  -3   2 -12 1.36997 1.67791  14
   3  -2  12 0.16769 2.07414  17
   3  -2  12 2.39635 3.72084   2
  -4   2 -12 22.0054 5.33687   4
   4  -2  12 19.9376 3.50663  17
   4  -2  12 22.3991 5.12826   2
   3   1 -12 60.7285 6.69746   3
   3   1 -12 55.5581 11.6450  20
  -3  -1  12 68.1787 5.49810  16
  -3  -1  12 78.8499 7.66127   1
   2   1 -12 19.9191 6.37386   3
   2   1 -12 24.1792 12.4213  20
  -2  -1  12 29.6716 6.78731   1
   1   1 -12 14.1225 4.48522   3
   1   1 -12 5.95821 5.10841  20
   1   1 -12 12.8019 2.80878  22
  -1  -1  12 12.9808 4.30006   1
   0   1 -12 105.549 8.01332  22
   0   1 -12 100.383 15.8606  20
   0   1 -12 126.238 10.5087   3
   0   1 -12 116.232 7.87087  14
   0  -1  12 120.572 10.4444   1
  -1   1 -12 423.919 25.2751  14
  -1   1 -12 437.244 26.7968   3
  -1   1 -12 445.534 25.5177  22
   1  -1  12 462.788 25.8832  17
   1  -1  12 416.822 27.0376   1
  -2   1 -12 55.2161 5.79239  22
  -2   1 -12 67.1662 6.03676   9
  -2   1 -12 58.4990 7.84605   3
  -2   1 -12 49.4199 4.74042  14
   2  -1  12 55.3952 5.82430  17
  -3   1 -12 69.4222 6.08618  22
  -3   1 -12 76.3923 6.34566   9
   3  -1  12 72.2303 6.22127  17
   3  -1  12 77.0055 7.53866   2
   4  -1  12 2.85577 3.70206   2
   4  -1  12 4.78636 1.88434  17
   4   0 -12 12.4704 2.94771   3
  -4   0  12 12.4211 2.32865  16
  -4   0  12 14.5949 4.68959   1
   3   0 -12 14.8158 3.90559   3
   3   0 -12 9.48822 2.52893  22
   3   0 -12 6.75938 4.79215  20
  -3   0  12 13.2463 2.51501  16
  -3   0  12 14.2623 4.10808   1
   2   0 -12 6.22818 4.96450  20
   2   0 -12 19.6042 6.03973   3
   2   0 -12 16.2283 2.97145  22
  -2   0  12 18.4942 3.98313  16
  -2   0  12 21.5724 6.97242   1
   1   0 -12 37.9170 7.36474   3
   1   0 -12 37.7686 13.2621  20
   1   0 -12 36.1483 4.99898  22
  -1   0  12 40.9383 7.65736   1
   0   0 -12 349.238 21.1948  14
   0   0 -12 361.094 27.6406  20
   0   0 -12 392.872 21.4236  22
   0   0 -12 354.302 22.6218   3
   0   0  12 374.511 21.7877  17
   0   0  12 349.285 23.0830   1
  -1   0 -12 69.1456 13.3714  20
  -1   0 -12 80.0855 6.30641  22
  -1   0 -12 81.2782 8.48095   3
   1   0  12 83.5312 6.89429  17
   1   0  12 76.2651 9.08209   1
  -2   0 -12 18.5885 3.48602   9
  -2   0 -12 11.1535 2.89583  22
   2   0  12 15.5097 4.48161  17
   2   0  12 11.8428 4.34670   1
  -3   0 -12 8.79411 1.90873  12
  -3   0 -12 8.91560 2.96759   9
   3   0  12 8.92871 2.32799  17
   4  -1 -12 7.66131 3.27440   3
   4  -1 -12 6.91114 1.99959  22
  -4   1  12 3.76580 2.35029  16
   3  -1 -12 35.5183 11.7337  20
   3  -1 -12 38.7698 6.26306   3
   3  -1 -12 32.9587 4.75424  22
  -3   1  12 36.3335 4.84930  16
  -3   1  12 41.6703 7.19935   1
   2  -1 -12 27.6857 6.23252   3
   2  -1 -12 28.0923 12.3940  20
   2  -1 -12 28.6982 4.59248  22
  -2   1  12 25.5634 6.96427   1
  -2   1  12 28.5141 4.22274  16
   1  -1 -12 19.4677 4.44917  22
   1  -1 -12 14.5330 4.32233   3
   1  -1 -12 9.33883 5.24163  20
  -1   1  12 16.8603 6.53626   1
  -1   1  12 22.7179 3.99770  17
   0  -1 -12 50.8884 14.5173  20
   0  -1 -12 66.1944 5.62049  22
   0  -1 -12 58.9144 7.55615   3
   0   1  12 64.7704 8.35798   1
   0   1  12 65.5640 5.75335  17
  -1  -1 -12 36.3873 4.76750  22
  -1  -1 -12 21.2730 13.1921  20
  -1  -1 -12 40.6846 4.97336  12
   1   1  12 43.5063 7.71044   1
   1   1  12 43.3134 4.82180  17
  -2  -1 -12 33.2392 4.37707  22
  -2  -1 -12 32.0377 3.85802  12
   2   1  12 44.3085 7.24459   1
   2   1  12 33.3083 4.38061  17
  -3  -1 -12 4.57700 1.68605  12
   3   1  12 3.93437 1.95544  17
   4  -2 -12 28.7062 4.09717  22
   4  -2 -12 27.1668 5.39786   3
  -4   2  12 29.0196 4.09863  16
   3  -2 -12 20.1490 10.7692  20
   3  -2 -12 21.9318 5.75013   3
   3  -2 -12 22.1630 4.32196  22
  -3   2  12 21.1258 6.32998   1
  -3   2  12 18.7426 4.17442  16
   2  -2 -12 26.7667 4.53943  22
   2  -2 -12 26.6002 11.9472  20
   2  -2 -12 25.8118 5.99087   3
  -2   2  12 28.6965 6.93150   1
  -2   2  12 23.7738 4.16678  16
   1  -2 -12 55.5660 5.47900  22
   1  -2 -12 61.6690 8.95132   3
   1  -2 -12 54.4624 13.7404  20
  -1   2  12 58.4400 5.19380  16
  -1   2  12 53.8598 5.01087  17
  -1   2  12 63.6187 7.98544   1
   0  -2 -12 13.7427 5.78453  20
   0  -2 -12 20.0571 3.55287  12
   0  -2 -12 20.3804 3.87061  22
   0   2  12 20.5328 3.62947  17
  -1  -2 -12 60.4032 14.2793  20
  -1  -2 -12 81.8066 5.49836  12
  -1  -2 -12 77.9302 5.77345  22
   1   2  12 62.0663 8.03421   1
   1   2  12 78.5534 5.77185  17
  -2  -2 -12 18.5048 2.97554  12
   2   2  12 20.2162 3.18103  17
   2   2  12 14.7478 4.07467   1
   4  -3 -12 6.36091 2.31199  22
   4  -3 -12 7.52963 3.27823   3
  -4   3  12 7.64240 2.22195  16
   3  -3 -12 0.69604 2.47019  22
   3  -3 -12 2.41028 3.90261  20
   3  -3 -12 1.92152 3.37594   3
  -3   3  12 1.72609 2.35883  16
  -3   3  12 6.06660 2.17777  18
   2  -3 -12 2.84480 4.34339  20
   2  -3 -12 1.95714 2.41258  22
  -2   3  12 14.5232 3.99192   1
  -2   3  12 4.77686 2.29817  16
   1  -3 -12 33.1365 10.7394  20
   1  -3 -12 39.4890 3.94323  12
   1  -3 -12 33.1429 4.18571  22
  -1   3  12 31.7880 4.29463  16
  -1   3  12 36.4817 6.70888   1
   0  -3 -12 1.90921 4.67820  20
   0  -3 -12 8.21242 2.12881  12
   0   3  12 9.02127 3.54978   1
  -1  -3 -12 10.4735 1.96441  12
   1   3  12 6.58112 1.60685   5
   1   3  12 5.30619 3.40068   1
  -2  -3 -12 43.1921 3.83036  12
   4  -4 -12 6.30458 2.25278  22
  -4   4  12 6.44616 2.01940  16
   3  -4 -12 65.3381 5.38445  22
  -3   4  12 69.5445 5.40714  16
   2  -4 -12 8.43238 1.90640  12
   2  -4 -12 7.61179 4.44408  20
  -2   4  12 9.74725 2.35162  16
   1  -4 -12 40.8735 3.74897  12
   1  -4 -12 36.4022 11.2132  20
  -1   4  12 37.2199 4.15657  16
  -1   4  12 41.2214 3.76637   5
  -1   4  12 38.5905 6.02051   1
   0  -4 -12 71.0518 5.27603  12
   0   4  12 84.5343 7.21631   1
   0   4  12 73.0594 5.19016   5
  -2   5  12 4.50711 2.60362  16
  -1   4 -13 8.09671 1.68874  14
  -2   4 -13 19.1167 2.50183  14
   1   3 -13 7.14332 1.67405  14
  -1  -3  13 7.46553 3.41608   1
   0   3 -13 30.3809 6.47216   3
   0   3 -13 19.5960 3.25293  14
   0  -3  13 18.6806 3.75057  17
  -1   3 -13 1.72645 1.89387  14
  -1   3 -13 3.39248 4.46561   3
  -1   3 -13 3.05796 3.18620   9
   1  -3  13 3.97808 2.22043  17
  -2   3 -13 238.606 13.2175  14
  -2   3 -13 215.961 13.5814   9
   2  -3  13 215.159 13.7522  17
  -3   3 -13 75.1512 5.31039  14
   3  -3  13 90.0068 7.35179   2
   2   2 -13 15.0686 4.53235   3
   2   2 -13 13.8914 2.64839  14
  -2  -2  13 11.0133 3.56885   1
   1   2 -13 18.6096 9.61985  20
   1   2 -13 24.5915 6.27972   3
   1   2 -13 24.0205 3.48098  14
  -1  -2  13 19.4115 6.63313   1
   0   2 -13 58.0128 7.84268   3
   0   2 -13 44.3371 11.4314  20
   0   2 -13 52.2142 4.70328  14
   0   2 -13 41.9713 6.01553  22
   0  -2  13 55.8442 7.46385   1
   0  -2  13 59.6477 5.45224  17
  -1   2 -13 114.175 10.1385   3
  -1   2 -13 104.619 7.23282  14
  -1   2 -13 100.496 7.58745  22
   1  -2  13 113.943 7.93310  17
  -2   2 -13 77.4230 8.77675   3
  -2   2 -13 88.1664 7.03196   9
  -2   2 -13 89.2637 6.14282  14
  -2   2 -13 98.2913 6.74182  22
   2  -2  13 95.8610 6.88406  17
   3  -2  13 6.10920 2.06304  17
   3  -2  13 3.88958 3.26691   2
   3   1 -13 22.4074 5.56903   3
   3   1 -13 15.5211 2.68423  14
  -3  -1  13 19.6706 4.83826   1
   2   1 -13 2.40660 3.56819   3
   2   1 -13 0.53776 3.76699  20
  -2  -1  13 5.10581 3.71262   1
   1   1 -13 7.28291 4.81711  20
   1   1 -13 18.4079 2.62297  14
   1   1 -13 23.0373 4.63759   3
   1   1 -13 14.9866 3.77887  22
  -1  -1  13 19.9400 6.36809   1
   0   1 -13 22.6905 3.72973  14
   0   1 -13 23.9965 4.23322  22
   0   1 -13 30.5077 6.99207   3
   0   1 -13 12.4658 5.27590  20
   0  -1  13 32.5445 4.56949  17
   0  -1  13 29.9282 6.99513   1
  -1   1 -13 52.6217 7.65396   3
  -1   1 -13 53.4507 5.43482  22
  -1   1 -13 55.3900 4.63495  14
   1  -1  13 53.4015 7.50540   1
   1  -1  13 57.4956 5.66437  17
  -2   1 -13 14.4707 2.82563  22
  -2   1 -13 20.6598 4.21039   9
   2  -1  13 14.4627 4.07978  17
   2  -1  13 16.5523 4.93399   2
   3  -1  13 22.1202 3.35385  17
   3  -1  13 18.9922 4.41074   2
   3   0 -13 0.25386 3.13827   3
  -3   0  13 3.33389 1.60101  16
  -3   0  13 0.29738 3.15917   1
   2   0 -13 -1.8793 3.63201   3
   2   0 -13 -0.4717 4.00555  20
   2   0 -13 1.59545 2.25209  22
  -2   0  13 -0.7138 3.69654   1
   1   0 -13 16.3890 3.53231  14
   1   0 -13 25.3413 6.49520   3
   1   0 -13 8.86065 4.96950  20
   1   0 -13 21.4738 4.06427  22
  -1   0  13 24.7927 3.96937  17
  -1   0  13 26.2101 6.45420   1
   0   0 -13 57.4507 4.73836  14
   0   0 -13 49.7007 12.8095  20
   0   0 -13 62.2934 5.40632  22
   0   0 -13 57.1415 7.60450   3
   0   0  13 51.8164 7.72998   1
   0   0  13 65.4017 5.54334  17
  -1   0 -13 38.3901 4.78296  22
  -1   0 -13 34.8245 6.60677   3
   1   0  13 42.3810 4.81391  17
   1   0  13 34.3018 7.30365   1
  -2   0 -13 4.54497 2.42304  22
   2   0  13 3.79429 3.51443   1
   2   0  13 5.14926 2.25155  17
   3   0  13 5.77612 1.87357  17
   3  -1 -13 67.3814 6.78103   3
   3  -1 -13 53.8163 5.12025  22
  -3   1  13 69.7682 7.12936   1
  -3   1  13 60.6300 5.01664  16
   2  -1 -13 5.34537 4.28967  20
   2  -1 -13 17.9454 4.08080  22
   2  -1 -13 17.1315 5.68766   3
  -2   1  13 21.5040 6.43852   1
  -2   1  13 15.9594 3.55169  16
  -2   1  13 16.0502 3.43443  17
   1  -1 -13 3.51167 1.93621  14
   1  -1 -13 0.74484 2.53450  22
   1  -1 -13 1.87094 4.51402  20
   1  -1 -13 2.74756 3.72609   3
  -1   1  13 3.45024 2.20302  17
  -1   1  13 5.12728 3.56005   1
   0  -1 -13 37.8813 4.57772  22
   0  -1 -13 29.0146 12.2742  20
   0  -1 -13 44.5227 6.73893   3
   0   1  13 39.7413 4.34756  17
   0   1  13 44.9915 7.18371   1
  -1  -1 -13 8.71618 5.10549  20
  -1  -1 -13 18.0581 3.86280  22
   1   1  13 20.2579 6.39776   1
   1   1  13 15.4454 3.48903  17
  -2  -1 -13 41.7045 4.14706  12
  -2  -1 -13 37.8882 4.13079  22
   2   1  13 38.9938 3.93279  17
   2   1  13 37.0679 5.94442   1
   4  -2 -13 88.5098 7.84530   3
   3  -2 -13 68.9581 5.59268  22
   3  -2 -13 68.1865 6.78503   3
  -3   2  13 69.2054 5.29148  16
  -3   2  13 68.5033 6.90360   1
   2  -2 -13 -0.2468 2.35662  22
   2  -2 -13 0.32821 3.88707  20
   2  -2 -13 1.99652 3.42742   3
  -2   2  13 2.93448 3.47320   1
  -2   2  13 1.48092 2.08034  16
   1  -2 -13 16.6935 3.89182  22
   1  -2 -13 6.96343 4.55174  20
  -1   2  13 16.6934 6.02600   1
   0  -2 -13 26.1388 4.00448  22
   0  -2 -13 17.3393 5.60640  20
   0   2  13 28.8641 3.48484  17
   0   2  13 27.8192 6.07346   1
  -1  -2 -13 15.7333 2.78662  12
   1   2  13 14.7926 2.51615   5
   1   2  13 14.3097 5.42987   1
   1   2  13 14.6544 2.92196  17
   2   2  13 1.79994 3.33153   1
   3  -3 -13 15.1318 4.50269   3
   3  -3 -13 17.8913 3.67304  22
  -3   3  13 18.0739 3.24296  16
   2  -3 -13 40.3087 4.43764  22
  -2   3  13 48.7740 6.17462   1
  -2   3  13 38.2002 4.17112  16
   1  -3 -13 21.2807 3.50284  22
   1  -3 -13 9.65713 4.60012  20
  -1   3  13 26.3447 4.33956  16
  -1   3  13 25.5075 5.49340   1
   0  -3 -13 88.1923 6.01380  12
   0   3  13 96.9225 7.85642   1
   0   3  13 92.3062 6.06682   5
   1   3  13 57.9924 6.07965   1
  -2   4  13 7.37269 2.90037  16
  -1   4  13 64.1088 4.97652   5
   0   3 -14 16.1208 2.37894  14
   0   3 -14 14.0817 4.73942   3
  -1   3 -14 5.03742 1.68054  14
   1   2 -14 14.9508 2.74612  14
   1   2 -14 15.2293 4.87075   3
  -1  -2  14 19.5930 3.24008  17
  -1  -2  14 13.8790 4.99071   1
   0   2 -14 50.1390 4.39943  14
   0   2 -14 60.5580 7.11128   3
   0  -2  14 60.0252 6.67017   1
   0  -2  14 57.2413 4.88277  17
  -1   2 -14 23.6341 3.01317  14
  -1   2 -14 20.9601 3.50085  22
  -1   2 -14 28.9923 6.61037   3
   1  -2  14 23.6690 3.58447  17
  -2   2 -14 5.12367 1.88365  14
  -2   2 -14 7.46318 2.14120  22
   2  -2  14 6.36080 2.97519   2
   2  -2  14 5.60303 1.93851  17
   2   1 -14 2.53402 1.44312  14
   2   1 -14 0.84604 2.98514   3
  -2  -1  14 0.92986 2.90152   1
   1   1 -14 13.6974 2.91844  14
   1   1 -14 16.9129 5.66432   3
   1   1 -14 11.6148 2.13460  22
  -1  -1  14 14.2936 3.39583  17
  -1  -1  14 18.9689 5.67221   1
   0   1 -14 20.5536 3.68885  22
   0   1 -14 16.1341 4.21880   3
   0   1 -14 22.4571 3.17835  14
   0  -1  14 11.9753 3.83542   1
   0  -1  14 23.4208 3.75135  17
  -1   1 -14 79.2778 5.49754  14
  -1   1 -14 81.3160 8.00892   3
  -1   1 -14 83.3613 6.20348  22
   1  -1  14 83.6198 6.10243  17
   1  -1  14 80.1890 7.63996   1
  -2   1 -14 4.16463 2.07081  22
   2  -1  14 2.92124 1.86449  17
   2   0 -14 3.98140 1.79891  14
   2   0 -14 3.91134 1.75622  22
   2   0 -14 6.52439 3.57274   3
  -2   0  14 8.00827 3.29349   1
  -2   0  14 2.55949 1.81968  17
   1   0 -14 20.8334 3.62714  22
   1   0 -14 20.2625 9.20320  20
   1   0 -14 24.5717 6.19946   3
   1   0 -14 27.2935 3.29091  14
  -1   0  14 20.7656 5.44637   1
  -1   0  14 27.3430 3.59170  17
   0   0 -14 0.39858 2.00165  14
   0   0 -14 2.90735 2.44395  22
   0   0 -14 1.86610 3.59988   3
   0   0 -14 -1.1004 4.17462  20
   0   0  14 1.25019 2.09885  17
   0   0  14 -1.5830 3.36558   1
  -1   0 -14 5.47847 2.42055  22
   1   0  14 5.66607 3.56627   1
   1   0  14 5.65854 2.10601  17
  -2   0 -14 2.18517 1.93829  22
   2   0  14 2.64821 1.66307  17
   3  -1 -14 114.995 8.48836   3
   2  -1 -14 22.4275 3.67618  22
   2  -1 -14 33.7670 5.70764   3
   2  -1 -14 25.9429 3.13920  14
  -2   1  14 22.5913 3.22291  17
  -2   1  14 39.2626 5.56328   1
   1  -1 -14 1.68299 5.26012  20
   1  -1 -14 2.22863 2.19065  22
   1  -1 -14 1.00941 3.44047   3
  -1   1  14 1.00633 1.78345  17
  -1   1  14 1.63664 3.28864   1
   0  -1 -14 22.4262 3.95129  22
   0   1  14 20.6493 5.70496   1
   0   1  14 22.6126 3.32060  17
  -1  -1 -14 4.98737 2.10389  22
   1   1  14 2.97592 1.77627  17
   1   1  14 4.01125 3.09849   1
   2  -2 -14 2.91089 2.00513  22
   2  -2 -14 4.84646 3.00280   3
  -2   2  14 3.06920 2.41132   1
   1  -2 -14 3.01827 2.08251  22
  -1   2  14 2.57636 3.19777   1
   0  -2 -14 5.43677 2.01285  22
   0   2  14 3.12114 2.88223   1
   1   2  14 92.7498 9.26133   1
   0   1 -15 21.0794 5.19117   3
   0  -1  15 24.8566 3.04823  17
   1   0 -15 9.64795 3.79047   3
  -1   0  15 4.74704 2.62679   1
   0   0 -15 3.01390 1.95729  22
   0   0  15 1.97754 2.88276   1
   0   0  15 1.81081 1.61890  17
  -1   1  15 11.3098 3.97328   1
   0   0   0    0.00    0.00   0

 _exptl_absorpt_process_details 'SADABS 2014/4'
 _exptl_absorpt_correction_type   multiscan
 _exptl_absorpt_correction_T_max  0.5209
 _exptl_absorpt_correction_T_min  0.4278
 _exptl_special_details
)
 The following wavelength and cell were deduced by SADABS from the
 direction cosines etc. They are given here for emergency use only:
 CELL 1.54191    6.278    7.118   12.657   91.267   91.348  115.411
)
;
_shelx_hkl_checksum              60123
_shelx_shelxl_version_number     2014/7
_olex2_submission_special_instructions 'No special instructions were received'
loop_
_space_group_symop_operation_xyz
'x, y, z'
loop_
_atom_site_label
_atom_site_type_symbol
_atom_site_fract_x
_atom_site_fract_y
_atom_site_fract_z
_atom_site_U_iso_or_equiv
_atom_site_adp_type
_atom_site_occupancy
_atom_site_site_symmetry_order
_atom_site_calc_flag
_atom_site_refinement_flags_posn
_atom_site_disorder_assembly
_atom_site_disorder_group
C1 C 0.1912(6) 0.7239(6) 0.9732(3) 0.0337(8) Uani 1 1 d . . .
H1A H 0.0346 0.6586 1.0031 0.051 Uiso 1 1 calc GR . .
H1B H 0.2153 0.8579 0.9442 0.051 Uiso 1 1 calc GR . .
H1C H 0.3118 0.7464 1.0288 0.051 Uiso 1 1 calc GR . .
O1 O 0.1800(4) 0.3867(4) 0.9274(2) 0.0373(6) Uani 1 1 d D . .
C2 C 0.2095(5) 0.5824(5) 0.8855(3) 0.0271(7) Uani 1 1 d . . .
H2 H 0.0770 0.5534 0.8329 0.032 Uiso 1 1 calc R . .
O2 O 0.6263(3) 0.7447(3) 0.90666(17) 0.0248(5) Uani 1 1 d D . .
C3 C 0.4395(5) 0.6786(5) 0.8268(2) 0.0207(6) Uani 1 1 d . . .
O3 O 0.8749(3) 0.7930(3) 0.72751(17) 0.0244(5) Uani 1 1 d D . .
C4 C 0.4524(5) 0.8666(5) 0.7645(3) 0.0249(7) Uani 1 1 d . . .
H4A H 0.2933 0.8622 0.7557 0.030 Uiso 1 1 calc R . .
H4B H 0.5560 0.9980 0.8032 0.030 Uiso 1 1 calc R . .
O4 O 0.0836(4) 0.2281(3) 0.72822(19) 0.0338(6) Uani 1 1 d D . .
C5 C 0.5516(5) 0.8562(5) 0.6559(3) 0.0235(7) Uani 1 1 d . . .
H5A H 0.4255 0.8106 0.5997 0.028 Uiso 1 1 calc R . .
H5B H 0.6763 0.9937 0.6384 0.028 Uiso 1 1 calc R . .
O5 O 0.5083(7) 0.3326(5) 0.0537(2) 0.0636(10) Uani 1 1 d D . .
C6 C 0.6530(5) 0.6959(4) 0.6673(2) 0.0199(6) Uani 1 1 d . . .
C7 C 0.4776(5) 0.5321(4) 0.7403(2) 0.0192(6) Uani 1 1 d . . .
C8 C 0.5770(5) 0.3882(5) 0.7863(2) 0.0257(7) Uani 1 1 d . . .
H8A H 0.6513 0.3422 0.7303 0.039 Uiso 1 1 calc GR . .
H8B H 0.4490 0.2666 0.8152 0.039 Uiso 1 1 calc GR . .
H8C H 0.6946 0.4633 0.8427 0.039 Uiso 1 1 calc GR . .
C9 C 0.2472(5) 0.4029(5) 0.6736(2) 0.0237(7) Uani 1 1 d . . .
H9 H 0.1697 0.4957 0.6559 0.028 Uiso 1 1 calc R . .
C10 C 0.2920(5) 0.3125(5) 0.5714(2) 0.0236(7) Uani 1 1 d . . .
H10A H 0.1399 0.2365 0.5316 0.028 Uiso 1 1 calc R . .
H10B H 0.3547 0.2103 0.5888 0.028 Uiso 1 1 calc R . .
C11 C 0.4636(5) 0.4742(5) 0.5004(2) 0.0213(6) Uani 1 1 d . . .
H11 H 0.3926 0.5715 0.4819 0.026 Uiso 1 1 calc R . .
C12 C 0.6966(5) 0.6043(5) 0.5634(3) 0.0218(6) Uani 1 1 d . . .
H12 H 0.7670 0.5070 0.5828 0.026 Uiso 1 1 calc R . .
C13 C 0.8738(6) 0.7705(5) 0.4962(3) 0.0335(8) Uani 1 1 d . . .
H13A H 1.0257 0.8410 0.5367 0.040 Uiso 1 1 calc R . .
H13B H 0.8156 0.8763 0.4802 0.040 Uiso 1 1 calc R . .
C14 C 0.9132(7) 0.6772(6) 0.3927(3) 0.0420(10) Uani 1 1 d . . .
H14A H 0.9847 0.5805 0.4082 0.050 Uiso 1 1 calc R . .
H14B H 1.0235 0.7896 0.3496 0.050 Uiso 1 1 calc R . .
C15 C 0.6791(7) 0.5600(5) 0.3307(3) 0.0344(8) Uani 1 1 d . . .
H15 H 0.6092 0.6616 0.3224 0.041 Uiso 1 1 calc R . .
C16 C 0.5017(5) 0.3796(5) 0.3939(2) 0.0237(7) Uani 1 1 d . . .
C17 C 0.5904(6) 0.2122(5) 0.4140(3) 0.0280(7) Uani 1 1 d . . .
H17A H 0.7236 0.2671 0.4655 0.042 Uiso 1 1 calc GR . .
H17B H 0.6413 0.1741 0.3474 0.042 Uiso 1 1 calc GR . .
H17C H 0.4628 0.0888 0.4418 0.042 Uiso 1 1 calc GR . .
C18 C 0.2675(6) 0.2823(6) 0.3283(3) 0.0325(8) Uani 1 1 d . . .
H18A H 0.1547 0.1594 0.3646 0.039 Uiso 1 1 calc R . .
H18B H 0.1997 0.3847 0.3247 0.039 Uiso 1 1 calc R . .
C19 C 0.2970(7) 0.2154(6) 0.2153(3) 0.0381(9) Uani 1 1 d . . .
H19A H 0.3487 0.1022 0.2182 0.046 Uiso 1 1 calc R . .
H19B H 0.1432 0.1607 0.1758 0.046 Uiso 1 1 calc R . .
C20 C 0.4751(9) 0.3952(7) 0.1579(3) 0.0462(10) Uani 1 1 d . . .
H20 H 0.4137 0.5031 0.1512 0.055 Uiso 1 1 calc R . .
C21 C 0.7110(8) 0.4940(6) 0.2191(3) 0.0433(10) Uani 1 1 d . . .
H21A H 0.7806 0.3929 0.2225 0.052 Uiso 1 1 calc R . .
H21B H 0.8207 0.6170 0.1818 0.052 Uiso 1 1 calc R . .
O6 O 0.7826(5) 0.1332(4) 0.0267(2) 0.0499(7) Uani 1 1 d D . .
H4 H 0.0848 0.2577 0.7904 0.075 Uiso 1 1 d DG . .
H2A H 0.7583 0.7934 0.8747 0.075 Uiso 1 1 d DG . .
H3 H 0.9357 0.9204 0.7156 0.075 Uiso 1 1 d DG . .
H5 H 0.4228 0.3345 0.0036 0.075 Uiso 1 1 d DG . .
H1 H 0.0709 0.3536 0.9716 0.075 Uiso 1 1 d DG . .
H6B H 0.6939 -0.0087 -0.0024 0.075 Uiso 1 1 d DR A 1
H6A H 0.7070 0.2347 0.0514 0.075 Uiso 1 1 d DR . .
loop_
_atom_site_aniso_label
_atom_site_aniso_U_11
_atom_site_aniso_U_22
_atom_site_aniso_U_33
_atom_site_aniso_U_23
_atom_site_aniso_U_13
_atom_site_aniso_U_12
C1 0.0320(17) 0.0358(19) 0.0334(17) -0.0047(14) 0.0069(14) 0.0147(15)
O1 0.0475(15) 0.0221(13) 0.0303(12) -0.0006(10) 0.0110(11) 0.0030(10)
C2 0.0229(15) 0.0250(18) 0.0288(16) -0.0030(13) 0.0004(12) 0.0061(13)
O2 0.0232(11) 0.0230(11) 0.0265(11) -0.0051(9) -0.0039(8) 0.0088(9)
C3 0.0148(13) 0.0198(16) 0.0264(15) -0.0024(12) -0.0041(11) 0.0066(11)
O3 0.0169(10) 0.0202(11) 0.0312(12) -0.0033(9) -0.0023(8) 0.0035(8)
C4 0.0268(15) 0.0194(16) 0.0314(16) -0.0015(12) -0.0025(12) 0.0129(13)
O4 0.0306(12) 0.0210(12) 0.0300(12) -0.0043(9) 0.0087(9) -0.0079(9)
C5 0.0275(16) 0.0147(15) 0.0288(16) 0.0019(12) -0.0024(12) 0.0095(12)
O5 0.129(3) 0.0537(19) 0.0211(13) 0.0009(12) 0.0087(15) 0.0508(19)
C6 0.0143(13) 0.0160(15) 0.0265(15) -0.0004(12) -0.0019(11) 0.0040(11)
C7 0.0185(13) 0.0155(15) 0.0223(15) -0.0008(11) 0.0002(11) 0.0062(11)
C8 0.0326(16) 0.0212(16) 0.0275(16) -0.0016(13) -0.0016(13) 0.0159(13)
C9 0.0192(15) 0.0195(16) 0.0261(16) -0.0006(12) 0.0006(12) 0.0023(12)
C10 0.0201(14) 0.0187(16) 0.0246(15) -0.0025(12) 0.0004(12) 0.0016(12)
C11 0.0195(14) 0.0204(15) 0.0240(15) 0.0011(12) -0.0019(11) 0.0087(12)
C12 0.0212(14) 0.0143(14) 0.0280(16) -0.0004(12) 0.0029(12) 0.0057(12)
C13 0.0334(18) 0.0208(17) 0.0345(19) -0.0019(14) 0.0098(15) 0.0001(14)
C14 0.042(2) 0.0256(19) 0.041(2) -0.0051(16) 0.0209(16) -0.0017(15)
C15 0.049(2) 0.0226(18) 0.0288(18) 0.0042(14) 0.0106(15) 0.0119(16)
C16 0.0274(16) 0.0208(16) 0.0233(15) 0.0003(12) 0.0006(12) 0.0108(13)
C17 0.0312(17) 0.0252(17) 0.0284(16) -0.0025(13) -0.0005(13) 0.0132(14)
C18 0.0324(17) 0.040(2) 0.0285(18) -0.0076(15) -0.0056(14) 0.0199(15)
C19 0.047(2) 0.051(2) 0.0255(17) -0.0095(16) -0.0066(15) 0.0303(18)
C20 0.087(3) 0.044(2) 0.0240(18) 0.0003(16) 0.0019(19) 0.044(2)
C21 0.066(3) 0.030(2) 0.030(2) 0.0031(15) 0.0166(18) 0.0154(18)
O6 0.0701(19) 0.0290(14) 0.0404(15) -0.0073(11) -0.0083(13) 0.0123(13)
loop_
_atom_type_symbol
_atom_type_description
_atom_type_scat_dispersion_real
_atom_type_scat_dispersion_imag
_atom_type_scat_source
C C 0.0181 0.0091 'International Tables Vol C Tables 4.2.6.8 and 6.1.1.4'
H H 0.0000 0.0000 'International Tables Vol C Tables 4.2.6.8 and 6.1.1.4'
O O 0.0492 0.0322 'International Tables Vol C Tables 4.2.6.8 and 6.1.1.4'
loop_
_geom_angle_atom_site_label_1
_geom_angle_atom_site_label_2
_geom_angle_atom_site_label_3
_geom_angle
H1A C1 H1B 109.5
H1A C1 H1C 109.5
H1B C1 H1C 109.5
C2 C1 H1A 109.5
C2 C1 H1B 109.5
C2 C1 H1C 109.5
C2 O1 H1 106.9
C1 C2 H2 107.6
C1 C2 C3 113.6(3)
O1 C2 C1 110.1(3)
O1 C2 H2 107.6
O1 C2 C3 110.0(2)
C3 C2 H2 107.6
C3 O2 H2A 107.5
C2 C3 C4 110.6(2)
C2 C3 C7 116.0(2)
O2 C3 C2 106.1(2)
O2 C3 C4 110.1(2)
O2 C3 C7 109.9(2)
C4 C3 C7 104.1(2)
C6 O3 H3 107.9
C3 C4 H4A 110.1
C3 C4 H4B 110.1
H4A C4 H4B 108.4
C5 C4 C3 108.1(2)
C5 C4 H4A 110.1
C5 C4 H4B 110.1
C9 O4 H4 110.6
C4 C5 H5A 110.8
C4 C5 H5B 110.8
H5A C5 H5B 108.9
C6 C5 C4 104.5(2)
C6 C5 H5A 110.8
C6 C5 H5B 110.8
C20 O5 H5 120.2
O3 C6 C5 108.5(2)
O3 C6 C7 105.9(2)
O3 C6 C12 108.1(2)
C5 C6 C7 103.5(2)
C5 C6 C12 115.8(2)
C12 C6 C7 114.4(2)
C6 C7 C3 101.0(2)
C8 C7 C3 113.5(2)
C8 C7 C6 112.5(2)
C8 C7 C9 110.2(2)
C9 C7 C3 111.6(2)
C9 C7 C6 107.7(2)
C7 C8 H8A 109.5
C7 C8 H8B 109.5
C7 C8 H8C 109.5
H8A C8 H8B 109.5
H8A C8 H8C 109.5
H8B C8 H8C 109.5
O4 C9 C7 112.8(3)
O4 C9 H9 108.6
O4 C9 C10 105.4(2)
C7 C9 H9 108.6
C10 C9 C7 112.7(3)
C10 C9 H9 108.6
C9 C10 H10A 108.7
C9 C10 H10B 108.7
C9 C10 C11 114.1(2)
H10A C10 H10B 107.6
C11 C10 H10A 108.7
C11 C10 H10B 108.7
C10 C11 H11 106.8
C10 C11 C12 109.5(2)
C10 C11 C16 113.5(2)
C12 C11 H11 106.8
C12 C11 C16 112.9(2)
C16 C11 H11 106.8
C6 C12 C11 111.5(2)
C6 C12 H12 107.0
C11 C12 H12 107.0
C13 C12 C6 112.2(2)
C13 C12 C11 111.7(3)
C13 C12 H12 107.0
C12 C13 H13A 109.3
C12 C13 H13B 109.3
C12 C13 C14 111.6(3)
H13A C13 H13B 108.0
C14 C13 H13A 109.3
C14 C13 H13B 109.3
C13 C14 H14A 109.6
C13 C14 H14B 109.6
C13 C14 C15 110.3(3)
H14A C14 H14B 108.1
C15 C14 H14A 109.6
C15 C14 H14B 109.6
C14 C15 H15 106.1
C14 C15 C16 111.7(3)
C16 C15 H15 106.1
C21 C15 C14 112.8(3)
C21 C15 H15 106.1
C21 C15 C16 113.4(3)
C15 C16 C11 107.8(2)
C17 C16 C11 110.9(3)
C17 C16 C15 111.5(3)
C17 C16 C18 109.5(3)
C18 C16 C11 109.5(2)
C18 C16 C15 107.6(3)
C16 C17 H17A 109.5
C16 C17 H17B 109.5
C16 C17 H17C 109.5
H17A C17 H17B 109.5
H17A C17 H17C 109.5
H17B C17 H17C 109.5
C16 C18 H18A 109.0
C16 C18 H18B 109.0
H18A C18 H18B 107.8
C19 C18 C16 112.9(3)
C19 C18 H18A 109.0
C19 C18 H18B 109.0
C18 C19 H19A 109.4
C18 C19 H19B 109.4
H19A C19 H19B 108.0
C20 C19 C18 111.2(3)
C20 C19 H19A 109.4
C20 C19 H19B 109.4
O5 C20 C19 111.5(3)
O5 C20 H20 108.0
O5 C20 C21 109.7(4)
C19 C20 H20 108.0
C19 C20 C21 111.5(3)
C21 C20 H20 108.0
C15 C21 C20 110.5(3)
C15 C21 H21A 109.5
C15 C21 H21B 109.5
C20 C21 H21A 109.5
C20 C21 H21B 109.5
H21A C21 H21B 108.1
H6B O6 H6A 125.0
loop_
_geom_bond_atom_site_label_1
_geom_bond_atom_site_label_2
_geom_bond_distance
C1 H1A 0.9800
C1 H1B 0.9800
C1 H1C 0.9800
C1 C2 1.520(4)
O1 C2 1.438(4)
O1 H1 0.8499
C2 H2 1.0000
C2 C3 1.527(4)
O2 C3 1.439(3)
O2 H2A 0.8641
C3 C4 1.541(5)
C3 C7 1.585(4)
O3 C6 1.450(3)
O3 H3 0.8375
C4 H4A 0.9900
C4 H4B 0.9900
C4 C5 1.535(4)
O4 C9 1.434(4)
O4 H4 0.8085
C5 H5A 0.9900
C5 H5B 0.9900
C5 C6 1.533(4)
O5 C20 1.429(4)
O5 H5 0.8259
C6 C7 1.556(4)
C6 C12 1.535(4)
C7 C8 1.528(4)
C7 C9 1.556(4)
C8 H8A 0.9800
C8 H8B 0.9800
C8 H8C 0.9800
C9 H9 1.0000
C9 C10 1.516(4)
C10 H10A 0.9900
C10 H10B 0.9900
C10 C11 1.523(4)
C11 H11 1.0000
C11 C12 1.544(4)
C11 C16 1.561(4)
C12 H12 1.0000
C12 C13 1.523(5)
C13 H13A 0.9900
C13 H13B 0.9900
C13 C14 1.527(5)
C14 H14A 0.9900
C14 H14B 0.9900
C14 C15 1.530(5)
C15 H15 1.0000
C15 C16 1.546(5)
C15 C21 1.522(5)
C16 C17 1.539(5)
C16 C18 1.542(4)
C17 H17A 0.9800
C17 H17B 0.9800
C17 H17C 0.9800
C18 H18A 0.9900
C18 H18B 0.9900
C18 C19 1.537(5)
C19 H19A 0.9900
C19 H19B 0.9900
C19 C20 1.506(6)
C20 H20 1.0000
C20 C21 1.523(6)
C21 H21A 0.9900
C21 H21B 0.9900
O6 H6B 0.9778
O6 H6A 1.0656
loop_
_geom_torsion_atom_site_label_1
_geom_torsion_atom_site_label_2
_geom_torsion_atom_site_label_3
_geom_torsion_atom_site_label_4
_geom_torsion
C1 C2 C3 O2 53.1(3)
C1 C2 C3 C4 -66.4(3)
C1 C2 C3 C7 175.5(3)
O1 C2 C3 O2 -70.8(3)
O1 C2 C3 C4 169.7(2)
O1 C2 C3 C7 51.6(3)
C2 C3 C4 C5 -138.2(2)
C2 C3 C7 C6 156.0(2)
C2 C3 C7 C8 -83.4(3)
C2 C3 C7 C9 41.8(3)
O2 C3 C4 C5 104.8(3)
O2 C3 C7 C6 -83.7(3)
O2 C3 C7 C8 37.0(4)
O2 C3 C7 C9 162.2(2)
C3 C4 C5 C6 -14.0(3)
C3 C7 C9 O4 -78.0(3)
C3 C7 C9 C10 162.8(3)
O3 C6 C7 C3 70.6(2)
O3 C6 C7 C8 -50.8(3)
O3 C6 C7 C9 -172.3(2)
O3 C6 C12 C11 173.0(2)
O3 C6 C12 C13 -60.9(3)
C4 C3 C7 C6 34.3(3)
C4 C3 C7 C8 154.9(3)
C4 C3 C7 C9 -79.9(3)
C4 C5 C6 O3 -76.1(3)
C4 C5 C6 C7 36.1(3)
C4 C5 C6 C12 162.2(2)
O4 C9 C10 C11 180.0(2)
C5 C6 C7 C3 -43.5(3)
C5 C6 C7 C8 -164.8(2)
C5 C6 C7 C9 73.6(3)
C5 C6 C12 C11 -65.1(3)
C5 C6 C12 C13 61.0(3)
O5 C20 C21 C15 -179.5(3)
C6 C7 C9 O4 172.0(2)
C6 C7 C9 C10 52.8(3)
C6 C12 C13 C14 -179.4(3)
C7 C3 C4 C5 -13.0(3)
C7 C6 C12 C11 55.2(3)
C7 C6 C12 C13 -178.6(3)
C7 C9 C10 C11 -56.6(3)
C8 C7 C9 O4 49.0(3)
C8 C7 C9 C10 -70.2(3)
C9 C10 C11 C12 54.7(3)
C9 C10 C11 C16 -178.2(2)
C10 C11 C12 C6 -52.8(3)
C10 C11 C12 C13 -179.3(3)
C10 C11 C16 C15 -179.8(3)
C10 C11 C16 C17 -57.5(3)
C10 C11 C16 C18 63.5(3)
C11 C12 C13 C14 -53.3(4)
C11 C16 C18 C19 171.2(3)
C12 C6 C7 C3 -170.5(2)
C12 C6 C7 C8 68.2(3)
C12 C6 C7 C9 -53.4(3)
C12 C11 C16 C15 -54.4(3)
C12 C11 C16 C17 67.9(3)
C12 C11 C16 C18 -171.1(2)
C12 C13 C14 C15 56.8(4)
C13 C14 C15 C16 -60.3(4)
C13 C14 C15 C21 170.5(3)
C14 C15 C16 C11 58.1(3)
C14 C15 C16 C17 -63.9(3)
C14 C15 C16 C18 176.0(3)
C14 C15 C21 C20 -175.1(3)
C15 C16 C18 C19 54.4(4)
C16 C11 C12 C6 179.7(3)
C16 C11 C12 C13 53.2(3)
C16 C15 C21 C20 56.7(4)
C16 C18 C19 C20 -56.3(4)
C17 C16 C18 C19 -67.0(4)
C18 C19 C20 O5 178.4(3)
C18 C19 C20 C21 55.4(4)
C19 C20 C21 C15 -55.5(4)
C21 C15 C16 C11 -173.2(3)
C21 C15 C16 C17 64.9(4)
C21 C15 C16 C18 -55.2(4)
