#------------------------------------------------------------------------------
#$Date: 2015-09-04 21:00:33 +0300 (Fri, 04 Sep 2015) $
#$Revision: 154248 $
#$URL: svn://www.crystallography.net/cod/cif/4/12/43/4124351.cif $
#------------------------------------------------------------------------------
#
# This file is available in the Crystallography Open Database (COD),
# http://www.crystallography.net/
#
# All data on this site have been placed in the public domain by the
# contributors.
#
data_4124351
loop_
_publ_author_name
'Hinz, Alexander'
'Schulz, Axel'
'Villinger, Alexander'
_publ_section_title
;
 Tunable Cyclopentane-1,3-diyls Generated by Insertion of Isonitriles into
 Diphosphadiazanediyls.
;
_journal_issue                   31
_journal_name_full               'Journal of the American Chemical Society'
_journal_page_first              9953
_journal_page_last               9962
_journal_paper_doi               10.1021/jacs.5b05596
_journal_volume                  137
_journal_year                    2015
_chemical_formula_moiety         'C19 H18 N2'
_chemical_formula_sum            'C19 H18 N2'
_chemical_formula_weight         274.35
_chemical_name_systematic
;
 ?
;
_space_group_crystal_system      tetragonal
_space_group_IT_number           113
_space_group_name_Hall           'P -4 2ab'
_space_group_name_H-M_alt        'P -4 21 m'
_symmetry_space_group_name_Hall  'P -4 2ab'
_symmetry_space_group_name_H-M   'P -4 21 m'
_atom_sites_solution_hydrogens   geom
_audit_creation_method           SHELXL-2013
_cell_angle_alpha                90
_cell_angle_beta                 90
_cell_angle_gamma                90
_cell_formula_units_Z            2
_cell_length_a                   13.3318(7)
_cell_length_b                   13.3318(7)
_cell_length_c                   4.3442(3)
_cell_measurement_reflns_used    1663
_cell_measurement_temperature    173(2)
_cell_measurement_theta_max      26.77
_cell_measurement_theta_min      3.06
_cell_volume                     772.12(8)
_computing_cell_refinement       'Bruker Apex V7.51A'
_computing_data_collection       'Bruker Apex V7.51A'
_computing_data_reduction        'Bruker SAINT'
_computing_molecular_graphics    'ORTEP-3v2.01 (Farrugia, 1997)'
_computing_publication_material  SHELXL-2013
_computing_structure_refinement  'SHELXL-2013 (Sheldrick, 2013)'
_computing_structure_solution    'SHELXS-2013 (Sheldrick, 2013)'
_diffrn_ambient_temperature      173(2)
_diffrn_measured_fraction_theta_full 0.998
_diffrn_measured_fraction_theta_max 0.997
_diffrn_measurement_device_type  'Bruker Apex Kappa II-CCD-diffractometer'
_diffrn_measurement_method       'phi and omega scans'
_diffrn_radiation_monochromator  graphite
_diffrn_radiation_source         'sealed tube'
_diffrn_radiation_type           MoK\a
_diffrn_radiation_wavelength     0.71073
_diffrn_reflns_av_R_equivalents  0.0299
_diffrn_reflns_av_unetI/netI     0.0274
_diffrn_reflns_laue_measured_fraction_full 0.998
_diffrn_reflns_laue_measured_fraction_max 0.997
_diffrn_reflns_limit_h_max       16
_diffrn_reflns_limit_h_min       -18
_diffrn_reflns_limit_k_max       18
_diffrn_reflns_limit_k_min       -17
_diffrn_reflns_limit_l_max       6
_diffrn_reflns_limit_l_min       -6
_diffrn_reflns_number            6875
_diffrn_reflns_point_group_measured_fraction_full 0.999
_diffrn_reflns_point_group_measured_fraction_max 0.998
_diffrn_reflns_theta_full        25.242
_diffrn_reflns_theta_max         29.991
_diffrn_reflns_theta_min         3.056
_exptl_absorpt_coefficient_mu    0.070
_exptl_absorpt_correction_T_max  0.7461
_exptl_absorpt_correction_T_min  0.6927
_exptl_absorpt_correction_type   multi-scan
_exptl_absorpt_process_details   '(SADABS; Sheldrick, 2004)'
_exptl_crystal_colour            colourless
_exptl_crystal_density_diffrn    1.180
_exptl_crystal_description       rod
_exptl_crystal_F_000             292
_exptl_crystal_size_max          0.410
_exptl_crystal_size_mid          0.080
_exptl_crystal_size_min          0.060
_refine_diff_density_max         0.129
_refine_diff_density_min         -0.139
_refine_diff_density_rms         0.029
_refine_ls_abs_structure_details
;
 Flack x determined using 329 quotients [(I+)-(I-)]/[(I+)+(I-)]
 (Parsons and Flack (2004), Acta Cryst. A60, s61).
;
_refine_ls_abs_structure_Flack   -0.5(10)
_refine_ls_extinction_method     none
_refine_ls_goodness_of_fit_ref   1.048
_refine_ls_hydrogen_treatment    constr
_refine_ls_matrix_type           full
_refine_ls_number_parameters     57
_refine_ls_number_reflns         1190
_refine_ls_number_restraints     0
_refine_ls_restrained_S_all      1.048
_refine_ls_R_factor_all          0.0568
_refine_ls_R_factor_gt           0.0385
_refine_ls_shift/su_max          0.000
_refine_ls_shift/su_mean         0.000
_refine_ls_structure_factor_coef Fsqd
_refine_ls_weighting_details
'w=1/[\s^2^(Fo^2^)+(0.0404P)^2^+0.0749P] where P=(Fo^2^+2Fc^2^)/3'
_refine_ls_weighting_scheme      calc
_refine_ls_wR_factor_gt          0.0847
_refine_ls_wR_factor_ref         0.0956
_reflns_Friedel_coverage         0.681
_reflns_friedel_fraction_full    1.000
_reflns_friedel_fraction_max     1.000
_reflns_number_gt                926
_reflns_number_total             1190
_reflns_threshold_expression     'I > 2\s(I)'
_cod_data_source_file            ja5b05596_si_001.cif
_cod_data_source_block           ah202a
_cod_original_cell_volume        772.12(10)
_cod_database_code               4124351
_shelx_space_group_comment
;
The symmetry employed for this shelxl refinement is uniquely defined
by the following loop, which should always be used as a source of
symmetry information in preference to the above space-group names.
They are only intended as comments.
;
_shelx_estimated_absorpt_t_min   0.972
_shelx_estimated_absorpt_t_max   0.996
_shelxl_version_number           2013-4
_shelx_res_file
;
TITL a1 in P-42(1)m
CELL 0.71073 13.3318 13.3318 4.3442 90.000 90.000 90.000
ZERR 2.00 0.0007 0.0007 0.0003 0.000 0.000 0.000
LATT -1
SYMM y, -x, -z
SYMM -y, x, -z
SYMM x+1/2, -y+1/2, -z
SYMM -x+1/2, y+1/2, -z
SYMM -x, -y, z
SYMM -y+1/2, -x+1/2, z
SYMM y+1/2, x+1/2, z
SFAC C H N
UNIT 38 36 4
LIST 4
TEMP -99.960
SIZE 0.060 0.080 0.410
OMIT -3 60
OMIT     1   1   0
ACTA
L.S. 8
FMAP 2
PLAN 10
BOND $H
CONF
WGHT    0.040400    0.074900
FVAR       0.55736
N1    3    0.256842    0.756842    0.054021    10.50000    0.04107    0.04107 =
         0.03599    0.00118    0.00118   -0.00748
C1    1    0.316854    0.816854    0.246362    10.50000    0.03635    0.03635 =
         0.02681    0.00311    0.00311   -0.00967
C2    1    0.280294    0.910140    0.336371    11.00000    0.03477    0.04037 =
         0.03013    0.00415    0.00521   -0.00437
C3    1    0.340726    0.967354    0.528062    11.00000    0.04093    0.03700 =
         0.03103   -0.00092    0.00900   -0.00571
AFIX  43
H3    2    0.317655    1.031257    0.594015    11.00000   -1.20000
AFIX   0
C4    1    0.433864    0.933864    0.626074    10.50000    0.04134    0.04134 =
         0.02376    0.00496    0.00496   -0.01110
C7    1    0.207468    0.707468   -0.104335    10.50000    0.05405    0.05405 =
         0.05649   -0.00442   -0.00442   -0.01090
C6    1    0.500000    1.000000    0.825321    10.25000    0.04961    0.04961 =
         0.02545    0.00000    0.00000   -0.01287
AFIX  23
H6A   2    0.542508    0.957491    0.959103    10.25000   -1.20000
H6B   2    0.457491    1.042508    0.959103    10.25000   -1.20000
AFIX   0
C8    1    0.179467    0.947217    0.228001    11.00000    0.03917    0.05388 =
         0.05147   -0.00034    0.00156    0.00111
AFIX 137
H8A   2    0.177243    0.945934    0.002551    11.00000   -1.50000
H8B   2    0.169015    1.016034    0.300526    11.00000   -1.50000
H8C   2    0.126602    0.903784    0.310483    11.00000   -1.50000
REM #####
AFIX   0
HKLF 4 1 1 0 0 0 1 0 0 0 1

REM  a1 in P-42(1)m
REM R1 =  0.0385 for     926 Fo > 4sig(Fo)  and  0.0568 for all    1190 data
REM     57 parameters refined using      0 restraints

END

WGHT      0.0404      0.0749

REM Highest difference peak  0.129,  deepest hole -0.139,  1-sigma level  0.029
Q1    1   0.3133  0.8735  0.2528  11.00000  0.05    0.13
Q2    1   0.3187  0.9340  0.4262  11.00000  0.05    0.11
Q3    1   0.4667  0.9666  0.7052  10.50000  0.05    0.11
Q4    1   0.4199  1.0801  0.9511  10.50000  0.05    0.10
Q5    1   0.4982  1.0584  1.2038  11.00000  0.05    0.09
Q6    1   0.1467  0.9625  0.3941  11.00000  0.05    0.09
Q7    1   0.3047  0.9910  0.9586  11.00000  0.05    0.09
Q8    1   0.3025  1.1132  0.4963  11.00000  0.05    0.09
Q9    1   0.1569  0.8500 -0.0239  11.00000  0.05    0.09
Q10   1   0.1802  0.6802 -0.3568  10.50000  0.05    0.09
;
_shelx_res_checksum              97507
_shelx_hkl_file
;
   0  -1   0   -0.24    0.02
   0   1   0   -0.23    0.04
   0   1   0   -0.26    0.01
   1   0   0   -0.26    0.02
   1   0   0   -0.23    0.01
   0  -1   0   -0.24    0.05
   0  -1   0   -0.24    0.03
  -1   0   0   -0.24    0.02
  -1   0   0   -0.23    0.03
   1   1   0   -0.06    0.03
  -1   1   0    0.00    0.08
   1   1   0   -0.03    0.05
   1   1   0   -0.04    0.05
   1  -1   0    0.09    0.09
   1  -1   0   -0.05    0.04
  -1  -1   0   -0.08    0.05
  -1  -1   0    0.02    0.05
  -1  -1   0   -0.04    0.04
  -1   1   0   -0.10    0.05
   2   1   0  743.83   11.89
  -2  -1   0  730.40   11.83
  -1   2   0  743.23   11.74
  -1   2   0  738.45   11.84
   1  -2   0  757.18   11.73
   1  -2   0  752.22   11.86
  -2  -1   0  744.86   11.22
  -2  -1   0  766.67   11.89
   0   2   0  154.15    2.80
   0   2   0  152.64    2.67
   2   0   0  155.69    2.70
  -2   0   0  158.03    2.70
  -2   0   0  160.99    2.69
   0  -2   0  153.80    2.55
   0  -2   0  154.73    2.68
   2  -1   0  745.85   11.66
   1   2   0  720.28   11.76
   2  -1   0  745.27   11.80
  -1  -2   0  741.44   11.83
   1   2   0  729.35   11.82
  -2   1   0  762.65   11.80
  -1  -2   0  752.50   11.77
  -1  -2   0  748.26   11.18
  -2   1   0  737.78   11.67
   2   2   0   16.24    0.49
   2  -2   0   16.22    0.67
  -2  -2   0   16.59    0.59
   2   2   0   16.44    0.55
   2   2   0   16.02    0.59
   2  -2   0   16.54    0.56
  -2   2   0   15.35    0.54
  -2  -2   0   16.54    0.51
  -2  -2   0   16.28    0.54
  -2   2   0   15.42    0.65
  -3  -2   0    1.72    0.26
   2  -3   0    1.43    0.34
  -2   3   0    1.67    0.26
  -2   3   0    1.37    0.34
  -3  -2   0    1.62    0.27
  -3  -2   0    1.54    0.24
   3   2   0    1.47    0.25
   3   2   0    1.78    0.27
   2  -3   0    1.57    0.25
  -3  -1   0    3.93    0.36
   1  -3   0    3.87    0.44
   1  -3   0    4.72    0.38
  -3  -1   0    4.70    0.36
  -1   3   0    3.84    0.44
  -1   3   0    3.64    0.33
   1  -3   0    3.95    0.36
   3   1   0    4.05    0.38
   3   1   0    3.97    0.33
  -3   0   0    0.13    0.15
   0  -3   0    0.10    0.15
   3   0   0    0.68    0.19
  -3   0   0   -0.18    0.13
   0  -3   0   -0.08    0.20
   0  -3   0   -0.30    0.13
   0   3   0   -0.29    0.17
   0   3   0    0.16    0.14
   3  -1   0    4.30    0.48
   1   3   0    3.68    0.46
   3  -1   0    3.66    0.35
   1   3   0    3.83    0.34
  -1  -3   0    4.51    0.34
  -1  -3   0    3.93    0.34
  -3   1   0    3.64    0.34
  -1  -3   0    4.59    0.38
   3  -2   0    1.17    0.23
   2   3   0    1.41    0.22
  -2  -3   0    1.52    0.26
   3  -2   0    1.90    0.35
  -3   2   0    1.25    0.33
  -3   2   0    1.27    0.24
  -2  -3   0    1.52    0.24
   2   3   0    1.52    0.27
   2   3   0    1.43    0.24
   3   3   0  230.64    3.79
  -3   3   0  224.80    4.10
  -3  -3   0  230.89    4.11
   3  -3   0  231.54    4.15
  -3  -3   0  224.97    4.17
  -3   3   0  230.40    4.38
   3   3   0  229.83    4.11
  -3  -3   0  232.85    3.85
   3   3   0  232.96    4.20
  -3   4   0    0.26    0.19
  -3   4   0   -0.18    0.26
  -4  -3   0    0.26    0.21
  -4  -3   0    0.09    0.19
   3  -4   0    0.69    0.23
   4   3   0    0.05    0.22
  -4  -3   0    0.39    0.24
   4   3   0    0.49    0.23
  -4  -2   0  185.27    3.47
  -2   4   0  183.62    3.77
   4   2   0  191.53    3.49
  -4  -2   0  186.39    3.30
  -4  -2   0  188.82    3.53
   2  -4   0  189.94    3.51
   4   2   0  190.75    3.57
  -2   4   0  187.49    3.46
   4   1   0  361.03    6.26
   1  -4   0  367.37    6.28
  -4  -1   0  379.46    6.27
  -4  -1   0  376.85    6.32
   1  -4   0  367.99    6.00
  -1   4   0  368.60    6.25
  -1   4   0  367.16    6.51
   4   1   0  371.50    6.35
   1  -4   0  371.21    6.48
   0  -4   0  338.58    5.97
   4   0   0  335.36    5.81
  -4   0   0  331.45    5.76
   0  -4   0  338.73    5.75
  -4   0   0  342.28    5.76
   0   4   0  339.82    6.00
   0   4   0  332.37    5.73
   0  -4   0  340.97    5.49
  -4   1   0  358.85    6.24
   4  -1   0  370.55    6.28
  -1  -4   0  365.08    5.92
   1   4   0  367.63    6.50
  -1  -4   0  366.64    6.23
  -1  -4   0  374.90    6.32
   1   4   0  369.76    6.21
  -2  -4   0  189.63    3.48
   2   4   0  186.05    3.82
  -4   2   0  189.42    3.50
  -4   2   0  188.80    3.78
  -2  -4   0  188.41    3.34
  -2  -4   0  189.84    3.56
   2   4   0  189.42    3.47
   4  -2   0  185.45    3.51
   2   4   0  184.79    3.56
  -4   3   0    0.14    0.19
   3   4   0    0.24    0.19
   3   4   0    0.14    0.18
  -3  -4   0    0.18    0.20
  -3  -4   0   -0.31    0.17
   4  -3   0   -0.07    0.20
   3   4   0    0.35    0.23
  -4   3   0    0.08    0.30
  -4   4   0   -0.17    0.21
  -4  -4   0   -0.29    0.21
   4   4   0   -0.03    0.24
   4   4   0    0.16    0.20
  -4   4   0    0.14    0.32
  -4  -4   0   -0.14    0.20
   4   4   0   -0.19    0.18
   4  -4   0   -0.39    0.21
   5   4   0   13.69    0.73
   5   4   0   14.72    0.79
  -5  -4   0   13.35    0.71
  -5  -4   0   13.64    0.77
  -5  -4   0   13.75    0.70
  -4   5   0   12.75    0.70
   4  -5   0   14.14    0.76
  -4   5   0   13.94    0.93
   5   3   0  110.06    2.49
  -5  -3   0  112.76    2.49
  -3   5   0  111.36    2.39
  -5  -3   0  111.43    2.29
  -5  -3   0  107.54    2.38
   3  -5   0  111.69    2.44
  -3   5   0  108.32    2.77
   5   3   0  112.73    2.42
  -2   5   0    1.25    0.28
  -5  -2   0    2.01    0.35
   2  -5   0    1.77    0.33
   5   2   0    1.55    0.31
   5   2   0    1.15    0.30
  -5  -2   0    1.79    0.32
  -5  -2   0    0.66    0.26
   2  -5   0    2.12    0.33
  -2   5   0    0.95    0.39
  -5  -1   0   72.86    1.71
  -1   5   0   72.00    2.03
   1  -5   0   77.87    1.74
  -5  -1   0   73.77    1.76
   1  -5   0   75.82    1.76
   5   1   0   71.21    1.78
  -1   5   0   73.17    1.71
   5   1   0   72.59    1.74
   5   0   0   -0.05    0.19
   0  -5   0   -0.27    0.18
   0   5   0   -0.09    0.16
   0   5   0    0.39    0.31
  -5   0   0   -0.02    0.19
   0  -5   0    0.01    0.21
  -5   0   0   -0.05    0.18
  -1  -5   0   71.09    1.69
  -5   1   0   73.71    1.70
   1   5   0   71.79    2.01
  -5   1   0   70.07    1.70
   1   5   0   69.92    1.66
   5  -1   0   71.43    1.74
  -1  -5   0   70.54    1.75
  -1  -5   0   71.16    1.62
   5  -2   0    1.63    0.33
   2   5   0    1.93    0.33
  -2  -5   0    1.79    0.32
  -2  -5   0    1.16    0.31
  -5   2   0    1.52    0.32
   2   5   0    1.63    0.40
  -2  -5   0    0.99    0.28
  -3  -5   0  108.65    2.50
   5  -3   0  110.26    2.47
  -5   3   0  106.84    2.76
   3   5   0  110.91    2.18
   3   5   0  114.43    2.42
   3   5   0  109.54    2.50
  -3  -5   0  114.78    2.42
  -5   3   0  111.63    2.41
   3   5   0  113.36    2.86
   4   5   0   14.07    0.78
   4   5   0   13.44    0.61
   4   5   0   12.80    0.71
   5  -4   0   12.72    0.74
  -5   4   0   15.12    0.97
  -4  -5   0   14.36    0.74
  -5   4   0   13.84    0.72
  -4  -5   0   13.41    0.79
  -5   5   0   28.93    1.36
   5   5   0   26.66    0.88
  -5  -5   0   26.16    1.01
  -5  -5   0   25.14    1.08
   5   5   0   26.39    1.04
   5   5   0   26.79    1.12
   5  -5   0   26.61    1.08
  -6  -5   0   65.63    1.82
  -5   6   0   66.66    2.28
  -6  -5   0   65.46    1.72
   5  -6   0   64.32    1.90
   6   5   0   69.39    1.89
   6   5   0   66.14    1.95
   6   4   0    0.42    0.28
   6   4   0    0.65    0.29
  -6  -4   0    1.79    0.39
  -4   6   0    0.55    0.36
  -6  -4   0    0.41    0.27
   4  -6   0    0.56    0.29
  -6  -4   0    0.50    0.27
  -6  -3   0   42.60    1.32
  -6  -3   0   43.77    1.40
  -3   6   0   44.13    1.34
   3  -6   0   45.22    1.44
   3  -6   0   43.20    1.38
  -6  -3   0   41.93    1.30
  -3   6   0   43.47    1.69
   6   3   0   45.68    1.38
   6   3   0   42.08    1.41
   6   2   0  353.58    6.41
   6   2   0  357.31    6.32
  -2   6   0  357.53    6.26
  -6  -2   0  354.86    6.04
   2  -6   0  355.27    6.33
  -2   6   0  353.59    6.72
  -6  -2   0  344.61    6.25
  -6  -2   0  348.46    6.32
   2  -6   0  351.46    6.08
  -6  -1   0  117.39    2.49
  -6  -1   0  113.72    2.53
   1  -6   0  114.31    2.46
  -1   6   0  113.84    2.47
  -1   6   0  113.68    2.90
   6   1   0  110.76    2.57
   1  -6   0  113.75    2.52
   0   6   0    0.75    0.26
  -6   0   0    0.35    0.25
  -6   0   0    0.03    0.24
   0   6   0    0.43    0.33
   6   0   0    0.31    0.26
   0  -6   0    0.14    0.24
   0  -6   0    0.38    0.26
   1   6   0  110.27    2.43
  -6   1   0  111.23    2.45
  -1  -6   0  111.83    2.36
   1   6   0  110.53    2.89
   6  -1   0  113.36    2.54
  -1  -6   0  113.74    2.56
  -1  -6   0  108.64    2.45
  -6   1   0  119.09    2.52
   6  -2   0  355.62    6.37
  -2  -6   0  360.07    6.01
   2   6   0  342.94    6.75
  -2  -6   0  349.85    6.42
  -6   2   0  351.49    6.30
  -2  -6   0  357.47    6.31
   2   6   0  356.93    6.27
  -3  -6   0   45.07    1.36
   6  -3   0   41.26    1.40
   3   6   0   46.12    1.37
   3   6   0   40.77    1.67
  -3  -6   0   43.79    1.44
  -4  -6   0    0.66    0.31
  -4  -6   0    1.05    0.31
  -6   4   0    0.29    0.37
   4   6   0    0.83    0.30
   6  -4   0    0.69    0.31
   4   6   0    1.07    0.45
   4   6   0    0.84    0.26
   4   6   0    1.29    0.36
   6  -5   0   63.58    1.88
  -6   5   0   63.23    2.20
   5   6   0   66.12    1.57
   5   6   0   66.57    1.96
  -5  -6   0   66.82    1.85
   5   6   0   69.89    1.87
  -6  -6   0  221.27    4.46
   6  -6   0  223.12    4.58
   6   6   0  225.66    4.51
  -6   6   0  216.77    5.02
   6   6   0  217.18    4.62
  -7  -6   0    0.02    0.32
   7   6   0    0.13    0.29
   6  -7   0    0.09    0.30
  -6   7   0    0.62    0.39
  -7  -5   0   28.64    1.16
  -7  -5   0   27.50    1.10
   7   5   0   25.21    1.15
  -5   7   0   27.12    1.49
   5  -7   0   27.82    1.24
   7   5   0   26.65    1.25
   4  -7   0   21.20    1.10
  -4   7   0   25.64    1.40
  -7  -4   0   23.45    1.02
   7   4   0   23.52    1.05
   7   4   0   24.44    1.13
  -7  -4   0   25.15    1.05
   4  -7   0   23.32    1.05
  -7  -3   0   33.18    1.22
   7   3   0   33.50    1.31
   3  -7   0   36.13    1.30
   3  -7   0   36.03    1.32
  -7  -3   0   34.97    1.25
  -3   7   0   36.27    1.62
   7   3   0   34.73    1.26
  -7  -2   0   40.72    1.36
  -2   7   0   43.75    1.73
   2  -7   0   42.02    1.39
   7   2   0   45.16    1.50
   2  -7   0   40.67    1.38
  -7  -2   0   39.98    1.31
   7   2   0   40.58    1.37
  -1   7   0   16.32    1.08
   1  -7   0   17.31    0.86
   1  -7   0   16.69    0.84
  -7  -1   0   17.00    0.84
  -1   7   0   16.30    0.81
   7   1   0   17.12    0.90
   0  -7   0    0.22    0.25
   0   7   0   -0.19    0.31
   0   7   0    0.24    0.24
  -7   0   0    0.58    0.26
   0  -7   0   -0.48    0.20
   7   0   0    0.12    0.26
  -1  -7   0   17.73    0.86
  -1  -7   0   18.25    0.86
  -7   1   0   17.06    0.85
   1   7   0   17.78    1.12
  -1  -7   0   19.14    0.94
   7  -1   0   17.21    0.89
   1   7   0   17.25    0.83
  -2  -7   0   41.58    1.37
   2   7   0   41.98    1.34
   7  -2   0   42.97    1.44
  -2  -7   0   41.30    1.31
  -2  -7   0   43.64    1.48
   2   7   0   42.24    1.74
  -7   2   0   41.42    1.35
   7  -3   0   33.17    1.27
  -3  -7   0   34.93    1.24
  -3  -7   0   33.88    1.33
   3   7   0   35.34    1.62
   3   7   0   35.42    1.25
  -3  -7   0   34.69    1.21
   4   7   0   22.90    0.87
   4   7   0   22.82    1.03
   4   7   0   23.05    1.36
   7  -4   0   22.82    1.08
  -4  -7   0   25.57    1.16
  -4  -7   0   24.08    1.04
   7  -5   0   27.33    1.20
   5   7   0   27.25    1.23
   5   7   0   26.56    1.48
  -7   5   0   25.11    1.44
  -5  -7   0   26.57    1.14
  -7   6   0    0.18    0.35
   6   7   0    0.39    0.33
  -6  -7   0    0.05    0.29
   7  -6   0   -0.20    0.29
  -7  -7   0  105.95    2.75
  -7   7   0  105.30    3.30
   7  -7   0  112.67    2.90
   7   7   0  106.84    2.91
   7  -8   0   82.76    2.49
  -7   8   0   78.54    2.89
   8   7   0   77.24    2.50
  -6   8   0   14.92    1.43
  -8  -6   0   12.83    0.90
   8   6   0   14.42    1.02
   6  -8   0   12.16    0.92
  -8  -5   0   50.13    1.64
   8   5   0   54.63    1.87
  -8  -5   0   50.60    1.69
  -5   8   0   50.33    2.13
   5  -8   0   49.87    1.75
   5  -8   0   51.25    1.83
   4  -8   0   13.74    0.87
   8   4   0   15.13    0.96
  -4   8   0   15.00    1.35
   8   4   0   14.17    0.87
   4  -8   0   15.54    0.96
  -8  -4   0   14.18    0.86
  -8  -4   0   13.88    0.86
   8   3   0    1.34    0.42
   3  -8   0    2.17    0.45
  -8  -3   0    3.14    0.50
   8   3   0    2.36    0.46
   3  -8   0    1.74    0.45
  -8  -3   0    2.53    0.43
  -3   8   0    2.79    0.66
  -8  -2   0    6.90    0.70
   2  -8   0    6.55    0.70
  -2   8   0    7.68    0.95
   8   2   0    7.93    0.77
   2  -8   0    7.48    0.71
  -8  -2   0    6.23    0.62
   8   1   0    0.36    0.28
  -1   8   0   -0.05    0.33
   1  -8   0    0.11    0.27
   1  -8   0    0.24    0.27
  -8  -1   0    0.13    0.27
   0  -8   0  185.26    3.69
   0   8   0  181.78    4.40
  -8   0   0  184.93    3.80
   0  -8   0  181.67    3.85
   8   0   0  186.65    3.96
  -1  -8   0   -0.35    0.26
  -1  -8   0   -0.05    0.26
   8  -1   0   -0.20    0.25
  -8   1   0   -0.25    0.26
   1   8   0    0.16    0.33
  -1  -8   0   -0.04    0.23
  -2  -8   0    6.54    0.63
   8  -2   0    6.52    0.68
  -2  -8   0    6.24    0.64
  -2  -8   0    9.11    0.82
   2   8   0    7.51    0.94
  -8   2   0    6.64    0.65
  -3  -8   0    2.43    0.44
   3   8   0    1.58    0.58
   8  -3   0    2.86    0.48
  -3  -8   0    2.42    0.44
  -8   3   0    3.43    0.49
  -4  -8   0   15.96    0.92
   8  -4   0   15.62    0.93
   4   8   0   13.15    1.28
   5   8   0   49.50    2.20
   8  -5   0   54.13    1.86
  -5  -8   0   49.58    1.69
   6   8   0   12.76    0.96
  -6  -8   0   13.35    0.90
   6   8   0   10.17    1.21
   8  -6   0   11.54    1.00
  -8   6   0   13.53    1.35
   7   8   0   76.62    2.45
   8  -7   0   76.63    2.41
  -8   7   0   77.59    2.85
  -8   8   0  120.42    3.79
  -8   9   0    2.44    0.76
  -7   9   0    5.81    1.03
  -9  -6   0   12.25    0.99
   9   6   0   11.36    1.06
  -6   9   0   10.81    1.30
   6  -9   0   10.69    1.02
   6  -9   0   11.36    1.10
   5  -9   0    1.65    0.48
   9   5   0    0.89    0.45
  -9  -5   0    1.65    0.46
  -5   9   0    1.71    0.61
  -9  -5   0    1.24    0.44
   5  -9   0    1.66    0.52
  -9  -4   0    5.82    0.67
  -4   9   0    7.52    1.04
   4  -9   0    5.63    0.70
   9   4   0    6.00    0.75
  -9  -4   0    6.61    0.74
   4  -9   0    7.00    0.79
  -9  -3   0    5.89    0.66
  -9  -3   0    6.73    0.74
   3  -9   0    6.13    0.71
  -3   9   0    7.71    1.04
   9   3   0    7.39    0.77
   9   3   0    8.34    0.85
   3  -9   0    5.65    0.71
   9   2   0    2.33    0.50
   2  -9   0    1.43    0.39
  -2   9   0    2.57    0.67
  -9  -2   0    2.37    0.50
  -9  -2   0    2.22    0.46
   2  -9   0    2.26    0.47
  -1   9   0    4.33    0.76
   1  -9   0    3.30    0.54
  -9  -1   0    4.35    0.56
   9   1   0    3.88    0.59
   1  -9   0    3.12    0.53
   0  -9   0    0.15    0.28
   0   9   0   -0.03    0.32
   0  -9   0    0.24    0.27
   9   0   0    0.09    0.29
   0  -9   0    0.06    0.31
  -9   0   0    0.03    0.26
  -9   1   0    3.63    0.53
   9  -1   0    3.91    0.58
  -1  -9   0    3.13    0.50
   1   9   0    3.59    0.71
  -1  -9   0    3.00    0.50
  -2  -9   0    2.92    0.49
  -9   2   0    3.47    0.54
  -2  -9   0    2.41    0.46
   9  -2   0    2.36    0.50
   2   9   0    1.49    0.56
  -9   3   0    7.62    0.74
  -3  -9   0    8.06    0.74
   9  -3   0    6.46    0.74
  -3  -9   0    8.24    0.79
   3   9   0    8.31    1.05
  -4  -9   0    6.14    0.70
   9  -4   0    6.17    0.75
  -9   4   0    6.65    0.72
   4   9   0    6.62    1.00
   5   9   0    2.53    0.73
  -5  -9   0    1.61    0.44
   9  -5   0    0.39    0.36
   6   9   0   12.10    1.43
   9  -6   0   13.18    1.01
   7   9   0    5.64    1.07
  -9   7   0    4.96    0.97
  -9   8   0    2.18    0.73
   8   9   0    3.24    0.88
  -9   9   0    7.11    1.17
  -9  10   0    3.34    0.85
   8 -10   0   -0.05    0.45
  -8  10   0    0.17    0.55
  -7  10   0   14.23    1.59
   7 -10   0   18.08    1.47
  -6  10   0    0.58    0.58
   6 -10   0    0.04    0.40
 -10  -6   0    0.90    0.45
   5 -10   0   -0.12    0.33
 -10  -5   0    0.42    0.39
  -5  10   0   -0.25    0.37
   4 -10   0   -0.25    0.29
  10   4   0    0.11    0.34
   4 -10   0    0.63    0.39
  -4  10   0   -0.13    0.41
 -10  -4   0   -0.46    0.28
 -10  -3   0   14.67    0.95
  10   3   0   14.82    1.05
 -10  -3   0   14.39    0.97
  -3  10   0   13.81    1.45
   3 -10   0   13.76    0.96
   3 -10   0   14.89    1.03
 -10  -2   0    0.02    0.34
  10   2   0    0.26    0.34
   2 -10   0    0.34    0.33
  -2  10   0   -0.12    0.38
 -10  -2   0    0.34    0.36
   2 -10   0   -0.07    0.30
   1 -10   0    2.10    0.47
  -1  10   0    1.31    0.57
  10   1   0    1.63    0.47
   1 -10   0    0.72    0.39
 -10  -1   0    1.20    0.40
   0 -10   0    4.91    0.66
 -10   0   0    5.39    0.66
   0  10   0    3.42    0.77
   0 -10   0    3.24    0.53
  10   0   0    4.95    0.71
 -10   1   0    1.83    0.46
  -1 -10   0    1.96    0.42
  10  -1   0    1.62    0.47
  -1 -10   0    1.71    0.44
   1  10   0    1.11    0.57
  10  -2   0    0.32    0.33
 -10   2   0    0.31    0.35
  -2 -10   0   -0.24    0.26
  -2 -10   0    0.11    0.32
   2  10   0   -0.08    0.39
  -3 -10   0   15.60    0.99
  10  -3   0   14.42    1.02
 -10   3   0   15.39    0.95
   3  10   0   16.68    1.57
  -3 -10   0   15.59    0.94
  10  -4   0    0.07    0.35
   4  10   0   -0.40    0.36
   5  10   0    0.32    0.45
  10  -5   0   -0.06    0.35
   6  10   0    0.48    0.56
   7  10   0   12.30    1.53
   8  10   0   -0.20    0.57
 -10   8   0    0.05    0.47
   9  10   0    1.86    0.81
 -10   9   0    3.67    0.91
  10  10   0   21.37    2.16
 -10  10   0   24.85    2.20
 -10  11   0   14.18    1.72
  11  10   0   11.54    1.68
  10 -11   0   13.31    1.53
  -9  11   0    5.17    1.13
   9 -11   0    3.22    0.85
  -8  11   0    3.51    0.93
   8 -11   0    1.61    0.63
  -7  11   0   -0.15    0.56
   7 -11   0   -0.27    0.44
   6 -11   0   39.61    1.86
  -6  11   0   37.52    2.20
 -11  -6   0   37.59    1.67
 -11  -5   0   61.18    2.09
  -5  11   0   59.43    2.67
   5 -11   0   53.15    2.10
   4 -11   0   13.72    1.22
 -11  -4   0   15.51    1.11
  -4  11   0   13.43    1.50
   3 -11   0   11.16    1.03
 -11  -3   0   10.99    1.06
  -3  11   0   11.70    1.40
  -2  11   0    0.14    0.46
   2 -11   0   -0.29    0.37
 -11  -2   0    0.12    0.44
   1 -11   0    5.77    0.75
  -1  11   0    7.27    1.08
  11   1   0    6.33    0.84
 -11  -1   0    6.27    0.83
  11   0   0    0.05    0.37
   0 -11   0   -0.19    0.32
   0  11   0    0.63    0.53
   1  11   0    6.20    1.02
  11  -1   0    5.62    0.80
  -1 -11   0    6.13    0.71
  -2 -11   0    0.35    0.34
   2  11   0    0.09    0.46
   3  11   0   10.05    1.33
  -3 -11   0    9.69    0.91
   4  11   0   13.80    1.54
   5  11   0   54.27    2.60
   6  11   0   34.97    2.17
   7  11   0    0.44    0.54
   8  11   0    0.08    0.53
   9  11   0    3.10    0.95
  10  11   0   11.13    1.71
 -11  10   0   13.90    1.72
  11 -11   0    1.01    0.69
 -11  11   0    1.74    0.88
  11  11   0    0.93    0.84
  11 -12   0    1.22    0.81
  12  11   0    2.61    1.13
 -11  12   0    3.18    1.04
 -10  12   0    6.55    1.32
  10 -12   0    3.03    0.89
   9 -12   0    0.16    0.53
  -9  12   0    0.14    0.63
  -8  12   0    2.47    0.90
   8 -12   0    4.19    0.89
   7 -12   0    0.21    0.52
  -7  12   0    1.97    0.83
   6 -12   0    5.31    0.91
  -6  12   0    5.73    1.16
 -12  -6   0    6.27    0.90
   5 -12   0   54.25    2.18
 -12  -5   0   48.60    1.98
  -5  12   0   43.23    2.42
   4 -12   0   53.31    2.12
 -12  -4   0   53.69    2.06
  -4  12   0   56.91    2.68
 -12  -3   0   27.03    1.47
   3 -12   0   26.60    1.41
  -3  12   0   24.07    1.78
  -2  12   0    4.03    0.93
 -12  -2   0    4.31    0.75
   2 -12   0    2.69    0.59
   1 -12   0    1.77    0.50
  -1  12   0    2.52    0.80
 -12  -1   0    1.74    0.58
   0 -12   0    9.46    0.93
   0  12   0   10.62    1.36
   1  12   0    0.86    0.61
  -1 -12   0    2.31    0.54
  -2 -12   0    3.37    0.63
   2  12   0    1.45    0.66
   3  12   0   23.29    1.75
   4  12   0   47.94    2.53
   5  12   0   43.59    2.41
   6  12   0    7.36    1.28
   7  12   0    1.02    0.66
   8  12   0    3.91    1.05
   9  12   0   -0.78    0.56
  10  12   0    5.98    1.30
  11  12   0    2.38    0.99
  12 -12   0    1.49    0.83
  12  12   0    1.40    0.97
  12 -13   0   -0.01    0.68
  13  12   0    0.02    0.84
 -12  13   0    0.58    0.76
  13  11   0   -0.39    0.73
 -11  13   0    1.47    0.89
  11 -13   0    1.38    0.77
 -10  13   0    1.14    0.82
  10 -13   0    1.68    0.84
   9 -13   0    0.67    0.67
  -9  13   0    0.61    0.72
  -8  13   0    0.17    0.70
   8 -13   0    1.16    0.69
  -7  13   0    5.99    1.25
   7 -13   0    8.58    1.19
 -13  -6   0   31.16    1.67
   6 -13   0   31.74    1.81
  -6  13   0   29.47    2.11
 -13  -5   0    0.63    0.56
  -5  13   0    1.00    0.72
   5 -13   0    0.72    0.55
  -4  13   0   36.17    2.23
 -13  -4   0   37.81    1.81
   4 -13   0   34.49    1.74
  -3  13   0   27.10    1.95
 -13  -3   0   25.13    1.51
   3 -13   0   28.01    1.51
   2 -13   0    8.53    0.97
  -2  13   0    7.71    1.29
 -13  -2   0    6.43    0.98
  -1  13   0   11.00    1.48
 -13  -1   0   14.45    1.35
   1 -13   0   13.70    1.16
   0 -13   0    0.34    0.44
   0  13   0    0.05    0.59
   1  13   0   16.23    1.79
  -1 -13   0   14.20    1.04
   2  13   0    7.24    1.26
  -2 -13   0    7.41    0.87
   3  13   0   28.15    1.99
   4  13   0   40.12    2.37
   5  13   0    0.56    0.66
   6  13   0   29.11    2.13
   7  13   0    6.40    1.29
   8  13   0    0.21    0.61
   9  13   0    1.18    0.74
  10  13   0    1.81    0.97
  11  13   0    1.20    0.88
  12  13   0   -0.91    0.70
  13 -12   0    0.47    0.82
  13  13   0    0.99    1.00
  13 -13   0   -0.21    0.79
  13 -14   0    1.32    0.91
  14  13   0   -0.06    0.82
  14  12   0    0.33    0.84
  12 -14   0    0.12    0.83
 -12  14   0   -0.24    0.65
  11 -14   0   -0.27    0.78
 -11  14   0    2.54    1.05
  14  11   0   -0.31    0.77
  10 -14   0    6.49    1.22
 -10  14   0   10.47    1.65
  -9  14   0    4.90    1.25
   9 -14   0    3.80    1.01
   8 -14   0    0.92    0.70
  -8  14   0   -0.15    0.65
  -7  14   0    2.91    1.05
   7 -14   0    0.63    0.70
   6 -14   0    5.41    1.01
  -6  14   0    5.11    1.17
 -14  -5   0   14.06    1.38
   5 -14   0   15.61    1.46
  -5  14   0   14.63    1.80
 -14  -4   0   -0.11    0.51
  -4  14   0    0.30    0.63
   4 -14   0    1.31    0.62
   3 -14   0    2.23    0.66
 -14  -3   0    1.42    0.66
  -3  14   0    2.41    0.93
  -2  14   0    6.73    1.28
 -14  -2   0   10.68    1.24
 -14  -1   0    4.13    0.89
  -1  14   0    5.15    1.15
   0  14   0    3.15    0.95
 -14   0   0    3.41    0.82
   1  14   0    7.03    1.30
   2  14   0    9.05    1.39
   3  14   0    2.70    0.91
   4  14   0    0.43    0.64
   5  14   0   14.06    1.84
   6  14   0    6.98    1.36
   7  14   0    1.77    0.92
   8  14   0    0.01    0.69
   9  14   0    2.60    1.06
  10  14   0    5.43    1.39
  11  14   0    1.45    0.96
  14 -12   0   -0.78    0.67
  12  14   0   -0.41    0.83
  14 -13   0   -0.25    0.81
  13  14   0    0.68    0.86
 -12  15   0   -0.13    0.81
  15  11   0    0.09    0.81
 -11  15   0   -0.06    0.88
 -10  15   0   -0.36    0.67
  -9  15   0    0.71    0.88
  -8  15   0    0.08    0.74
  -7  15   0    0.63    0.88
  -6  15   0    0.23    0.76
  -5  15   0    0.43    0.75
 -15  -5   0    0.41    0.65
  -4  15   0    0.28    0.73
 -15  -4   0    0.74    0.67
  -3  15   0    4.47    1.16
 -15  -3   0    0.94    0.62
 -15  -2   0   -0.85    0.52
  -2  15   0    1.40    0.81
 -15  -1   0    0.12    0.52
  -1  15   0   -0.27    0.53
   0  15   0    0.52    0.71
 -15   0   0   -0.08    0.56
   1  15   0   -0.66    0.62
 -15   1   0   -0.67    0.50
   2  15   0    1.11    0.77
   3  15   0    1.00    0.73
   4  15   0    0.41    0.77
   5  15   0    0.98    0.76
   6  15   0    1.48    0.87
   7  15   0    1.66    0.92
   8  15   0    1.29    0.82
   9  15   0   -0.23    0.67
  10  15   0    0.85    0.91
  11  15   0   -0.63    0.73
 -10  16   0    1.37    0.96
  -9  16   0    0.46    0.82
  -8  16   0    1.67    0.94
  -7  16   0    0.78    0.85
  -6  16   0    0.09    0.73
  -5  16   0    0.69    0.87
  -4  16   0    0.00    0.73
 -16  -4   0    1.92    0.81
 -16  -3   0    2.60    0.88
  -3  16   0    4.71    1.19
  -2  16   0   -0.37    0.65
 -16  -2   0    0.65    0.66
  -1  16   0    2.75    0.99
 -16  -1   0    2.91    0.88
 -16   0   0   -0.63    0.55
   0  16   0   -0.61    0.65
   1  16   0    1.77    0.90
 -16   1   0    2.36    0.89
   2  16   0    1.31    0.79
   3  16   0    3.24    1.08
   4  16   0    0.87    0.81
   5  16   0   -0.12    0.75
   6  16   0   -0.14    0.75
   7  16   0    0.32    0.79
   8  16   0    1.03    0.82
   9  16   0    0.22    0.86
  10  16   0    0.58    0.92
  -9  17   0    0.00    0.86
  -8  17   0    0.22    0.94
  -7  17   0    1.48    0.97
  -6  17   0    1.03    0.83
  -5  17   0    0.84    0.84
  -4  17   0    2.27    1.06
  -3  17   0    1.86    0.99
 -17  -3   0    2.54    0.89
 -17  -2   0    0.79    0.73
  -2  17   0   -0.01    0.76
 -17  -1   0   -0.02    0.59
  -1  17   0   -0.02    0.77
 -17   0   0   -0.77    0.56
   0  17   0    0.07    0.70
 -17   1   0    0.03    0.69
   1  17   0    0.41    0.87
 -17   2   0   -0.93    0.54
   2  17   0    0.12    0.82
   3  17   0    2.22    1.05
   4  17   0    3.29    1.11
   5  17   0    0.48    0.86
   6  17   0    3.24    1.21
   7  17   0   -0.39    0.85
   8  17   0   -0.37    0.74
   9  17   0    0.47    0.94
  -6  18   0    0.57    1.04
  -5  18   0    0.72    0.91
  -4  18   0    0.26    0.87
  -3  18   0    3.28    1.20
 -18  -2   0    9.72    1.45
  -2  18   0    5.74    1.46
  -1  18   0    2.02    1.10
 -18  -1   0    0.66    0.73
   0  18   0    0.47    0.93
 -18   0   0   -0.12    0.69
   1  18   0    0.87    0.92
 -18   1   0    0.20    0.66
   2  18   0    9.29    1.74
 -18   2   0    8.03    1.38
   3  18   0    1.55    1.09
 -18   3   0    3.03    1.00
 -18   4   0   -0.22    0.72
   4  18   0   -0.38    0.81
   5  18   0    1.03    0.95
   6  18   0   -0.23    0.83
  -3  19   0    4.30    1.44
  -2  19   0    1.67    1.07
 -19  -1   0    0.14    0.77
  -1  19   0    0.41    1.07
   0  19   0   -0.14    0.95
 -19   0   0   -0.20    0.75
   1  19   0    0.31    0.90
 -19   1   0    0.43    0.79
 -19   2   0    0.11    0.80
   2  19   0    1.00    1.06
   3  19   0    3.60    1.32
   0   0  -1  171.16    3.06
   0   0  -1  171.57    2.90
   0   0   1  175.23    2.91
   1   0  -1   26.80    0.84
  -1   0  -1   27.23    0.80
   0   1  -1   25.21    0.74
   1   0  -1   26.90    0.65
   0  -1  -1   25.86    0.91
  -1   0  -1   27.66    0.94
   0   1  -1   27.30    0.82
  -1   0  -1   26.13    0.85
   1   0   1   28.01    0.89
   0  -1   1   27.02    0.81
   1   0   1   26.88    0.79
   0   1   1   26.83    0.58
   0  -1   1   27.03    0.81
   1   1  -1  690.33   10.63
  -1  -1  -1  692.56   10.91
  -1   1  -1  692.28   11.10
   1   1  -1  691.07   10.96
  -1   1  -1  702.84   10.68
   1  -1  -1  689.63   10.91
  -1   1  -1  686.34   10.82
   1  -1   1  703.26   10.79
  -1  -1   1  704.42   10.95
   1  -1   1  704.07   11.10
   1   1   1  699.47   10.96
  -1   2  -1  965.41   15.54
   2   1  -1  981.37   15.31
  -1   2  -1  969.41   14.94
  -2  -1  -1  986.83   15.23
   1  -2  -1  991.92   15.23
  -2  -1  -1  959.63   15.14
   1  -2  -1  976.93   14.88
   1  -2   1  988.12   14.88
  -1   2   1  982.05   15.38
  -1   2   1  981.96   14.88
  -1   2   1  996.78   15.40
   1  -2   1  975.04   15.53
   0   2  -1  438.88    6.74
  -2   0  -1  442.13    7.24
   2   0  -1  439.65    7.09
  -2   0  -1  438.04    7.14
   0   2  -1  436.11    7.37
   0  -2  -1  434.64    7.28
   0   2  -1  438.46    6.93
   0  -2   1  441.83    7.36
  -2   0   1  441.47    7.01
   2   0   1  443.26    7.20
   2   0   1  447.77    7.32
   0  -2   1  447.01    6.90
   0   2   1  444.52    6.92
   1   2  -1  986.51   14.64
   1   2  -1  984.59   15.46
  -1  -2  -1  959.80   15.17
   2  -1  -1  954.48   15.09
  -2   1  -1  971.99   15.51
  -2   1  -1  971.73   15.08
   2  -1   1  977.15   15.03
  -1  -2   1  993.47   15.44
  -2   1   1 1000.00   15.41
   1   2   1  973.40   15.28
   2  -1   1  976.94   15.51
  -1  -2   1  997.08   14.70
  -2   2  -1  648.71   10.77
   2  -2  -1  646.74   10.43
   2  -2  -1  659.42   10.11
  -2   2  -1  656.50   10.26
  -2  -2  -1  648.04   10.44
   2   2  -1  648.16   10.58
  -2   2   1  650.31   10.46
   2   2   1  656.00   10.32
   2   2   1  655.44   10.30
   2  -2   1  643.46   10.71
  -3  -2  -1  147.06    3.03
   2  -3  -1  142.68    3.04
  -2   3  -1  143.19    3.19
   2  -3  -1  144.28    2.58
  -3  -2  -1  148.43    3.06
   2  -3  -1  143.33    2.64
  -2   3   1  143.98    2.74
  -3  -2   1  143.56    2.75
   3   2   1  140.46    2.59
  -2   3   1  144.34    2.64
   2  -3   1  143.82    2.55
   3   2   1  147.22    2.65
  -1   3  -1   94.44    1.91
   1  -3  -1   91.03    1.80
  -1   3  -1   97.43    2.33
   1  -3  -1   90.23    2.22
  -3  -1  -1   94.13    2.18
  -1   3   1   91.22    1.86
  -1   3   1   95.67    1.83
  -3  -1   1   95.22    1.91
   1  -3   1   96.46    1.71
   3   1   1   94.40    1.70
   3   1   1   95.80    1.73
   0  -3  -1   54.94    1.58
   0   3  -1   54.51    1.19
  -3   0  -1   54.01    1.50
   0   3  -1   55.76    1.60
   0   3   1   54.59    1.22
   3   0   1   54.09    1.01
   0   3   1   55.06    1.19
   0  -3   1   54.89    1.09
   3   0   1   53.99    1.02
   3   0   1   53.37    1.53
  -3   0   1   53.12    1.24
   0   3   1   54.82    1.25
   3  -1  -1   93.81    1.72
  -3   1  -1   91.50    2.26
  -1  -3  -1   88.89    2.17
   1   3  -1   90.88    2.21
  -3   1  -1   92.95    2.12
   1   3  -1   96.39    1.56
  -1  -3   1   97.78    1.79
   3  -1   1   94.81    1.66
   1   3   1   92.89    1.80
   3  -1   1   95.54    1.66
   1   3   1   94.66    1.85
  -3   1   1   95.55    1.90
   2   3  -1  143.31    3.09
  -2  -3  -1  142.20    3.02
   3  -2  -1  143.78    2.98
   3  -2  -1  142.41    2.67
   3  -2  -1  139.43    2.57
  -3   2  -1  140.82    3.14
  -3   2  -1  141.70    2.88
   2   3   1  145.72    2.68
  -2  -3   1  144.77    2.64
  -2  -3   1  144.44    2.27
   3  -2   1  145.30    2.53
   2   3   1  145.73    2.62
   3  -2   1  142.25    2.52
  -3   2   1  142.79    2.73
   3  -3  -1  580.16    9.43
  -3  -3  -1  573.09    9.59
   3   3  -1  578.80    9.84
   3  -3  -1  576.61    9.58
   3  -3  -1  587.94    9.35
  -3   3  -1  587.60   10.01
   3   3   1  562.67    9.44
  -3   3   1  575.46    9.60
  -3   3   1  575.11    9.33
  -3  -3   1  577.77    9.51
   3   3   1  575.37    9.54
  -3  -3   1  592.58    9.62
   3  -3   1  584.31    9.41
   3  -4  -1    0.30    0.20
   3  -4  -1    0.56    0.33
  -3   4  -1    0.65    0.34
   3  -4  -1   -0.01    0.23
   4   3   1    0.29    0.20
  -4  -3   1    0.62    0.28
   4   3   1    0.22    0.23
   3  -4   1    0.45    0.22
  -3   4   1    0.57    0.27
  -3   4   1    0.42    0.25
  -4  -3   1    0.54    0.23
   2  -4  -1  143.79    2.70
   2  -4  -1  140.22    2.78
  -2   4  -1  140.48    3.31
   2  -4  -1  144.80    3.14
  -4  -2  -1  141.54    3.07
   4   2   1  141.38    2.76
  -4  -2   1  144.22    2.88
  -2   4   1  144.54    2.84
   2  -4   1  144.38    2.70
  -4  -2   1  146.80    2.83
   4   2   1  141.41    2.69
  -2   4   1  139.04    2.79
   4   1  -1    7.71    0.44
   1  -4  -1    7.26    0.39
  -1   4  -1    7.97    0.77
  -4  -1  -1    7.67    0.69
   1  -4  -1    7.58    0.71
   1  -4  -1    7.63    0.49
   1  -4   1    7.96    0.43
  -4  -1   1    7.72    0.51
   4   1   1    8.06    0.43
  -1   4   1    7.10    0.47
  -1   4   1    8.23    0.53
   4   1   1    7.25    0.44
   0   4  -1  178.62    3.74
   4   0  -1  178.01    3.16
  -4   0  -1  171.08    3.47
   0   4  -1  173.76    3.00
   0  -4  -1  176.09    3.58
   0   4   1  172.38    3.30
   4   0   1  174.42    3.13
   0   4   1  176.96    3.23
   0  -4   1  173.03    3.14
   0   4   1  174.26    3.30
  -4   0   1  175.72    3.31
   4   0   1  173.10    3.10
  -4   1  -1    7.55    0.69
  -1  -4  -1    8.12    0.73
   1   4  -1    8.07    0.77
   4  -1  -1    7.36    0.44
   1   4  -1    7.75    0.36
   1   4   1    7.68    0.49
  -4   1   1    8.51    0.53
  -1  -4   1    8.55    0.46
   1   4   1    8.28    0.57
   4  -1   1    8.62    0.44
   1   4   1    8.27    0.47
   4  -1   1    7.67    0.41
  -4   2  -1  141.40    2.96
   2   4  -1  141.18    3.22
  -4   2  -1  143.20    3.28
   4  -2  -1  140.96    2.84
   4  -2  -1  139.41    2.71
  -2  -4  -1  141.02    3.09
   4  -2   1  146.55    2.69
   2   4   1  137.53    2.81
  -4   2   1  145.81    2.85
   4  -2   1  142.81    2.67
   2   4   1  141.61    2.74
  -2  -4   1  141.45    2.75
   3   4  -1    0.60    0.37
  -3  -4  -1   -0.09    0.30
   4  -3  -1    0.33    0.22
  -4   3  -1    0.42    0.32
   4  -3  -1   -0.07    0.26
  -3  -4   1    0.24    0.24
   4  -3   1    0.41    0.21
  -4   3   1    0.36    0.24
  -3  -4   1    0.20    0.22
   3   4   1    0.40    0.22
   3   4   1    0.27    0.22
   4  -4  -1  314.52    5.54
   4  -4  -1  310.46    5.85
  -4   4  -1  297.74    6.17
  -4  -4  -1  303.32    5.81
   4   4  -1  315.14    6.11
  -4  -4   1  308.06    5.61
  -4  -4   1  313.33    5.74
   4   4   1  321.84    5.57
  -4   4   1  308.56    5.61
   4  -4   1  325.75    5.56
  -4   4   1  320.15    5.71
   4   4   1  312.38    5.68
   4  -5  -1   61.18    1.96
   4  -5  -1   65.96    1.65
  -4   5  -1   59.21    2.14
  -5  -4   1   58.83    1.76
  -4   5   1   59.07    1.77
   5   4   1   62.54    1.66
   5   4   1   60.44    1.72
  -5  -4   1   62.10    1.21
  -5  -4   1   61.97    1.69
   4  -5   1   60.67    1.64
   3  -5  -1   42.63    1.24
  -3   5  -1   42.18    1.73
  -5  -3  -1   41.79    1.51
   3  -5  -1   42.59    1.55
  -5  -3   1   43.40    1.32
   5   3   1   43.50    1.33
  -3   5   1   41.12    1.31
   5   3   1   44.12    1.26
  -3   5   1   43.85    1.38
   3  -5   1   42.76    1.25
  -5  -3   1   42.04    1.36
   2  -5  -1  110.38    2.32
   2  -5  -1  114.51    2.50
   2  -5  -1  111.10    2.74
  -2   5  -1  112.07    2.98
   5   2  -1  110.95    2.34
  -5  -2  -1  106.66    2.63
   5   2   1  113.60    2.41
  -5  -2   1  115.89    2.54
  -2   5   1  110.78    2.44
  -2   5   1  112.79    2.51
  -5  -2   1  110.06    2.43
   2  -5   1  110.53    2.35
   5   2   1  114.46    2.35
   5   1  -1   21.46    0.79
   1  -5  -1   22.48    1.11
  -1   5  -1   21.36    1.13
  -5  -1  -1   20.42    0.99
   1  -5  -1   20.67    0.75
   1  -5  -1   22.67    0.92
   5   1   1   21.55    0.82
  -5  -1   1   21.85    0.91
   1  -5   1   21.73    0.79
   5   1   1   22.00    0.79
  -1   5   1   21.12    0.85
  -1   5   1   21.92    0.92
   5   0  -1    2.16    0.33
   0   5  -1    2.45    0.50
   0  -5  -1    2.56    0.48
  -5   0  -1    1.76    0.41
   0   5   1    2.35    0.35
   5   0   1    2.00    0.30
   0  -5   1    2.22    0.34
   0   5   1    1.56    0.36
   5   0   1    2.12    0.32
  -5   0   1    1.92    0.35
   1   5  -1   23.22    1.20
  -5   1  -1   22.55    1.02
   1   5  -1   21.97    0.60
   5  -1  -1   21.47    0.80
  -1  -5  -1   21.03    1.04
   1   5   1   23.48    0.85
   1   5   1   23.03    0.91
   5  -1   1   22.39    0.80
   5  -1   1   21.04    0.79
  -1  -5   1   22.47    0.83
  -5   1   1   21.79    0.88
   1   5   1   23.04    0.99
   2   5  -1  107.47    2.86
  -2  -5  -1  108.60    2.68
  -5   2  -1  111.18    2.57
  -5   2  -1  106.15    2.85
   5  -2  -1  113.02    2.35
   2   5   1  108.89    2.65
   2   5   1  113.45    2.37
   5  -2   1  110.13    2.32
   2   5   1  110.89    2.46
  -2  -5   1  108.63    2.35
  -5   2   1  108.33    2.45
   3   5  -1   42.98    1.66
  -3  -5  -1   45.10    1.59
  -5   3  -1   43.05    1.70
   5  -3  -1   42.99    1.25
   5  -3   1   42.40    1.24
   3   5   1   43.23    1.26
   3   5   1   40.16    1.32
  -3  -5   1   41.69    1.26
  -3  -5   1   44.59    1.38
  -5   3   1   41.16    1.35
   4   5  -1   63.23    2.12
  -4  -5  -1   60.88    1.95
   5  -4  -1   60.49    1.62
  -5   4  -1   62.39    2.17
  -4  -5   1   62.79    1.70
   4   5   1   62.04    1.77
  -4  -5   1   59.86    1.75
   4   5   1   63.03    1.66
   5  -4   1   59.84    1.63
  -5   4   1   62.39    1.80
   5  -5  -1   32.24    1.44
   5  -5  -1   33.83    1.17
  -5   5  -1   35.48    1.68
  -5   5   1   33.40    1.32
   5  -5   1   35.00    1.21
   5   5   1   33.70    1.27
  -5  -5   1   24.56    1.16
   5   5   1   30.88    1.16
  -5  -5   1   31.68    1.20
   5  -6  -1    4.38    0.69
  -5   6  -1    4.94    0.82
   5  -6  -1    5.76    0.60
  -5   6   1    5.77    0.65
   5  -6   1    4.54    0.55
   6   5   1    5.29    0.62
  -5   6   1    3.97    0.61
  -6  -5   1    4.90    0.34
  -6  -5   1    4.61    0.58
   6   5   1    6.67    0.66
  -6  -4  -1   35.25    1.47
   4  -6  -1   37.81    1.26
  -4   6  -1   38.30    1.74
   4  -6  -1   36.41    1.55
   6   4   1   37.67    1.28
  -4   6   1   36.33    1.42
  -6  -4   1   37.92    0.96
   6   4   1   38.80    1.37
   4  -6   1   36.61    1.28
  -6  -4   1   35.20    1.30
  -3   6  -1   26.09    1.41
   3  -6  -1   28.92    1.33
  -6  -3  -1   29.38    1.31
   3  -6  -1   27.18    1.02
  -3   6   1   29.22    1.21
   6   3   1   26.87    1.10
   3  -6   1   28.09    1.05
   6   3   1   30.05    1.08
  -6  -3   1   29.90    1.11
  -2   6  -1   16.78    1.14
  -6  -2  -1   18.69    1.00
   2  -6  -1   18.62    0.79
   2  -6  -1   15.90    0.98
   6   2  -1   18.31    0.81
   2  -6   1   16.11    0.77
  -6  -2   1   18.87    0.87
  -6  -2   1   15.36    0.83
   6   2   1   18.18    0.81
  -2   6   1   16.39    0.91
  -2   6   1   14.80    0.79
   6   2   1   16.37    0.81
   1  -6  -1   66.95    1.99
  -1   6  -1   64.46    2.17
  -6  -1  -1   61.51    1.90
   1  -6  -1   63.59    1.58
   6   1  -1   60.59    1.62
  -6  -1   1   60.80    1.68
   1  -6   1   63.87    1.25
   6   1   1   61.35    1.61
   6   1   1   64.50    1.68
  -6  -1   1   59.29    1.72
  -1   6   1   61.93    1.68
   1  -6   1   62.78    1.64
  -1   6   1   60.49    1.81
   0  -6  -1   24.86    1.18
  -6   0  -1   25.85    1.14
   6   0  -1   24.01    0.92
   0   6  -1   23.64    1.29
  -6   0   1   23.00    1.01
   0  -6   1   23.64    0.92
   0   6   1   24.28    0.95
   6   0   1   24.66    0.91
   0   6   1   25.78    1.13
   6   0   1   24.61    0.94
  -1  -6  -1   62.15    1.93
   6  -1  -1   59.70    1.61
  -6   1  -1   60.33    1.85
   1   6  -1   63.64    2.13
  -1  -6   1   60.11    1.62
   1   6   1   65.87    1.68
   6  -1   1   63.47    1.62
   6  -1   1   59.00    1.61
   1   6   1   58.71    1.84
  -2  -6  -1   18.59    1.05
   6  -2  -1   16.84    0.80
   2   6  -1   18.60    1.14
   2   6   1   16.80    0.81
  -2  -6   1   18.28    0.82
   2   6   1   16.55    0.89
   6  -2   1   17.62    0.81
   2   6   1   16.45    0.97
  -3  -6  -1   28.53    1.31
  -6   3  -1   31.08    1.51
   3   6  -1   27.48    1.43
   6  -3  -1   28.28    1.06
   6  -3   1   28.32    1.08
   3   6   1   28.14    1.16
  -3  -6   1   27.96    1.07
   3   6   1   28.13    1.32
   3   6   1   28.72    1.07
  -3  -6   1   29.56    1.16
  -4  -6  -1   38.30    1.54
   6  -4  -1   35.26    1.25
   4   6  -1   37.64    1.69
  -6   4  -1   36.70    1.71
  -4  -6   1   35.68    1.27
   4   6   1   34.82    1.32
  -4  -6   1   37.58    1.38
   6  -4   1   37.22    1.29
   4   6   1   36.43    1.26
   6  -5  -1    5.33    0.59
   5   6  -1    6.50    0.90
  -6   5  -1    4.48    0.80
  -5  -6   1    5.40    0.61
   6  -5   1    4.48    0.56
   5   6   1    6.22    0.64
  -6   5   1    5.25    0.67
  -6   5   1    4.97    0.61
   5   6   1    6.11    0.68
   6  -6  -1   27.76    1.46
  -6   6  -1   27.03    1.57
   6  -6  -1   27.36    1.17
   6   6  -1   26.46    1.51
  -6   6   1   27.01    1.32
  -6  -6   1   29.40    1.23
  -6   6   1   29.33    1.26
   6   6   1   27.89    1.27
   6  -6   1   28.93    1.20
   6   6   1   26.67    1.16
   6  -7  -1    3.75    0.57
  -6   7  -1    3.84    0.82
   6  -7  -1    2.17    0.57
  -6   7   1    3.25    0.64
  -7  -6   1    3.69    0.63
   6  -7   1    3.66    0.57
  -6   7   1    4.23    0.63
   7   6   1    4.59    0.66
  -7  -6   1    3.09    0.54
   5  -7  -1   26.38    1.14
   5  -7  -1   28.60    1.48
  -5   7  -1   25.34    1.59
  -7  -5   1   27.57    1.22
  -7  -5   1   28.29    0.87
   5  -7   1   29.09    1.22
  -5   7   1   25.14    1.30
  -7  -5   1   27.64    1.28
   7   5   1   27.51    1.19
   7   5   1   27.28    1.26
  -5   7   1   28.20    1.24
  -4   7  -1    8.89    1.08
   4  -7  -1   11.52    1.06
   4  -7  -1    8.56    0.73
  -7  -4  -1   11.03    1.00
   7   4   1    7.92    0.77
  -4   7   1    9.27    0.72
  -7  -4   1    9.92    0.73
   4  -7   1    9.33    0.70
  -7  -4   1    8.65    0.52
  -7  -4   1    7.54    0.77
  -4   7   1    9.08    0.90
   7   4   1    8.56    0.66
  -7  -3  -1   10.83    0.96
  -3   7  -1    9.06    1.05
   3  -7  -1   11.90    0.71
   3  -7  -1   11.11    1.01
   7   3   1   11.61    0.76
   3  -7   1   10.39    0.69
  -7  -3   1   11.05    0.74
   7   3   1   12.55    0.74
  -3   7   1   12.06    0.85
  -3   7   1    8.83    0.67
  -2   7  -1   47.87    2.00
  -7  -2  -1   50.11    1.77
   7   2  -1   53.03    1.56
   2  -7  -1   48.42    1.82
   2  -7  -1   50.75    1.49
   7   2   1   48.80    1.57
   7   2   1   52.58    1.55
   2  -7   1   51.15    1.26
  -2   7   1   49.25    1.71
   2  -7   1   51.98    1.55
  -7  -2   1   49.98    1.59
  -7  -1  -1    5.62    0.72
  -1   7  -1    6.49    0.87
   1  -7  -1    6.52    0.79
   7   1  -1    6.97    0.63
  -7  -1   1    5.92    0.63
   7   1   1    6.84    0.61
   1  -7   1    6.27    0.37
   1  -7   1    5.81    0.57
   7   1   1    5.15    0.58
  -1   7   1    6.83    0.76
   0  -7  -1  172.24    3.89
   0   7  -1  175.47    4.28
   7   0  -1  175.16    3.58
  -7   0  -1  176.78    3.87
   0  -7   1  176.51    3.60
   0   7   1  172.40    3.87
   7   0   1  173.83    3.61
   7   0   1  169.94    3.55
  -7   1  -1    6.20    0.74
  -1  -7  -1    6.35    0.75
   1   7  -1    6.88    0.90
   7  -1  -1    7.72    0.67
   7  -1   1    4.53    0.56
   7  -1   1    6.00    0.60
   1   7   1    7.20    0.78
   1   7   1    4.05    0.51
  -1  -7   1    6.07    0.60
   7  -2  -1   51.09    1.53
  -2  -7  -1   48.45    1.75
   2   7  -1   51.28    2.01
  -2  -7   1   49.92    1.52
   7  -2   1   51.66    1.56
  -7   2   1   42.92    1.54
   2   7   1   51.20    1.82
   2   7   1   43.43    1.47
   3   7  -1   12.00    1.19
   7  -3  -1    9.80    0.70
  -3  -7  -1   11.42    0.99
   3   7   1   12.05    1.08
  -3  -7   1   10.28    0.70
   3   7   1   10.84    0.72
  -3  -7   1   12.85    0.85
   7  -3   1   10.73    0.73
  -7   3   1   10.94    0.76
   3   7   1   13.22    0.86
   7  -4  -1    8.86    0.69
   4   7  -1    9.61    1.11
  -4  -7  -1   10.87    1.00
  -7   4  -1    8.29    1.02
   4   7   1    9.88    1.02
  -4  -7   1    8.58    0.67
   7  -4   1    9.28    0.70
   4   7   1    8.45    0.79
  -7   4   1    9.14    0.84
   7  -5  -1   26.39    1.15
  -7   5  -1   29.40    1.65
   5   7  -1   26.33    1.55
   5   7   1   26.63    1.27
  -5  -7   1   27.06    1.21
   7  -5   1   29.47    1.25
  -7   5   1   27.39    1.27
   7  -6  -1    3.87    0.58
  -7   6  -1    4.22    0.82
   6   7  -1    2.63    0.71
   6   7   1    3.53    0.59
  -7   6   1    3.46    0.65
  -6  -7   1    2.87    0.57
  -7   6   1    4.17    0.61
  -6  -7   1    3.76    0.59
   7  -6   1    2.85    0.53
   7  -7  -1   72.77    2.59
   7   7  -1   70.29    2.78
   7  -7  -1   74.22    2.19
  -7   7  -1   74.01    2.85
   7   7   1   70.20    2.33
  -7   7   1   74.72    2.30
   7  -7   1   71.28    2.23
  -7  -7   1   70.35    2.22
  -7   7   1   75.46    2.50
  -7  -7   1   77.09    2.41
  -7   8  -1   10.28    1.31
   7  -8  -1   12.65    1.25
   8   7  -1   11.79    1.41
  -8  -7   1   12.59    1.07
   7  -8   1   12.39    1.09
  -7   8   1   13.49    1.28
   8   7   1   13.32    1.03
   6  -8  -1   14.83    1.34
  -6   8  -1   13.23    1.45
  -8  -6   1   14.50    1.06
  -8  -6   1   15.09    0.68
   8   6   1   15.72    1.06
  -8  -6   1   14.33    0.96
   6  -8   1   12.86    0.96
  -6   8   1   15.12    1.12
  -8  -5  -1   15.52    1.10
  -5   8  -1   15.54    1.53
   5  -8  -1   14.67    1.27
   5  -8   1   15.05    0.95
  -8  -5   1   17.18    1.08
  -5   8   1   17.15    1.04
  -8  -5   1   15.36    0.72
  -5   8   1   15.93    1.10
  -8  -5   1   14.32    0.94
   8   5   1   15.81    1.03
  -8  -4  -1   18.27    1.16
   4  -8  -1   19.51    0.98
  -4   8  -1   18.06    1.37
   4  -8  -1   19.95    1.27
  -4   8   1   17.83    1.03
   8   4   1   19.51    1.07
   4  -8   1   17.88    1.01
  -8  -4   1   20.17    1.12
  -8  -4   1   20.26    1.06
  -4   8   1   19.07    1.17
  -8  -4   1   18.73    0.81
   8   4   1   18.71    1.02
  -8  -3  -1    5.57    0.76
  -3   8  -1    6.39    0.97
   3  -8  -1    5.58    0.79
   8   3   1    5.30    0.62
   3  -8   1    4.92    0.61
   3  -8   1    6.09    0.56
   8   3   1    6.24    0.70
  -3   8   1    5.51    0.66
  -8  -3   1    5.07    0.67
  -3   8   1    5.96    0.78
  -8  -3   1    5.22    0.63
  -8  -2  -1   23.95    1.27
   2  -8  -1   22.03    1.26
  -2   8  -1   22.33    1.45
   8   2  -1   21.25    1.03
  -2   8   1   20.51    1.02
   2  -8   1   21.98    0.83
   8   2   1   20.27    1.00
   8   2   1   22.99    1.09
  -8  -2   1   20.95    1.04
  -8  -2   1   21.11    1.10
  -2   8   1   23.90    1.23
   2  -8   1   20.07    1.01
  -1   8  -1    4.72    0.83
   8   1  -1    5.67    0.61
   1  -8  -1    6.27    0.81
  -8  -1  -1    7.14    0.84
  -8  -1   1    6.62    0.73
   1  -8   1    5.91    0.40
  -8  -1   1    5.55    0.63
   1  -8   1    6.08    0.65
   8   1   1    5.72    0.63
  -1   8   1    6.22    0.65
   8   1   1    5.55    0.64
  -1   8   1    6.48    0.80
   8   0  -1   41.92    1.44
  -8   0  -1   40.15    1.64
   0  -8  -1   39.96    1.67
   0   8  -1   37.87    1.82
   8   0   1   39.94    1.45
  -8   0   1   43.72    1.53
   8   0   1   41.01    1.43
   0   8   1   40.95    1.66
  -8   0   1   40.68    1.47
   0  -8   1   38.85    1.41
  -8   1  -1    5.84    0.78
   8  -1  -1    7.48    0.71
   1   8  -1    7.07    0.98
  -1  -8  -1    6.93    0.83
   8  -1   1    5.84    0.65
  -1  -8   1    5.96    0.64
  -8   1   1    7.67    0.76
   1   8   1    6.26    0.81
   2   8  -1   21.23    1.38
  -2  -8  -1   22.14    1.23
  -8   2  -1   21.44    1.18
   8  -2  -1   22.16    1.05
  -8   2   1   21.24    1.09
  -2  -8   1   18.14    1.05
  -2  -8   1   21.77    1.03
   2   8   1   20.88    1.22
   8  -2   1   20.61    1.04
  -3  -8  -1    5.98    0.78
   8  -3  -1    6.32    0.68
   3   8  -1    5.63    0.92
   8  -3   1    6.52    0.70
  -8   3   1    6.54    0.73
  -3  -8   1    5.77    0.64
   3   8   1    5.80    0.72
   3   8   1    5.44    0.80
   8  -4  -1   19.38    1.01
   4   8  -1   21.44    1.43
  -4  -8  -1   18.44    1.19
   8  -4   1   17.05    0.98
   4   8   1   17.45    1.05
  -4  -8   1   18.49    1.00
   4   8   1   17.64    1.23
  -8   4   1   18.23    1.06
   8  -5  -1   15.98    1.00
   5   8  -1   16.27    1.52
  -8   5  -1   17.38    1.31
   8  -5   1   16.50    1.01
  -8   5   1   16.31    1.03
  -5  -8   1   17.98    1.00
   5   8   1   15.20    1.38
   5   8   1   11.91    0.86
  -5  -8   1   16.53    1.06
   5   8   1   16.25    1.05
   6   8  -1   12.38    1.35
  -8   6  -1   14.12    1.46
  -6  -8   1   14.72    1.06
   6   8   1   12.73    0.90
  -6  -8   1   13.99    0.95
   8  -6   1   14.51    1.00
  -8   6   1   13.46    0.98
   6   8   1   14.69    1.03
  -8   7  -1   11.96    1.42
   7   8  -1   13.79    1.51
   8  -7   1   12.33    1.08
   7   8   1   11.74    1.10
  -8   7   1   12.83    1.23
  -7  -8   1   12.76    0.98
  -8   8  -1   12.39    1.49
   8   8  -1    9.86    1.32
   8  -8  -1   10.27    1.23
   8   8   1   11.53    1.11
   8  -8   1   11.62    1.10
  -8   8   1   12.05    1.27
   8  -9  -1   32.33    1.88
  -8   9  -1   30.06    2.02
   9   8  -1   35.28    2.14
   8  -9   1   32.52    1.64
  -8   9   1   34.97    1.86
  -7   9  -1    5.56    1.11
   7  -9  -1    4.34    0.87
   7  -9   1    4.71    0.74
   9   7   1    5.84    0.84
  -7   9   1    6.16    0.94
  -6   9  -1   64.01    2.80
   6  -9  -1   70.83    2.58
  -9  -6   1   69.19    1.72
  -9  -6   1   74.10    2.28
   6  -9   1   65.49    2.22
  -6   9   1   64.57    2.46
   9   6   1   64.13    2.29
   5  -9  -1   11.58    1.20
  -5   9  -1   14.85    1.58
  -9  -5  -1   12.79    1.17
   5  -9   1   12.12    0.94
  -9  -5   1   12.53    0.74
  -9  -5   1   11.21    1.00
   9   5   1   12.71    0.97
  -5   9   1   14.85    1.35
  -9  -4  -1    1.23    0.51
  -4   9  -1    0.54    0.53
   4  -9  -1    0.57    0.48
   9   4   1    0.51    0.40
  -9  -4   1    0.68    0.39
   9   4   1    0.00    0.21
  -4   9   1    1.45    0.43
   4  -9   1    1.17    0.37
  -9  -4   1    0.58    0.32
   4  -9   1    0.81    0.41
  -9  -4   1    0.70    0.41
  -4   9   1   -0.05    0.37
  -9  -3  -1    2.28    0.57
   3  -9  -1    2.71    0.66
  -3   9  -1    1.65    0.60
  -9  -3   1    2.20    0.52
  -3   9   1    2.98    0.56
  -3   9   1    3.57    0.69
   3  -9   1    2.66    0.43
   3  -9   1    1.61    0.45
  -9  -3   1    2.07    0.50
   9   3   1    1.09    0.41
   9   3   1    3.28    0.53
  -2   9  -1   14.15    1.43
  -9  -2  -1   18.04    1.19
   2  -9  -1   17.28    1.17
   9   2   1   18.42    1.05
   9   2   1   16.62    1.01
   2  -9   1   18.14    1.00
  -9  -2   1   19.29    1.14
  -9  -2   1   18.74    1.03
  -2   9   1   17.74    1.01
   2  -9   1   18.19    0.79
  -2   9   1   18.85    1.18
  -9  -1  -1   40.66    1.73
   1  -9  -1   38.17    1.71
  -1   9  -1   38.04    1.94
   9   1  -1   39.98    1.48
  -9  -1   1   41.15    1.59
  -9  -1   1   37.31    1.49
   9   1   1   38.36    1.51
  -1   9   1   39.53    1.76
   9   1   1   38.47    1.47
   1  -9   1   39.01    1.05
   1  -9   1   35.73    1.43
  -1   9   1   40.10    1.50
   0   9  -1   23.76    1.53
   9   0  -1   25.88    1.19
  -9   0  -1   26.31    1.39
   0  -9  -1   26.88    1.41
   9   0   1   27.79    1.28
   0   9   1   26.77    1.45
   0   9   1   24.99    1.17
   0  -9   1   25.01    0.71
  -9   0   1   25.91    1.28
   0  -9   1   24.74    1.16
   9   0   1   26.22    1.20
  -9   0   1   26.52    1.22
  -9   1  -1   38.02    1.66
  -1  -9  -1   40.94    1.71
   9  -1  -1   39.72    1.48
   1   9  -1   38.15    1.93
   1   9   1   37.87    1.46
  -9   1   1   36.52    1.52
   1   9   1   37.43    1.75
  -1  -9   1   38.62    1.47
   9  -1   1   38.45    1.51
  -2  -9  -1   16.95    1.13
  -9   2  -1   19.79    1.19
   2   9  -1   15.39    1.48
   9  -2  -1   17.48    1.01
  -2  -9   1   18.61    1.01
   9  -2   1   15.62    0.97
   2   9   1   17.64    1.02
  -9   2   1   16.41    1.02
   2   9   1   16.66    1.18
   9  -3  -1    2.58    0.51
   3   9  -1    2.80    0.76
  -3  -9  -1    2.34    0.56
  -3  -9   1    1.15    0.43
   9  -3   1    3.12    0.57
  -9   3   1    2.14    0.50
  -3  -9   1    1.92    0.46
   3   9   1    2.06    0.63
   3   9   1    1.95    0.47
   4   9  -1    1.53    0.62
   9  -4  -1    0.64    0.38
  -4  -9  -1    1.01    0.49
   9  -4   1    0.78    0.38
   4   9   1    0.87    0.51
  -4  -9   1    0.91    0.40
  -4  -9   1    0.58    0.36
  -9   4   1    0.31    0.37
   4   9   1    0.56    0.33
   5   9  -1   12.68    1.39
  -5  -9  -1   11.90    1.14
  -5  -9   1   15.19    1.03
   5   9   1   12.89    1.38
   9  -5   1   13.92    1.01
   5   9   1   11.88    1.09
  -9   6  -1   64.07    2.77
   6   9  -1   66.01    2.78
   9  -6   1   74.82    2.35
   6   9   1   62.02    2.29
  -6  -9   1   66.61    2.21
   6   9   1   67.16    2.72
   7   9  -1    5.83    1.06
  -9   7  -1    7.10    1.17
   9  -7   1    6.41    0.86
   7   9   1    5.89    0.85
   9  -8  -1   36.71    1.99
  -9   8  -1   37.59    2.20
   8   9  -1   36.23    2.18
   9  -8   1   33.46    1.67
   9  -9  -1    3.83    0.89
  -9   9  -1    2.32    0.82
   9   9  -1    1.91    0.73
  -9   9   1    4.43    0.86
   9 -10  -1    5.74    1.04
  10   9  -1    5.31    1.10
  -9  10  -1    5.02    1.10
  -9  10   1    8.05    1.19
  10   8  -1    4.24    1.03
   8 -10  -1    5.44    1.01
  -8  10  -1    4.43    1.02
  -8  10   1    5.15    0.93
  -7  10  -1   16.60    1.78
   7 -10  -1   15.29    1.51
   7 -10   1   16.29    1.18
  -7  10   1   16.42    1.56
  -6  10  -1   14.48    1.65
   6 -10  -1   15.11    1.46
   6 -10   1   14.08    1.09
  -6  10   1   12.89    1.36
  10   6   1   13.25    1.21
 -10  -6   1   12.51    0.82
  -5  10  -1   38.04    2.19
 -10  -5  -1   37.61    1.80
   5 -10  -1   39.90    1.96
   5 -10   1   38.44    1.51
  10   5   1   39.73    1.77
 -10  -5   1   39.31    1.40
   5 -10   1   38.20    1.69
  -5  10   1   38.26    1.90
 -10  -4  -1   75.49    2.56
   4 -10  -1   70.70    2.60
  -4  10  -1   76.50    3.02
  -4  10   1   72.65    2.62
  10   4   1   67.91    2.35
   4 -10   1   68.95    2.29
   4 -10   1   73.58    2.04
 -10  -4   1   68.71    2.27
 -10  -4   1   69.93    1.98
  -3  10  -1   29.27    1.83
   3 -10  -1   29.28    1.60
 -10  -3  -1   28.72    1.51
  -3  10   1   29.14    1.60
   3 -10   1   29.33    1.40
 -10  -3   1   28.25    1.37
   3 -10   1   27.36    1.13
  10   3   1   27.60    1.42
 -10  -2  -1   27.91    1.51
   2 -10  -1   28.03    1.54
  -2  10  -1   27.02    1.73
  10   2   1   23.02    1.27
  -2  10   1   25.33    1.50
 -10  -2   1   26.91    1.31
   2 -10   1   27.91    1.01
   2 -10   1   27.09    1.30
   1 -10  -1   14.07    1.25
 -10  -1  -1   14.39    1.28
  -1  10  -1   15.05    1.53
  -1  10   1   17.22    1.23
   1 -10   1   15.87    0.67
  10   1   1   11.85    0.88
  10   1   1   14.90    1.05
 -10  -1   1   14.35    0.99
   1 -10   1   15.96    1.02
  -1  10   1   15.33    1.00
   0 -10  -1    3.56    0.71
   0  10  -1    2.28    0.71
 -10   0  -1    3.68    0.71
   0  10   1    4.14    0.78
  10   0   1    2.68    0.58
   0 -10   1    3.12    0.33
   0  10   1    2.82    0.55
   0 -10   1    2.21    0.51
 -10   0   1    2.57    0.55
   1  10  -1   16.13    1.59
 -10   1  -1   15.52    1.33
  -1 -10  -1   14.90    1.26
 -10   1   1   14.88    1.00
  -1 -10   1   16.62    1.05
   1  10   1   17.09    1.05
   1  10   1   16.62    1.47
  10  -1   1   15.42    1.03
 -10   2  -1   27.16    1.50
  -2 -10  -1   25.93    1.45
   2  10  -1   24.01    1.62
  10  -2   1   27.68    1.37
  -2 -10   1   25.17    1.30
   2  10   1   24.39    1.52
  -2 -10   1   28.49    1.42
   3  10  -1   25.56    1.73
  -3 -10  -1   27.80    1.50
   3  10   1   23.62    1.52
  -3 -10   1   28.41    1.37
  10  -3   1   27.17    1.34
  -4 -10  -1   71.71    2.47
   4  10  -1   70.75    2.91
  10  -4   1   69.26    2.34
  -4 -10   1   72.54    2.30
   4  10   1   68.47    2.71
   5  10  -1   37.22    2.11
  -5 -10  -1   37.80    1.78
  -5 -10   1   36.08    1.60
   5  10   1   33.28    1.92
  10  -5   1   37.52    1.66
   6  10  -1   13.73    1.59
   6  10   1   10.23    1.35
  10  -6   1   14.09    1.22
 -10   7  -1   17.05    1.80
   7  10  -1   17.00    1.81
  10  -7   1   16.52    1.19
   7  10   1   15.36    1.66
 -10   8  -1    4.93    1.07
   8  10  -1    5.71    1.14
   8  10   1    4.15    0.97
  10  -9  -1    4.91    1.00
   9  10  -1    3.64    0.92
 -10   9  -1    4.12    1.07
  10  10  -1    2.33    0.90
  10 -10  -1    1.52    0.75
 -10  10  -1    0.82    0.66
  11  10  -1   -0.42    0.60
  10 -11  -1   -0.33    0.57
 -10  11  -1   -0.67    0.46
 -10  11   1   -0.07    0.58
   9 -11  -1    2.58    0.81
  -9  11  -1   -0.01    0.57
  11   9  -1   -0.12    0.66
  -9  11   1    1.89    0.76
  -8  11  -1    3.82    1.00
   8 -11  -1    1.73    0.75
  -8  11   1    3.76    0.86
  -7  11  -1    2.81    0.86
   7 -11  -1    1.82    0.70
  -7  11   1    1.47    0.64
   7 -11   1    1.51    0.62
  -6  11  -1    3.26    0.93
 -11  -6  -1    3.42    0.78
   6 -11  -1    2.78    0.80
   6 -11   1    3.89    0.68
  -6  11   1    3.24    0.80
   5 -11  -1    5.21    0.93
  -5  11  -1    3.53    0.96
 -11  -5  -1    2.40    0.71
   5 -11   1    3.10    0.66
   5 -11   1    3.98    0.67
  -5  11   1    4.06    0.86
 -11  -5   1    4.54    0.63
  -4  11  -1   20.21    1.91
 -11  -4  -1   20.51    1.42
   4 -11  -1   19.56    1.44
   4 -11   1   21.43    1.31
  11   4   1   23.60    1.41
 -11  -4   1   22.52    1.14
   4 -11   1   22.94    1.13
  -4  11   1   21.94    1.48
   3 -11  -1   23.90    1.48
 -11  -3  -1   23.47    1.45
  -3  11  -1   20.58    1.93
   3 -11   1   20.85    1.03
   3 -11   1   21.52    1.31
  11   3   1   21.59    1.33
  -3  11   1   20.46    1.46
 -11  -2  -1   28.78    1.61
  -2  11  -1   26.97    1.83
   2 -11  -1   29.10    1.64
  -2  11   1   26.69    1.62
  11   2   1   27.12    1.45
   2 -11   1   26.10    1.37
 -11  -1  -1    5.20    0.87
  -1  11  -1    6.06    1.07
   1 -11  -1    6.00    0.89
   1 -11   1    4.29    0.69
  11   1   1    3.61    0.69
  -1  11   1    3.12    0.75
   0  11  -1    3.52    0.93
   0 -11  -1    4.04    0.77
 -11   0  -1    4.67    0.80
  11   0   1    3.87    0.70
   0  11   1    4.92    0.89
   0 -11   1    3.06    0.62
   1  11  -1    3.77    0.90
  -1 -11  -1    4.79    0.81
 -11   1  -1    2.65    0.66
  -1 -11   1    4.45    0.70
   1  11   1    4.99    0.92
  11  -1   1    4.55    0.75
 -11   2  -1   26.91    1.57
  -2 -11  -1   28.22    1.54
   2  11  -1   25.67    1.78
   2  11   1   28.11    1.73
  -2 -11   1   28.10    1.40
  11  -2   1   27.40    1.44
   3  11  -1   20.62    1.91
  -3 -11  -1   17.97    1.29
  11  -3   1   18.63    1.21
  -3 -11   1   21.93    1.25
   3  11   1   16.33    1.57
  -4 -11  -1   21.58    1.41
   4  11  -1   20.63    1.93
  11  -4   1   22.40    1.32
   4  11   1   21.89    1.57
   5  11  -1    2.76    0.79
   5  11   1    2.80    0.81
  11  -5   1    3.38    0.71
   6  11  -1    3.18    0.91
   6  11   1    3.43    0.89
   7  11  -1    3.45    0.94
   7  11   1    2.43    0.79
   8  11  -1    2.86    0.90
   8  11   1    3.90    0.99
 -11   9  -1    1.89    0.82
   9  11  -1    0.81    0.71
  11  -9  -1    1.63    0.75
   9  11   1    0.61    0.62
  11 -10  -1    1.19    0.76
 -11  10  -1    0.08    0.64
  10  11  -1   -0.40    0.50
  10  11   1   -0.15    0.62
  11  11  -1    1.09    0.80
  11 -11  -1    1.03    0.76
 -11  11  -1    2.69    0.97
  11  11   1    1.76    0.81
  12  11  -1    2.43    1.03
 -11  12  -1    2.70    1.05
  11 -12  -1    2.05    0.89
  12  11   1    1.66    0.84
  10 -12  -1    4.63    1.11
 -10  12  -1    2.93    1.00
  12  10  -1    2.15    0.95
 -10  12   1    3.26    0.93
  12   9  -1    1.65    0.91
  -9  12  -1    3.79    1.04
   9 -12  -1    2.06    0.78
   9 -12   1    3.82    0.89
  -9  12   1    2.64    0.84
  -8  12  -1    4.99    1.20
   8 -12  -1    5.25    1.05
  -8  12   1    4.25    0.97
   8 -12   1    4.42    0.86
  -7  12  -1    2.58    0.90
   7 -12  -1    1.74    0.74
   7 -12   1    2.03    0.63
  -7  12   1    2.16    0.78
 -12  -6  -1    6.84    1.11
   6 -12  -1    7.26    1.17
  -6  12  -1    7.06    1.34
  -6  12   1    7.64    1.17
   6 -12   1    6.56    0.88
   5 -12  -1    5.41    0.99
  -5  12  -1    5.81    1.17
 -12  -5  -1    8.10    1.13
  -5  12   1    5.42    1.00
 -12  -5   1    6.08    0.78
   4 -12  -1   21.25    1.53
 -12  -4  -1   24.23    1.56
  -4  12  -1   17.88    1.88
 -12  -4   1   21.50    1.20
  -4  12   1   20.38    1.52
 -12  -3  -1   17.91    1.56
  -3  12  -1   18.69    1.92
   3 -12  -1   17.98    1.57
  -3  12   1   18.57    1.72
 -12  -2  -1    5.46    0.93
   2 -12  -1    4.99    0.89
  -2  12  -1    2.80    0.87
  -2  12   1    5.61    1.00
  12   2   1    4.99    0.81
  -1  12  -1    4.05    0.99
 -12  -1  -1    2.56    0.74
   1 -12  -1    2.14    0.64
  12   1   1    3.53    0.71
  -1  12   1    3.14    0.80
 -12   0  -1   -0.01    0.46
   0 -12  -1    0.33    0.45
   0  12  -1    0.35    0.54
  12   0   1   -0.52    0.37
   0  12   1   -0.45    0.45
   1  12  -1    1.39    0.74
 -12   1  -1    1.88    0.65
  -1 -12  -1    2.68    0.68
   1  12   1    1.05    0.62
  12  -1   1    2.03    0.62
   2  12  -1    3.38    0.89
 -12   2  -1    3.66    0.80
  -2 -12  -1    4.53    0.81
   2  12   1    7.28    1.15
  12  -2   1    5.23    0.84
   3  12  -1   16.14    1.75
 -12   3  -1   16.62    1.51
  -3 -12  -1   19.76    1.35
   3  12   1   19.14    1.78
  12  -3   1   19.49    1.33
  -4 -12  -1   20.63    1.42
   4  12  -1   19.77    1.99
   4  12   1   22.82    1.68
   5  12  -1    5.18    1.13
   5  12   1    5.39    1.03
   6  12  -1    4.81    1.07
   6  12   1    3.79    0.98
   7  12  -1    1.20    0.72
   7  12   1    2.37    0.81
   8  12  -1    4.22    1.04
   8  12   1    3.36    0.95
   9  12  -1    4.15    1.10
  12  -9  -1    5.24    1.07
   9  12   1    1.57    0.82
  12 -10  -1    3.41    1.05
  10  12  -1    2.57    0.91
  10  12   1    2.93    1.05
  11  12  -1    0.21    0.76
  12 -11  -1    2.10    0.90
 -12  11  -1    1.11    0.88
  11  12   1    0.84    0.88
  12  12  -1   10.20    1.72
  12 -12  -1   10.54    1.63
 -12  12  -1    9.77    1.67
  12  12   1   11.22    1.79
  13  12  -1    0.48    0.85
  12 -13  -1    0.60    0.88
 -12  13  -1   -0.28    0.86
  13  12   1    0.22    0.79
 -11  13  -1    0.61    0.83
  13  11  -1    3.13    1.19
  11 -13  -1    1.75    0.85
 -10  13  -1    1.01    0.79
  10 -13  -1    1.26    0.86
  13  10  -1    1.69    1.07
 -10  13   1    1.02    0.79
   9 -13  -1   -0.13    0.62
  -9  13  -1    0.14    0.68
  13   9  -1   -0.28    0.71
  -9  13   1   -0.58    0.60
   8 -13  -1    8.28    1.32
  -8  13  -1    6.80    1.37
  -8  13   1    7.01    1.23
   7 -13  -1    8.05    1.30
  -7  13  -1   10.56    1.64
  -7  13   1    8.25    1.34
  -6  13  -1   14.68    1.84
 -13  -6  -1    8.45    1.20
   6 -13  -1   10.17    1.34
  -6  13   1   10.91    1.45
   5 -13  -1   14.57    1.56
 -13  -5  -1   11.83    1.38
  -5  13  -1   12.11    1.65
  -5  13   1   12.62    1.54
 -13  -4  -1    0.72    0.62
   4 -13  -1    0.01    0.47
  -4  13  -1    0.36    0.65
 -13  -4   1    0.64    0.51
  -4  13   1    1.35    0.69
  -3  13  -1    4.02    1.05
   3 -13  -1    6.45    1.05
 -13  -3  -1    4.71    0.92
 -13  -3   1    7.17    0.91
  -3  13   1    8.70    1.27
 -13  -2  -1    2.52    0.78
  -2  13  -1    3.88    1.04
   2 -13  -1    2.12    0.74
  -2  13   1    0.47    0.60
   1 -13  -1    8.33    1.11
 -13  -1  -1    9.06    1.19
  -1  13  -1    6.54    1.21
  -1  13   1   10.09    1.36
   0  13  -1   -0.36    0.45
 -13   0  -1   -0.25    0.45
   0 -13  -1    0.46    0.51
   0  13   1    0.19    0.57
  -1 -13  -1    8.74    1.13
   1  13  -1    8.36    1.38
 -13   1  -1    8.42    1.13
   1  13   1    8.96    1.29
   2  13  -1   -0.30    0.57
  -2 -13  -1    2.00    0.72
 -13   2  -1    1.79    0.68
   2  13   1    2.25    0.82
  -3 -13  -1    5.03    0.90
   3  13  -1    6.04    1.17
 -13   3  -1    7.47    1.12
   3  13   1    5.82    1.12
 -13   4  -1    0.13    0.51
   4  13  -1    1.34    0.75
  -4 -13  -1    0.50    0.59
   4  13   1    0.43    0.58
   5  13  -1   10.57    1.56
   5  13   1   10.27    1.47
   6  13  -1   10.74    1.64
   6  13   1    9.14    1.38
   7  13  -1    7.81    1.39
   7  13   1    5.96    1.22
   8  13  -1    4.27    1.14
   8  13   1    6.36    1.31
   9  13  -1    1.44    0.85
   9  13   1    0.88    0.75
  13 -10  -1   -0.07    0.70
  10  13  -1    0.54    0.77
  10  13   1    0.56    0.81
  13 -11  -1    1.92    0.85
  11  13  -1    0.87    0.93
  11  13   1   -0.06    0.75
  12  13  -1   -0.30    0.72
  13 -12  -1    0.70    0.83
  12  13   1    0.90    0.91
  13  13  -1    4.54    1.46
  13 -13  -1    4.07    1.23
  13  13   1    2.68    1.23
  14  12  -1    0.19    1.04
 -12  14  -1   -0.55    0.85
  12 -14  -1    0.28    0.90
  14  12   1    0.19    0.95
  11 -14  -1    1.88    0.97
  14  11  -1    2.39    1.14
 -11  14  -1    1.24    1.03
 -11  14   1    1.49    0.96
  10 -14  -1   -0.22    0.70
  14  10  -1    1.41    1.00
 -10  14  -1    0.30    0.84
 -10  14   1    0.53    0.72
   9 -14  -1    4.26    1.16
  -9  14  -1    3.40    1.20
  14   9  -1    2.71    1.13
  -9  14   1    2.93    0.97
  -8  14  -1    2.15    1.06
   8 -14  -1    1.02    0.87
  -8  14   1    4.15    1.07
  -7  14  -1    7.12    1.42
   7 -14  -1    6.86    1.26
  -7  14   1    2.40    0.95
 -14  -6  -1   19.28    1.79
   6 -14  -1   18.50    1.84
  -6  14  -1   17.11    2.09
  -6  14   1   18.61    1.95
  -5  14  -1    5.24    1.23
 -14  -5  -1    3.54    0.95
   5 -14  -1    4.07    0.97
  -5  14   1    2.54    0.88
   4 -14  -1    1.14    0.67
  -4  14  -1    0.95    0.71
 -14  -4  -1    0.48    0.57
  -4  14   1    2.30    0.78
   3 -14  -1    2.12    0.76
  -3  14  -1    1.59    0.88
 -14  -3  -1    2.71    0.83
 -14  -3   1    3.27    0.76
  -3  14   1    3.11    0.92
 -14  -2  -1    2.95    0.86
   2 -14  -1    4.93    0.96
  -2  14  -1    6.76    1.30
  -2  14   1    4.08    1.01
 -14  -1  -1    2.72    0.77
  -1  14  -1    4.75    1.09
   1 -14  -1    5.12    0.94
  -1  14   1    4.51    1.03
   0 -14  -1    1.45    0.64
   0  14  -1    0.98    0.74
 -14   0  -1   -0.07    0.54
   0  14   1    1.24    0.71
  -1 -14  -1    4.68    0.91
   1  14  -1    4.06    1.05
 -14   1  -1    3.58    0.89
   1  14   1    5.95    1.18
 -14   2  -1    4.85    0.95
  -2 -14  -1    5.51    0.97
   2  14  -1    3.35    1.04
   2  14   1    5.14    1.12
   3  14  -1    1.34    0.76
  -3 -14  -1    2.29    0.79
 -14   3  -1    2.03    0.75
   3  14   1    3.40    0.99
   4  14  -1    1.51    0.83
  -4 -14  -1    1.76    0.73
 -14   4  -1    0.24    0.57
   4  14   1    2.18    0.88
   5  14  -1    3.11    0.98
   5  14   1    3.35    1.02
   6  14  -1   18.82    2.19
   6  14   1   14.68    1.83
   7  14  -1    3.46    1.19
   7  14   1    5.71    1.30
   8  14  -1    4.74    1.19
   8  14   1    1.99    0.95
   9  14  -1    2.46    1.02
   9  14   1    3.57    1.17
  14 -10  -1   -0.81    0.71
  10  14  -1    0.36    0.92
  10  14   1    0.54    0.75
  14 -11  -1    2.06    0.96
  11  14  -1    1.10    0.92
  11  14   1    1.23    0.95
  12  14  -1   -1.33    0.69
  14 -12  -1    0.20    0.73
  12  14   1    0.37    0.86
 -11  15  -1    0.57    0.94
  15  11  -1    0.57    1.01
  11 -15  -1    0.27    0.89
 -10  15  -1    0.80    0.94
  15  10  -1    0.50    0.93
  10 -15  -1   -0.02    0.89
 -10  15   1    1.17    0.91
  -9  15  -1   -0.25    0.74
   9 -15  -1    1.10    0.81
  -9  15   1    0.52    0.76
  -8  15  -1    0.28    0.70
   8 -15  -1   -0.76    0.70
  -8  15   1    0.56    0.78
   7 -15  -1   16.85    1.87
  -7  15  -1   13.00    1.96
  -7  15   1   17.32    2.02
  -6  15  -1    3.42    1.16
 -15  -6  -1    5.64    1.18
   6 -15  -1    7.23    1.26
  -6  15   1    5.69    1.23
   5 -15  -1    4.94    1.14
 -15  -5  -1    5.25    1.12
  -5  15  -1    5.05    1.29
  -5  15   1    5.46    1.19
 -15  -4  -1    0.25    0.64
  -4  15  -1    0.00    0.64
   4 -15  -1    0.32    0.69
  -4  15   1    0.16    0.65
 -15  -3  -1    1.57    0.73
  -3  15  -1    1.40    0.90
   3 -15  -1    0.91    0.69
 -15  -3   1    0.40    0.57
  -3  15   1    0.49    0.72
   2 -15  -1    2.75    0.83
 -15  -2  -1    2.74    0.84
  -2  15  -1    4.02    1.18
  -2  15   1    4.26    1.10
 -15  -2   1    3.14    0.83
 -15  -1  -1    4.61    1.02
  -1  15  -1    4.40    1.24
   1 -15  -1    5.81    1.03
  -1  15   1    5.46    1.12
   0  15  -1    1.34    0.82
   0 -15  -1    1.80    0.71
 -15   0  -1    0.29    0.63
   0  15   1    1.41    0.83
 -15   1  -1    2.92    0.82
  -1 -15  -1    4.11    0.92
   1  15  -1    5.04    1.25
   1  15   1    4.65    1.13
   2  15  -1    2.22    0.97
  -2 -15  -1    3.50    0.86
 -15   2  -1    3.82    0.93
   2  15   1    3.27    0.97
   3  15  -1    1.16    0.80
  -3 -15  -1    1.06    0.70
 -15   3  -1    2.05    0.76
   3  15   1    1.97    0.86
  -4 -15  -1    0.27    0.68
   4  15  -1    0.07    0.73
 -15   4  -1    0.09    0.61
   4  15   1    1.40    0.84
 -15   5  -1    3.58    0.89
   5  15  -1    4.48    1.23
   5  15   1    4.83    1.18
   6  15  -1    7.35    1.50
 -15   6  -1    5.64    1.14
   6  15   1    3.55    1.09
   7  15  -1    8.91    1.65
   7  15   1   14.31    1.92
   8  15  -1   -0.09    0.82
   8  15   1   -0.88    0.68
   9  15  -1    1.45    0.97
   9  15   1    0.43    0.85
  10  15  -1    0.00    0.79
  15 -10  -1    0.37    0.88
  10  15   1    1.73    1.04
  11  15  -1    0.18    0.90
  15 -11  -1    1.23    0.97
  11  15   1    0.61    0.87
  16  10  -1   -0.03    0.93
  10 -16  -1    0.48    0.89
 -10  16  -1    0.54    1.01
  -9  16  -1    5.56    1.52
   9 -16  -1    4.10    1.24
  -8  16  -1    1.09    1.06
   8 -16  -1    1.56    0.95
  -8  16   1    0.51    0.88
   7 -16  -1    2.61    1.02
  -7  16  -1    2.80    1.17
  -7  16   1    1.52    0.90
   6 -16  -1   -0.06    0.76
  -6  16  -1    0.75    0.86
  -6  16   1   -0.02    0.76
 -16  -5  -1    0.49    0.74
  -5  16  -1    2.81    1.12
   5 -16  -1    2.26    0.91
  -5  16   1    3.87    1.09
  -4  16  -1    2.18    1.02
 -16  -4  -1    1.87    0.85
   4 -16  -1    2.34    0.88
  -4  16   1    1.20    0.88
 -16  -3  -1    2.30    0.84
  -3  16  -1    3.70    1.12
   3 -16  -1    1.18    0.83
  -3  16   1    3.14    1.09
 -16  -2  -1    0.97    0.71
   2 -16  -1    1.57    0.82
  -2  16  -1   -0.21    0.75
  -2  16   1    0.08    0.80
 -16  -2   1    1.04    0.74
   1 -16  -1    3.09    0.93
 -16  -1  -1    1.81    0.82
  -1  16  -1    0.48    0.80
  -1  16   1    1.46    0.92
   0  16  -1   12.27    1.76
 -16   0  -1    9.64    1.39
   0  16   1   16.59    1.98
   1  16  -1    3.25    1.06
 -16   1  -1    2.89    0.90
   1  16   1    3.46    1.07
   2  16  -1    1.77    0.94
 -16   2  -1    0.21    0.67
   2  16   1    0.11    0.73
   3  16  -1    0.67    0.83
 -16   3  -1    1.24    0.76
   3  16   1    0.75    0.82
 -16   4  -1    2.49    0.89
   4  16  -1    0.99    0.95
   4  16   1   -0.15    0.76
 -16   5  -1    0.21    0.62
   5  16  -1    1.63    0.96
   5  16   1    3.28    1.06
 -16   6  -1   -0.73    0.59
   6  16  -1   -0.52    0.73
   6  16   1   -1.22    0.74
   7  16  -1    3.20    1.16
 -16   7  -1    1.87    0.91
   7  16   1    1.70    0.92
   8  16  -1    1.22    0.94
   8  16   1    0.08    0.86
   9  16  -1    3.00    1.25
   9  16   1    1.58    1.03
  10  16  -1    1.67    1.12
  16 -10  -1    0.96    0.84
  10  16   1    0.16    0.85
  -8  17  -1   -0.39    0.94
  -7  17  -1    2.98    1.28
  -6  17  -1    2.95    1.13
  -6  17   1    3.07    1.09
  -5  17  -1   -0.74    0.80
 -17  -5  -1    1.13    0.91
  -5  17   1    0.75    0.95
  -4  17  -1    1.03    0.91
 -17  -4  -1    0.00    0.75
  -4  17   1    2.01    1.05
  -3  17  -1    0.90    0.92
 -17  -3  -1    0.58    0.76
  -3  17   1    2.21    1.01
 -17  -2  -1    1.00    0.85
  -2  17  -1    3.29    1.17
  -2  17   1    1.18    0.93
 -17  -1  -1   -0.29    0.63
  -1  17  -1    0.35    0.80
 -17  -1   1    1.43    0.80
  -1  17   1    0.21    0.83
 -17   0  -1    1.39    0.82
   0  17  -1    0.63    0.96
   0  17   1    2.94    1.03
 -17   1  -1    0.55    0.75
   1  17  -1   -0.94    0.71
   1  17   1   -0.08    0.81
   2  17  -1    1.46    0.93
 -17   2  -1    1.83    0.80
   2  17   1    4.42    1.34
 -17   3  -1    2.50    0.95
   3  17  -1    1.56    1.00
   3  17   1    2.76    1.13
 -17   4  -1    0.37    0.71
   4  17  -1    0.66    0.86
   4  17   1    0.32    0.86
 -17   5  -1    0.08    0.61
   5  17  -1    0.84    0.92
   5  17   1    0.63    0.82
 -17   6  -1    2.71    1.01
   6  17  -1    5.39    1.41
   6  17   1    1.23    0.97
   7  17  -1    1.11    1.00
 -17   7  -1    1.06    0.83
   7  17   1    1.96    1.10
   8  17  -1    0.06    0.88
   8  17   1    0.37    0.88
  -6  18  -1    4.07    1.46
  -5  18  -1    2.04    1.16
  -4  18  -1    4.38    1.39
 -18  -4  -1    4.37    1.25
  -4  18   1    4.46    1.28
 -18  -3  -1    1.39    0.89
  -3  18  -1    0.67    0.91
  -3  18   1    2.72    1.15
  -2  18  -1    0.66    0.95
 -18  -2  -1    0.54    0.80
  -2  18   1    0.02    0.90
  -1  18  -1    0.95    0.91
 -18  -1  -1    1.85    0.96
  -1  18   1    2.44    1.18
   0  18  -1   -0.06    0.90
 -18   0  -1    0.22    0.73
   0  18   1    0.31    0.91
 -18   0   1    0.36    0.83
 -18   1  -1    2.89    0.96
   1  18  -1    1.99    1.05
   1  18   1    2.04    1.11
 -18   2  -1    0.62    0.85
   2  18  -1    0.00    1.04
   2  18   1    0.71    0.97
   3  18  -1    2.55    1.12
 -18   3  -1    1.01    0.76
   3  18   1    2.67    1.14
 -18   4  -1    5.82    1.25
   4  18  -1    6.61    1.62
   4  18   1    5.01    1.41
   5  18  -1    4.74    1.45
 -18   5  -1    1.95    0.90
   5  18   1    2.99    1.27
   6  18   1    1.25    1.07
   0  19  -1    0.57    1.04
   0  19   1   -0.68    0.89
   0   0  -2   25.15    0.82
   0   0  -2   24.12    1.07
   0   0   2   22.66    0.79
   0   1  -2   14.73    0.74
   0   1  -2   15.83    0.83
  -1   0  -2   13.88    0.86
  -1   0  -2   16.55    0.74
   0  -1  -2   15.27    0.93
   1   0  -2   15.74    0.60
   1   0  -2   14.50    0.86
   0  -1   2   16.75    0.76
  -1   0   2   15.57    0.59
   0   1   2   15.94    0.55
   1   0   2   16.21    0.73
   1   1  -2   71.97    1.87
   1   1  -2   67.30    1.70
  -1  -1  -2   74.61    2.07
  -1   1  -2   74.19    1.87
   1  -1  -2   70.00    2.02
  -1   1  -2   72.32    1.88
   1   1   2   70.88    1.64
   1  -1   2   71.40    1.83
  -1  -1   2   73.39    1.72
   1  -2  -2   40.96    1.56
  -1   2  -2   43.41    1.47
  -2  -1  -2   40.56    1.52
   2   1  -2   41.96    1.22
  -1   2  -2   41.23    1.28
   2   1  -2   44.49    1.41
   2   1   2   45.34    1.32
   2   0  -2    0.43    0.19
  -2   0  -2    0.59    0.32
   0   2  -2    0.31    0.28
   0  -2  -2    0.54    0.32
   0   2  -2    0.46    0.26
   2   0  -2    0.66    0.34
   0   2   2    0.72    0.15
   1   2  -2   41.57    1.37
  -2   1  -2   41.00    1.53
   2  -1  -2   44.81    1.58
  -2   1  -2   42.24    1.44
  -2   1  -2   45.76    1.46
   1   2  -2   46.19    1.32
  -1  -2  -2   43.46    1.60
   1   2   2   44.03    1.13
  -2   2  -2   26.11    1.16
  -2   2  -2   23.35    0.98
  -2  -2  -2   24.58    1.20
   2   2  -2   24.92    1.02
   2  -2  -2   24.45    1.21
  -2   2  -2   23.00    1.13
   2   2  -2   23.12    0.96
   2   2   2   23.86    0.92
  -3  -2  -2   65.73    2.08
   3   2  -2   66.40    1.75
  -2   3  -2   62.79    2.03
   3   2  -2   64.22    1.80
   2  -3  -2   64.58    2.11
  -2   3  -2   63.88    1.87
  -2   3   2   63.16    1.40
   3   1  -2   20.81    0.98
   1  -3  -2   21.47    1.15
   3   1  -2   21.82    0.87
  -1   3  -2   21.97    1.10
  -1   3  -2   18.66    0.79
  -1   3  -2   21.32    0.99
  -3  -1  -2   18.77    1.07
  -1   3   2   20.87    0.55
   3   0  -2    0.67    0.22
   3   0  -2    0.17    0.29
   0   3  -2    0.32    0.21
   0   3  -2    0.60    0.33
  -3   0  -2    0.01    0.31
  -3   0  -2    0.59    0.34
   0  -3  -2   -0.28    0.30
   0   3   2    0.33    0.15
   0   3   2    0.36    0.15
  -1  -3  -2   21.28    1.17
  -3   1  -2   20.17    1.05
   3  -1  -2   22.15    1.11
   3  -1  -2   20.33    0.60
   1   3  -2   19.65    0.78
  -3   1  -2   21.30    1.12
   1   3  -2   19.02    1.00
  -3   1   2   20.61    0.60
   2   3  -2   61.56    1.89
   2   3  -2   64.89    1.58
   3  -2  -2   62.92    2.03
  -2  -3  -2   62.04    2.08
  -3   2  -2   64.07    1.97
  -3   2  -2   64.95    2.03
  -2  -3   2   65.64    1.61
  -3   2   2   64.02    1.43
   3  -3  -2  518.87    9.25
  -3  -3  -2  524.73    9.25
  -3   3  -2  520.30    9.40
  -3   3  -2  507.85    8.94
   3   3  -2  527.24    9.12
   3   3  -2  511.42    8.45
  -3   3   2  524.10    8.66
   3   3   2  524.53    8.34
   3   3   2  518.30    8.36
  -4  -3  -2   59.84    2.07
  -3   4  -2   54.95    1.80
   4   3  -2   56.06    1.60
   3  -4  -2   54.44    2.02
   4   3  -2   57.07    1.87
  -3   4  -2   56.97    2.09
   3  -4   2   57.14    1.20
  -4  -3   2   57.88    1.52
   4   3   2   57.65    1.31
   4   3   2   55.38    1.34
  -3   4   2   57.79    1.52
   2  -4  -2  187.15    4.24
  -2   4  -2  183.58    4.26
   4   2  -2  183.26    3.85
  -4  -2  -2  185.62    4.15
   4   2  -2  186.38    3.74
  -2   4  -2  179.04    3.80
  -2   4   2  190.83    3.51
   4   2   2  188.54    3.16
  -4  -2   2  186.88    3.52
   4   2   2  187.93    3.17
  -4  -1  -2   20.66    1.20
   4   1  -2   20.84    1.02
   4   1  -2   22.57    0.94
  -1   4  -2   21.40    0.99
  -4  -1  -2   23.21    1.20
   1  -4  -2   19.96    1.22
  -1   4  -2   21.44    1.18
  -4  -1   2   21.01    0.76
  -1   4   2   21.14    0.76
  -1   4   2   23.27    0.77
   4   0  -2   25.04    0.91
   0   4  -2   24.27    1.23
   4   0  -2   24.53    1.15
   0   4  -2   24.33    0.76
  -4   0  -2   22.33    1.23
   0  -4  -2   24.01    1.30
  -4   0   2   23.73    0.81
   0   4   2   25.08    0.78
   0   4   2   23.95    0.74
   0   4   2   24.27    0.74
   1   4  -2   20.73    1.13
  -1  -4  -2   24.46    1.28
   4  -1  -2   21.31    1.13
  -4   1  -2   20.52    1.15
   1   4  -2   21.65    0.72
  -1  -4   2   21.29    0.83
   1   4   2   21.85    0.71
  -4   1   2   21.93    0.80
   1   4   2   22.94    0.70
   2   4  -2  193.96    3.38
  -2  -4  -2  190.30    4.31
   4  -2  -2  183.64    4.15
   2   4  -2  192.45    4.19
   4  -2  -2  189.90    3.31
  -4   2  -2  186.56    4.27
  -4   2  -2  185.53    4.10
   2   4   2  187.79    3.43
  -4   2   2  188.66    3.59
  -2  -4   2  190.13    3.39
  -2  -4   2  194.27    3.40
   2   4   2  191.13    3.39
  -4   3  -2   57.60    1.91
  -3  -4  -2   54.90    2.01
  -4   3  -2   57.29    2.06
   4  -3  -2   55.92    1.26
   3   4  -2   56.39    1.43
   3   4  -2   56.28    1.93
   4  -3  -2   56.20    2.02
   3   4   2   58.35    1.36
   3   4   2   57.56    1.41
  -4   3   2   57.56    1.54
  -3  -4   2   58.55    1.35
  -3  -4   2   54.63    1.40
   4  -3   2   56.74    1.17
   4  -3   2   56.35    1.17
   4  -4  -2   58.63    1.35
  -4   4  -2   60.82    1.96
   4  -4  -2   58.96    2.13
   4   4  -2   58.71    1.56
  -4  -4  -2   56.05    2.10
   4   4  -2   62.40    2.05
  -4   4  -2   56.67    2.18
  -4  -4   2   58.92    1.36
  -4   4   2   58.24    1.64
  -4  -4   2   58.86    1.64
   4   4   2   59.74    1.54
   4   4   2   58.66    1.48
   4  -4   2   60.09    1.38
  -4  -4   2   59.73    1.56
   4  -5  -2  100.49    3.02
  -5  -4  -2  107.02    3.05
   5   4  -2  106.34    2.94
  -4   5  -2  104.60    2.75
   4  -5  -2  105.79    2.19
  -4   5  -2  106.67    3.20
   4  -5   2  107.09    2.27
  -4   5   2  103.45    2.52
   5   4   2  101.16    2.31
  -5  -4   2  101.62    2.52
   5   4   2  104.11    2.40
  -5  -4   2  104.16    2.45
  -3   5  -2    4.77    0.78
   3  -5  -2    5.48    0.44
  -5  -3  -2    4.87    0.72
   3  -5  -2    5.21    0.78
  -3   5  -2    5.79    0.70
   5   3  -2    5.08    0.71
   5   3   2    4.76    0.47
  -5  -3   2    4.73    0.53
  -3   5   2    5.74    0.57
   3  -5   2    3.89    0.38
   5   3   2    5.12    0.45
  -3   5   2    5.32    0.43
   5   2  -2  177.39    3.75
  -2   5  -2  189.13    3.80
   5   2  -2  180.70    3.92
  -2   5  -2  175.26    4.31
   2  -5  -2  177.99    4.24
   5   2   2  180.03    3.35
  -5  -2   2  182.73    3.65
   5   2   2  184.17    3.31
   2  -5   2  179.96    3.28
  -2   5   2  180.72    3.58
  -2   5   2  184.15    3.21
  -1   5  -2   10.73    1.07
   5   1  -2   12.69    0.87
  -1   5  -2   11.94    0.74
   1  -5  -2    9.98    1.03
  -5  -1  -2   10.42    1.04
  -1   5   2   10.64    0.52
   5   1   2   10.66    0.47
   5   1   2   11.34    0.49
   1  -5   2   10.49    0.49
  -1   5   2   10.83    0.62
  -5  -1   2   11.03    0.66
  -5   0  -2    1.80    0.50
   0   5  -2    2.67    0.41
   5   0  -2    1.84    0.47
   0   5  -2    1.74    0.52
   0  -5  -2    1.22    0.52
   0  -5   2    2.63    0.30
   5   0   2    2.28    0.24
   0   5   2    2.87    0.36
  -5   0   2    2.04    0.36
   0   5   2    2.37    0.35
   5   0   2    2.48    0.25
   0   5   2    2.64    0.37
   5  -1  -2   10.62    0.97
   1   5  -2   10.37    1.02
  -5   1  -2   11.74    1.05
  -1  -5  -2   11.46    1.07
   1   5   2   10.33    0.63
  -5   1   2   10.58    0.63
  -1  -5   2    9.85    0.51
   5  -1   2   10.68    0.43
   5  -1   2   10.11    0.42
   1   5   2   10.70    0.60
   1   5   2   10.96    0.58
  -5   2  -2  183.17    4.32
   2   5  -2  180.60    3.05
  -5   2  -2  177.66    4.10
   5  -2  -2  178.93    4.13
  -2  -5  -2  186.88    4.34
   2   5  -2  178.20    4.21
   5  -2  -2  183.30    3.44
   2   5   2  181.67    3.56
   5  -2   2  185.47    3.24
  -5   2   2  183.76    3.65
   2   5   2  181.09    3.48
  -2  -5   2  181.56    3.44
   5  -2   2  182.08    3.24
   3   5  -2    4.82    0.41
  -5   3  -2    5.25    0.80
  -5   3  -2    4.13    0.65
   5  -3  -2    5.22    0.50
  -3  -5  -2    4.36    0.75
   5  -3  -2    4.35    0.70
   3   5  -2    5.12    0.75
   5  -3   2    4.33    0.40
  -5   3   2    4.13    0.50
  -3  -5   2    4.46    0.46
   3   5   2    4.58    0.46
   3   5   2    4.92    0.50
   5  -3   2    4.45    0.39
  -5   4  -2  103.82    3.16
   5  -4  -2  105.07    3.02
  -5   4  -2  102.93    2.83
   4   5  -2  107.58    2.22
   4   5  -2  104.38    3.00
  -4  -5  -2  108.58    3.11
   5  -4  -2  103.67    2.26
   4   5   2  101.48    2.34
  -4  -5   2  108.54    2.54
   5  -4   2  104.95    2.25
  -5   4   2  105.59    2.53
   4   5   2  103.70    2.44
  -4  -5   2  101.45    2.40
   5   5  -2    2.90    0.65
  -5   5  -2    1.68    0.61
   5  -5  -2    3.32    0.69
   5  -5  -2    3.80    0.47
  -5  -5  -2    3.12    0.68
  -5   5  -2    3.32    0.61
  -5   5   2    3.61    0.53
  -5  -5   2    3.10    0.50
  -5  -5   2    2.61    0.45
   5  -5   2    2.75    0.40
   5   5   2    3.30    0.48
   5   5   2    2.64    0.42
   5  -6  -2    3.20    0.72
  -5   6  -2    2.24    0.65
   6   5  -2    2.86    0.67
  -5   6  -2    3.32    0.63
  -6  -5   2    3.35    0.54
  -6  -5   2    3.08    0.56
  -5   6   2    3.56    0.56
   6   5   2    2.98    0.46
   6   5   2    2.99    0.50
   5  -6   2    2.80    0.44
   4  -6  -2    6.44    0.95
   4  -6  -2    7.54    0.64
   6   4  -2    7.86    0.92
  -4   6  -2    6.87    0.79
  -4   6  -2    7.17    1.04
  -6  -4   2    7.41    0.70
   4  -6   2    5.92    0.56
   6   4   2    6.65    0.65
  -4   6   2    6.83    0.70
  -4   6   2    6.86    0.60
   6   4   2    7.80    0.58
  -6  -4   2    7.18    0.74
   6   3  -2   11.68    1.07
  -3   6  -2   11.87    0.86
  -3   6  -2    9.85    1.14
   3  -6  -2    9.98    1.10
   3  -6  -2   11.05    0.64
  -6  -3   2   10.75    0.74
   6   3   2   11.81    0.66
  -6  -3   2    9.70    0.68
  -3   6   2   10.51    0.74
  -3   6   2   10.08    0.60
   6   3   2   10.60    0.66
   3  -6   2   11.62    0.65
  -2   6  -2   16.58    0.91
  -6  -2  -2   17.84    1.16
   2  -6  -2   15.81    1.13
  -2   6  -2   15.61    1.37
  -2   6   2   14.86    0.70
  -2   6   2   15.63    0.82
   6   2   2   15.65    0.75
  -6  -2   2   14.95    0.85
   2  -6   2   15.88    0.72
   6   2   2   15.95    0.72
  -6  -1  -2    3.89    0.71
  -1   6  -2    1.86    0.55
  -1   6  -2    3.50    0.51
   1  -6  -2    1.73    0.57
  -1   6   2    3.29    0.42
  -1   6   2    3.11    0.43
   6   1   2    2.56    0.35
  -6  -1   2    2.01    0.42
   6   1   2    3.98    0.40
   1  -6   2    1.80    0.31
   0   6  -2    4.73    0.77
   0  -6  -2    3.67    0.68
  -6   0  -2    4.96    0.75
   0   6  -2    4.79    0.52
   6   0   2    3.97    0.41
   0   6   2    4.52    0.52
   6   0   2    4.14    0.40
   0   6   2    4.29    0.52
   0   6   2    4.03    0.47
  -6   0   2    4.35    0.54
   0  -6   2    4.86    0.46
  -1  -6  -2    4.14    0.73
  -6   1  -2    3.78    0.68
   1   6  -2    3.24    0.69
   6  -1  -2    2.48    0.56
   6  -1   2    2.44    0.34
   1   6   2    2.79    0.47
   6  -1   2    3.77    0.39
  -6   1   2    2.92    0.46
   1   6   2    3.47    0.48
  -1  -6   2    3.16    0.39
   1   6   2    3.11    0.42
  -6   2  -2   14.56    1.23
  -2  -6  -2   14.17    1.25
   2   6  -2   15.49    1.15
   6  -2  -2   14.50    1.21
  -2  -6   2   16.23    0.76
   2   6   2   15.51    0.82
   2   6   2   15.92    0.90
   6  -2   2   15.30    0.70
   2   6   2   16.40    0.78
  -6   2   2   16.03    0.86
   6  -2   2   16.15    0.69
  -3  -6  -2   11.15    1.15
   3   6  -2    8.93    1.04
   6  -3  -2   10.61    1.08
  -6   3  -2   10.80    1.06
  -6   3  -2   10.24    1.14
  -3  -6   2   12.34    0.70
  -6   3   2   11.37    0.76
   6  -3   2   11.22    0.63
   6  -3   2    9.73    0.59
   3   6   2   10.79    0.71
   3   6   2   10.16    0.66
  -6   4  -2    7.09    1.00
  -4  -6  -2    5.34    0.84
  -6   4  -2    7.83    0.91
   4   6  -2    7.19    0.97
   6  -4  -2    6.90    0.91
   4   6  -2    6.11    0.47
  -4  -6   2    7.67    0.68
  -4  -6   2    7.04    0.71
  -6   4   2    6.87    0.71
   6  -4   2    6.24    0.57
   4   6   2    6.24    0.66
   4   6   2    6.08    0.61
  -6   5  -2    1.96    0.65
  -5  -6  -2    1.63    0.60
  -6   5  -2    2.11    0.57
   6  -5  -2    3.60    0.71
   5   6  -2    3.33    0.70
  -5  -6   2    2.31    0.45
  -6   5   2    3.36    0.56
   5   6   2    3.24    0.51
   6  -5   2    2.20    0.42
   5   6   2    2.84    0.46
  -5  -6   2    2.87    0.53
   6   6  -2    5.90    0.94
   6  -6  -2    4.55    0.83
  -6   6  -2    4.94    0.78
  -6   6  -2    5.69    0.94
  -6   6   2    5.26    0.71
   6  -6   2    5.44    0.62
  -6  -6   2    6.67    0.78
  -6  -6   2    4.56    0.62
   6   6   2    4.65    0.63
   6   6   2    5.85    0.64
  -6   7  -2    5.82    0.86
  -6   7  -2    5.32    0.99
   6  -7  -2    5.32    0.91
   7   6  -2    5.62    0.94
   6  -7   2    6.37    0.71
  -7  -6   2    4.47    0.70
  -7  -6   2    6.13    0.73
   7   6   2    6.36    0.71
   7   6   2    5.57    0.72
  -6   7   2    6.63    0.80
  -5   7  -2    4.65    0.73
   7   5  -2    2.39    0.68
  -5   7  -2    2.05    0.69
   5  -7  -2    3.34    0.75
   7   5   2    3.28    0.55
  -7  -5   2    2.22    0.48
  -5   7   2    2.52    0.48
   5  -7   2    2.51    0.47
   7   5   2    2.77    0.50
  -7  -5   2    2.77    0.55
  -5   7   2    3.11    0.56
  -4   7  -2    8.78    0.91
   7   4  -2    8.94    1.03
  -4   7  -2    6.32    0.99
   4  -7  -2    5.97    0.92
  -4   7   2    8.24    0.73
  -7  -4   2    7.55    0.74
   4  -7   2    7.65    0.68
  -7  -4   2    7.20    0.79
  -4   7   2    7.79    0.77
   7   4   2    6.30    0.68
   7   4   2    7.72    0.71
  -7  -3  -2   13.68    1.29
   3  -7  -2   16.23    1.41
  -3   7  -2   15.67    1.50
  -3   7  -2   14.30    0.92
   3  -7   2   14.88    0.81
  -7  -3   2   15.99    0.97
  -7  -3   2   15.10    0.89
   7   3   2   17.28    0.86
   7   3   2   15.01    0.86
  -3   7   2   15.65    0.93
  -3   7   2   14.51    0.80
  -7  -2  -2    1.34    0.53
   2  -7  -2    0.74    0.46
  -2   7  -2    1.57    0.42
  -2   7  -2    0.64    0.47
   7   2   2    0.86    0.30
   7   2   2    1.28    0.35
   2  -7   2    0.87    0.31
  -2   7   2    1.18    0.35
  -7  -2   2    1.15    0.39
  -2   7   2    1.12    0.36
  -1   7  -2    7.86    1.04
   1  -7  -2    5.55    0.86
  -1   7  -2    6.67    0.65
  -7  -1  -2    7.04    0.94
  -7  -1   2    6.76    0.70
  -1   7   2    7.99    0.71
   7   1   2    6.65    0.59
   1  -7   2    6.16    0.59
  -1   7   2    7.13    0.69
   7   1   2    7.17    0.61
   0   7  -2    4.74    0.51
  -7   0  -2    3.97    0.72
   0   7  -2    3.67    0.76
   0  -7  -2    5.24    0.83
  -7   0   2    5.03    0.62
   0  -7   2    3.46    0.47
   7   0   2    4.65    0.49
   0   7   2    5.31    0.60
   7   0   2    4.34    0.49
   0   7   2    5.54    0.64
  -1  -7  -2    5.91    0.88
  -7   1  -2    6.50    0.87
   1   7  -2    6.84    0.94
   1   7  -2    7.78    0.58
  -7   1   2    5.79    0.66
   1   7   2    6.97    0.71
   7  -1   2    5.45    0.54
  -1  -7   2    6.13    0.59
   1   7   2    7.18    0.73
   1   7   2    7.81    0.69
   7  -1   2    6.39    0.56
  -7   2  -2    1.13    0.48
   7  -2  -2    1.70    0.53
   2   7  -2    1.28    0.51
  -2  -7  -2    1.71    0.60
   2   7   2    1.05    0.36
   7  -2   2    1.05    0.31
   2   7   2    1.41    0.35
   2   7   2    0.68    0.38
   7  -2   2    0.60    0.28
  -2  -7   2    0.82    0.32
  -7   2   2    1.15    0.37
  -7   3  -2   13.61    1.23
  -3  -7  -2   15.79    1.37
   7  -3  -2   15.76    1.34
   3   7  -2   14.74    1.38
   3   7   2   16.10    1.03
   3   7   2   15.48    0.86
   3   7   2   16.68    0.95
  -3  -7   2   15.78    0.87
   7  -3   2   15.56    0.81
  -7   3   2   17.29    1.00
  -7   4  -2    8.01    0.97
   4   7  -2    7.27    0.42
  -7   4  -2    7.25    1.04
   4   7  -2    7.71    1.07
   7  -4  -2    7.84    0.99
  -4  -7  -2    7.36    1.00
  -4  -7   2    6.82    0.76
   4   7   2    8.28    0.74
   7  -4   2    7.01    0.65
   4   7   2    6.68    0.73
  -4  -7   2    6.70    0.70
  -7   4   2    9.35    0.87
   5   7  -2    3.72    0.79
   7  -5  -2    1.52    0.54
  -7   5  -2    2.06    0.58
  -5  -7  -2    3.17    0.72
  -7   5  -2    1.63    0.59
   5   7   2    3.26    0.54
  -5  -7   2    1.93    0.48
  -5  -7   2    2.93    0.52
  -7   5   2    2.32    0.52
   7  -5   2    2.12    0.46
   5   7   2    3.09    0.55
   7  -6  -2    5.50    0.96
  -6  -7  -2    6.75    0.96
  -7   6  -2    6.75    1.11
   6   7  -2    4.11    0.86
  -7   6  -2    6.23    0.89
  -6  -7   2    7.17    0.79
  -6  -7   2    6.05    0.79
   6   7   2    6.11    0.71
   7  -6   2    6.25    0.68
  -7   6   2    6.21    0.79
   6   7   2    7.05    0.79
   7  -7  -2    5.70    0.99
  -7   7  -2    6.65    0.93
   7   7  -2    7.54    1.08
  -7   7  -2    6.31    1.09
   7   7   2    6.51    0.81
   7  -7   2    6.39    0.74
  -7  -7   2    6.07    0.77
   7   7   2    6.37    0.76
   7  -8  -2    7.01    1.10
  -7   8  -2    6.00    0.91
  -7   8  -2    6.27    1.16
   8   7  -2    6.24    1.03
   7  -8   2    6.67    0.80
  -8  -7   2    5.47    0.78
   8   7   2    8.02    0.92
   6  -8  -2    4.63    0.91
  -6   8  -2    4.89    0.80
  -6   8  -2    5.80    1.07
   8   6  -2    6.31    1.06
  -6   8   2    5.29    0.73
  -8  -6   2    5.37    0.73
   6  -8   2    4.88    0.67
   8   6   2    5.22    0.70
   8   6   2    5.21    0.73
   8   5  -2    2.23    0.65
   5  -8  -2    1.45    0.66
  -5   8  -2    2.00    0.69
  -5   8  -2    0.67    0.42
   5  -8   2    0.82    0.39
   8   5   2    0.23    0.33
  -5   8   2    1.61    0.45
  -5   8   2    0.97    0.43
  -8  -5   2    1.32    0.45
   8   5   2    1.26    0.43
  -8  -5   2    1.19    0.47
  -4   8  -2    4.20    0.90
   4  -8  -2    2.37    0.68
  -4   8  -2    4.17    0.69
  -8  -4   2    3.83    0.64
  -8  -4   2    4.14    0.63
   8   4   2    2.97    0.51
  -4   8   2    3.57    0.58
   4  -8   2    3.20    0.52
  -4   8   2    3.81    0.62
   8   4   2    3.49    0.57
   3  -8  -2   22.35    1.47
  -8  -3  -2   21.79    1.43
  -3   8  -2   21.15    1.50
  -3   8  -2   21.62    1.15
  -8  -3   2   19.48    1.06
  -3   8   2   18.60    1.01
   3  -8   2   18.32    0.97
   8   3   2   19.88    1.06
  -3   8   2   19.75    1.10
   8   3   2   21.20    1.04
  -8  -3   2   19.38    1.13
   2  -8  -2   47.67    2.14
  -2   8  -2   48.43    1.62
  -2   8  -2   45.23    2.20
  -8  -2  -2   47.74    2.10
   8   2   2   50.03    1.58
   2  -8   2   47.21    1.58
  -8  -2   2   52.48    1.83
   8   2   2   49.30    1.65
  -8  -2   2   47.98    1.70
  -2   8   2   48.00    1.65
  -2   8   2   50.04    1.71
   1  -8  -2   34.00    1.77
  -8  -1  -2   33.51    1.70
  -1   8  -2   33.53    1.25
  -1   8  -2   32.07    1.84
  -1   8   2   31.75    1.35
  -1   8   2   32.63    1.33
  -8  -1   2   31.85    1.41
   8   1   2   30.91    1.22
   8   1   2   31.97    1.26
   1  -8   2   33.09    1.26
   0   8  -2   56.56    1.57
   0  -8  -2   58.98    2.33
  -8   0  -2   57.27    2.23
   0   8  -2   58.05    2.45
  -8   0   2   57.62    1.93
   8   0   2   56.44    1.76
   8   0   2   56.86    1.71
   0   8   2   58.63    1.90
   0   8   2   57.42    1.82
   0  -8   2   56.06    1.73
  -1  -8  -2   29.46    1.64
   1   8  -2   35.32    1.87
   1   8  -2   33.02    1.02
  -8   1  -2   33.54    1.70
  -1  -8   2   32.91    1.27
   1   8   2   32.94    1.33
   8  -1   2   32.17    1.27
  -8   1   2   33.43    1.41
   8  -1   2   33.41    1.27
   1   8   2   30.97    1.38
  -2  -8  -2   47.14    2.12
  -8   2  -2   51.17    2.10
   2   8  -2   50.83    2.24
   2   8   2   49.90    1.85
  -8   2   2   47.91    1.73
   8  -2   2   45.54    1.55
  -2  -8   2   49.08    1.62
   2   8   2   47.10    1.63
   8  -2   2   49.42    1.58
   2   8   2   49.36    1.76
   8  -3  -2   21.34    1.38
   3   8  -2   16.61    1.56
  -8   3  -2   17.96    1.27
  -3  -8  -2   18.69    1.37
  -3  -8   2   20.45    1.06
   3   8   2   18.28    1.07
  -8   3   2   21.62    1.20
   8  -3   2   19.27    1.00
   3   8   2   20.87    1.07
   3   8   2   20.33    1.21
   8  -4  -2    4.31    0.82
  -4  -8  -2    3.24    0.74
   4   8  -2    4.22    0.87
  -8   4  -2    4.77    0.78
   4   8   2    3.66    0.69
  -8   4   2    3.97    0.66
  -4  -8   2    4.30    0.65
  -4  -8   2    3.05    0.56
   4   8   2    4.73    0.62
   8  -4   2    4.41    0.61
   4   8   2    4.25    0.65
  -8   5  -2    1.53    0.57
   5   8  -2    0.87    0.58
   8  -5  -2    0.51    0.43
  -8   5  -2    1.16    0.59
  -5  -8  -2    0.80    0.55
   5   8   2    1.59    0.47
  -5  -8   2    1.88    0.53
  -5  -8   2    0.78    0.42
   5   8   2    1.12    0.43
   8  -5   2    1.10    0.41
  -6  -8  -2    5.26    0.94
  -8   6  -2    5.30    1.05
   8  -6  -2    4.52    0.88
  -8   6  -2    4.76    0.83
   6   8  -2    5.38    1.01
   8  -6   2    4.47    0.66
   6   8   2    5.74    0.76
  -6  -8   2    5.32    0.72
   6   8   2    6.05    0.74
  -8   7  -2    4.84    0.99
   8  -7  -2    6.31    1.05
   7   8  -2    7.71    1.19
  -8   7  -2    6.28    0.97
   7   8   2    7.47    0.91
   8  -7   2    6.27    0.77
  -7  -8   2    7.75    0.89
  -8   8  -2   20.66    1.39
   8   8  -2   20.03    1.87
  -8   8  -2   18.75    1.91
   8  -8  -2   19.88    1.83
  -8  -8   2   19.90    1.26
   8   8   2   19.91    1.29
   8  -8   2   20.02    1.23
   8  -9  -2    2.30    0.75
  -8   9  -2    3.35    0.78
   9   8  -2    3.53    0.94
  -8   9  -2    3.96    1.00
   8  -9   2    4.37    0.77
   9   8   2    2.81    0.72
   7  -9  -2    2.02    0.74
  -7   9  -2    1.51    0.56
  -7   9  -2    1.66    0.71
   9   7  -2    2.12    0.73
   9   7   2    2.04    0.59
   7  -9   2    0.58    0.44
  -7   9   2    2.74    0.61
  -9  -7   2    1.74    0.56
   6  -9  -2   16.10    1.63
   9   6  -2   14.98    1.57
  -6   9  -2   15.26    1.70
  -6   9  -2   16.24    1.19
   6  -9   2   13.28    0.98
  -6   9   2   14.60    1.05
   9   6   2   15.52    1.13
  -9  -6   2   15.62    1.08
  -5   9  -2    2.39    0.60
  -5   9  -2    1.95    0.76
   5  -9  -2    3.11    0.84
   9   5  -2    1.33    0.62
   9   5   2    2.38    0.56
   5  -9   2    3.03    0.59
   9   5   2    2.45    0.53
  -9  -5   2    2.21    0.57
  -5   9   2    3.21    0.63
  -4   9  -2   13.81    1.14
  -4   9  -2   17.16    1.72
   4  -9  -2   11.43    1.33
  -9  -4  -2   14.02    1.44
   4  -9   2   13.81    0.95
  -9  -4   2   14.46    1.02
  -4   9   2   13.49    0.98
   9   4   2   13.36    0.94
   9   4   2   11.81    1.04
   3  -9  -2   27.75    1.70
  -3   9  -2   28.04    1.81
  -3   9  -2   26.83    1.28
  -9  -3  -2   25.44    1.61
   3  -9   2   26.70    1.25
  -9  -3   2   26.33    1.34
  -3   9   2   27.99    1.37
   9   3   2   27.19    1.33
   9   3   2   26.43    1.25
  -9  -3   2   28.17    1.42
  -3   9   2   27.78    1.33
   2  -9  -2   52.32    2.34
  -9  -2  -2   53.06    2.27
  -2   9  -2   50.69    2.47
  -2   9  -2   52.27    1.72
   2  -9   2   50.98    1.77
  -9  -2   2   48.48    1.81
   9   2   2   51.73    1.83
  -2   9   2   54.18    1.88
  -9  -2   2   57.74    2.01
  -2   9   2   55.72    1.92
   9   2   2   52.18    1.77
  -1   9  -2   64.82    1.88
  -1   9  -2   75.16    2.93
  -9  -1  -2   65.96    2.53
   1  -9  -2   70.10    2.69
   1  -9   2   69.74    2.09
   9   1   2   65.11    2.06
   9   1   2   67.24    2.03
  -1   9   2   69.46    2.20
  -1   9   2   68.45    2.15
  -9  -1   2   72.05    2.28
   0  -9  -2   27.88    1.71
  -9   0  -2   26.14    1.56
   0   9  -2   26.94    1.04
   0   9  -2   24.28    1.66
   9   0   2   25.01    1.20
   0   9   2   25.88    1.27
   0   9   2   27.02    1.35
  -9   0   2   27.09    1.36
   0  -9   2   24.75    1.18
   9   0   2   26.55    1.21
   1   9  -2   67.84    1.61
  -1  -9  -2   69.48    2.66
  -9   1  -2   62.26    2.47
   1   9  -2   70.53    2.87
   9  -1   2   70.62    2.15
   1   9   2   74.25    2.19
   1   9   2   71.93    2.34
  -9   1   2   70.10    2.26
   9  -1   2   68.10    2.05
  -1  -9   2   68.71    2.09
  -2  -9  -2   50.61    2.29
  -9   2  -2   52.16    2.21
   2   9  -2   52.84    2.42
   9  -2   2   49.48    1.75
   2   9   2   51.18    2.00
  -9   2   2   55.45    1.95
  -2  -9   2   52.12    1.79
   2   9   2   53.84    1.85
   3   9  -2   26.52    1.78
  -9   3  -2   29.15    1.67
  -3  -9  -2   29.63    1.70
   9  -3   2   26.84    1.27
   3   9   2   29.93    1.45
   3   9   2   28.93    1.36
   3   9   2   29.38    1.53
  -3  -9   2   28.28    1.44
  -3  -9   2   27.35    1.30
  -4  -9  -2   15.23    1.47
   4   9  -2   11.59    1.40
  -9   4  -2   12.89    1.33
   9  -4  -2   16.35    1.54
   4   9   2   13.16    1.03
   4   9   2   14.18    1.32
   4   9   2   13.56    0.98
  -4  -9   2   11.88    1.11
   9  -4   2   13.52    0.95
  -4  -9   2   14.54    0.97
   5   9  -2    2.96    0.79
  -5  -9  -2    1.11    0.59
  -9   5  -2    2.28    0.66
   9  -5  -2    2.55    0.72
   5   9   2    2.29    0.67
  -5  -9   2    2.71    0.60
   5   9   2    2.53    0.61
   9  -5   2    2.84    0.56
  -6  -9  -2   13.91    1.45
  -9   6  -2   14.94    1.42
   9  -6  -2   15.43    1.58
   6   9  -2   14.41    1.59
  -9   6  -2   18.28    1.87
  -6  -9   2   13.56    1.02
   6   9   2   16.48    1.17
   9  -6   2   13.08    1.00
   6   9   2   14.12    1.43
  -9   7  -2    1.90    0.77
   7   9  -2    1.22    0.69
   9  -7  -2    2.09    0.73
  -9   7  -2    1.69    0.62
   7   9   2    2.35    0.64
   9  -7   2    2.17    0.59
  -7  -9   2    2.67    0.62
  -9   8  -2    5.63    1.16
  -9   8  -2    4.70    0.88
   8   9  -2    4.65    1.01
   9  -8  -2    3.56    0.89
   9  -8   2    3.46    0.72
   8   9   2    2.86    0.72
  -9   9  -2    2.01    0.80
  -9   9  -2    3.13    0.81
   9   9  -2    1.91    0.88
   9  -9  -2    2.90    0.87
   9  -9   2    1.06    0.55
   9 -10  -2    2.01    0.79
  10   9  -2    1.50    0.82
  -9  10  -2    0.73    0.70
  -9  10  -2    0.40    0.52
  -8  10  -2    4.40    0.88
   8 -10  -2    5.41    1.12
  10   8  -2    3.63    1.00
  -8  10  -2    5.59    1.19
   8 -10   2    5.18    0.84
  -7  10  -2    1.75    0.76
  10   7  -2    0.90    0.67
  -7  10  -2   -0.03    0.50
   7 -10  -2    0.47    0.57
  10   7   2    0.33    0.47
   7 -10   2    1.19    0.53
  -7  10   2    1.22    0.55
  -6  10  -2    0.30    0.43
   6 -10  -2   -0.02    0.51
  -6  10  -2    0.03    0.52
  10   6  -2    1.30    0.66
 -10  -6   2    0.82    0.48
  -6  10   2    0.55    0.47
   6 -10   2    0.16    0.37
  10   6   2   -0.01    0.42
   5 -10  -2   18.73    1.76
  -5  10  -2   19.21    1.27
  -5  10  -2   20.13    2.01
   5 -10   2   16.24    1.13
  -5  10   2   19.68    1.25
  10   5   2   17.52    1.21
 -10  -5   2   14.17    1.22
 -10  -4  -2   13.83    1.52
   4 -10  -2   14.75    1.53
  -4  10  -2   15.65    1.73
  -4  10  -2   17.60    1.17
  -4  10   2   16.36    1.15
   4 -10   2   16.93    1.10
  10   4   2   16.11    1.14
 -10  -4   2   16.81    1.15
   3 -10  -2   25.46    1.72
 -10  -3  -2   27.82    1.70
  -3  10  -2   26.01    1.31
  -3  10  -2   24.07    2.12
  -3  10   2   25.86    1.37
  10   3   2   24.63    1.35
   3 -10   2   23.82    1.27
  10   3   2   25.44    1.29
 -10  -3   2   24.35    1.32
  -2  10  -2    4.52    0.63
  -2  10  -2    3.63    0.91
   2 -10  -2    4.07    0.90
 -10  -2  -2    5.43    0.95
  -2  10   2    3.70    0.69
   2 -10   2    4.51    0.67
  10   2   2    3.16    0.62
  10   2   2    4.47    0.65
 -10  -2   2    2.87    0.62
 -10  -1  -2   24.70    1.57
  -1  10  -2   25.02    1.10
  -1  10  -2   28.59    1.89
   1 -10  -2   27.73    1.76
 -10  -1   2   21.99    1.28
  10   1   2   23.94    1.28
   1 -10   2   25.21    1.26
  10   1   2   22.92    1.22
  -1  10   2   21.74    1.31
 -10   0  -2   36.36    1.94
   0  10  -2   39.29    2.17
   0 -10  -2   36.58    1.98
   0  10  -2   36.92    1.25
   0  10   2   34.04    1.65
   0 -10   2   38.22    1.59
  10   0   2   36.65    1.57
  10   0   2   39.25    1.57
 -10   1  -2   20.75    1.45
   1  10  -2   24.16    2.10
  -1 -10  -2   24.12    1.62
  10  -1   2   23.67    1.25
  10  -1   2   22.39    1.21
   1  10   2   24.09    1.41
  -1 -10   2   24.46    1.26
  -2 -10  -2    4.21    0.88
 -10   2  -2    3.21    0.74
   2  10  -2    4.17    0.99
  10  -2   2    4.32    0.69
   2  10   2    4.16    0.76
  -2 -10   2    4.75    0.68
 -10   3  -2   25.10    1.61
   3  10  -2   22.75    1.69
  -3 -10  -2   27.23    1.73
   3  10   2   23.35    1.43
  -3 -10   2   25.65    1.32
  10  -3   2   25.23    1.31
 -10   4  -2   16.40    1.52
   4  10  -2   16.01    1.70
  -4 -10  -2   15.10    1.50
   4  10   2   17.94    1.55
  -4 -10   2   17.70    1.14
  10  -4   2   16.65    1.11
   4  10   2   16.78    1.21
 -10   5  -2   16.60    1.59
   5  10  -2   16.59    1.77
  -5 -10  -2   14.35    1.53
  10  -5  -2   16.00    1.60
   5  10   2   18.40    1.61
  -5 -10   2   15.05    1.08
   5  10   2   15.98    1.21
  10  -5   2   16.89    1.15
   6  10  -2    0.56    0.62
 -10   6  -2    0.62    0.55
  -6 -10  -2   -0.29    0.54
  10  -6  -2    0.75    0.56
  10  -6   2    0.14    0.38
   6  10   2    1.08    0.59
  -6 -10   2    0.31    0.40
   6  10   2    0.93    0.51
   7  10  -2    1.91    0.72
 -10   7  -2    1.42    0.61
  10  -7  -2    1.39    0.66
 -10   7  -2    0.45    0.58
  10  -7   2    0.03    0.45
   7  10   2    0.59    0.53
   7  10   2    1.73    0.62
 -10   8  -2    5.10    1.15
   8  10  -2    6.87    1.32
 -10   8  -2    5.42    1.03
  10  -8  -2    5.88    1.16
   8  10   2    6.68    1.17
  10  -8   2    4.87    0.87
 -10   9  -2    0.45    0.57
  10  -9  -2    2.53    0.84
 -10   9  -2   -0.35    0.56
   9  10  -2    1.66    0.85
  10  10  -2    8.23    1.49
 -10  10  -2    8.79    1.26
  10 -10  -2    9.74    1.48
 -10  10  -2    7.77    1.43
 -10  11  -2    0.93    0.69
  10 -11  -2    2.40    0.88
 -10  11  -2    1.79    0.96
  11  10  -2    0.41    0.72
  -9  11  -2    1.98    0.80
  11   9  -2    2.52    0.98
   9 -11  -2    2.60    0.87
  -9  11  -2    1.32    0.81
   8 -11  -2    0.48    0.68
  -8  11  -2    0.60    0.59
  11   8  -2    0.25    0.67
  -8  11  -2   -0.62    0.45
  -7  11  -2    0.46    0.58
   7 -11  -2    1.55    0.79
  11   7  -2    0.06    0.63
   7 -11   2    2.05    0.65
  -7  11   2    1.08    0.54
   6 -11  -2    3.54    0.99
  -6  11  -2    6.60    1.26
  11   6  -2    6.15    1.17
  -6  11   2    5.21    0.89
  11   6   2    5.80    0.92
   6 -11   2    5.10    0.83
  -5  11  -2   32.32    1.65
   5 -11  -2   34.87    2.06
  -5  11  -2   33.38    2.22
  11   5   2   34.58    1.75
   5 -11   2   37.71    1.75
  -5  11   2   37.03    1.77
  -4  11  -2    8.63    1.37
  -4  11  -2    8.05    0.94
   4 -11  -2    9.42    1.30
 -11  -4  -2   10.06    1.32
  11   4   2    9.63    1.07
   4 -11   2    7.56    0.94
  -4  11   2    9.32    1.11
   3 -11  -2   28.80    1.89
  -3  11  -2   29.50    2.06
  -3  11  -2   28.12    1.41
 -11  -3  -2   26.84    1.76
  -3  11   2   29.28    1.57
  11   3   2   30.32    1.57
   3 -11   2   29.45    1.47
 -11  -3   2   26.93    1.46
  -2  11  -2    7.34    0.79
 -11  -2  -2    6.06    1.01
   2 -11  -2    5.67    1.06
  -2  11  -2    4.47    1.05
   2 -11   2    5.79    0.79
  11   2   2    5.41    0.82
  -2  11   2    5.67    0.88
 -11  -2   2    4.27    0.75
 -11  -1  -2   13.59    1.43
   1 -11  -2   11.45    1.37
  -1  11  -2   11.78    0.85
  -1  11  -2    9.58    1.42
  -1  11   2   13.98    1.31
   1 -11   2   13.37    1.00
  11   1   2   11.90    1.12
 -11  -1   2   13.45    1.19
   0 -11  -2   10.28    1.30
   0  11  -2   12.43    1.58
 -11   0  -2   12.99    1.42
  11   0   2   14.95    1.08
   0 -11   2   13.19    0.99
 -11   0   2   13.47    1.18
   0  11   2   16.38    1.43
   1  11  -2   13.73    1.65
 -11   1  -2   12.46    1.40
  -1 -11  -2   12.35    1.42
  -1 -11   2   12.83    0.98
  11  -1   2   10.55    1.05
   1  11   2   16.27    1.45
  -2 -11  -2    6.23    1.05
   2  11  -2    5.69    1.15
 -11   2  -2    6.08    1.01
   2  11   2    5.97    0.97
  -2 -11   2    5.48    0.80
  11  -2   2    5.11    0.77
 -11   3  -2   27.83    1.73
  -3 -11  -2   28.50    1.84
   3  11  -2   34.59    2.18
   3  11   2   29.61    1.71
  -3 -11   2   26.74    1.45
  11  -3   2   27.94    1.50
   4  11  -2    9.04    1.39
 -11   4  -2    6.69    1.08
  -4 -11  -2    9.06    1.28
  11  -4   2    8.65    1.00
   4  11   2    7.79    1.11
  -4 -11   2    9.10    1.00
   5  11  -2   33.71    2.18
  -5 -11  -2   29.51    1.92
 -11   5  -2   32.26    1.92
   5  11   2   32.92    1.92
  11  -5   2   33.56    1.69
  -5 -11   2   33.54    1.64
   6  11  -2    7.34    1.29
  11  -6  -2    6.23    1.13
 -11   6  -2    3.82    0.84
  -6 -11  -2    5.82    1.07
  11  -6   2    6.06    0.90
   6  11   2    6.53    1.11
 -11   7  -2    2.93    0.84
  11  -7  -2    0.82    0.72
   7  11  -2    1.88    0.84
   7  11   2    2.13    0.80
  11  -7   2    1.07    0.58
 -11   8  -2   -0.50    0.49
  11  -8  -2   -0.24    0.55
   8  11  -2    0.32    0.63
   8  11   2    0.58    0.61
  11  -9  -2    1.73    0.81
   9  11  -2    1.48    0.84
 -11   9  -2    1.78    0.72
 -11   9  -2    2.13    0.87
   9  11   2    0.92    0.74
  11 -10  -2    2.04    0.89
  10  11  -2    1.57    0.84
 -11  10  -2    2.41    0.82
 -11  10  -2    0.49    0.76
  10  11   2    1.55    0.83
  11  11  -2    2.58    1.08
 -11  11  -2    2.41    0.83
 -11  11  -2    1.99    0.95
  11 -11  -2    2.68    1.04
  11 -12  -2    1.84    1.00
 -11  12  -2    0.46    0.71
  12  11  -2    1.73    0.99
 -11  12  -2    1.22    0.92
 -10  12  -2    0.61    0.80
  12  10  -2    0.68    0.83
  10 -12  -2    0.70    0.80
 -10  12  -2   -0.63    0.58
  12   9  -2    2.47    1.03
  -9  12  -2    2.03    0.80
   9 -12  -2    3.69    1.10
  -9  12  -2    2.33    0.99
  12   8  -2    0.48    0.73
  -8  12  -2   -0.01    0.71
   8 -12  -2    0.03    0.64
  12   7  -2   -1.01    0.54
   7 -12  -2   -0.10    0.56
  -7  12  -2    0.11    0.68
   6 -12  -2    9.68    1.41
  -6  12  -2    5.67    1.25
  -5  12  -2    9.97    1.48
  -5  12  -2    8.97    1.06
   5 -12  -2   12.54    1.57
   5 -12   2   10.57    1.14
  -5  12   2   12.95    1.37
   4 -12  -2    2.66    0.88
 -12  -4  -2    3.28    0.88
  -4  12  -2    3.26    0.67
  -4  12  -2    1.54    0.75
  -4  12   2    3.54    0.79
  12   4   2    3.51    0.78
   4 -12   2    3.55    0.77
  -3  12  -2   11.64    1.06
  -3  12  -2    9.13    1.44
 -12  -3  -2   10.07    1.38
   3 -12  -2   10.77    1.42
   3 -12   2    8.09    0.97
  -3  12   2   13.42    1.35
  12   3   2   10.14    1.11
  -2  12  -2    0.05    0.63
  -2  12  -2    0.58    0.41
   2 -12  -2   -0.41    0.51
 -12  -2  -2    1.55    0.73
  12   2   2    0.24    0.42
   2 -12   2   -0.18    0.44
  -2  12   2    0.36    0.47
   1 -12  -2    1.29    0.67
  -1  12  -2    0.65    0.64
 -12  -1  -2    0.04    0.54
  12   1   2    0.33    0.47
  -1  12   2    0.57    0.50
   1 -12   2    0.76    0.52
 -12   0  -2   -0.54    0.40
   0 -12  -2    0.36    0.54
   0  12  -2   -0.15    0.51
   0 -12   2   -0.21    0.41
  12   0   2   -0.30    0.44
   0  12   2   -0.14    0.46
  -1 -12  -2    1.37    0.71
   1  12  -2    0.97    0.70
 -12   1  -2    1.01    0.61
  12  -1   2    0.42    0.49
   1  12   2    0.73    0.55
  -1 -12   2    0.41    0.46
 -12   2  -2    0.91    0.58
   2  12  -2    0.59    0.62
  -2 -12  -2   -0.75    0.52
  -2 -12   2   -0.17    0.43
  12  -2   2    0.36    0.44
   2  12   2    0.73    0.60
  -3 -12  -2   12.39    1.46
   3  12  -2   12.00    1.65
 -12   3  -2   11.92    1.42
  12  -3   2   11.76    1.15
  -3 -12   2   11.67    1.16
   3  12   2   11.75    1.36
   4  12  -2    3.18    0.97
  -4 -12  -2    2.13    0.81
 -12   4  -2    3.66    0.87
   4  12   2    2.90    0.79
  12  -4   2    3.13    0.72
 -12   5  -2    8.51    1.22
  -5 -12  -2   10.25    1.36
   5  12  -2    7.55    1.36
   5  12   2   11.38    1.41
  12  -5   2   11.43    1.24
   6  12  -2    8.21    1.41
  12  -6  -2    7.32    1.28
 -12   6  -2    6.86    1.15
   6  12   2    6.65    1.16
 -12   7  -2   -0.45    0.51
   7  12  -2   -0.13    0.57
  12  -7  -2   -0.04    0.49
   7  12   2    0.81    0.64
  12  -8  -2    0.15    0.61
   8  12  -2    0.57    0.76
 -12   8  -2    1.85    0.75
   8  12   2    0.69    0.66
  12  -9  -2    5.06    1.17
   9  12  -2    3.28    1.11
 -12   9  -2    2.45    0.89
   9  12   2    1.70    0.89
 -12  10  -2    0.13    0.70
  10  12  -2    0.89    0.90
  12 -10  -2    0.26    0.74
  10  12   2    0.11    0.67
 -12  11  -2    2.09    0.86
  12 -11  -2    2.82    1.00
  11  12  -2    0.63    0.82
 -12  11  -2    0.38    0.76
  11  12   2    1.16    0.86
  12 -12  -2    2.09    1.03
  12  12  -2    5.36    1.41
 -12  12  -2    3.41    1.24
 -12  12  -2    3.30    1.04
  12  12   2    4.34    1.24
  13  12  -2    0.62    1.00
 -12  13  -2    0.46    0.88
 -12  13  -2   -0.09    0.80
  12 -13  -2    0.58    0.94
  13  12   2    0.52    0.85
 -11  13  -2   -0.35    0.77
 -11  13  -2   -0.03    0.72
  13  11  -2    0.24    0.89
  11 -13  -2    0.59    0.85
  10 -13  -2    5.22    1.32
  13  10  -2    3.60    1.20
 -10  13  -2    3.44    1.00
 -10  13  -2    3.49    1.15
  13   9  -2   -0.89    0.69
  -9  13  -2   -0.22    0.65
  -9  13  -2    0.01    0.59
   9 -13  -2   -0.68    0.66
  13   8  -2   -0.19    0.60
   8 -13  -2   -0.49    0.67
  -8  13  -2    0.29    0.58
  -8  13  -2    0.10    0.77
  -7  13  -2    0.16    0.70
   7 -13  -2    0.99    0.76
  13   7  -2   -0.08    0.65
  -6  13  -2    2.39    1.01
   6 -13  -2    2.57    0.95
 -13  -5  -2    1.04    0.73
   5 -13  -2    0.52    0.62
  -5  13  -2    0.23    0.50
  -5  13  -2    0.88    0.78
 -13  -4  -2    1.53    0.78
  -4  13  -2    1.54    0.57
  -4  13  -2    2.28    0.90
   4 -13  -2    0.29    0.61
  -4  13   2    2.40    0.76
   3 -13  -2    0.56    0.68
 -13  -3  -2    0.70    0.66
  -3  13  -2   -0.59    0.54
  -3  13   2    1.30    0.65
  -2  13  -2    1.95    0.85
 -13  -2  -2    2.58    0.82
   2 -13  -2    2.16    0.83
  -2  13   2    1.89    0.76
  -1  13  -2    2.09    0.90
 -13  -1  -2    0.55    0.57
   1 -13  -2    1.19    0.71
  -1  13   2    1.83    0.70
  13   1   2    0.54    0.53
   0 -13  -2    0.61    0.64
   0  13  -2    0.05    0.52
 -13   0  -2    1.19    0.68
   0  13   2    0.98    0.65
  13   0   2    0.56    0.54
  -1 -13  -2    0.36    0.65
 -13   1  -2    0.52    0.54
   1  13  -2    1.12    0.70
   1  13   2    1.18    0.68
  13  -1   2    1.16    0.63
  -2 -13  -2    4.29    0.98
   2  13  -2    2.04    0.86
 -13   2  -2    1.43    0.72
   2  13   2    2.43    0.79
  13  -2   2    0.76    0.59
   3  13  -2    0.13    0.56
  -3 -13  -2    1.23    0.71
 -13   3  -2    0.95    0.65
   3  13   2    1.90    0.76
  -4 -13  -2    2.08    0.87
   4  13  -2    2.32    0.98
 -13   4  -2    2.26    0.81
   4  13   2    0.73    0.59
 -13   5  -2   -0.29    0.47
  -5 -13  -2    0.83    0.73
   5  13  -2    1.99    0.86
   5  13   2    0.08    0.61
  13  -6  -2    1.93    0.81
   6  13  -2    1.60    0.81
 -13   6  -2    1.91    0.77
   6  13   2    2.44    0.85
 -13   7  -2    0.95    0.66
  13  -7  -2    0.03    0.64
   7  13  -2    0.56    0.77
   7  13   2    1.55    0.81
  13  -8  -2    0.82    0.79
   8  13  -2    1.14    0.92
 -13   8  -2   -0.17    0.62
   8  13   2    0.11    0.62
  13  -9  -2    0.28    0.74
   9  13  -2    0.04    0.77
 -13   9  -2    0.60    0.65
   9  13   2    0.34    0.68
  13 -10  -2    4.51    1.24
  10  13  -2    2.37    1.15
 -13  10  -2    3.91    1.09
  10  13   2    6.18    1.32
  13 -11  -2    0.37    0.84
  11  13  -2   -0.55    0.83
 -13  11  -2   -0.32    0.69
  11  13   2    0.60    0.80
  13 -12  -2    0.61    0.92
  12  13  -2    0.98    0.99
 -13  12  -2   -0.86    0.70
  12  13   2    0.03    0.84
 -11  14  -2   -0.42    0.80
  14  11  -2    1.31    0.96
  11 -14  -2    1.06    0.91
 -11  14  -2   -0.51    0.72
  14  10  -2    1.65    0.98
  10 -14  -2    0.22    0.86
 -10  14  -2    0.70    0.94
 -10  14  -2    0.20    0.78
  14   9  -2    2.78    1.12
  -9  14  -2    1.70    1.01
  -9  14  -2    1.75    0.82
   9 -14  -2    0.54    0.93
  -8  14  -2    9.74    1.32
  -8  14  -2   11.71    1.90
   8 -14  -2   10.28    1.63
  14   8  -2   11.18    1.79
   7 -14  -2    8.48    1.44
  -7  14  -2    7.04    1.48
  14   7  -2    4.69    1.25
  -7  14  -2    5.73    1.05
  -6  14  -2    0.08    0.79
   6 -14  -2    0.74    0.68
  -6  14  -2   -0.47    0.50
 -14  -5  -2   -0.42    0.66
   5 -14  -2    0.50    0.74
  -5  14  -2    1.01    0.84
   4 -14  -2    0.60    0.69
  -4  14  -2    0.16    0.74
 -14  -4  -2    0.35    0.61
  -3  14  -2    0.06    0.73
 -14  -3  -2   -0.47    0.62
   3 -14  -2    0.88    0.72
   2 -14  -2    0.86    0.74
  -2  14  -2    1.43    0.79
 -14  -2  -2    2.66    0.85
  -2  14   2    0.80    0.66
   1 -14  -2    3.23    1.00
  -1  14  -2    6.28    1.36
 -14  -1  -2    4.25    0.98
  -1  14   2    4.80    1.04
   0  14  -2    1.00    0.77
 -14   0  -2   -0.06    0.47
   0 -14  -2   -0.31    0.62
   0  14   2    0.79    0.66
  -1 -14  -2    3.83    0.98
   1  14  -2    4.22    1.11
 -14   1  -2    4.17    1.00
   1  14   2    4.78    1.10
   2  14  -2    0.29    0.62
 -14   2  -2    1.79    0.79
  -2 -14  -2    2.54    0.87
   2  14   2    1.21    0.80
   3  14  -2    0.26    0.77
  -3 -14  -2    0.64    0.71
 -14   3  -2   -0.32    0.57
   3  14   2    0.76    0.66
 -14   4  -2    0.30    0.63
  -4 -14  -2    0.44    0.70
   4  14  -2    0.06    0.74
   4  14   2    0.26    0.67
  -5 -14  -2    0.35    0.71
 -14   5  -2    0.21    0.54
   5  14  -2   -0.09    0.70
   5  14   2    0.53    0.64
 -14   6  -2   -0.16    0.55
   6  14  -2   -0.30    0.70
   6  14   2    1.01    0.74
  14  -7  -2    6.05    1.30
 -14   7  -2    7.80    1.37
   7  14  -2    7.34    1.57
   7  14   2    7.10    1.31
 -14   8  -2   13.18    1.67
   8  14  -2   11.94    1.87
  14  -8  -2   10.59    1.68
   8  14   2   11.29    1.67
 -14   9  -2    1.07    0.83
   9  14  -2    1.72    1.03
  14  -9  -2    0.57    0.70
   9  14   2    2.21    0.94
  14 -10  -2    0.63    0.82
  10  14  -2   -0.10    0.85
 -14  10  -2    1.67    0.89
  10  14   2    0.82    0.84
 -14  11  -2   -0.76    0.74
  11  14  -2    0.02    0.97
  14 -11  -2    1.86    1.00
  11  14   2    0.69    0.92
  10 -15  -2    0.28    0.88
 -10  15  -2    0.94    0.88
 -10  15  -2   -0.22    0.92
  15  10  -2    0.71    0.95
   9 -15  -2    3.47    1.16
  -9  15  -2    4.12    1.28
  15   9  -2    3.41    1.25
  -9  15  -2    3.78    1.00
  -8  15  -2    7.95    1.26
  -8  15  -2    5.98    1.53
  15   8  -2    6.45    1.47
   8 -15  -2    9.83    1.62
   7 -15  -2    4.86    1.26
  -7  15  -2    5.61    1.42
  15   7  -2    3.48    1.21
  -6  15  -2    6.50    1.55
   6 -15  -2    5.06    1.22
 -15  -5  -2    2.79    0.93
   5 -15  -2    1.40    0.84
  -5  15  -2    2.19    1.06
 -15  -4  -2   -0.25    0.65
  -4  15  -2    0.95    0.88
   4 -15  -2    2.09    0.94
 -15  -3  -2    0.44    0.73
  -3  15  -2    0.27    0.81
   3 -15  -2    1.57    0.88
 -15  -2  -2    0.98    0.75
  -2  15  -2   -0.01    0.73
   2 -15  -2    0.42    0.74
 -15  -1  -2    9.96    1.42
   1 -15  -2   12.55    1.59
  -1  15  -2   11.48    1.79
 -15   0  -2    1.33    0.77
   0 -15  -2    0.72    0.74
   0  15  -2    1.42    0.92
   0  15   2    1.15    0.80
  -1 -15  -2   11.07    1.47
 -15   1  -2   10.31    1.46
   1  15  -2   12.11    1.81
   1  15   2   11.62    1.53
   2  15  -2    1.49    0.86
 -15   2  -2    0.91    0.68
  -2 -15  -2   -1.11    0.55
   2  15   2    2.21    0.90
 -15   3  -2    0.17    0.63
   3  15  -2    0.04    0.66
  -3 -15  -2    0.11    0.70
   3  15   2    0.33    0.67
  -4 -15  -2    1.10    0.81
 -15   4  -2   -0.07    0.61
   4  15  -2   -0.22    0.74
   4  15   2    0.93    0.77
   5  15  -2    0.21    0.79
 -15   5  -2    1.25    0.75
  -5 -15  -2    0.75    0.79
   5  15   2    1.79    0.85
   6  15  -2    1.15    0.85
 -15   6  -2    6.47    1.21
   6  15   2    5.11    1.20
 -15   7  -2    5.55    1.19
  15  -7  -2    4.85    1.27
   7  15  -2    4.17    1.28
   7  15   2    5.58    1.30
   8  15  -2    8.72    1.68
  15  -8  -2    8.61    1.55
 -15   8  -2    6.46    1.27
   8  15   2   11.46    1.72
  15  -9  -2    1.07    0.93
   9  15  -2    0.39    1.03
 -15   9  -2    2.86    1.12
   9  15   2    3.61    1.09
 -15  10  -2    1.69    1.00
  10  15  -2   -0.88    0.85
  15 -10  -2    0.95    0.92
  10  15   2    0.93    0.94
   8 -16  -2    6.37    1.47
  -8  16  -2    5.24    1.51
  16   8  -2    4.01    1.37
  -7  16  -2    9.35    1.80
  16   7  -2    8.88    1.65
   7 -16  -2   10.19    1.71
   6 -16  -2    9.60    1.60
  -6  16  -2    8.48    1.74
   5 -16  -2    4.94    1.28
 -16  -5  -2    4.71    1.19
  -5  16  -2    3.38    1.14
 -16  -4  -2    1.39    0.80
  -4  16  -2    0.64    0.87
   4 -16  -2    1.57    0.91
 -16  -3  -2    0.00    0.77
  -3  16  -2    1.04    0.92
   3 -16  -2   -1.25    0.60
  -2  16  -2    0.60    0.89
   2 -16  -2    1.35    0.90
 -16  -2  -2    0.85    0.83
 -16  -1  -2    0.91    0.83
  -1  16  -2    1.28    1.00
   1 -16  -2    1.04    0.76
   0 -16  -2    6.85    1.24
   0  16  -2    7.24    1.46
 -16   0  -2    4.89    1.17
   1  16  -2   -0.83    0.63
  -1 -16  -2    0.90    0.78
 -16   1  -2    1.21    0.78
  -2 -16  -2    1.18    0.83
 -16   2  -2    1.44    0.87
   2  16  -2   -0.43    0.71
   2  16   2    0.60    0.84
  -3 -16  -2    0.07    0.83
 -16   3  -2   -0.34    0.59
   3  16  -2   -0.60    0.71
   3  16   2   -0.83    0.68
  -4 -16  -2    0.78    0.88
   4  16  -2    1.31    1.02
 -16   4  -2    1.12    0.75
   4  16   2    1.70    1.00
 -16   5  -2    5.09    1.19
   5  16  -2    4.79    1.27
   5  16   2    5.92    1.35
   6  16  -2    7.75    1.68
 -16   6  -2    8.00    1.45
   6  16   2   11.89    1.80
   7  16  -2    6.38    1.55
  16  -7  -2    6.19    1.45
 -16   7  -2    2.77    0.97
   7  16   2    4.25    1.21
 -16   8  -2    3.45    1.12
   8  16  -2    4.13    1.47
  16  -8  -2    4.85    1.31
   8  16   2    3.50    1.21
  -6  17  -2    4.15    1.43
   6 -17  -2    4.34    1.26
   5 -17  -2    0.72    1.01
  -5  17  -2    0.80    0.96
   4 -17  -2   -0.21    0.82
 -17  -4  -2   -0.94    0.74
  -4  17  -2   -0.04    0.82
  -3  17  -2    0.73    0.85
   3 -17  -2    1.12    0.94
 -17  -3  -2    1.25    0.83
   2 -17  -2    0.55    0.84
  -2  17  -2    2.36    1.15
 -17  -2  -2    1.70    0.95
 -17  -1  -2    0.30    0.75
  -1  17  -2    2.18    1.07
   1 -17  -2    1.38    0.96
 -17   0  -2    0.08    0.75
   0  17  -2    0.42    0.91
   0 -17  -2    0.92    0.82
   1  17  -2    1.50    1.05
  -1 -17  -2    0.67    0.80
 -17   1  -2    2.61    1.01
   2  17  -2    0.84    0.95
 -17   2  -2    1.68    0.92
  -2 -17  -2   -0.21    0.74
 -17   3  -2    0.44    0.91
  -3 -17  -2    1.44    0.97
   3  17  -2    1.42    0.99
  -4 -17  -2   -0.85    0.86
 -17   4  -2    0.24    0.66
   4  17  -2    0.57    0.88
 -17   5  -2    1.45    0.86
   5  17  -2    2.48    1.12
   6  17  -2    4.70    1.39
 -17   6  -2    1.90    0.99
   6  17   2    4.29    1.37
 -18  -2  -2    0.67    0.84
  -1  18  -2    0.43    1.01
 -18  -1  -2    0.94    0.86
 -18   0  -2    0.06    0.80
   0  18  -2   -0.38    1.00
 -18   1  -2    0.03    0.80
   1  18  -2   -0.76    0.92
 -18   2  -2    0.72    0.88
   0   0  -3    7.42    0.85
   0   0  -3    6.13    0.57
   0   0   3    7.26    0.61
   0   1  -3   61.77    2.02
   1   0  -3   61.64    1.50
   0  -1  -3   62.04    2.17
   0   1  -3   62.12    1.77
  -1   0  -3   64.24    2.15
   1   0  -3   61.16    2.10
   0   1   3   61.30    1.43
  -1   0   3   63.31    1.52
   1   1  -3   20.66    1.15
   1   1  -3   20.45    0.93
   1  -1  -3   18.92    1.21
  -1  -1  -3   19.63    1.24
  -1   1  -3   21.91    1.16
  -1   1  -3   20.99    1.01
   1   1   3   20.19    0.86
  -1   2  -3   12.22    0.89
  -1   2  -3   12.46    0.87
   2   1  -3   11.76    1.01
  -2  -1  -3   11.96    1.11
   2   1  -3   13.10    0.74
   1  -2  -3   11.17    1.11
   0  -2  -3   14.06    1.23
   0   2  -3   14.06    0.92
  -2   0  -3   15.28    1.07
   2   0  -3   15.29    0.63
   0   2  -3   16.76    0.96
   2   0  -3   14.24    1.04
   1   2  -3   12.11    0.82
  -1  -2  -3   11.78    1.14
  -2   1  -3   12.39    1.06
   1   2  -3   12.73    0.87
   2  -1  -3   14.36    1.24
  -2   1  -3   13.13    0.90
   1   2   3   11.59    0.60
   2   2  -3    6.97    0.76
   2  -2  -3    6.20    0.88
   2   2  -3    6.83    0.72
  -2  -2  -3    7.01    0.90
  -2   2  -3    5.92    0.72
  -2   2  -3    7.12    0.83
  -2   3  -3    2.18    0.57
   3   2  -3    2.14    0.44
  -3  -2  -3    1.50    0.54
   2  -3  -3    0.71    0.49
   3   2  -3    1.54    0.45
  -2   3   3    1.53    0.21
   3   1  -3   16.92    1.05
  -1   3  -3   18.18    0.98
   3   1  -3   16.03    0.82
   1  -3  -3   18.64    1.30
  -3  -1  -3   15.73    1.32
  -1   3  -3   19.54    1.15
  -3   0  -3    9.08    0.98
   0   3  -3   11.83    1.04
   0  -3  -3   12.60    1.23
   3   0  -3    8.51    0.95
   3   0  -3   12.31    0.58
   0   3  -3   10.23    0.84
  -1  -3  -3   18.99    1.28
   1   3  -3   18.06    1.06
   1   3  -3   16.41    0.93
  -3   1  -3   18.15    1.15
   3  -1  -3   16.24    1.15
   1   3   3   17.41    0.68
  -2  -3  -3    2.42    0.64
   2   3  -3    1.80    0.47
  -3   2  -3    2.93    0.61
   2   3  -3    2.21    0.45
   3  -2  -3    0.75    0.44
  -3   2   3    1.87    0.24
  -3   3  -3    7.22    0.92
   3   3  -3    4.99    0.69
   3  -3  -3    5.21    0.82
   3   3  -3    6.08    0.70
  -3  -3  -3    4.92    0.85
  -3   3   3    5.54    0.45
  -4  -3  -3    1.72    0.62
   3  -4  -3    1.17    0.53
  -3   4  -3    1.43    0.51
  -3   4  -3    1.07    0.50
   4   3  -3    0.55    0.36
   4   3  -3    0.71    0.37
  -3   4   3    0.59    0.25
  -4  -3   3    1.14    0.29
   4   2  -3    7.03    0.73
   2  -4  -3    7.97    1.07
  -2   4  -3    7.16    0.94
  -4  -2  -3    7.25    0.98
   4   2  -3    7.31    0.82
  -2   4   3    6.78    0.47
  -4  -2   3    6.73    0.46
  -4  -1  -3    8.02    0.99
   1  -4  -3    5.39    0.88
   4   1  -3    5.28    0.75
  -1   4  -3    6.26    0.85
   4   1  -3    6.08    0.62
  -4  -1   3    5.23    0.39
  -1   4   3    5.11    0.36
  -1   4   3    5.43    0.38
   0  -4  -3    0.22    0.37
   0   4  -3   -0.42    0.30
   0   4  -3   -0.03    0.24
   4   0  -3    0.18    0.21
   4   0  -3    0.17    0.36
  -4   0  -3   -0.23    0.34
  -4   0   3   -0.10    0.16
   0   4   3   -0.11    0.11
   1   4  -3    4.37    0.73
   1   4  -3    5.14    0.57
  -1  -4  -3    8.42    1.04
   4  -1  -3    4.16    0.73
  -4   1   3    4.88    0.43
   1   4   3    5.80    0.44
   4  -2  -3    8.21    1.04
   2   4  -3    7.73    0.88
  -2  -4  -3    7.81    1.04
  -4   2  -3    6.72    0.95
   2   4  -3    7.77    0.69
  -4   2  -3    7.95    0.94
  -4   2   3    6.95    0.49
  -3  -4  -3    1.27    0.58
   3   4  -3    1.67    0.41
  -4   3  -3    0.67    0.45
   3   4  -3    1.08    0.46
   4  -3  -3    1.63    0.58
  -4   3  -3    1.17    0.52
  -4   3   3    0.82    0.29
   3   4   3    0.78    0.20
   3   4   3    1.20    0.22
  -4   4  -3   94.92    3.04
  -4  -4  -3   87.93    3.05
  -4   4  -3   87.45    2.81
   4  -4  -3   94.12    3.11
   4   4  -3   89.18    2.35
   4   4  -3   86.81    2.69
  -4   4   3   88.13    2.21
  -4  -4   3   92.23    2.18
   4   4   3   92.15    1.96
   4   4   3   90.62    1.92
  -5  -4  -3   30.37    1.80
  -4   5  -3   28.18    1.53
   5   4  -3   30.93    1.36
   4  -5  -3   29.71    1.74
  -4   5  -3   31.90    1.77
   5   4  -3   29.50    1.51
  -5  -4   3   28.76    1.20
  -4   5   3   29.15    1.21
   5   4   3   30.73    1.03
   5   4   3   30.29    1.05
   4  -5   3   29.35    0.88
   3  -5  -3    7.95    1.08
   5   3  -3    9.01    0.93
  -5  -3  -3    8.74    1.12
   5   3  -3    7.07    0.82
  -3   5  -3    6.93    0.89
  -3   5  -3   10.36    1.19
   5   3   3    7.58    0.46
  -5  -3   3    9.37    0.66
  -3   5   3    8.26    0.70
   5   3   3    7.37    0.46
   3  -5   3    7.11    0.36
   5   2  -3   14.98    1.06
   5   2  -3   15.30    0.97
  -2   5  -3   15.56    1.10
   2  -5  -3   14.33    1.43
  -2   5  -3   15.95    1.42
  -5  -2  -3   18.16    1.31
  -5  -2   3   15.43    0.79
  -2   5   3   14.49    0.76
  -1   5  -3    7.70    1.01
   1  -5  -3    6.03    0.94
   5   1  -3    7.55    0.89
   5   1  -3    6.28    0.67
  -1   5   3    5.90    0.54
  -5  -1   3    6.15    0.57
  -1   5   3    6.25    0.54
   0  -5  -3    5.65    0.93
   5   0  -3    5.75    0.55
   5   0  -3    5.25    0.80
   0   5  -3    4.77    0.80
   0   5   3    5.12    0.48
  -5   0   3    4.72    0.51
   0   5   3    5.54    0.48
  -5   1  -3    7.53    1.02
   5  -1  -3    6.16    0.89
   1   5  -3    6.80    0.57
   5  -1  -3    6.30    0.44
   1   5  -3    7.85    1.00
  -1  -5  -3    6.23    0.96
   1   5   3    5.94    0.49
   1   5   3    5.29    0.46
  -1  -5   3    5.48    0.36
  -5   1   3    6.68    0.60
   1   5   3    5.69    0.50
  -5   2  -3   15.34    1.40
   2   5  -3   14.35    1.29
   5  -2  -3   14.57    1.36
   2   5  -3   14.41    0.75
  -2  -5  -3   14.24    1.39
   2   5   3   15.27    0.67
   2   5   3   15.07    0.70
  -5   2   3   15.33    0.82
  -2  -5   3   15.55    0.65
   3   5  -3    7.99    1.00
  -5   3  -3    8.09    1.02
   5  -3  -3    7.22    1.01
  -5   3  -3    7.98    1.06
  -3  -5  -3    7.30    1.03
   3   5  -3    7.67    0.65
  -5   3   3    7.95    0.71
  -3  -5   3    8.44    0.56
   3   5   3    8.22    0.56
   3   5   3    8.03    0.53
   5  -4  -3   28.91    1.76
   4   5  -3   30.69    1.62
  -5   4  -3   28.03    1.59
  -5   4  -3   30.56    1.73
   4   5  -3   27.36    1.14
  -4  -5  -3   32.97    1.85
   4   5   3   27.35    1.06
  -4  -5   3   29.13    1.18
   4   5   3   30.16    1.05
   5  -4   3   29.37    0.86
  -4  -5   3   29.47    1.10
   5  -4   3   30.30    0.88
  -5   4   3   30.69    1.24
   5   5  -3   57.95    2.32
  -5   5  -3   63.15    2.39
   5  -5  -3   63.58    2.64
   5   5  -3   63.64    1.89
  -5  -5  -3   61.88    2.59
  -5   5  -3   61.67    2.59
   5   5   3   63.45    1.73
  -5   5   3   65.78    1.99
  -5  -5   3   62.83    1.85
   5  -5   3   62.85    1.59
  -5  -5   3   64.12    1.97
   5   5   3   61.89    1.79
  -5   6  -3   43.92    1.94
  -5   6  -3   41.85    2.17
   5  -6  -3   39.37    2.13
   6   5  -3   39.58    1.55
   6   5  -3   42.36    1.98
  -6  -5  -3   45.03    2.20
  -6  -5   3   40.65    1.53
  -6  -5   3   40.13    1.60
   6   5   3   41.26    1.42
  -5   6   3   44.02    1.66
   5  -6   3   38.10    1.30
   6   5   3   38.87    1.45
   4  -6  -3   27.79    1.78
   6   4  -3   28.28    1.53
  -4   6  -3   27.55    1.75
  -4   6  -3   28.71    1.53
   6   4  -3   28.42    1.38
   4  -6   3   30.85    1.06
  -6  -4   3   29.48    1.24
   6   4   3   28.12    1.13
   6   4   3   28.49    1.09
  -4   6   3   30.75    1.33
  -6  -4   3   33.32    1.36
  -3   6  -3   21.28    1.29
   6   3  -3   18.52    1.16
   6   3  -3   20.27    1.21
  -3   6  -3   21.86    1.55
   3  -6  -3   21.99    1.54
  -6  -3   3   18.78    1.02
  -3   6   3   23.09    1.07
   6   3   3   21.47    0.88
   6   3   3   20.85    0.83
   3  -6   3   20.13    0.79
   6   2  -3    4.10    0.66
   6   2  -3    4.37    0.73
  -2   6  -3    3.87    0.82
  -2   6  -3    2.77    0.59
   2  -6  -3    4.23    0.87
   6   2   3    4.52    0.42
   6   2   3    4.28    0.42
   2  -6   3    4.11    0.41
  -6  -2   3    4.79    0.59
  -2   6   3    5.31    0.60
   6   1  -3    8.70    0.83
  -1   6  -3    8.84    1.15
   6   1  -3    8.26    0.98
   1  -6  -3    9.10    1.18
   6   1   3    9.11    0.47
   1  -6   3    7.86    0.49
  -1   6   3    8.30    0.65
   6   1   3    9.00    0.47
  -6  -1   3    9.37    0.72
   0   6  -3  143.09    3.99
   6   0  -3  138.83    3.03
   0  -6  -3  142.88    4.09
  -6   0  -3  135.82    3.97
   6   0  -3  141.89    3.76
  -6   0   3  139.37    3.15
   0   6   3  140.67    2.99
   0   6   3  140.51    3.10
   0  -6   3  136.84    2.74
   6   0   3  139.03    2.53
   6   0   3  140.98    2.56
   6  -1  -3    8.56    1.04
  -6   1  -3   10.01    1.19
  -1  -6  -3    9.01    1.16
   1   6  -3    9.88    1.16
   6  -1  -3    8.54    0.58
   1   6   3    9.09    0.56
  -1  -6   3    8.07    0.55
   1   6   3    9.05    0.63
  -6   1   3   10.07    0.78
   1   6   3    8.11    0.70
   6  -1   3    8.76    0.43
   6  -2  -3    4.53    0.41
   2   6  -3    5.04    0.87
  -2  -6  -3    5.22    0.96
  -6   2  -3    4.39    0.86
   6  -2  -3    4.15    0.78
   6  -2   3    3.72    0.35
   2   6   3    4.17    0.51
   6  -2   3    4.26    0.36
   2   6   3    3.78    0.54
  -6   2   3    3.73    0.56
  -2  -6   3    3.59    0.45
   2   6   3    3.55    0.51
  -6   3  -3   19.86    1.38
   6  -3  -3   21.74    1.51
  -6   3  -3   22.06    1.49
   3   6  -3   20.62    1.40
  -3  -6  -3   23.10    1.58
   3   6   3   21.25    0.95
   3   6   3   21.85    1.00
  -6   3   3   22.36    1.10
   6  -3   3   21.01    0.77
   6  -3   3   22.17    0.78
  -3  -6   3   20.68    0.93
  -6   4  -3   27.79    1.76
   6  -4  -3   27.31    1.70
  -4  -6  -3   27.26    1.79
   4   6  -3   34.89    1.83
  -6   4  -3   27.92    1.64
  -6   4   3   27.74    1.28
  -4  -6   3   32.05    1.23
   6  -4   3   28.77    1.01
   4   6   3   31.24    1.22
   6  -4   3   30.14    1.03
  -4  -6   3   31.46    1.29
   4   6   3   29.63    1.16
  -6   5  -3   39.04    2.11
   5   6  -3   42.19    2.03
  -6   5  -3   45.10    2.04
   6  -5  -3   39.34    2.11
  -5  -6  -3   39.81    2.14
   5   6   3   42.79    1.54
  -5  -6   3   38.69    1.56
  -6   5   3   43.01    1.65
  -5  -6   3   39.77    1.49
   6  -5   3   40.80    1.32
   5   6   3   42.00    1.47
  -6   6  -3    5.38    0.92
  -6   6  -3    4.84    1.00
   6   6  -3    3.97    0.85
  -6  -6  -3    5.93    1.02
   6  -6  -3    3.86    0.90
   6   6   3    5.17    0.64
  -6  -6   3    5.44    0.76
   6  -6   3    5.56    0.59
   6   6   3    4.82    0.66
  -6   6   3    5.80    0.77
  -6  -6   3    5.79    0.69
   6  -7  -3    6.05    1.14
   7   6  -3    4.23    0.93
  -6   7  -3    4.85    1.04
  -6   7  -3    6.07    0.98
  -7  -6   3    6.41    0.86
  -7  -6   3    6.87    0.79
   6  -7   3    6.19    0.68
   7   6   3    6.83    0.75
   7   6   3    5.81    0.74
   5  -7  -3    1.34    0.66
  -5   7  -3    1.26    0.57
   7   5  -3    0.63    0.42
  -5   7  -3    0.99    0.66
   7   5  -3    0.99    0.60
   5  -7   3    0.79    0.36
  -7  -5   3    0.91    0.41
  -7  -5   3    1.03    0.47
   7   5   3    0.67    0.37
   7   5   3    1.01    0.37
  -5   7   3    1.13    0.47
   7   4  -3    5.79    0.77
  -4   7  -3    5.92    0.86
  -4   7  -3    4.00    0.94
   7   4  -3    6.91    0.95
   4  -7  -3    5.69    1.04
   7   4   3    6.32    0.64
   7   4   3    4.78    0.61
  -7  -4   3    6.93    0.76
  -7  -4   3    6.61    0.77
  -4   7   3    6.18    0.76
   4  -7   3    6.45    0.62
   3  -7  -3    5.59    1.03
   7   3  -3    4.38    0.77
  -3   7  -3    6.45    1.09
  -3   7  -3    6.07    0.87
   7   3  -3    5.13    0.76
  -7  -3   3    6.64    0.76
  -3   7   3    4.89    0.66
   7   3   3    5.97    0.59
   7   3   3    5.27    0.58
   3  -7   3    4.91    0.53
  -2   7  -3   14.33    1.21
   7   2  -3   16.01    1.34
   2  -7  -3   14.18    1.51
   7   2  -3   14.08    1.05
  -2   7  -3   14.28    1.55
   2  -7   3   12.51    0.72
   7   2   3   15.70    0.76
  -7  -2   3   14.56    0.94
  -2   7   3   14.76    0.91
   7   2   3   13.35    0.75
  -1   7  -3  109.75    3.59
   1  -7  -3  106.52    3.63
   7   1  -3  109.95    3.21
   7   1  -3  106.26    2.82
  -1   7   3  113.16    2.74
   1  -7   3  107.36    2.46
   7   1   3  106.39    2.41
   7   1   3  116.48    2.43
  -7  -1   3  110.24    2.85
   7   0  -3    0.56    0.35
  -7   0  -3    0.00    0.47
   0   7  -3   -0.67    0.40
   0  -7  -3   -0.12    0.52
   7   0  -3    0.08    0.44
   7   0   3   -0.27    0.23
   0   7   3    0.63    0.36
   7   0   3    0.16    0.26
  -7   0   3   -0.41    0.31
   0  -7   3   -0.60    0.27
   7  -1  -3  112.49    3.41
  -7   1  -3   99.67    3.37
  -1  -7  -3  115.03    3.67
   7  -1  -3  108.76    2.55
   1   7  -3  108.78    3.48
  -7   1   3  110.16    2.82
   7  -1   3  111.62    2.35
   1   7   3  105.20    2.72
  -1  -7   3  107.17    2.49
   1   7   3  107.04    2.47
   1   7   3  110.07    2.64
   7  -1   3  106.31    2.36
  -7   2  -3   14.82    1.50
   7  -2  -3   15.30    0.78
   2   7  -3   13.37    1.41
   7  -2  -3   13.47    1.37
  -2  -7  -3   13.61    1.50
   7  -2   3   13.91    0.72
  -2  -7   3   14.23    0.81
   2   7   3   13.04    0.85
   2   7   3   15.11    0.88
  -7   2   3   13.72    0.97
   2   7   3   14.10    0.91
   7  -2   3   14.44    0.73
   3   7  -3    5.80    0.98
  -7   3  -3    4.47    0.86
   7  -3  -3    5.77    0.99
  -3  -7  -3    3.73    0.87
   3   7   3    4.74    0.60
   3   7   3    5.24    0.71
   3   7   3    5.98    0.70
   7  -3   3    5.86    0.57
  -3  -7   3    3.67    0.53
   7  -3   3    4.97    0.51
  -7   3   3    4.89    0.67
   7  -4  -3    7.04    1.11
  -4  -7  -3    5.55    1.06
   4   7  -3    4.96    0.93
  -7   4  -3    5.38    1.03
  -7   4  -3    4.77    0.91
   7  -4   3    5.90    0.58
  -7   4   3    5.86    0.77
  -4  -7   3    6.88    0.72
  -4  -7   3    6.38    0.76
   4   7   3    5.76    0.66
   4   7   3    5.44    0.67
   5   7  -3    1.96    0.67
  -7   5  -3    1.87    0.64
  -5  -7  -3    1.36    0.66
   7  -5  -3    0.82    0.61
  -7   5  -3    1.72    0.74
  -5  -7   3    0.58    0.40
  -5  -7   3    0.50    0.38
   5   7   3    0.92    0.42
  -7   5   3    0.85    0.47
   5   7   3    1.12    0.41
   7  -5   3    0.72    0.33
   7  -6  -3    6.42    1.08
   6   7  -3    4.99    0.97
  -6  -7  -3    8.25    1.24
  -7   6  -3    4.64    1.06
  -7   6  -3    6.72    1.08
   7  -6   3    5.80    0.68
  -6  -7   3    5.67    0.80
   6   7   3    5.01    0.71
   6   7   3    6.88    0.79
  -6  -7   3    7.12    0.80
  -7   7  -3   14.02    1.45
   7  -7  -3   11.60    1.52
   7   7  -3   11.09    1.37
  -7   7  -3   15.87    1.77
   7   7   3   11.75    1.07
   7  -7   3   12.21    0.90
   7   7   3   16.16    1.06
  -7  -7   3   12.88    0.99
   8   7  -3    3.23    0.84
   7  -8  -3    2.10    0.83
  -7   8  -3    2.48    0.73
  -7   8  -3    1.87    0.85
   8   7   3    2.57    0.62
  -8  -7   3    2.07    0.59
   7  -8   3    2.49    0.57
  -6   8  -3    1.37    0.74
   8   6  -3    1.93    0.67
  -6   8  -3    0.85    0.58
   6  -8  -3    0.96    0.60
   6  -8   3    0.58    0.39
   8   6   3    1.27    0.49
   8   6   3    0.65    0.43
  -8  -6   3    1.46    0.53
   5  -8  -3    3.51    0.92
   8   5  -3    3.13    0.65
  -5   8  -3    3.10    0.88
   8   5  -3    3.70    0.82
  -5   8  -3    4.03    0.80
  -8  -5   3    3.06    0.61
   5  -8   3    2.50    0.50
   8   5   3    2.74    0.55
   8   5   3    2.82    0.54
  -4   8  -3    0.01    0.43
  -4   8  -3   -0.06    0.36
   8   4  -3    0.79    0.46
   8   4  -3   -0.38    0.36
   4  -8  -3   -0.48    0.50
  -8  -4   3    0.40    0.41
   4  -8   3    0.24    0.32
  -8  -4   3   -0.22    0.36
   8   4   3   -0.22    0.29
   8   4   3    0.62    0.36
   8   3  -3    2.05    0.59
  -3   8  -3    1.99    0.57
   3  -8  -3   -0.17    0.51
  -3   8  -3    0.67    0.62
   8   3  -3    1.37    0.54
  -8  -3   3    1.54    0.50
  -3   8   3    1.47    0.45
   3  -8   3    1.42    0.39
   8   3   3    2.09    0.47
  -8  -3   3    2.06    0.51
   8   3   3    1.61    0.42
   8   2  -3    7.47    0.98
   2  -8  -3    6.57    1.12
  -2   8  -3    9.67    1.01
  -2   8  -3    7.88    1.24
   8   2  -3    6.96    0.90
   8   2   3    7.93    0.73
  -8  -2   3    7.06    0.85
   8   2   3    8.26    0.73
  -2   8   3    7.21    0.79
   2  -8   3    7.48    0.69
  -1   8  -3   54.89    2.56
   1  -8  -3   55.96    2.60
  -8  -1  -3   57.54    2.55
   8   1  -3   56.45    2.01
  -1   8  -3   51.50    1.86
   8   1  -3   55.79    2.27
  -1   8   3   58.40    1.88
   8   1   3   55.55    1.65
   8   1   3   55.04    1.70
   1  -8   3   52.48    1.66
  -8  -1   3   55.40    1.97
   0   8  -3    0.17    0.57
   8   0  -3    0.11    0.44
  -8   0  -3    0.32    0.43
   0  -8  -3    0.03    0.44
   8   0  -3   -0.37    0.33
  -8   0   3    0.02    0.37
   0   8   3   -0.09    0.33
   8   0   3   -0.11    0.29
   0  -8   3   -0.31    0.29
   8   0   3   -0.33    0.28
  -8   1  -3   56.30    2.46
   1   8  -3   57.77    2.54
   8  -1  -3   52.85    2.34
  -1  -8  -3   50.95    2.46
   8  -1  -3   55.80    1.79
   8  -1   3   53.65    1.61
   1   8   3   55.27    1.72
   1   8   3   57.26    1.85
   8  -1   3   54.56    1.65
  -8   1   3   54.17    1.95
  -1  -8   3   50.45    1.68
   1   8   3   52.60    1.92
  -8   2  -3    8.87    1.21
   8  -2  -3    8.79    1.14
   2   8  -3    8.04    1.19
  -2  -8  -3    8.67    1.25
  -8   2   3    8.09    0.91
   2   8   3    8.12    0.83
   8  -2   3    6.34    0.64
  -2  -8   3    7.59    0.73
   2   8   3    6.40    0.74
   8  -2   3    7.78    0.69
   2   8   3    7.02    0.83
  -3  -8  -3    0.43    0.60
  -8   3  -3    0.88    0.59
   8  -3  -3    1.70    0.67
   3   8  -3    1.90    0.75
   3   8   3    0.75    0.41
   8  -3   3    1.01    0.36
  -3  -8   3    1.69    0.45
   8  -3   3    0.96    0.35
   3   8   3    1.55    0.49
   3   8   3    1.20    0.41
  -8   3   3    1.45    0.50
  -4  -8  -3    0.02    0.58
  -8   4  -3   -0.25    0.42
   8  -4  -3   -0.47    0.36
   4   8  -3    0.93    0.57
   4   8   3    0.02    0.34
   4   8   3   -0.06    0.33
  -4  -8   3    0.12    0.31
   8  -4   3   -0.05    0.27
   4   8   3    0.34    0.44
  -4  -8   3   -0.61    0.34
   8  -5  -3    1.70    0.70
  -8   5  -3    1.36    0.70
  -5  -8  -3    2.11    0.80
  -8   5  -3    2.17    0.84
   5   8  -3    3.42    0.85
   8  -5   3    2.56    0.51
   5   8   3    1.92    0.51
  -5  -8   3    2.70    0.62
   5   8   3    2.33    0.56
  -5  -8   3    2.38    0.53
  -8   6  -3    1.40    0.72
   6   8  -3    0.59    0.57
  -6  -8  -3    1.76    0.74
  -8   6  -3    1.32    0.65
   8  -6  -3    0.48    0.62
  -6  -8   3    0.77    0.41
   6   8   3    0.89    0.45
   8  -6   3    1.25    0.46
  -8   7  -3    2.88    0.82
   8  -7  -3    3.56    0.96
   7   8  -3    2.33    0.79
  -8   7  -3    2.17    0.87
  -7  -8   3    2.43    0.62
   8  -7   3    2.19    0.54
   7   8   3    2.28    0.60
   8   8  -3    1.64    0.71
   8  -8  -3    1.08    0.76
  -8   8  -3    0.63    0.66
  -8   8  -3    1.24    0.67
   8  -8   3    2.04    0.55
   8   8   3    2.35    0.62
  -8  -8   3    1.44    0.55
   8  -9  -3    3.89    1.07
   9   8  -3    3.01    0.93
  -8   9  -3    4.03    1.08
  -8   9  -3    3.55    0.86
   9   8   3    2.24    0.68
  -9  -8   3    3.36    0.80
   8  -9   3    1.32    0.53
  -7   9  -3   -0.26    0.44
  -7   9  -3   -0.21    0.57
   9   7  -3   -0.10    0.58
   7  -9  -3    0.23    0.69
  -9  -7   3   -0.19    0.45
   9   7   3    0.40    0.44
   7  -9   3   -0.53    0.31
   9   6  -3    2.95    0.83
   6  -9  -3    2.28    0.83
  -6   9  -3    3.49    1.02
  -6   9  -3    1.55    0.64
  -9  -6   3    3.44    0.70
   6  -9   3    3.13    0.62
   9   6   3    2.77    0.65
   9   5  -3    9.14    1.27
  -5   9  -3    9.95    1.19
  -5   9  -3   10.89    1.52
   5  -9  -3    8.07    1.27
   9   5  -3    8.41    0.99
   9   5   3    6.77    0.86
  -9  -5   3    8.39    0.93
   5  -9   3    9.47    0.90
   9   4  -3    2.19    0.72
  -4   9  -3    2.69    0.69
   4  -9  -3    2.19    0.79
  -4   9  -3    1.91    0.80
   9   4  -3    2.31    0.62
  -9  -4   3    2.06    0.58
   9   4   3    2.62    0.56
   9   4   3    2.49    0.56
   4  -9   3    2.33    0.52
   9   3  -3    2.60    0.72
  -3   9  -3    3.94    0.73
   3  -9  -3    3.29    0.95
   9   3  -3    3.60    0.77
  -3   9  -3    2.94    0.92
   3  -9   3    2.90    0.53
  -9  -3   3    3.97    0.68
   9   3   3    3.04    0.55
   9   3   3    3.20    0.60
   9   2  -3   10.66    1.21
  -2   9  -3   11.89    1.50
  -2   9  -3   13.48    1.17
   2  -9  -3   12.55    1.54
   9   2  -3   11.41    1.20
   9   2   3   12.05    0.87
   9   2   3   10.75    0.94
   2  -9   3   14.28    0.91
   9   1  -3   13.67    1.23
  -1   9  -3   13.71    0.99
  -1   9  -3   15.43    1.72
   9   1  -3   14.53    1.42
  -9  -1  -3   14.17    1.53
   1  -9  -3   14.61    1.61
   9   1   3   12.79    0.88
   1  -9   3   13.67    0.89
   9   1   3   13.91    0.90
  -1   9   3   17.76    1.14
   0  -9  -3   34.14    2.08
   0   9  -3   31.74    2.03
  -9   0  -3   32.32    1.93
   9   0  -3   31.42    1.81
   0  -9   3   30.25    1.33
   9   0   3   29.49    1.27
   0   9   3   32.84    1.46
   9   0   3   30.94    1.35
  -9   1  -3   12.04    1.41
   9  -1  -3   13.93    1.47
  -1  -9  -3   13.33    1.53
   1   9  -3   13.00    1.54
   1   9   3   13.58    0.98
   9  -1   3   12.12    0.87
  -1  -9   3   14.55    0.92
   9  -1   3   14.15    0.89
   9  -2  -3   11.83    1.37
   2   9  -3   10.37    1.39
  -2  -9  -3    8.35    1.26
  -9   2  -3   11.02    1.34
   2   9   3   12.15    1.04
  -2  -9   3   10.64    0.94
   2   9   3   12.33    1.12
   9  -2   3   12.15    0.85
   2   9   3   12.45    1.07
   9  -2   3   11.42    0.84
  -3  -9  -3    3.13    0.92
   9  -3  -3    4.71    0.94
   3   9  -3    3.08    0.84
  -9   3  -3    3.22    0.81
   9  -3   3    2.78    0.55
   9  -3   3    2.95    0.54
   3   9   3    4.10    0.69
  -3  -9   3    2.32    0.52
   3   9   3    2.82    0.61
   4   9  -3    2.33    0.76
  -4  -9  -3    2.28    0.81
   9  -4  -3    1.89    0.73
  -9   4  -3    1.90    0.75
   4   9   3    2.37    0.62
   9  -4   3    1.88    0.48
  -4  -9   3    1.97    0.52
   4   9   3    1.66    0.54
  -9   5  -3   11.91    1.46
  -5  -9  -3    8.26    1.30
   5   9  -3    9.19    1.35
   9  -5  -3    8.63    1.34
   9  -5   3    8.84    0.88
   5   9   3    9.42    1.13
   5   9   3    9.22    1.00
  -5  -9   3    7.40    0.84
  -9   6  -3    2.55    0.78
   9  -6  -3    2.08    0.80
  -6  -9  -3    3.94    1.02
   6   9  -3    1.51    0.74
  -9   6  -3    2.35    0.89
   6   9   3    3.50    0.73
   6   9   3    3.37    0.82
  -6  -9   3    2.44    0.63
   9  -6   3    2.63    0.58
  -9   7  -3    0.93    0.64
   7   9  -3   -0.45    0.51
  -9   7  -3    1.69    0.83
   9  -7  -3    0.15    0.57
   9  -7   3    0.06    0.37
   7   9   3    0.39    0.43
  -7  -9   3    0.15    0.47
   9  -8  -3    1.53    0.79
  -9   8  -3    2.15    0.81
   8   9  -3    4.14    1.04
  -9   8  -3    0.01    0.67
   9  -8   3    2.99    0.65
  -8  -9   3    2.36    0.70
   8   9   3    3.50    0.74
  -9   9  -3    1.87    0.75
  -9   9  -3    3.50    1.12
   9   9  -3    0.80    0.73
   9  -9  -3    1.29    0.83
   9   9   3    1.75    0.70
   9  -9   3    0.81    0.53
  -9  10  -3    1.17    0.71
   9 -10  -3    0.99    0.80
  10   9  -3   -0.80    0.55
  -9  10  -3    1.73    0.90
   9 -10   3    1.03    0.56
  -8  10  -3    0.04    0.57
  10   8  -3    0.48    0.70
   8 -10  -3   -0.22    0.64
  -8  10  -3    1.78    0.94
  10   8   3    0.31    0.58
   8 -10   3    0.72    0.53
   7 -10  -3    2.81    0.93
  -7  10  -3    1.92    0.72
  -7  10  -3    3.53    1.02
  10   7  -3    2.42    0.86
  10   7   3    2.34    0.68
   7 -10   3    1.57    0.59
   6 -10  -3    1.30    0.77
  10   6  -3    1.84    0.75
  -6  10  -3    0.42    0.52
  -6  10  -3    1.16    0.74
  10   6   3    0.91    0.54
   6 -10   3    0.82    0.50
 -10  -6   3    1.59    0.64
  10   5  -3    2.33    0.69
  -5  10  -3    2.34    0.90
  10   5  -3    2.78    0.81
   5 -10  -3    1.96    0.81
  -5  10  -3    1.43    0.61
  10   5   3    1.43    0.55
 -10  -5   3    1.77    0.61
   5 -10   3    1.13    0.51
   4 -10  -3    1.04    0.78
  10   4  -3    0.22    0.56
  -4  10  -3    1.23    0.74
  -4  10  -3    0.57    0.47
  10   4  -3    0.98    0.58
 -10  -4   3    0.11    0.47
   4 -10   3    1.27    0.51
  10   4   3    0.57    0.48
  10   3  -3    4.33    0.82
  -3  10  -3    3.57    0.70
  10   3  -3    4.36    0.91
  -3  10  -3    3.30    1.01
   3 -10  -3    3.37    0.96
  10   3   3    3.38    0.65
   3 -10   3    3.88    0.64
 -10  -3   3    3.83    0.72
  -2  10  -3    0.82    0.48
   2 -10  -3    0.73    0.64
  10   2  -3    0.60    0.55
 -10  -2  -3    1.22    0.64
  10   2  -3    0.69    0.51
  -2  10  -3    1.20    0.75
  10   2   3    0.19    0.40
   2 -10   3    0.62    0.41
  10   2   3    0.22    0.42
 -10  -2   3    0.87    0.47
  10   1  -3    1.07    0.60
   1 -10  -3    2.97    0.90
  10   1  -3    1.27    0.55
 -10  -1  -3    2.45    0.80
  -1  10  -3    0.67    0.68
  10   1   3    1.07    0.46
   1 -10   3    1.28    0.46
  10   1   3    1.65    0.50
 -10   0  -3   -0.13    0.45
   0  10  -3    0.62    0.61
   0 -10  -3    0.89    0.64
  10   0  -3   -0.03    0.47
  10   0   3    0.86    0.40
   0 -10   3    0.81    0.44
  10   0   3    1.72    0.49
  -1 -10  -3    0.06    0.61
  10  -1  -3    2.44    0.73
 -10   1  -3    2.33    0.79
   1  10  -3    0.98    0.65
  10  -1   3    1.61    0.49
  -1 -10   3    1.67    0.50
  10  -1   3    2.16    0.54
  -2 -10  -3    1.62    0.73
 -10   2  -3    0.84    0.55
   2  10  -3    0.01    0.56
  10  -2  -3    0.01    0.50
  -2 -10   3    0.30    0.39
  10  -2   3    0.79    0.43
  10  -2   3    0.24    0.38
  -3 -10  -3    3.42    0.97
 -10   3  -3    4.32    0.95
  10  -3  -3    4.73    0.96
   3  10  -3    2.35    0.89
  -3 -10   3    3.21    0.61
  10  -3   3    2.17    0.53
   3  10   3    4.74    0.81
 -10   4  -3    0.39    0.64
  -4 -10  -3    1.91    0.78
  10  -4  -3    1.34    0.67
   4  10  -3    0.85    0.66
  10  -4   3    0.89    0.45
   4  10   3    0.07    0.48
   4  10   3    1.38    0.55
  -4 -10   3    0.76    0.48
  -5 -10  -3    2.01    0.81
  10  -5  -3    1.01    0.68
   5  10  -3    2.51    0.85
 -10   5  -3    0.81    0.67
  10  -5   3    2.56    0.57
  -5 -10   3    0.81    0.50
   5  10   3    1.07    0.61
   5  10   3    2.43    0.65
  -6 -10  -3    1.37    0.78
   6  10  -3    1.25    0.75
  10  -6  -3    0.44    0.64
 -10   6  -3    1.51    0.74
  -6 -10   3    1.15    0.56
  10  -6   3    1.17    0.49
   6  10   3    1.17    0.62
   6  10   3    0.11    0.47
   7  10  -3    2.07    0.90
  10  -7  -3    1.76    0.77
 -10   7  -3    1.32    0.68
   7  10   3    1.77    0.81
  10  -7   3    2.25    0.65
   7  10   3    1.60    0.62
  -7 -10   3    1.85    0.65
 -10   8  -3   -0.39    0.64
 -10   8  -3    0.09    0.58
  10  -8  -3    0.16    0.61
   8  10  -3    0.69    0.71
  10  -8   3    0.52    0.53
   8  10   3    0.91    0.62
   8  10   3    0.86    0.66
  10  -9  -3    0.68    0.73
 -10   9  -3    0.18    0.61
 -10   9  -3    1.09    0.84
   9  10  -3    0.96    0.73
  10  -9   3    0.69    0.57
  10 -10  -3   -0.63    0.74
 -10  10  -3    0.44    0.61
 -10  10  -3   -0.55    0.72
  10  10  -3    0.57    0.75
 -10  11  -3    4.91    1.33
  11  10  -3    2.26    1.01
 -10  11  -3    2.26    0.87
  10 -11  -3    2.72    1.02
  -9  11  -3   -0.15    0.53
  11   9  -3    0.63    0.79
  -9  11  -3   -0.23    0.67
   9 -11  -3    0.64    0.82
  -8  11  -3    0.24    0.69
  -8  11  -3   -0.12    0.54
  11   8  -3    0.16    0.71
   8 -11  -3    0.14    0.69
   8 -11   3    0.65    0.55
  -7  11  -3    2.96    0.81
   7 -11  -3    1.59    0.88
  11   7  -3    3.29    1.01
  -7  11  -3    2.76    1.04
  11   7   3    3.55    0.80
   7 -11   3    0.71    0.54
   6 -11  -3   -0.71    0.47
  -6  11  -3    0.55    0.63
  11   6  -3    0.51    0.61
  -6  11  -3    0.15    0.50
  11   6   3    0.17    0.50
   6 -11   3    0.60    0.51
  -5  11  -3    3.84    1.09
  -5  11  -3    4.16    0.87
  11   5  -3    3.68    0.96
  11   5  -3    4.61    0.86
   5 -11  -3    3.53    1.04
   5 -11   3    4.97    0.80
  11   5   3    3.91    0.77
  11   4  -3    3.23    0.88
  -4  11  -3    2.99    0.99
  -4  11  -3    2.92    0.73
   4 -11  -3    2.38    0.90
  11   4  -3    2.62    0.73
  11   4   3    3.38    0.73
   4 -11   3    3.75    0.71
 -11  -4   3    2.90    0.72
  -3  11  -3   15.76    1.92
   3 -11  -3   14.66    1.74
  11   3  -3   16.06    1.54
  11   3  -3   13.40    1.47
  11   3   3   15.79    1.18
 -11  -3   3   14.93    1.35
   3 -11   3   18.26    1.22
  11   2  -3    5.97    1.01
  11   2  -3    6.42    1.05
   2 -11  -3    6.93    1.28
 -11  -2  -3    3.04    0.88
  -2  11  -3    5.08    1.20
  11   2   3    5.94    0.86
 -11  -2   3    4.36    0.82
   2 -11   3    6.18    0.84
  -1  11  -3    5.64    1.19
   1 -11  -3    3.95    1.04
  11   1  -3    6.29    1.05
 -11  -1  -3    2.44    0.81
  11   1   3    4.02    0.72
 -11  -1   3    4.78    0.82
   1 -11   3    3.58    0.69
   0 -11  -3    0.53    0.72
 -11   0  -3   -0.07    0.54
   0  11  -3    0.35    0.61
  11   0  -3   -0.27    0.47
   0 -11   3   -0.19    0.41
  11   0   3    0.14    0.38
   1  11  -3    3.40    0.96
 -11   1  -3    3.22    0.91
  11  -1  -3    4.00    0.92
  -1 -11  -3    6.46    1.25
  -1 -11   3    3.81    0.71
  11  -1   3    4.73    0.72
  -2 -11  -3    6.58    1.25
   2  11  -3    4.54    1.09
 -11   2  -3    5.34    1.04
  11  -2  -3    4.53    0.97
  11  -2   3    5.44    0.80
  -2 -11   3    4.74    0.74
 -11   3  -3   15.40    1.67
  11  -3  -3   16.54    1.75
   3  11  -3   11.60    1.65
  -3 -11  -3   14.01    1.68
  -3 -11   3   14.84    1.13
  11  -3   3   14.43    1.07
  -4 -11  -3    3.53    1.02
 -11   4  -3    3.13    0.94
   4  11  -3    3.31    0.99
  11  -4  -3    2.64    0.83
  -4 -11   3    3.10    0.68
  11  -4   3    3.16    0.66
   5  11  -3    2.64    0.96
 -11   5  -3    4.19    0.98
  -5 -11  -3    4.74    1.14
  11  -5  -3    4.37    1.05
   5  11   3    4.09    0.87
  11  -5   3    3.90    0.77
   5  11   3    5.14    0.92
  -5 -11   3    4.34    0.79
 -11   6  -3   -0.04    0.49
  -6 -11  -3   -0.13    0.59
   6  11  -3    0.59    0.64
  11  -6  -3    0.52    0.67
   6  11   3    0.44    0.57
   6  11   3    0.94    0.63
  11  -6   3    0.11    0.46
   7  11  -3    2.08    0.90
 -11   7  -3    1.40    0.81
  11  -7  -3    3.41    0.96
   7  11   3    2.33    0.82
  11  -7   3    1.27    0.59
 -11   8  -3    1.07    0.75
   8  11  -3    0.48    0.76
  11  -8  -3    0.11    0.63
  11  -8   3    0.52    0.55
   8  11   3   -0.13    0.60
   9  11  -3    0.34    0.70
 -11   9  -3    0.92    0.78
  11  -9  -3   -0.35    0.57
   9  11   3    0.96    0.79
 -11  10  -3    7.10    1.26
  11 -10  -3    1.32    0.91
 -11  10  -3    6.75    1.50
  10  11  -3    3.10    1.10
  10  11   3    2.11    0.97
 -11  11  -3    5.51    1.53
  11 -11  -3    5.41    1.35
  11  11  -3    6.87    1.52
 -11  11  -3    6.77    1.28
  11  11   3    7.61    1.47
  11 -12  -3    5.56    1.46
 -11  12  -3    3.84    1.08
  12  11  -3    2.12    1.06
 -11  12  -3    4.30    1.35
 -10  12  -3    0.15    0.90
  12  10  -3    2.43    1.00
 -10  12  -3    2.45    0.96
  10 -12  -3   -0.12    0.79
   9 -12  -3    1.22    0.94
  -9  12  -3    3.05    0.96
  12   9  -3    1.90    0.93
  -9  12  -3    2.49    1.04
  12   8  -3    0.72    0.84
   8 -12  -3   -0.13    0.68
  -8  12  -3   -0.06    0.76
  -8  12  -3    0.49    0.59
  -7  12  -3    2.41    0.79
   7 -12  -3    2.95    1.02
  12   7  -3    4.78    1.21
  -7  12  -3    2.92    1.10
   6 -12  -3    0.57    0.78
  -6  12  -3   -0.69    0.56
  12   6  -3   -0.20    0.66
  -6  12  -3    0.64    0.59
   6 -12   3    1.11    0.60
  12   5  -3    1.85    0.84
  -5  12  -3    1.84    0.95
   5 -12  -3    1.53    0.82
   5 -12   3    2.18    0.67
  12   5   3    1.51    0.62
  -4  12  -3   20.88    2.23
   4 -12  -3   18.37    1.97
  12   4  -3   18.01    1.82
   4 -12   3   20.92    1.38
  12   4   3   17.53    1.35
  -3  12  -3    3.72    1.06
   3 -12  -3    2.84    0.96
  12   3  -3    2.76    0.89
   3 -12   3    1.85    0.61
  12   3   3    2.99    0.74
   2 -12  -3   25.90    2.32
 -12  -2  -3   16.92    1.87
  12   2  -3   24.57    1.72
  -2  12  -3   31.40    2.72
   2 -12   3   23.67    1.42
  12   2   3   23.23    1.47
  12   1  -3    3.24    0.86
   1 -12  -3    3.70    1.08
  -1  12  -3    3.66    1.01
 -12  -1  -3    4.07    1.03
  12   1   3    4.04    0.79
   1 -12   3    3.61    0.73
 -12   0  -3    0.02    0.61
   0  12  -3    1.00    0.83
   0 -12  -3    0.44    0.69
  12   0  -3    0.09    0.59
  12   0   3    0.47    0.51
   0 -12   3    0.40    0.51
  -1 -12  -3    4.03    1.06
   1  12  -3    2.10    0.93
 -12   1  -3    4.13    1.05
  12  -1  -3    2.99    0.88
  -1 -12   3    5.15    0.84
  12  -1   3    3.93    0.76
   2  12  -3   19.33    2.14
  12  -2  -3   24.66    2.14
 -12   2  -3   22.05    2.08
  -2 -12  -3   21.97    2.13
  12  -2   3   22.31    1.41
  -2 -12   3   22.80    1.42
  -3 -12  -3    2.99    0.99
 -12   3  -3    1.78    0.81
   3  12  -3    2.65    1.01
  12  -3  -3    2.64    0.89
  12  -3   3    1.85    0.69
  -3 -12   3    1.24    0.60
  12  -4  -3   22.21    2.15
  -4 -12  -3   21.21    2.10
 -12   4  -3   18.73    1.99
   4  12  -3   20.78    2.26
  -4 -12   3   22.30    1.45
  12  -4   3   21.52    1.44
  12  -5  -3   -0.32    0.54
 -12   5  -3    0.93    0.76
  -5 -12  -3    0.17    0.75
   5  12  -3    0.16    0.72
  12  -5   3    0.64    0.54
   6  12  -3    0.10    0.70
  -6 -12  -3   -0.04    0.73
  12  -6  -3    0.43    0.64
 -12   6  -3    1.45    0.75
  12  -6   3    0.73    0.57
   7  12  -3    4.33    1.13
 -12   7  -3    1.30    0.82
  12  -7  -3    4.78    1.16
  12  -7   3    1.41    0.66
   8  12  -3    0.61    0.80
 -12   8  -3   -0.14    0.60
  12  -8  -3   -0.30    0.59
   8  12   3   -0.11    0.68
  12  -9  -3    2.77    1.11
   9  12  -3   -0.06    0.75
 -12   9  -3    2.65    0.96
   9  12   3    2.28    0.97
  10  12  -3    0.60    0.86
 -12  10  -3    2.96    1.03
  12 -10  -3    0.30    0.80
  10  12   3    1.01    0.89
 -12  11  -3    3.59    1.14
  12 -11  -3    2.02    1.03
  11  12  -3    2.64    1.12
  11  12   3    4.00    1.23
 -10  13  -3    2.12    1.14
  13  10  -3    2.81    1.15
 -10  13  -3    1.95    0.92
  10 -13  -3    3.11    1.15
   9 -13  -3    0.02    0.85
  -9  13  -3    0.42    0.72
  13   9  -3   -0.63    0.76
  -9  13  -3    0.23    0.95
  -8  13  -3   -0.25    0.82
  13   8  -3    0.77    0.78
   8 -13  -3    0.04    0.74
  -8  13  -3    0.62    0.69
  13   7  -3    6.48    1.33
   7 -13  -3    2.50    1.10
  -7  13  -3    4.14    1.31
  13   6  -3    2.30    0.91
  -6  13  -3    1.27    0.95
   6 -13  -3    2.54    1.02
  13   5  -3    2.57    0.95
   5 -13  -3    2.80    1.06
  -5  13  -3    1.84    0.99
  13   4  -3    3.53    1.02
  -4  13  -3    4.46    1.22
   4 -13  -3    4.32    1.17
   3 -13  -3    9.34    1.57
  -3  13  -3    8.23    1.54
  13   3  -3    9.19    1.36
   3 -13   3    6.60    1.00
  13   3   3    8.67    1.15
 -13  -2  -3   14.89    1.78
  -2  13  -3   14.48    1.92
   2 -13  -3   12.73    1.76
  13   2   3   14.47    1.41
   2 -13   3   11.34    1.24
  13   1  -3    0.86    0.64
  -1  13  -3    1.40    0.95
   1 -13  -3    0.66    0.83
 -13  -1  -3   -0.05    0.60
  13   1   3    0.76    0.58
   1 -13   3    0.54    0.62
   0  13  -3    0.52    0.82
   0 -13  -3   -0.79    0.71
  13   0  -3    1.07    0.71
 -13   0  -3   -0.02    0.61
   0 -13   3   -0.03    0.54
  13   0   3   -0.34    0.49
  -1 -13  -3    0.18    0.78
   1  13  -3    0.54    0.78
  13  -1  -3    0.89    0.68
 -13   1  -3   -0.17    0.60
  13  -1   3    1.23    0.64
  -1 -13   3    0.19    0.49
  13  -2  -3   12.59    1.65
   2  13  -3   14.26    1.93
 -13   2  -3   15.97    1.88
  -2 -13  -3   13.00    1.71
  13  -2   3   13.60    1.36
  -3 -13  -3    6.55    1.31
 -13   3  -3    6.01    1.17
   3  13  -3    6.27    1.41
  13  -3  -3    8.95    1.43
  13  -3   3    8.53    1.10
 -13   4  -3    3.55    1.04
  -4 -13  -3    3.38    1.11
   4  13  -3    2.08    1.01
  13  -4  -3    4.31    1.10
  13  -4   3    4.06    0.88
 -13   5  -3    0.68    0.72
  -5 -13  -3    2.26    0.97
  13  -5  -3    1.25    0.83
   5  13  -3    0.89    0.85
  13  -5   3    2.03    0.75
   6  13  -3    2.91    1.11
  13  -6  -3    2.13    0.93
 -13   6  -3    1.77    0.89
  -6 -13  -3    0.89    0.82
   7  13  -3    5.00    1.35
  13  -7  -3    4.38    1.12
 -13   7  -3    3.14    0.97
   8  13  -3    0.71    0.84
  13  -8  -3    0.09    0.76
 -13   8  -3    0.72    0.79
 -13   9  -3    0.05    0.80
   9  13  -3    0.38    0.89
  13  -9  -3   -0.16    0.74
 -13  10  -3    0.66    0.84
  13 -10  -3    0.83    0.96
  10  13  -3    3.95    1.41
   9 -14  -3    1.37    0.98
  -9  14  -3    0.59    1.04
  14   9  -3    2.76    1.04
  -8  14  -3    2.26    1.12
  14   8  -3    3.14    1.09
   8 -14  -3    3.04    1.16
   7 -14  -3    1.91    1.07
  -7  14  -3    1.38    1.01
  14   7  -3    1.85    1.00
  14   6  -3   -0.52    0.71
  -6  14  -3    0.40    0.82
   6 -14  -3    1.72    0.93
  -5  14  -3    3.09    1.17
   5 -14  -3    1.58    1.02
  14   5  -3    0.88    0.82
   4 -14  -3    2.14    0.99
  -4  14  -3    3.83    1.23
  14   4  -3    2.57    0.90
  -3  14  -3    6.56    1.50
   3 -14  -3    6.26    1.33
  -2  14  -3    0.51    0.84
 -14  -2  -3    1.09    0.86
   2 -14  -3    1.79    0.93
  -1  14  -3    3.41    1.10
 -14  -1  -3    4.04    1.10
   1 -14  -3    1.92    0.92
  14   0  -3    2.43    0.88
 -14   0  -3    3.25    0.94
   0  14  -3    4.71    1.25
   0 -14  -3    1.66    0.93
  -1 -14  -3    3.85    1.14
   1  14  -3    4.95    1.35
 -14   1  -3    1.96    0.91
  14  -1  -3    2.00    0.81
  14  -2  -3    0.57    0.70
 -14   2  -3    0.98    0.71
  -2 -14  -3    2.08    1.00
   2  14  -3    0.92    0.87
  -3 -14  -3    4.41    1.22
 -14   3  -3    5.25    1.13
  14  -3  -3    4.08    1.08
   3  14  -3    4.65    1.28
 -14   4  -3    5.68    1.27
  14  -4  -3    5.77    1.28
  -4 -14  -3    4.93    1.28
   4  14  -3    5.16    1.35
   5  14  -3    1.88    0.99
  14  -5  -3    1.81    0.85
 -14   5  -3    1.86    0.95
  -5 -14  -3    3.58    1.18
 -14   6  -3    0.22    0.76
  14  -6  -3    0.25    0.75
   6  14  -3   -0.43    0.77
  -6 -14  -3   -0.05    0.85
 -14   7  -3    1.57    0.95
  14  -7  -3    1.64    0.93
   7  14  -3    1.60    0.95
 -14   8  -3    2.93    1.14
  14  -8  -3    2.72    1.06
   8  14  -3    2.81    1.20
   9  14  -3   -0.12    0.87
 -14   9  -3    1.30    0.98
  14  -9  -3    0.64    0.89
  -7  15  -3    1.50    1.14
   7 -15  -3    3.62    1.21
  15   7  -3    1.28    0.97
  15   6  -3    1.81    1.01
   6 -15  -3    0.74    0.95
  -6  15  -3    2.98    1.20
   5 -15  -3    1.60    0.99
  15   5  -3   -0.18    0.79
  -5  15  -3    0.16    0.92
  -4  15  -3    1.23    1.00
   4 -15  -3    0.83    0.93
   3 -15  -3    0.02    0.81
  -3  15  -3    0.37    0.90
 -15  -2  -3    1.39    0.88
   2 -15  -3    0.19    0.80
  -2  15  -3    0.03    0.86
  -1  15  -3    0.90    1.01
   1 -15  -3    0.47    0.80
 -15  -1  -3    2.00    0.93
 -15   0  -3   -0.03    0.70
   0 -15  -3    1.08    0.84
  15   0  -3   -0.51    0.59
   0  15  -3    0.26    0.84
   1  15  -3    0.82    1.01
 -15   1  -3    2.79    1.03
  15  -1  -3    0.42    0.73
  -1 -15  -3    0.78    0.82
  15  -2  -3   -0.40    0.68
 -15   2  -3    1.47    0.91
  -2 -15  -3   -0.57    0.72
   2  15  -3   -0.09    0.88
   3  15  -3   -0.46    0.85
  -3 -15  -3    1.10    0.91
  15  -3  -3    0.45    0.73
 -15   3  -3    0.57    0.74
  15  -4  -3   -0.22    0.69
  -4 -15  -3    0.67    0.94
 -15   4  -3   -0.39    0.71
   4  15  -3   -0.52    0.67
 -15   5  -3   -0.19    0.73
  15  -5  -3    0.60    0.80
  -5 -15  -3    2.13    1.05
   5  15  -3    1.88    1.06
  15  -6  -3    0.31    0.80
   6  15  -3    0.70    1.02
 -15   6  -3    1.27    0.93
 -15   7  -3    2.18    1.00
  15  -7  -3    4.20    1.26
   7  15  -3    2.77    1.23
   5 -16  -3    0.74    1.00
  -5  16  -3    0.34    0.86
   4 -16  -3    1.26    1.02
  -4  16  -3    0.32    0.94
  -3  16  -3    0.15    0.95
   3 -16  -3    1.08    0.92
   2 -16  -3    0.50    0.82
 -16  -2  -3    0.29    0.79
  -2  16  -3    0.87    0.89
   1 -16  -3    0.44    0.84
  -1  16  -3    0.92    1.02
 -16  -1  -3    0.50    0.83
 -16   0  -3   -0.25    0.74
   0  16  -3    0.96    0.98
   0 -16  -3   -0.49    0.69
  16   0  -3    0.55    0.77
  -1 -16  -3    0.25    0.79
  16  -1  -3   -0.01    0.70
   1  16  -3    1.21    1.06
 -16   1  -3    0.80    0.84
  16  -2  -3    0.11    0.76
   2  16  -3    0.27    0.94
  -2 -16  -3    0.18    0.81
 -16   2  -3    0.07    0.73
 -16   3  -3    0.42    0.70
   3  16  -3    0.31    0.97
  -3 -16  -3    0.17    0.87
  16  -3  -3    0.16    0.77
  16  -4  -3   -0.22    0.72
  -4 -16  -3   -0.28    0.83
   4  16  -3    0.01    0.94
 -16   4  -3   -0.62    0.71
   5  16  -3   -0.41    0.87
  -5 -16  -3   -0.74    0.82
  16  -5  -3    0.39    0.86
   0   0  -4    5.73    0.90
   0  -1  -4   30.88    1.74
   1   0  -4   23.82    1.51
   0   1  -4   28.30    1.22
  -1   0  -4   30.86    1.69
   0   1  -4   29.08    1.59
  -1   1  -4   16.74    1.21
   1  -1  -4   17.29    1.54
   1   1  -4   18.14    1.30
  -1  -1  -4   16.05    1.48
   2   1  -4    1.94    0.61
  -2  -1  -4    1.86    0.65
  -1   2  -4    3.75    0.69
   1  -2  -4    3.64    0.83
  -1   2  -4    1.81    0.54
  -2   0  -4    1.21    0.59
   0  -2  -4    2.20    0.70
   0   2  -4    1.30    0.48
   2   0  -4    2.11    0.64
   0   2  -4    1.73    0.55
  -1  -2  -4    2.70    0.72
   1   2  -4    2.96    0.58
   2  -1  -4    0.96    0.58
  -2   1  -4    1.09    0.57
   1   2  -4    0.86    0.48
   2   2  -4   13.77    0.93
   2   2  -4   16.41    1.35
  -2   2  -4   15.10    1.30
  -2  -2  -4   13.60    1.41
  -2   2  -4   14.43    1.07
   2  -2  -4   13.55    1.42
  -3  -2  -4    6.42    1.03
   3   2  -4    6.90    0.96
   2  -3  -4    7.17    1.11
  -2   3  -4    7.29    0.95
  -2   3  -4    6.79    0.88
   3   1  -4    1.46    0.58
  -1   3  -4    1.28    0.50
  -1   3  -4    1.47    0.51
  -3  -1  -4    1.67    0.65
   1  -3  -4    1.39    0.60
   0  -3  -4    5.49    0.98
   0   3  -4    6.18    0.85
   0   3  -4    5.68    0.81
   3   0  -4    5.53    0.89
  -3   0  -4    5.82    0.95
   1   3  -4    0.71    0.45
   1   3  -4    1.88    0.54
   3  -1  -4    0.99    0.58
  -1  -3  -4    0.50    0.56
  -3   1  -4    0.63    0.52
   2   3  -4    8.60    0.94
   3  -2  -4    7.37    1.12
   2   3  -4    7.43    0.90
  -2  -3  -4    7.16    1.08
   3   3  -4    0.14    0.39
  -3   3  -4    0.10    0.47
   3   3  -4    0.57    0.46
  -3  -3  -4    0.78    0.57
   3  -3  -4    0.48    0.52
  -3   3   4    0.38    0.24
   4   3  -4    0.64    0.44
  -4  -3  -4    2.07    0.75
   3  -4  -4    1.19    0.67
  -3   4  -4    1.53    0.62
  -3   4   4    1.68    0.37
  -4  -3   4    1.74    0.35
   4   2  -4    5.95    0.90
  -4  -2  -4    7.33    1.09
   2  -4  -4    5.83    1.07
  -2   4  -4    6.60    1.01
  -2   4   4    6.87    0.50
  -4  -2   4    7.03    0.48
   1  -4  -4    6.71    1.12
  -4  -1  -4    8.46    1.17
  -1   4  -4    7.16    0.86
  -1   4  -4    8.45    1.06
   4   1  -4   10.16    1.16
  -1   4   4    8.10    0.46
  -4  -1   4    7.96    0.49
  -1   4   4    7.99    0.45
   0   4  -4    0.32    0.40
   0   4  -4   -0.21    0.42
   0  -4  -4    0.25    0.50
   4   0  -4    0.34    0.44
  -4   0  -4    0.39    0.52
  -4   0   4    0.10    0.20
   1   4  -4    9.02    0.90
   4  -1  -4    8.83    1.17
  -1  -4  -4    5.93    1.05
   1   4  -4    7.82    0.97
  -4   1   4    7.09    0.49
  -2  -4  -4    6.95    1.12
   2   4  -4    6.53    0.80
   2   4  -4    7.78    1.00
   4  -2  -4    3.49    0.84
  -4   2   4    6.34    0.55
   3   4  -4    2.30    0.56
   3   4  -4    1.83    0.61
  -4   3  -4    1.58    0.62
   4  -3  -4    2.03    0.66
  -3  -4  -4    1.30    0.69
  -4   3   4    1.68    0.38
  -4  -4  -4   22.84    2.00
   4  -4  -4   23.85    2.04
   4   4  -4   26.74    1.39
   4   4  -4   24.40    1.44
  -4   4  -4   24.52    1.59
   4   4   4   24.36    0.80
  -4   4   4   26.58    1.12
   4   4   4   23.68    0.81
  -4  -4   4   22.81    1.00
  -4   5  -4    7.54    1.14
   4  -5  -4   11.30    1.49
  -5  -4  -4    7.43    1.23
   5   4  -4    7.57    0.99
   5   4  -4    7.66    0.92
   5   4   4    6.31    0.55
   5   4   4    7.99    0.55
  -5  -4   4    8.37    0.76
  -4   5   4    9.06    0.83
  -3   5  -4    8.47    1.18
   3  -5  -4    5.07    1.04
   5   3  -4    9.38    1.05
  -5  -3  -4    5.77    1.11
   5   3   4    6.73    0.41
  -5  -3   4    7.25    0.69
  -3   5   4    8.64    0.75
  -2   5  -4   18.17    1.67
  -5  -2  -4   20.11    1.77
   2  -5  -4   20.62    1.88
   5   2  -4   20.22    1.40
  -5  -2   4   18.48    0.91
  -2   5   4   20.62    0.92
   5   1  -4    8.55    1.09
  -1   5  -4   10.47    1.26
   1  -5  -4   11.79    1.43
  -5  -1   4   11.49    0.70
  -1   5   4   10.38    0.65
  -1   5   4   10.64    0.67
   0  -5  -4    8.50    1.24
   0   5  -4   11.28    1.28
   5   0  -4   11.21    1.27
   0   5   4   10.45    0.63
  -5   0   4   10.61    0.70
   0   5   4   10.48    0.60
   5  -1  -4   10.10    1.24
   1   5  -4   11.66    1.29
  -1  -5  -4   11.78    1.46
  -5   1   4    8.48    0.66
   1   5   4   10.13    0.57
   1   5   4   10.75    0.62
  -2  -5  -4   19.65    1.86
   5  -2  -4   21.33    1.81
   2   5  -4   21.10    1.43
   2   5   4   18.91    0.77
  -5   2   4   19.14    0.97
   2   5   4   19.79    0.82
  -3  -5  -4    8.06    1.27
   3   5  -4    6.91    1.02
   5  -3  -4    5.71    1.04
   3   5   4    7.54    0.55
   3   5   4    7.52    0.53
  -5   3   4    8.30    0.77
  -5   4  -4    6.55    1.09
   4   5  -4    7.56    1.05
   5  -4  -4    6.57    1.15
  -4  -5  -4    5.34    1.10
  -5   4   4    8.00    0.79
   4   5   4    7.27    0.61
   4   5   4    8.46    0.63
  -4  -5   4    8.64    0.76
  -4  -5   4    8.32    0.71
   5   5  -4    5.99    0.95
   5  -5  -4    6.57    1.20
  -5  -5  -4    7.85    1.29
  -5   5  -4    5.64    1.09
   5   5   4    4.92    0.56
  -5   5   4    5.72    0.73
  -5  -5   4    6.07    0.67
   5   5   4    5.84    0.63
   5  -5   4    5.14    0.45
  -5  -5   4    4.96    0.67
  -6  -5  -4   11.00    1.48
   6   5  -4   18.11    1.59
  -5   6  -4   14.83    1.65
   5  -6  -4   14.96    1.75
  -5   6   4   13.70    1.02
   6   5   4   15.45    0.92
   6   5   4   15.00    0.89
  -6  -5   4   15.17    0.96
   5  -6   4   14.14    0.76
  -6  -5   4   15.40    1.04
  -4   6  -4   -0.20    0.57
   6   4  -4    0.33    0.46
   4  -6  -4    0.65    0.62
   4  -6   4    0.53    0.27
   6   4   4    0.48    0.32
  -6  -4   4    0.28    0.39
   6   4   4    0.35    0.33
  -4   6   4    0.66    0.42
   3  -6  -4   20.43    1.97
   6   3  -4   21.23    1.39
  -3   6  -4   24.19    1.70
   6   3   4   23.74    0.88
   6   3   4   21.97    0.88
   3  -6   4   23.02    0.81
  -6  -3   4   22.09    1.15
  -3   6   4   22.79    1.15
  -2   6  -4    6.11    1.07
   6   2  -4    6.04    0.94
   2  -6  -4    3.97    1.03
   6   2   4    5.78    0.43
  -2   6   4    6.98    0.73
   2  -6   4    6.21    0.43
  -6  -2   4    7.40    0.74
  -1   6  -4   10.05    1.33
   6   1  -4    9.78    1.21
   1  -6  -4   10.30    1.41
   1  -6   4    9.55    0.50
  -6  -1   4   10.27    0.78
  -1   6   4   10.45    0.74
   0   6  -4   45.61    2.18
   0  -6  -4   42.06    2.32
   6   0  -4   44.06    2.17
   0   6   4   44.27    1.44
   0   6   4   44.53    1.51
  -6   0   4   44.87    1.59
   0  -6   4   43.16    1.16
   1   6  -4   10.08    1.27
   6  -1  -4    8.62    1.19
  -1  -6  -4   10.36    1.45
  -6   1   4   10.52    0.89
   1   6   4    9.74    0.73
  -1  -6   4    9.46    0.56
   1   6   4   10.45    0.70
  -2  -6  -4    7.28    1.23
   2   6  -4    5.76    1.01
   6  -2  -4    6.58    1.13
  -6   2   4    6.62    0.73
  -2  -6   4    6.77    0.59
   2   6   4    6.71    0.63
   2   6   4    5.92    0.63
  -3  -6  -4   22.63    2.06
   3   6  -4   24.88    1.63
   6  -3  -4   23.34    2.01
  -6   3   4   23.67    1.20
   3   6   4   23.50    1.07
  -3  -6   4   24.08    1.02
   3   6   4   22.03    1.03
   6  -4  -4    0.25    0.61
   4   6  -4    0.48    0.55
  -4  -6  -4   -0.11    0.56
  -4  -6   4    0.18    0.37
  -6   4   4    0.58    0.41
   6  -4   4    0.28    0.24
   4   6   4    0.30    0.33
   4   6   4    0.23    0.32
   6  -4   4    0.48    0.27
  -4  -6   4    0.68    0.36
   5   6  -4   15.62    1.56
  -5  -6  -4   12.09    1.56
  -6   5  -4   16.31    1.71
   6  -5  -4   11.77    1.54
  -6   5  -4   17.45    1.79
  -5  -6   4   13.87    0.93
   5   6   4   13.03    0.89
  -5  -6   4   13.88    0.97
   6  -5   4   14.14    0.74
   5   6   4   16.65    0.96
  -6   5   4   14.29    1.06
  -6   6  -4    2.65    0.93
  -6  -6  -4    2.85    0.96
   6   6  -4    3.65    0.87
   6  -6  -4    4.85    1.09
  -6   6  -4    4.37    0.97
  -6  -6   4    3.29    0.69
   6   6   4    3.47    0.60
   6   6   4    2.72    0.54
   6  -6   4    3.38    0.51
  -6  -6   4    3.91    0.63
   7   6  -4   19.49    1.76
  -6   7  -4   17.86    1.76
   6  -7  -4   18.41    1.96
  -6   7  -4   22.17    2.11
  -7  -6   4   17.70    1.17
   6  -7   4   18.67    1.04
   7   6   4   18.44    1.13
   7   6   4   19.24    1.18
   5  -7  -4    8.29    1.39
  -5   7  -4   14.28    1.71
  -5   7  -4   11.62    1.42
   5  -7   4   10.32    0.77
   7   5   4   10.68    0.94
   7   5   4   10.76    0.84
  -7  -5   4   10.82    1.01
   4  -7  -4    2.32    0.90
  -4   7  -4    2.83    0.90
  -7  -4   4    2.06    0.53
  -7  -4   4    1.44    0.52
   7   4   4    1.23    0.41
   4  -7   4    1.82    0.40
   7   4   4    1.80    0.43
  -3   7  -4    4.61    1.04
   3  -7  -4    3.83    1.06
   7   3  -4    3.66    0.81
  -3   7   4    5.35    0.73
   7   3   4    4.84    0.55
  -7  -3   4    5.76    0.76
   3  -7   4    5.41    0.54
   7   3   4    5.44    0.59
   7   2  -4   17.64    1.58
   2  -7  -4   15.45    1.79
  -2   7  -4   19.97    1.88
  -2   7   4   16.62    1.02
  -7  -2   4   16.62    1.05
   7   2   4   17.56    0.80
   7   2   4   15.80    0.80
   2  -7   4   15.51    0.79
  -1   7  -4   29.63    1.89
   7   1  -4   25.10    1.69
   1  -7  -4   20.76    2.00
  -7  -1   4   28.60    1.35
   7   1   4   25.04    0.93
  -1   7   4   27.56    1.22
   7   1   4   24.82    0.91
   1  -7   4   23.87    0.97
   7   0  -4   -0.06    0.45
   0  -7  -4   -0.16    0.56
   0   7  -4    0.20    0.52
   0  -7   4    0.36    0.30
   7   0   4    0.49    0.25
   0   7   4    0.24    0.33
   7   0   4    0.27    0.25
  -7   0   4    0.33    0.39
   1   7  -4   26.75    1.78
   7  -1  -4   24.58    1.73
  -1  -7  -4   27.56    2.33
  -1  -7   4   23.76    1.01
  -7   1   4   27.02    1.33
   7  -1   4   25.01    0.86
   1   7   4   27.69    1.20
   1   7   4   21.50    1.15
   7  -1   4   24.90    0.87
   7  -2  -4   17.05    1.73
  -2  -7  -4   17.13    1.84
   2   7  -4   18.25    1.79
   7  -2   4   17.69    0.74
  -7   2   4   18.73    1.14
   2   7   4   17.92    1.00
   2   7   4   17.57    1.03
  -2  -7   4   15.61    0.87
   7  -2   4   14.42    0.70
  -3  -7  -4    5.48    1.14
   3   7  -4    4.55    0.97
   7  -3  -4    6.35    1.18
   7  -3   4    4.99    0.50
  -3  -7   4    5.07    0.62
  -7   3   4    5.52    0.76
   3   7   4    5.49    0.70
   7  -3   4    4.68    0.49
   3   7   4    4.67    0.62
   4   7  -4    1.84    0.68
  -7   4  -4    1.71    0.79
   7  -4  -4    1.41    0.73
  -4  -7  -4    0.86    0.64
   4   7   4    2.41    0.51
   7  -4   4    2.18    0.42
   4   7   4    2.09    0.52
  -4  -7   4    2.22    0.51
   7  -4   4    1.76    0.40
  -4  -7   4    1.33    0.49
   5   7  -4    9.94    1.35
  -5  -7  -4   12.60    1.60
   7  -5  -4   14.30    1.71
  -7   5  -4   11.61    1.46
   7  -5   4   10.92    0.77
  -5  -7   4   12.54    1.12
  -5  -7   4   10.73    0.96
   5   7   4   11.39    0.86
   5   7   4   10.79    1.00
  -6  -7  -4   18.31    1.93
  -7   6  -4   18.70    1.84
   6   7  -4   19.52    1.88
   7  -6  -4   18.21    1.95
  -7   6  -4   20.22    2.04
   6   7   4   18.79    1.16
  -6  -7   4   16.76    1.13
   7  -6   4   17.44    1.02
   6   7   4   18.79    1.19
  -7   7  -4   16.54    1.93
   7  -7  -4   16.28    1.90
  -7   7  -4   16.75    1.77
   7   7  -4   13.01    1.58
   7  -7   4   14.08    0.99
   7   7   4   14.28    1.11
  -7  -7   4   15.64    1.15
   7  -8  -4    3.96    1.09
  -7   8  -4    3.31    0.89
  -7   8  -4    1.33    0.87
   8   7  -4    2.72    0.83
  -8  -7   4    2.69    0.69
   8   7   4    1.98    0.62
   7  -8   4    2.39    0.59
   6  -8  -4   10.55    1.61
  -6   8  -4   12.65    1.54
  -6   8  -4   13.29    1.69
   6  -8   4   12.02    0.91
  -8  -6   4   12.99    1.17
   8   6   4   10.97    1.07
  -5   8  -4    0.57    0.69
  -5   8  -4    0.61    0.64
   5  -8  -4    0.32    0.67
  -8  -5   4    0.13    0.42
   8   5   4   -0.06    0.39
   5  -8   4    0.06    0.37
   8   5   4    0.26    0.40
   4  -8  -4    0.02    0.53
  -4   8  -4    0.66    0.64
   8   4   4    0.15    0.37
   8   4   4    0.60    0.40
  -8  -4   4    0.87    0.48
   4  -8   4   -0.10    0.34
   3  -8  -4    3.54    0.97
   8   3  -4    3.09    0.81
  -3   8  -4    2.07    0.83
   3  -8   4    3.68    0.54
   8   3   4    3.67    0.57
   8   3   4    3.58    0.56
   8   2  -4    0.17    0.52
   2  -8  -4    0.47    0.67
  -2   8  -4   -0.62    0.56
   8   2   4    0.34    0.33
   8   2   4    0.27    0.32
   2  -8   4    0.50    0.34
   8   1  -4    8.27    1.20
   1  -8  -4   11.45    1.56
  -1   8  -4    7.90    1.27
   8   1   4    9.67    0.72
  -1   8   4    9.30    0.91
   8   1   4    7.00    0.66
   1  -8   4    7.89    0.72
   0   8  -4    0.92    0.67
   0  -8  -4    1.86    0.85
   8   0  -4    1.55    0.70
   8   0   4    0.76    0.34
   8   0   4    1.71    0.39
   0   8   4    1.74    0.50
   0  -8   4    1.38    0.40
  -1  -8  -4    9.52    1.46
   8  -1  -4    8.87    1.32
   1   8  -4    7.45    1.29
   1   8   4    8.11    0.87
   8  -1   4    9.39    0.67
   8  -1   4    9.11    0.65
  -1  -8   4    8.63    0.77
  -2  -8  -4    0.32    0.61
   2   8  -4   -0.59    0.57
   8  -2  -4    0.25    0.59
   8  -2   4    0.14    0.30
   2   8   4    0.06    0.39
  -2  -8   4    0.24    0.34
   2   8   4    0.11    0.34
   8  -2   4    0.71    0.33
  -3  -8  -4    4.31    1.08
  -8   3  -4    5.93    1.17
   8  -3  -4    3.82    0.93
   3   8  -4    3.01    0.96
   8  -3   4    3.15    0.50
   3   8   4    5.28    0.71
   3   8   4    3.32    0.63
   8  -3   4    4.36    0.55
  -3  -8   4    3.29    0.58
   4   8  -4   -0.61    0.56
  -8   4  -4   -0.42    0.53
   8  -4  -4    0.92    0.68
  -4  -8  -4    0.42    0.65
  -4  -8   4    0.69    0.48
  -4  -8   4    0.48    0.41
   8  -4   4    0.03    0.31
   4   8   4    0.37    0.44
   4   8   4   -0.09    0.39
   8  -5  -4   -1.15    0.46
  -5  -8  -4   -0.11    0.68
   5   8  -4    0.22    0.56
  -8   5  -4   -0.01    0.62
   8  -5   4    0.05    0.31
   5   8   4    0.51    0.47
  -5  -8   4   -0.24    0.37
  -8   6  -4   11.37    1.53
   6   8  -4   11.82    1.55
   8  -6  -4   13.96    1.79
  -6  -8  -4   14.77    1.84
   6   8   4   11.93    1.15
  -6  -8   4   11.19    1.05
   8  -6   4   12.80    0.94
  -8   7  -4    2.70    0.91
   7   8  -4    1.51    0.83
   8  -7  -4    3.21    1.05
  -8   7  -4    3.01    1.03
   7   8   4    1.71    0.58
   8  -7   4    3.32    0.65
  -7  -8   4    3.85    0.75
   8   8  -4   13.82    1.69
   8  -8  -4   16.47    1.97
  -8   8  -4   14.83    1.92
  -8   8  -4   12.12    1.62
   8   8   4   13.38    1.29
  -8  -8   4   14.14    1.30
   8  -8   4   11.96    1.11
  -8   9  -4   -0.82    0.67
  -8   9  -4    0.87    0.77
   8  -9  -4   -0.71    0.57
  -9  -8   4    0.28    0.57
   9   8   4   -0.25    0.48
   8  -9   4    0.26    0.44
   7  -9  -4    1.90    0.90
  -7   9  -4    1.24    0.81
  -7   9  -4    1.12    0.84
  -9  -7   4    0.90    0.55
   7  -9   4    1.56    0.55
   9   7   4    0.58    0.52
  -6   9  -4    1.25    0.69
  -6   9  -4    0.93    0.84
   6  -9  -4    2.54    0.99
   6  -9   4    0.36    0.43
   9   6   4    1.10    0.54
  -9  -6   4    0.89    0.59
  -5   9  -4    2.96    1.05
  -5   9  -4    3.49    0.91
   5  -9  -4    3.16    0.99
  -9  -5   4    2.88    0.69
   9   5   4    3.34    0.66
   5  -9   4    2.89    0.60
  -4   9  -4    0.69    0.67
   4  -9  -4    1.82    0.78
   9   4   4    0.25    0.43
   4  -9   4    0.80    0.45
  -9  -4   4    0.77    0.54
   9   4   4    1.27    0.51
   3  -9  -4    0.18    0.67
  -3   9  -4    0.42    0.67
   9   3  -4    0.34    0.56
   9   3   4    0.35    0.41
   9   3   4   -0.44    0.33
   3  -9   4    0.28    0.38
  -9  -3   4   -0.11    0.40
  -2   9  -4   -0.10    0.59
   2  -9  -4    1.28    0.75
   9   2  -4    1.71    0.70
   2  -9   4    1.49    0.45
   9   2   4    1.48    0.47
   9   2   4    1.24    0.45
   1  -9  -4    3.17    0.94
  -1   9  -4    3.62    1.02
   9   1  -4    3.68    0.93
   9   1   4    2.60    0.52
   1  -9   4    3.06    0.55
   9   1   4    4.08    0.58
   9   0  -4    6.14    1.10
   0   9  -4    8.33    1.37
   0  -9  -4    5.29    1.17
   9   0   4    4.63    0.63
   0  -9   4    3.61    0.59
   9   0   4    4.73    0.63
   9  -1  -4    1.85    0.77
  -1  -9  -4    2.19    0.85
   1   9  -4    5.55    1.17
  -1  -9   4    2.92    0.57
   9  -1   4    3.07    0.52
   9  -1   4    2.66    0.53
   2   9  -4    1.29    0.81
   9  -2  -4    1.09    0.74
  -9   2  -4    0.71    0.62
  -2  -9  -4   -0.02    0.62
   9  -2   4    1.76    0.46
   9  -2   4    1.56    0.46
  -2  -9   4    1.47    0.48
   2   9   4    1.61    0.59
   9  -3  -4    0.51    0.59
   3   9  -4    0.15    0.63
  -9   3  -4    0.88    0.69
  -3  -9  -4   -0.72    0.53
   9  -3   4    0.37    0.35
   3   9   4    0.66    0.46
  -3  -9   4    0.40    0.39
   9  -3   4    0.17    0.34
  -4  -9  -4    0.79    0.77
  -9   4  -4    0.18    0.62
   4   9  -4    1.04    0.77
   9  -4  -4    2.36    0.90
   4   9   4    0.90    0.50
  -4  -9   4    0.67    0.46
   9  -4   4    1.18    0.45
  -9   5  -4    4.40    1.12
   5   9  -4    3.41    0.94
  -5  -9  -4    4.59    1.17
   9  -5  -4    3.44    1.00
   5   9   4    3.51    0.72
   9  -5   4    3.56    0.64
  -5  -9   4    2.78    0.61
   9  -6  -4    1.97    0.85
   6   9  -4   -0.20    0.67
  -9   6  -4    1.15    0.75
  -6  -9  -4    0.45    0.79
  -6  -9   4    0.83    0.50
   6   9   4    0.63    0.51
   9  -6   4    1.02    0.50
   7   9  -4    0.86    0.80
   9  -7  -4    0.00    0.61
  -9   7  -4    1.18    0.77
   9  -7   4    1.55    0.52
   7   9   4    1.30    0.58
  -7  -9   4    0.97    0.58
   8   9  -4    0.82    0.79
  -9   8  -4    0.08    0.74
  -9   8  -4    0.72    0.76
   9  -8  -4    1.21    0.80
   8   9   4    0.00    0.52
  -8  -9   4    0.32    0.55
   9  -8   4    0.05    0.43
  -9   9  -4    1.83    0.93
   9   9  -4    3.53    1.07
   9  -9  -4    3.06    1.06
  -9   9  -4    3.08    1.19
   9   9   4    3.83    0.90
   9  -9   4    3.77    0.80
   9 -10  -4    2.22    1.05
  -9  10  -4    3.31    1.19
  -9  10  -4    3.09    1.04
   9 -10   4    2.52    0.76
  -8  10  -4    0.28    0.82
  -8  10  -4    0.03    0.70
   8 -10  -4   -0.03    0.73
  10   8   4    1.01    0.66
   8 -10   4    1.04    0.58
  -7  10  -4   -0.49    0.76
  -7  10  -4    0.41    0.71
   7 -10  -4   -0.18    0.76
  10   7   4    0.35    0.55
   7 -10   4    0.57    0.51
  -6  10  -4    1.88    0.94
  -6  10  -4    4.17    1.01
   6 -10  -4    3.68    1.13
  10   6   4    1.97    0.67
   6 -10   4    2.90    0.66
 -10  -6   4    1.06    0.63
  -5  10  -4    0.54    0.80
   5 -10  -4    1.61    0.90
 -10  -5   4    1.39    0.60
  10   5   4    1.82    0.61
   5 -10   4    0.93    0.51
  -4  10  -4    0.91    0.75
   4 -10  -4    1.09    0.85
  10   4   4    2.01    0.58
 -10  -4   4    1.32    0.64
   4 -10   4    1.63    0.54
   3 -10  -4    0.43    0.75
  10   3  -4    0.53    0.59
  -3  10  -4   -0.35    0.69
 -10  -3   4    0.61    0.54
  10   3   4    0.07    0.42
   3 -10   4    0.28    0.39
  10   2  -4    2.33    0.77
   2 -10  -4    2.40    0.92
  -2  10  -4    1.84    0.87
   2 -10   4    3.42    0.63
  10   2   4    2.09    0.57
   1 -10  -4   -0.30    0.57
  10   1  -4   -0.76    0.51
  -1  10  -4   -0.35    0.65
  10   1   4    0.31    0.41
   1 -10   4    0.43    0.40
  10   1   4    0.59    0.45
   0  10  -4    3.21    1.02
   0 -10  -4    4.06    1.07
  10   0  -4    5.81    1.12
  10   0   4    4.12    0.68
  10   0   4    4.65    0.70
   0 -10   4    3.31    0.62
  10  -1  -4    0.43    0.61
   1  10  -4    0.66    0.78
  -1 -10  -4    0.82    0.77
  -1 -10   4    0.53    0.43
  10  -1   4    0.39    0.44
  10  -1   4    0.62    0.42
  -2 -10  -4    1.98    0.88
   2  10  -4    2.06    0.92
  10  -2  -4    3.03    0.92
 -10   2  -4    1.44    0.85
  10  -2   4    1.37    0.48
  10  -2   4    1.53    0.53
  -2 -10   4    1.56    0.51
 -10   3  -4    1.16    0.70
   3  10  -4   -0.62    0.59
  -3 -10  -4    0.70    0.80
  10  -3  -4    0.65    0.73
  10  -3   4    0.02    0.38
  -3 -10   4   -0.01    0.41
  -4 -10  -4    1.30    0.81
 -10   4  -4    0.00    0.70
   4  10  -4    2.08    0.92
  10  -4  -4    2.48    0.87
  10  -4   4    1.02    0.48
  -4 -10   4    1.91    0.60
   4  10   4    1.46    0.62
  10  -5  -4    1.08    0.81
 -10   5  -4    2.06    0.90
   5  10  -4    0.85    0.82
  -5 -10  -4    1.85    0.89
  -5 -10   4    0.97    0.56
  10  -5   4    1.56    0.53
   5  10   4    1.20    0.64
   6  10  -4    2.04    0.99
  10  -6  -4    2.57    0.98
 -10   6  -4    4.63    1.22
  -6 -10  -4    2.87    1.06
  10  -6   4    2.48    0.63
   6  10   4    3.21    0.82
  -6 -10   4    2.99    0.75
 -10   7  -4    1.45    0.89
  10  -7  -4    0.84    0.76
   7  10  -4    0.52    0.70
  10  -7   4    0.47    0.52
  -7 -10   4    0.38    0.53
   7  10   4    1.12    0.63
  10  -8  -4    0.52    0.79
 -10   8  -4    1.72    0.92
   8  10  -4    0.86    0.90
  10  -8   4   -0.03    0.50
   8  10   4    0.58    0.67
   9  10  -4    2.44    1.02
 -10   9  -4    3.32    1.02
  10  -9  -4    2.10    1.06
  10  -9   4    3.07    0.83
 -10  10  -4    2.15    0.98
 -10  10  -4    2.02    1.10
  10 -10  -4    2.42    1.03
  10 -10   4    1.02    0.72
   9 -11  -4    2.71    1.10
  -9  11  -4    0.80    0.82
  -9  11  -4    0.97    0.97
  -8  11  -4   -0.13    0.72
   8 -11  -4   -0.66    0.70
  -8  11  -4   -0.82    0.68
   8 -11   4   -0.49    0.50
  -7  11  -4    0.41    0.77
   7 -11  -4    0.57    0.74
  11   7   4    0.70    0.62
   7 -11   4    0.50    0.59
  -6  11  -4    0.09    0.84
   6 -11  -4   -0.21    0.76
  11   6   4    1.09    0.64
   6 -11   4    0.72    0.56
  -5  11  -4    3.87    1.24
   5 -11  -4    3.23    1.14
   5 -11   4    3.30    0.75
  11   5   4    1.91    0.69
   4 -11  -4    1.77    0.98
  -4  11  -4    3.50    1.08
  11   4   4    4.50    0.80
   4 -11   4    5.23    0.82
  11   3  -4    4.32    1.03
   3 -11  -4    4.26    1.15
  -3  11  -4    5.36    1.27
 -11  -3   4    5.11    0.90
  11   3   4    3.78    0.74
   3 -11   4    2.84    0.64
  11   2  -4    3.13    0.87
  -2  11  -4    2.81    1.06
   2 -11  -4    0.88    0.78
 -11  -2   4    1.01    0.66
  11   2   4    1.75    0.58
   2 -11   4    2.12    0.61
  -1  11  -4    2.22    0.90
   1 -11  -4    1.15    0.72
  11   1  -4    1.31    0.68
   1 -11   4    1.01    0.49
  11   1   4    0.51    0.48
  11   0  -4    0.91    0.67
   0  11  -4    0.39    0.72
   0 -11  -4   -0.32    0.62
  11   0   4    0.00    0.42
   0 -11   4    1.15    0.49
  -1 -11  -4    0.78    0.75
   1  11  -4    1.13    0.85
  11  -1  -4    0.42    0.65
  11  -1   4    0.64    0.46
  -1 -11   4    0.69    0.48
   2  11  -4    1.82    0.97
 -11   2  -4    0.47    0.72
  -2 -11  -4    1.82    0.95
  11  -2  -4    2.59    0.93
  11  -2   4    2.61    0.60
  -2 -11   4    1.26    0.54
   3  11  -4    3.57    1.05
  -3 -11  -4    1.45    0.94
  11  -3  -4    3.17    0.99
 -11   3  -4    3.18    1.09
  11  -3   4    3.01    0.67
  -3 -11   4    4.35    0.78
  -4 -11  -4    4.35    1.17
 -11   4  -4    2.88    0.97
   4  11  -4    3.72    1.14
  11  -4  -4    3.87    1.06
  11  -4   4    4.16    0.76
  -4 -11   4    4.38    0.82
  -5 -11  -4    2.61    1.09
 -11   5  -4    1.78    0.95
  11  -5  -4    4.59    1.17
   5  11  -4    5.51    1.35
  -5 -11   4    4.15    0.83
   5  11   4    3.52    0.89
  11  -5   4    4.10    0.78
 -11   6  -4    0.61    0.80
  -6 -11  -4    1.26    0.89
  11  -6  -4   -0.18    0.70
   6  11  -4    0.57    0.78
  -6 -11   4    0.41    0.60
  11  -6   4    1.81    0.68
   6  11   4    0.67    0.65
 -11   7  -4   -0.45    0.60
   7  11  -4    0.43    0.88
  11  -7  -4    0.04    0.64
  11  -7   4    0.18    0.49
  11  -8  -4   -0.62    0.63
   8  11  -4   -0.55    0.78
 -11   8  -4   -0.03    0.74
  11  -8   4   -0.05    0.54
  11  -9  -4    1.90    0.99
 -11   9  -4    2.28    1.06
   9  11  -4    1.17    0.97
   8 -12  -4   -0.08    0.76
  -8  12  -4    0.71    0.91
  -7  12  -4    0.33    0.96
   7 -12  -4   -0.17    0.78
   7 -12   4   -0.44    0.54
  -6  12  -4   -0.53    0.79
   6 -12  -4    1.17    0.90
   6 -12   4   -0.52    0.54
  12   6   4    1.13    0.70
   5 -12  -4    1.53    0.91
  -5  12  -4    2.17    1.04
  12   5   4    2.88    0.75
   5 -12   4    1.46    0.67
  -4  12  -4   -0.48    0.80
   4 -12  -4    0.55    0.86
   4 -12   4    0.77    0.59
  12   4   4    1.62    0.71
  -3  12  -4    3.00    1.13
   3 -12  -4    3.44    1.10
  12   3  -4    2.51    0.88
   3 -12   4    2.71    0.70
  12   3   4    2.49    0.73
  -2  12  -4    1.16    0.90
   2 -12  -4    0.74    0.83
  12   2  -4   -0.22    0.63
   2 -12   4    0.84    0.57
  12   2   4    0.83    0.60
   1 -12  -4    1.86    0.98
  -1  12  -4    1.46    0.98
  12   1  -4    2.74    0.98
   1 -12   4    1.31    0.61
  12   1   4    0.48    0.54
  12   0  -4    0.00    0.66
   0 -12  -4    0.51    0.88
   0  12  -4    0.29    0.83
  12   0   4    0.63    0.51
   0 -12   4    0.63    0.53
 -12   1  -4    1.92    0.86
   1  12  -4    1.34    0.96
  -1 -12  -4    2.20    0.99
  12  -1  -4    2.13    0.83
  -1 -12   4    0.61    0.55
  12  -1   4    1.12    0.54
 -12   2  -4    1.39    0.85
   2  12  -4    1.00    0.91
  -2 -12  -4    1.36    0.89
  12  -2  -4    1.07    0.75
  12  -2   4    1.13    0.57
  -2 -12   4    1.67    0.68
 -12   3  -4    2.54    1.05
  -3 -12  -4    3.38    1.14
   3  12  -4    3.38    1.16
  12  -3  -4    2.04    0.93
  12  -3   4    3.90    0.84
  -3 -12   4    1.53    0.65
  12  -4  -4    1.76    0.90
   4  12  -4    0.81    0.82
 -12   4  -4    0.81    0.78
  -4 -12  -4    1.35    0.97
  -4 -12   4    0.50    0.61
  12  -4   4    0.71    0.54
  12  -5  -4    0.90    0.78
  -5 -12  -4    2.77    1.10
 -12   5  -4    1.49    0.95
   5  12  -4    3.26    1.18
  12  -5   4    2.64    0.75
  -6 -12  -4    1.82    1.05
  12  -6  -4    0.72    0.86
   6  12  -4    0.79    0.94
 -12   6  -4    0.85    0.80
  12  -6   4    0.27    0.60
 -12   7  -4   -0.31    0.83
  12  -7  -4    0.04    0.73
   7  12  -4   -0.46    0.79
  12  -7   4    0.26    0.59
   8  12  -4    0.41    0.98
 -12   8  -4   -0.25    0.79
  12  -8  -4   -0.18    0.79
  -7  13  -4    1.41    0.98
   6 -13  -4    2.64    1.16
  -6  13  -4    2.83    1.20
  -5  13  -4   -1.21    0.79
   5 -13  -4   -0.45    0.78
   4 -13  -4    2.92    1.21
  -4  13  -4    2.33    1.16
   4 -13   4    3.68    0.82
  13   4   4    2.44    0.76
   3 -13  -4    6.67    1.51
  -3  13  -4    6.64    1.49
   3 -13   4    6.37    1.00
  13   3   4    8.79    1.18
  -2  13  -4    5.25    1.36
  13   2  -4    5.90    1.19
   2 -13  -4    7.50    1.51
  13   2   4    5.63    1.00
   2 -13   4    5.87    0.98
   1 -13  -4    3.52    1.17
  13   1  -4    3.96    1.07
  -1  13  -4    5.27    1.40
   1 -13   4    1.63    0.73
  13   1   4    3.04    0.82
   0  13  -4    1.91    1.01
  13   0  -4    4.46    1.13
   0 -13  -4    4.83    1.38
  13   0   4    2.92    0.80
   0 -13   4    3.26    0.79
 -13   1  -4    3.28    1.06
  13  -1  -4    2.81    1.04
  -1 -13  -4    3.42    1.19
   1  13  -4    2.15    1.10
  -1 -13   4    2.23    0.74
  13  -1   4    3.61    0.84
 -13   2  -4    5.56    1.37
  -2 -13  -4    2.92    1.12
  13  -2  -4    7.24    1.38
   2  13  -4    7.25    1.59
  13  -2   4    5.98    1.01
  -3 -13  -4    9.14    1.63
 -13   3  -4    7.11    1.42
   3  13  -4    7.53    1.63
  13  -3  -4    6.80    1.40
  13  -3   4    6.33    1.04
  13  -4  -4    3.89    1.15
  -4 -13  -4    2.25    1.10
 -13   4  -4    4.17    1.29
   4  13  -4    1.78    1.02
  13  -4   4    3.02    0.84
 -13   5  -4    1.12    0.97
  13  -5  -4    0.19    0.79
  -5 -13  -4   -0.92    0.80
   5  13  -4   -0.22    0.88
  13  -5   4    0.54    0.64
   6  13  -4    1.03    0.96
 -13   6  -4    2.33    1.16
  13  -6  -4    0.81    0.86
  -6 -13  -4    1.06    1.02
 -13   7  -4   -0.65    0.82
   7  13  -4    0.34    0.92
   4 -14  -4    0.48    0.81
  -4  14  -4    0.05    0.88
  -3  14  -4    0.97    1.02
   3 -14  -4    3.69    1.22
   2 -14  -4    1.06    0.94
  -2  14  -4    1.40    1.09
  14   2  -4    1.65    0.89
  -1  14  -4    0.46    1.01
  14   1  -4    0.27    0.78
   1 -14  -4    1.93    1.08
   0  14  -4   16.93    2.31
  14   0  -4   15.62    1.90
   0 -14  -4   15.94    2.15
  14   0   4   16.61    1.60
  -1 -14  -4    4.05    1.23
  14  -1  -4    0.56    0.88
   1  14  -4    2.32    1.29
 -14   1  -4    2.80    1.12
  14  -1   4    2.84    0.93
 -14   2  -4    0.31    0.72
  -2 -14  -4    1.42    1.01
  14  -2  -4    1.33    0.92
   2  14  -4   -0.03    0.89
  14  -2   4   -0.03    0.65
  14  -3  -4    2.46    1.07
 -14   3  -4    1.52    1.02
  -3 -14  -4    3.75    1.24
   3  14  -4    1.12    1.05
  -4 -14  -4   -0.43    0.79
 -14   4  -4   -0.18    0.88
  14  -4  -4   -0.44    0.67
   4  14  -4    0.62    0.96
   0   0  -5    0.51    0.61
  -1   0  -5   -0.04    0.52
   0   1  -5    0.57    0.56
   0  -1  -5    0.07    0.57
   1   0  -5    0.04    0.55
  -1  -1  -5    4.13    0.96
   1  -1  -5    4.24    0.99
  -1   1  -5    2.14    0.74
   1   1  -5    3.07    0.79
  -2  -1  -5    0.46    0.67
  -1   2  -5    0.47    0.61
   2   1  -5    1.15    0.63
   1  -2  -5    1.35    0.67
   0   2  -5    5.34    0.93
   2   0  -5    4.98    1.00
   0  -2  -5    5.91    1.08
   2  -1  -5    0.88    0.66
  -1  -2  -5    1.62    0.69
  -2   1  -5    1.03    0.66
   1   2  -5    2.01    0.68
  -2  -2  -5    2.12    0.79
   2   2  -5    3.08    0.82
  -2   2  -5    2.78    0.84
   2  -2  -5    2.22    0.80
  -3  -2  -5   15.77    1.73
   2  -3  -5   16.08    1.78
   3   2  -5   16.51    1.58
   1  -3  -5   11.73    1.53
   3   1  -5   11.69    1.37
  -3  -1  -5    7.87    1.27
   0  -3  -5    1.22    0.73
  -3   0  -5    1.84    0.79
   3   0  -5    1.67    0.76
  -1  -3  -5   13.98    1.64
  -3   1  -5   11.41    1.36
   3  -1  -5   11.33    1.45
  -2  -3  -5   13.52    1.64
   3  -2  -5   16.69    1.76
  -3   2   5   15.31    0.72
  -3  -3  -5   26.21    2.26
   3  -3  -5   24.61    2.20
  -3   3   5   25.32    1.04
  -4  -3  -5   12.69    1.65
   3  -4  -5   10.80    1.50
  -3   4   5   12.52    0.83
  -4  -3   5    9.74    0.71
  -4  -2  -5    0.81    0.73
   4   2  -5    0.51    0.64
   2  -4  -5    0.30    0.60
  -4  -2   5    0.87    0.35
  -2   4   5    1.29    0.37
   4   1  -5    0.27    0.60
  -4  -1  -5    0.53    0.69
   1  -4  -5    0.26    0.62
  -1   4   5    0.21    0.26
  -4  -1   5   -0.09    0.25
  -1   4   5   -0.14    0.24
   4   0  -5    0.04    0.58
   0  -4  -5    0.19    0.60
  -4   0   5    0.07    0.27
  -1  -4  -5   -0.09    0.57
   4  -1  -5    0.12    0.60
  -4   1   5    0.26    0.31
  -2  -4  -5    1.03    0.78
   4  -2  -5    1.52    0.78
  -4   2   5    1.43    0.40
  -3  -4  -5   11.70    1.58
   4  -3  -5   12.04    1.61
  -4   3   5   11.03    0.83
  -4  -4  -5   43.85    2.59
   4  -4  -5   43.82    2.55
   4   4   5   38.87    1.22
   4   4   5   43.95    1.23
  -4  -4   5   42.09    1.48
  -4   4   5   42.85    1.60
   4  -5  -5    7.76    1.41
  -5  -4  -5    5.95    1.28
   5   4   5    6.88    0.62
   5   4   5    7.77    0.66
  -4   5   5    8.52    0.89
  -5  -4   5    6.42    0.76
   3  -5  -5    1.11    0.72
  -5  -3  -5    0.27    0.59
  -3   5   5    0.01    0.37
  -5  -3   5    0.55    0.37
   2  -5  -5    7.53    1.37
  -2   5   5    8.09    0.77
  -5  -2   5    8.73    0.80
   5   1  -5    1.14    0.72
   1  -5  -5    0.68    0.77
  -5  -1   5    1.75    0.46
  -1   5   5    1.81    0.41
   0  -5  -5   -0.01    0.65
   5   0  -5    0.44    0.58
   0   5   5    0.20    0.30
  -5   0   5   -0.32    0.33
   0   5   5    0.58    0.31
   5  -1  -5    0.94    0.71
  -1  -5  -5    0.98    0.72
   1   5   5    2.17    0.41
  -5   1   5    1.07    0.40
   1   5   5    1.60    0.37
  -2  -5  -5    8.34    1.41
   5  -2  -5    9.27    1.40
  -5   2   5    8.58    0.83
   2   5   5    7.82    0.66
   2   5   5    7.59    0.57
  -3  -5  -5    1.37    0.78
   5  -3  -5    0.50    0.72
   3   5   5    0.35    0.32
   3   5   5    0.30    0.30
  -5   3   5    0.59    0.41
  -4  -5  -5    7.40    1.37
   5  -4  -5    6.41    1.27
  -5   4   5    7.94    0.88
   4   5   5    6.27    0.66
  -4  -5   5    7.04    0.72
   4   5   5    7.62    0.68
  -4  -5   5    6.74    0.76
   5  -5  -5    9.10    1.48
  -5  -5  -5    8.09    1.45
   5   5   5    8.22    0.75
  -5  -5   5    8.57    0.90
  -5  -5   5    8.87    0.87
   5  -5   5    8.68    0.54
   5   5   5    8.59    0.80
   5  -6  -5    1.97    0.90
   6   5   5    2.96    0.57
   5  -6   5    2.48    0.43
   6   5   5    2.74    0.54
  -6  -5   5    1.99    0.57
   4  -6  -5   -0.64    0.61
   6   4   5    0.10    0.33
   4  -6   5    0.15    0.27
   6   4   5    0.20    0.35
  -6  -4   5    0.15    0.43
   3  -6  -5    5.29    1.18
  -6  -3   5    3.09    0.62
   6   3   5    4.13    0.49
   3  -6   5    3.38    0.40
  -3   6   5    3.53    0.65
   6   3   5    3.84    0.47
   2  -6  -5    1.00    0.80
   2  -6   5    1.03    0.28
  -6  -2   5    1.46    0.48
   6   2   5    1.48    0.30
  -2   6   5    1.04    0.46
   1  -6  -5   -0.05    0.66
   6   1  -5    0.21    0.66
  -1   6   5    0.45    0.37
  -6  -1   5    0.68    0.42
   1  -6   5    0.24    0.24
   0  -6  -5   -0.07    0.67
   6   0  -5   -0.59    0.46
   0  -6   5   -0.07    0.23
   0   6   5   -0.21    0.31
  -6   0   5   -0.22    0.35
   6  -1  -5    1.13    0.69
  -1  -6  -5    0.92    0.78
  -6   1   5    0.16    0.40
   1   6   5   -0.12    0.34
  -1  -6   5    0.54    0.28
   1   6   5    0.11    0.35
  -2  -6  -5    1.30    0.85
   6  -2  -5    0.94    0.77
   2   6   5    1.52    0.43
  -6   2   5    1.19    0.50
  -2  -6   5    1.22    0.38
   2   6   5    1.72    0.45
   6  -3  -5    4.26    1.07
  -3  -6  -5    2.02    0.87
   3   6   5    2.54    0.52
   3   6   5    3.99    0.58
  -3  -6   5    3.87    0.57
   6  -4  -5    1.59    0.85
  -4  -6  -5   -0.45    0.60
   6  -4   5    0.62    0.28
  -4  -6   5    0.23    0.41
  -4  -6   5    0.89    0.43
   4   6   5    0.40    0.39
   6  -4   5    0.38    0.26
   4   6   5    0.33    0.37
   6  -5  -5    3.54    1.03
  -5  -6  -5    1.53    0.88
   5   6   5    2.84    0.58
  -5  -6   5    3.43    0.62
   6  -5   5    2.53    0.42
   5   6   5    2.80    0.59
   6  -6  -5    1.53    0.76
   6   6   5    2.61    0.60
   6  -6   5    2.45    0.48
   6   6   5    2.83    0.59
  -6  -6   5    3.19    0.66
  -6   7  -5    2.05    0.99
   6  -7  -5    1.62    0.88
   6  -7   5    0.54    0.40
  -7  -6   5   -0.02    0.47
   7   6   5    1.08    0.49
   5  -7  -5    0.31    0.70
  -5   7  -5    0.86    0.82
   7   5   5    0.86    0.47
   5  -7   5    0.69    0.39
   7   5   5    1.39    0.52
  -7  -5   5    1.50    0.55
   4  -7  -5    0.09    0.67
   7   4   5    0.23    0.39
   7   4   5    0.56    0.42
   4  -7   5    0.20    0.32
  -7  -4   5    0.19    0.44
   3  -7  -5    0.34    0.66
   3  -7   5    1.01    0.36
   7   3   5    0.86    0.39
   7   3   5    0.88    0.38
   2  -7  -5    0.75    0.77
   7   2   5   -0.02    0.26
   7   2   5    0.10    0.29
   2  -7   5    0.13    0.31
   1  -7  -5    1.73    0.92
   7   1  -5    0.74    0.69
   7   1   5    0.76    0.30
  -1   7   5    0.34    0.42
   7   1   5    0.92    0.30
   1  -7   5    0.27    0.32
   7   0  -5    0.05    0.58
   0  -7  -5   -0.84    0.58
   0  -7   5    0.30    0.32
   0   7   5    0.20    0.39
   7   0   5    0.04    0.24
   7   0   5    0.19    0.27
   7  -1  -5    0.05    0.60
  -1  -7  -5    1.65    0.84
   1   7   5    0.08    0.43
   1   7   5    0.45    0.42
  -1  -7   5    1.07    0.38
   7  -1   5    0.55    0.25
  -2  -7  -5    0.13    0.67
   7  -2  -5    0.81    0.72
   2   7   5    0.69    0.44
  -2  -7   5   -0.11    0.34
   7  -2   5    0.45    0.28
   2   7   5    0.10    0.42
   7  -2   5    0.26    0.26
  -3  -7  -5    1.19    0.80
   7  -3  -5    1.16    0.73
   3   7   5    0.88    0.45
   7  -3   5    0.77    0.31
  -3  -7   5    0.28    0.39
   7  -3   5    0.95    0.33
   3   7   5    0.86    0.47
   7  -4  -5   -0.57    0.56
  -4  -7  -5    0.38    0.77
   7  -4   5    0.36    0.33
   4   7   5    1.10    0.48
  -4  -7   5    0.58    0.44
   7  -4   5    0.12    0.33
   4   7   5    0.27    0.42
  -5  -7  -5    0.15    0.69
   7  -5  -5    0.54    0.77
   5   7   5    0.76    0.46
  -5  -7   5    0.31    0.45
   7  -5   5    0.23    0.35
  -6  -7  -5    1.43    0.84
   7  -6  -5    1.09    0.81
  -6  -7   5    0.97    0.56
   7  -6   5    0.61    0.40
   6   7   5    0.96    0.51
   7  -7  -5    1.70    0.94
   7   7   5    1.66    0.60
  -7  -7   5    1.78    0.65
   7  -7   5    1.65    0.53
   7  -8  -5    4.79    1.32
  -7   8  -5    5.69    1.36
  -8  -7   5    4.38    0.89
   8   7   5    4.47    0.86
   7  -8   5    4.84    0.78
   6  -8  -5   -0.08    0.66
  -6   8  -5    1.10    0.87
  -8  -6   5    0.37    0.55
   6  -8   5    0.25    0.43
   8   6   5    0.67    0.48
   5  -8  -5   -0.18    0.62
  -5   8  -5    0.38    0.76
   5  -8   5    0.08    0.38
  -8  -5   5    1.18    0.59
   8   5   5    1.13    0.49
   4  -8  -5   -0.02    0.70
  -4   8  -5    0.78    0.85
  -8  -4   5    0.90    0.53
   8   4   5    0.67    0.46
   4  -8   5    0.13    0.36
   8   4   5    0.63    0.44
   3  -8  -5    0.24    0.65
   8   3   5    0.09    0.36
   3  -8   5    0.45    0.39
   8   3   5    0.07    0.38
   2  -8  -5    0.16    0.65
   2  -8   5    0.22    0.37
   8   2   5    0.18    0.34
   8   2   5   -0.18    0.34
   1  -8  -5    1.13    0.88
   8   1  -5    1.76    0.80
   8   1   5    1.55    0.42
   8   1   5    0.88    0.36
   1  -8   5    0.93    0.43
   8   0  -5    2.77    0.91
   0  -8  -5    1.42    0.84
   8   0   5    1.11    0.40
   8   0   5    1.86    0.43
   0  -8   5    0.94    0.41
  -1  -8  -5    1.52    0.89
   8  -1  -5    1.44    0.81
   8  -1   5    1.28    0.40
   8  -1   5    1.19    0.40
  -1  -8   5    0.75    0.42
  -2  -8  -5   -0.44    0.60
   8  -2  -5    0.87    0.78
   8  -2   5   -0.05    0.34
   8  -2   5   -0.03    0.31
  -2  -8   5   -0.17    0.36
   2   8   5   -0.41    0.42
   8  -3  -5   -0.07    0.71
  -3  -8  -5    1.66    0.88
  -3  -8   5    0.26    0.41
   3   8   5    0.43    0.47
   8  -3   5    0.21    0.37
   8  -3   5    0.32    0.34
  -4  -8  -5    0.08    0.81
   8  -4  -5    0.22    0.76
   4   8   5    0.36    0.52
   8  -4   5    0.58    0.40
  -4  -8   5    1.00    0.53
  -5  -8  -5    0.57    0.88
   8  -5  -5    0.89    0.83
  -5  -8   5    0.99    0.54
   5   8   5    0.19    0.47
   8  -5   5    0.09    0.39
   8  -6  -5    0.98    0.79
  -6  -8  -5    0.96    0.90
   8  -6   5    0.45    0.47
  -6  -8   5    1.18    0.57
   6   8   5    1.16    0.59
   8  -7  -5    7.37    1.53
   7   8   5    4.09    0.83
   8  -7   5    3.32    0.68
  -7  -8   5    5.93    0.92
   8  -8  -5   10.78    1.79
  -8  -8   5   10.75    1.25
   8   8   5    9.95    1.24
   8  -8   5   10.95    1.12
  -7   9  -5   11.43    1.90
   7  -9  -5   11.24    1.79
   7  -9   5    6.32    0.92
  -9  -7   5   10.58    1.24
   9   7   5    9.31    1.15
   6  -9  -5    2.95    1.12
  -6   9  -5    1.77    1.05
   9   6   5    1.74    0.68
  -9  -6   5    1.58    0.71
   6  -9   5    1.64    0.57
  -5   9  -5    2.27    1.02
   5  -9  -5    1.76    0.96
   9   5   5    3.27    0.73
   5  -9   5    2.73    0.64
  -9  -5   5    3.01    0.78
   4  -9  -5    2.47    1.12
  -4   9  -5    2.43    1.10
   4  -9   5    2.00    0.55
  -9  -4   5    4.43    0.85
   9   4   5    2.09    0.59
  -3   9  -5    5.39    1.33
   3  -9  -5    5.07    1.33
   3  -9   5    5.38    0.75
  -9  -3   5    6.46    0.95
   9   3   5    7.26    0.89
   2  -9  -5    2.61    1.01
   9   2   5    3.76    0.66
   9   2   5    4.00    0.68
   2  -9   5    3.50    0.63
   1  -9  -5    0.34    0.75
   9   1  -5   -0.35    0.61
   9   1   5    0.55    0.39
   1  -9   5    0.08    0.39
   9   1   5    0.58    0.41
   9   0  -5    0.92    0.70
   0  -9  -5    0.60    0.83
   9   0   5    1.71    0.49
   9   0   5    1.20    0.46
   0  -9   5    1.71    0.50
   9  -1  -5   -0.56    0.61
  -1  -9  -5   -0.17    0.64
   9  -1   5    0.40    0.41
   9  -1   5    0.33    0.38
  -1  -9   5    0.47    0.44
  -2  -9  -5    5.19    1.32
   9  -2  -5    4.96    1.17
   9  -2   5    3.75    0.62
  -2  -9   5    3.39    0.66
   9  -2   5    3.35    0.56
   9  -3  -5    6.37    1.30
  -3  -9  -5    6.17    1.42
   9  -3   5    6.71    0.79
  -3  -9   5    6.38    0.85
   3   9   5    6.21    0.95
   9  -3   5    4.89    0.70
  -4  -9  -5    2.43    1.12
   9  -4  -5    2.27    0.99
   9  -4   5    1.24    0.53
  -4  -9   5    2.15    0.64
   4   9   5    3.16    0.76
   9  -5  -5    3.47    1.12
  -5  -9  -5    4.53    1.30
   9  -5   5    2.44    0.62
  -5  -9   5    3.71    0.74
   5   9   5    3.38    0.80
   9  -6  -5    1.37    0.92
  -6  -9  -5    2.72    1.05
  -6  -9   5    1.84    0.67
   9  -6   5    1.68    0.60
   6   9   5    2.03    0.73
   9  -7  -5    6.07    1.43
   9  -7   5   10.55    1.10
  -7  -9   5   12.44    1.30
   7   9   5    8.80    1.17
   5 -10  -5    1.69    0.98
  -5  10  -5    1.63    1.07
   5 -10   5    1.13    0.57
  10   5   5    0.83    0.60
 -10  -5   5    1.87    0.77
  -4  10  -5    0.73    0.91
   4 -10  -5    0.69    0.82
   4 -10   5    0.19    0.47
  10   4   5    0.03    0.46
 -10  -4   5    0.16    0.57
   3 -10  -5   -0.49    0.62
  -3  10  -5    0.65    0.93
   3 -10   5    1.10    0.52
  10   3   5    0.65    0.55
 -10  -3   5    0.79    0.65
   2 -10  -5    7.54    1.51
  -2  10  -5    6.86    1.44
  10   2   5    4.25    0.78
   2 -10   5    4.83    0.78
 -10  -2   5    4.20    0.88
  10   1  -5    0.15    0.72
   1 -10  -5    0.70    0.87
   1 -10   5    0.65    0.48
  10   1   5    0.16    0.44
  10   0  -5    0.16    0.66
   0 -10  -5    0.00    0.74
   0 -10   5   -0.26    0.41
  10   0   5   -0.34    0.39
  10  -1  -5    0.73    0.78
  -1 -10  -5    0.58    0.79
  10  -1   5    1.26    0.53
  -1 -10   5    0.81    0.51
  -2 -10  -5    6.29    1.42
  10  -2  -5    6.36    1.38
  10  -2   5    4.40    0.74
  -2 -10   5    3.63    0.73
  -3 -10  -5   -0.18    0.69
  10  -3  -5    0.91    0.81
  10  -3   5    0.81    0.49
  -3 -10   5    0.42    0.53
  -4 -10  -5   -1.49    0.61
  10  -4  -5    0.03    0.77
  10  -4   5   -0.64    0.42
  -4 -10   5   -0.14    0.50
  10  -5  -5    0.83    0.90
  -5 -10  -5    0.88    0.93
  -5 -10   5    1.34    0.65
  10  -5   5    1.16    0.53
   5  10   5    1.89    0.72
  -3  11  -5    0.13    0.88
   3 -11  -5    1.02    0.80
   3 -11   5   -0.18    0.47
  11   3   5    0.14    0.50
  -2  11  -5    1.40    0.95
   2 -11  -5    0.09    0.84
   2 -11   5   -0.06    0.45
  11   2   5    0.79    0.53
   1 -11  -5    2.96    1.16
  -1  11  -5    2.18    1.10
  11   1   5    2.10    0.64
   1 -11   5    2.23    0.64
  11   0  -5    0.91    0.82
   0 -11  -5    1.11    0.90
  11   0   5    0.29    0.50
   0 -11   5    0.51    0.50
  -1 -11  -5    2.81    1.10
  11  -1  -5    3.62    1.08
  -1 -11   5    2.02    0.62
  11  -1   5    1.75    0.61
  -2 -11  -5    0.31    0.78
  11  -2  -5    1.07    0.89
  -2 -11   5    1.07    0.59
  11  -2   5    0.56    0.54
  11  -3  -5    0.53    0.86
  -3 -11  -5    1.19    0.80
  11  -3   5    1.11    0.56
  -3 -11   5   -0.08    0.51
   0  -1  -6   -0.11    0.68
   1  -1  -6    6.38    1.27
  -1  -1  -6    5.05    1.21
   1  -2  -6    1.42    0.80
  -2  -1  -6    3.30    1.11
   0  -2  -6    1.32    0.89
  -2   0  -6    2.41    1.00
  -1  -2  -6    0.89    0.94
   2  -1  -6    1.94    0.93
  -2  -2  -6    0.48    0.89
   2  -2  -6    0.79    0.82
  -3  -2  -6    1.99    0.99
   2  -3  -6    2.12    0.97
  -3  -2   6    2.38    0.46
  -2   3   6    2.21    0.48
  -3  -1  -6    0.60    0.87
   1  -3  -6    0.84    0.86
  -1   3   6    0.87    0.34
   0  -3  -6   -0.09    0.74
  -3   0   6    0.10    0.32
   3  -1  -6    0.83    0.79
  -1  -3  -6   -0.59    0.71
  -3   1   6    0.32    0.34
  -2  -3  -6    0.94    0.88
   3  -2  -6    2.68    0.95
  -3   2   6    2.23    0.50
   3  -3  -6    1.52    0.98
  -3  -3  -6    2.77    1.10
  -3  -3   6    2.11    0.45
  -3   3   6    1.38    0.49
  -4  -3  -6    3.76    1.20
   3  -4  -6    2.83    1.11
  -4  -3   6    4.80    0.68
  -3   4   6    4.50    0.70
   2  -4  -6    4.20    1.18
  -2   4   6    3.47    0.61
  -4  -2   6    3.31    0.58
   1  -4  -6    1.16    0.89
  -4  -1   6    1.19    0.45
  -1   4   6    1.08    0.43
   0  -4  -6   -0.46    0.72
   0   4   6    0.09    0.32
  -4   0   6    0.16    0.38
   4  -1  -6    1.07    0.89
  -1  -4  -6    1.99    1.00
  -4   1   6    1.28    0.49
   1   4   6    1.02    0.37
   1   4   6    0.75    0.36
  -2  -4  -6    1.57    1.02
   4  -2  -6    3.40    1.09
  -4   2   6    3.22    0.63
   2   4   6    3.24    0.46
   2   4   6    2.88    0.46
   4  -3  -6    4.69    1.22
  -3  -4  -6    3.03    1.13
  -3  -4   6    3.22    0.55
   2  -5  -6    2.44    1.01
  -5  -2   6    1.70    0.58
   1  -5  -6    3.10    1.12
  -5  -1   6    2.79    0.63
  -1   5   6    2.34    0.56
   0  -5  -6    0.57    0.84
  -5   0   6    1.35    0.53
   0   5   6    0.32    0.42
   5  -1  -6    4.78    1.21
  -1  -5  -6    3.27    1.13
   1   5   6    2.03    0.48
   1   5   6    2.52    0.55
   5  -2  -6    2.75    1.02
  -2  -5  -6    4.09    1.21
   2   5   6    2.01    0.49
   0   0   0    0.00    0.00
;
_shelx_hkl_checksum              36026
loop_
_space_group_symop_operation_xyz
'x, y, z'
'y, -x, -z'
'-y, x, -z'
'x+1/2, -y+1/2, -z'
'-x+1/2, y+1/2, -z'
'-x, -y, z'
'-y+1/2, -x+1/2, z'
'y+1/2, x+1/2, z'
loop_
_atom_site_label
_atom_site_type_symbol
_atom_site_fract_x
_atom_site_fract_y
_atom_site_fract_z
_atom_site_U_iso_or_equiv
_atom_site_adp_type
_atom_site_occupancy
_atom_site_site_symmetry_order
_atom_site_calc_flag
_atom_site_refinement_flags_posn
_atom_site_refinement_flags_adp
_atom_site_refinement_flags_occupancy
N1 N 0.25684(11) 0.75684(11) 0.0540(4) 0.0394(5) Uani 1 2 d S T P
C1 C 0.31685(12) 0.81685(12) 0.2464(5) 0.0332(5) Uani 1 2 d S T P
C2 C 0.28029(11) 0.91014(12) 0.3364(4) 0.0351(4) Uani 1 1 d . . .
C3 C 0.34073(12) 0.96735(13) 0.5281(4) 0.0363(4) Uani 1 1 d . . .
H3 H 0.3177 1.0313 0.5940 0.044 Uiso 1 1 calc R U .
C4 C 0.43386(11) 0.93386(11) 0.6261(5) 0.0355(5) Uani 1 2 d S T P
C7 C 0.20747(15) 0.70747(15) -0.1043(7) 0.0549(8) Uani 1 2 d S T P
C6 C 0.5000 1.0000 0.8253(7) 0.0416(8) Uani 1 4 d S T P
H6A H 0.5425 0.9575 0.9591 0.050 Uiso 0.5 2 calc R U P
H6B H 0.4575 1.0425 0.9591 0.050 Uiso 0.5 2 calc R U P
C8 C 0.17947(13) 0.94722(15) 0.2280(4) 0.0482(5) Uani 1 1 d . . .
H8A H 0.1772 0.9459 0.0026 0.072 Uiso 1 1 calc R U .
H8B H 0.1690 1.0160 0.3005 0.072 Uiso 1 1 calc R U .
H8C H 0.1266 0.9038 0.3105 0.072 Uiso 1 1 calc R U .
loop_
_atom_site_aniso_label
_atom_site_aniso_U_11
_atom_site_aniso_U_22
_atom_site_aniso_U_33
_atom_site_aniso_U_23
_atom_site_aniso_U_13
_atom_site_aniso_U_12
N1 0.0411(8) 0.0411(8) 0.0360(10) 0.0012(6) 0.0012(6) -0.0075(9)
C1 0.0364(8) 0.0364(8) 0.0268(9) 0.0031(6) 0.0031(6) -0.0097(10)
C2 0.0348(9) 0.0404(9) 0.0301(7) 0.0042(7) 0.0052(6) -0.0044(7)
C3 0.0409(9) 0.0370(9) 0.0310(7) -0.0009(6) 0.0090(7) -0.0057(7)
C4 0.0413(8) 0.0413(8) 0.0238(10) 0.0050(6) 0.0050(6) -0.0111(10)
C7 0.0540(11) 0.0540(11) 0.0565(16) -0.0044(10) -0.0044(10) -0.0109(14)
C6 0.0496(13) 0.0496(13) 0.0254(15) 0.000 0.000 -0.0129(17)
C8 0.0392(10) 0.0539(12) 0.0515(10) -0.0003(9) 0.0016(8) 0.0011(9)
loop_
_atom_type_symbol
_atom_type_description
_atom_type_scat_dispersion_real
_atom_type_scat_dispersion_imag
_atom_type_scat_source
C C 0.0033 0.0016 'International Tables Vol C Tables 4.2.6.8 and 6.1.1.4'
H H 0.0000 0.0000 'International Tables Vol C Tables 4.2.6.8 and 6.1.1.4'
N N 0.0061 0.0033 'International Tables Vol C Tables 4.2.6.8 and 6.1.1.4'
loop_
_geom_angle_atom_site_label_1
_geom_angle_atom_site_label_2
_geom_angle_atom_site_label_3
_geom_angle
_geom_angle_site_symmetry_1
_geom_angle_site_symmetry_3
C7 N1 C1 180.0(3) . .
C2 C1 C2 123.2(2) . 8_455
C2 C1 N1 118.42(11) . .
C2 C1 N1 118.42(11) 8_455 .
C3 C2 C1 117.17(15) . .
C3 C2 C8 121.67(15) . .
C1 C2 C8 121.16(16) . .
C4 C3 C2 121.83(17) . .
C4 C3 H3 119.1 . .
C2 C3 H3 119.1 . .
C3 C4 C3 118.8(2) 8_455 .
C3 C4 C6 120.55(11) 8_455 .
C3 C4 C6 120.55(11) . .
C4 C6 C4 110.5(2) . 6_675
C4 C6 H6A 109.6 . .
C4 C6 H6A 109.6 6_675 .
C4 C6 H6B 109.6 . .
C4 C6 H6B 109.6 6_675 .
H6A C6 H6B 108.1 . .
C2 C8 H8A 109.5 . .
C2 C8 H8B 109.5 . .
H8A C8 H8B 109.5 . .
C2 C8 H8C 109.5 . .
H8A C8 H8C 109.5 . .
H8B C8 H8C 109.5 . .
loop_
_geom_bond_atom_site_label_1
_geom_bond_atom_site_label_2
_geom_bond_distance
_geom_bond_site_symmetry_2
N1 C7 1.158(3) .
N1 C1 1.407(3) .
C1 C2 1.3918(19) .
C1 C2 1.3918(19) 8_455
C2 C3 1.387(2) .
C2 C8 1.508(2) .
C3 C4 1.387(2) .
C3 H3 0.9500 .
C4 C3 1.386(2) 8_455
C4 C6 1.518(3) .
C6 C4 1.518(3) 6_675
C6 H6A 0.9900 .
C6 H6B 0.9900 .
C8 H8A 0.9800 .
C8 H8B 0.9800 .
C8 H8C 0.9800 .
loop_
_geom_torsion_atom_site_label_1
_geom_torsion_atom_site_label_2
_geom_torsion_atom_site_label_3
_geom_torsion_atom_site_label_4
_geom_torsion
_geom_torsion_site_symmetry_1
_geom_torsion_site_symmetry_4
C2 C1 C2 C3 -0.8(3) 8_455 .
N1 C1 C2 C3 179.49(16) . .
C2 C1 C2 C8 178.88(13) 8_455 .
N1 C1 C2 C8 -0.8(3) . .
C1 C2 C3 C4 0.2(2) . .
C8 C2 C3 C4 -179.44(18) . .
C2 C3 C4 C3 0.3(3) . 8_455
C2 C3 C4 C6 177.52(17) . .
C3 C4 C6 C4 88.60(18) 8_455 6_675
C3 C4 C6 C4 -88.60(18) . 6_675
