#------------------------------------------------------------------------------
#$Date: 2015-10-06 16:13:04 +0300 (Tue, 06 Oct 2015) $
#$Revision: 160534 $
#$URL: svn://www.crystallography.net/cod/cif/4/12/43/4124306.cif $
#------------------------------------------------------------------------------
#
# This file is available in the Crystallography Open Database (COD),
# http://www.crystallography.net/
#
# All data on this site have been placed in the public domain by the
# contributors.
#
data_4124306
loop_
_publ_author_name
'Vermeer, Michael J DeVries'
'Zhang, Xiuwen'
'Trimarchi, Giancarlo'
'Donakowski, Martin D.'
'Chupas, Peter J.'
'Poeppelmeier, Kenneth R.'
'Zunger, Alex'
_publ_section_title
;
 Prediction and Synthesis of Strain Tolerant RbCuTe Crystals Based on
 Rotation of One-Dimensional Nano Ribbons within a Three-Dimensional
 Inorganic Network.
;
_journal_issue                   35
_journal_name_full               'Journal of the American Chemical Society'
_journal_page_first              11383
_journal_page_last               11390
_journal_paper_doi               10.1021/jacs.5b06182
_journal_volume                  137
_journal_year                    2015
_chemical_formula_moiety         'Cu Te, Rb '
_chemical_formula_sum            'Cu Rb Te'
_chemical_formula_weight         276.62
_space_group_crystal_system      orthorhombic
_space_group_IT_number           62
_space_group_name_Hall           '-P 2ac 2n'
_symmetry_space_group_name_Hall  '-P 2ac 2n'
_symmetry_space_group_name_H-M   'P n m a'
_atom_sites_solution_primary     direct
_audit_creation_date             2015-05-04
_audit_creation_method
;
Olex2 1.2
(compiled 2015.01.26 svn.r3150 for OlexSys, GUI svn.r4998)
;
_cell_angle_alpha                90
_cell_angle_beta                 90
_cell_angle_gamma                90
_cell_formula_units_Z            4
_cell_length_a                   6.4658(3)
_cell_length_b                   4.3760(2)
_cell_length_c                   13.3745(6)
_cell_measurement_reflns_used    1630
_cell_measurement_temperature    100(2)
_cell_measurement_theta_max      34.533
_cell_measurement_theta_min      3.046
_cell_volume                     378.42(3)
_computing_cell_refinement       'SAINT v7.68A (Bruker, 2009)'
_computing_data_collection       'APEX2 V2.1-4 (Bruker, 2007)'
_computing_data_reduction        'SAINT v7.68A (Bruker, 2009)'
_computing_molecular_graphics    'Olex2 (Dolomanov et al., 2009)'
_computing_publication_material  'Olex2 (Dolomanov et al., 2009)'
_computing_structure_refinement  'ShelXL (Sheldrick, 2008)'
_computing_structure_solution    'XS (Sheldrick, 2008)'
_diffrn_ambient_temperature      99.96
_diffrn_detector_area_resol_mean 8
_diffrn_measured_fraction_theta_full 1.000
_diffrn_measured_fraction_theta_max 0.998
_diffrn_measurement_device_type  'Bruker Kappa APEX CCD area detector'
_diffrn_measurement_method       '\w and \f scans'
_diffrn_radiation_monochromator  graphite
_diffrn_radiation_type           MoK\a
_diffrn_radiation_wavelength     0.71073
_diffrn_reflns_av_R_equivalents  0.0716
_diffrn_reflns_av_unetI/netI     0.0492
_diffrn_reflns_laue_measured_fraction_full 1.000
_diffrn_reflns_laue_measured_fraction_max 0.998
_diffrn_reflns_limit_h_max       9
_diffrn_reflns_limit_h_min       -9
_diffrn_reflns_limit_k_max       5
_diffrn_reflns_limit_k_min       -6
_diffrn_reflns_limit_l_max       18
_diffrn_reflns_limit_l_min       -18
_diffrn_reflns_number            3627
_diffrn_reflns_point_group_measured_fraction_full 1.000
_diffrn_reflns_point_group_measured_fraction_max 0.998
_diffrn_reflns_theta_full        25.242
_diffrn_reflns_theta_max         30.034
_diffrn_reflns_theta_min         3.046
_diffrn_source                   'sealed tube'
_exptl_absorpt_coefficient_mu    25.834
_exptl_absorpt_correction_T_max  0.6823
_exptl_absorpt_correction_T_min  0.3489
_exptl_absorpt_correction_type   multi-scan
_exptl_absorpt_process_details
;
SADABS-2008/1 (Bruker,2008) was used for absorption correction.
R(int) was 0.1381 before and 0.0836 after correction.
The Ratio of minimum to maximum transmission is 0.5114.
The \l/2 correction factor is 0.0015.
;
_exptl_crystal_colour            GREY
_exptl_crystal_density_diffrn    4.855
_exptl_crystal_description       BLOCK
_exptl_crystal_F_000             472
_exptl_crystal_size_max          0.055
_exptl_crystal_size_mid          0.034
_exptl_crystal_size_min          0.034
_refine_diff_density_max         3.302
_refine_diff_density_min         -1.760
_refine_diff_density_rms         0.410
_refine_ls_extinction_method     none
_refine_ls_goodness_of_fit_ref   1.134
_refine_ls_hydrogen_treatment    undef
_refine_ls_matrix_type           full
_refine_ls_number_parameters     19
_refine_ls_number_reflns         614
_refine_ls_number_restraints     0
_refine_ls_restrained_S_all      1.134
_refine_ls_R_factor_all          0.0465
_refine_ls_R_factor_gt           0.0403
_refine_ls_shift/su_max          0.000
_refine_ls_shift/su_mean         0.000
_refine_ls_structure_factor_coef Fsqd
_refine_ls_weighting_details
'w=1/[\s^2^(Fo^2^)+(0.0451P)^2^+3.3238P] where P=(Fo^2^+2Fc^2^)/3'
_refine_ls_weighting_scheme      calc
_refine_ls_wR_factor_gt          0.0940
_refine_ls_wR_factor_ref         0.0966
_reflns_Friedel_coverage         0.000
_reflns_number_gt                551
_reflns_number_total             614
_reflns_threshold_expression     'I > 2\s(I)'
_cod_data_source_file            ja5b06182_si_002.cif
_cod_data_source_block           rbcute_2015
_cod_depositor_comments          'Adding full bibliography for 4124306.cif.'
_cod_database_code               4124306
_shelx_space_group_comment
;
The symmetry employed for this shelxl refinement is uniquely defined
by the following loop, which should always be used as a source of
symmetry information in preference to the above space-group names.
They are only intended as comments.
;
_shelx_estimated_absorpt_t_max   0.474
_shelx_estimated_absorpt_t_min   0.331
_olex2_refinement_description
;
;
_shelx_res_file
;
    rbcute_2015.res created by SHELXL-2014/7

TITL RbCuTe_2015 in Pnma #62
REM reset to Pnma #62
CELL 0.71073 6.4658 4.376 13.3745 90 90 90
ZERR 4 0.0003 0.0002 0.0006 0 0 0
LATT 1
SYMM 0.5-X,-Y,0.5+Z
SYMM 0.5+X,0.5-Y,0.5-Z
SYMM -X,0.5+Y,-Z
SFAC Rb Cu Te
UNIT 4 4 4

L.S. 4
PLAN  20
SIZE 0.034 0.034 0.055
TEMP -173.19
BOND
fmap 2
ACTA
SHEL 999 0.71
REM <olex2.extras>
REM <HklSrc "%.\\RbCuTe_2015.hkl">
REM </olex2.extras>

WGHT    0.045100    3.323800
FVAR       0.08623
RB1   1    0.374135    0.250000    0.653488    10.50000    0.01149    0.01198 =
         0.01563    0.00000   -0.00052    0.00000
CU2   2   -0.074648    0.250000    0.533367    10.50000    0.01084    0.00506 =
         0.01533    0.00000    0.00073    0.00000
TE3   3    0.173825    0.250000    0.377904    10.50000    0.01293    0.00507 =
         0.01377    0.00000    0.00316    0.00000
HKLF 4

REM  RbCuTe_2015 in Pnma #62
REM R1 =  0.0403 for     551 Fo > 4sig(Fo)  and  0.0465 for all     614 data
REM     19 parameters refined using      0 restraints

END

WGHT      0.0451      3.3238

REM Highest difference peak  3.302,  deepest hole -1.760,  1-sigma level  0.410
Q1    1   0.1878  0.2500  0.4408  10.50000  0.05    3.30
Q2    1   0.1794  0.2500  0.3218  10.50000  0.05    3.11
Q3    1   0.0645  0.2500  0.3771  10.50000  0.05    2.25
Q4    1   0.3311  0.2500  0.5948  10.50000  0.05    2.01
Q5    1  -0.0806  0.2500  0.6055  10.50000  0.05    1.96
Q6    1   0.2801  0.2500  0.3837  10.50000  0.05    1.93
Q7    1  -0.0675  0.2500  0.4709  10.50000  0.05    1.82
Q8    1  -0.1821  0.2500  0.5266  10.50000  0.05    1.79
Q9    1   0.3619  0.2500  0.7128  10.50000  0.05    1.78
Q10   1   0.3649  0.2500  0.7691  10.50000  0.05    1.46
Q11   1   0.2025  0.2500  0.2678  10.50000  0.05    1.33
Q12   1   0.0661  0.2500  0.5551  10.50000  0.05    1.18
Q13   1   0.2398 -0.2500  0.6655  10.50000  0.05    1.18
Q14   1   0.4993  0.2500  0.3243  10.50000  0.05    1.17
Q15   1   0.5204  0.2500  0.7651  10.50000  0.05    1.17
Q16   1   0.4706  0.2500  0.6383  10.50000  0.05    1.16
Q17   1   0.4816  0.2500  0.4837  10.50000  0.05    1.10
Q18   1   0.4585  0.2500  0.5982  10.50000  0.05    1.06
Q19   1  -0.1085  0.2500  0.6686  10.50000  0.05    0.98
Q20   1   0.2019  0.2500  0.7412  10.50000  0.05    0.98
;
_shelx_res_checksum              2001
_shelx_hkl_file
;
   0   1   0   -0.80    0.21
   0   1   0   -1.03    0.39
   0  -1   0   -0.87    0.20
   0   2   0 1000.00   66.75
   0   2   0  813.60   73.95
   0   3   0   -0.24    0.61
   0   3   0    0.13    0.30
   0   4   0  407.55   30.87
   0   4   0  429.15   34.29
   0  -5   0   -0.11    0.68
   1   0   0   -0.06    0.18
   1   0   0    0.34    0.21
  -1   0   0    0.08    0.22
  -1   0   0   -0.13    0.14
   1   0   0   -0.11    0.18
  -1   1   0   -0.12    0.32
   1   1   0    0.09    0.27
  -1  -1   0   -0.13    0.26
  -1   2   0   -0.37    0.20
   1  -2   0   -0.05    0.34
   1   2   0   -0.16    0.28
  -1   2   0   -0.56    0.45
  -1   3   0    0.07    0.23
  -1   3   0    0.15    0.71
   1   3   0    0.31    0.39
   1   4   0   -0.07    0.45
  -1   4   0   -0.03    0.91
   1  -4   0    0.30    0.61
   1  -5   0   -0.81    0.78
  -1  -5   0   -2.01    0.80
   1  -5   0    0.08    0.69
   1  -6   0   -1.77    0.91
  -1  -6   0    0.59    0.95
   2   0   0   12.73    1.28
   2   0   0   12.55    1.13
   2   0   0   12.26    1.17
   2   1   0   20.17    2.03
   2   1   0   30.14    2.05
   2  -1   0   24.32    2.11
  -2   2   0    8.07    1.00
   2   2   0    6.75    0.90
  -2  -3   0    8.84    1.11
   2   3   0    8.19    1.07
  -2  -3   0    8.77    0.91
  -2   3   0    9.66    1.26
   2   4   0    5.98    0.98
  -2   4   0    7.47    1.48
  -2  -4   0    6.56    1.08
   2  -4   0    6.08    1.04
   2   5   0    2.70    0.82
   2  -5   0    1.56    0.95
  -2  -5   0    1.52    0.86
   2  -6   0    2.80    1.13
  -2  -6   0    2.39    1.24
   3   0   0    0.30    0.39
   3   0   0    0.34    0.40
   3   0   0    0.49    0.47
   3   1   0   -0.23    0.44
   3  -1   0    1.15    0.53
   3   1   0    0.80    0.38
   3  -1   0    1.32    0.56
  -3   2   0    0.27    0.53
  -3  -2   0    0.85    0.60
   3   2   0   -0.04    0.49
   3  -2   0   -0.59    0.52
   3  -3   0    0.28    0.67
   3   3   0   -0.74    0.51
  -3   3   0   -0.35    0.73
  -3  -3   0    0.99    0.68
   3   4   0   -0.25    0.64
   3  -4   0    0.26    0.80
  -3   4   0   -0.43    1.00
  -3  -4   0    1.47    0.79
   3  -5   0    0.00    0.95
   3  -5   0    0.61    0.82
  -3  -5   0    0.65    0.88
   3  -6   0   -1.74    1.03
   4   0   0  168.49   13.29
   4   0   0  181.01   14.01
   4   1   0  256.57   18.22
   4  -1   0  218.59   18.58
   4  -1   0  257.23   19.57
   4   1   0  247.09   18.54
   4   2   0  121.21    9.69
   4  -2   0  132.43    9.90
   4  -2   0  110.34   10.38
  -4   2   0  147.86   10.73
   4   3   0  148.74   11.42
   4  -3   0  152.62   11.66
   4   4   0   59.86    4.99
  -4  -4   0   62.84    5.40
   4  -4   0   63.67    5.12
   4  -5   0   68.33    5.67
   4  -5   0   75.39    5.94
   4  -6   0   25.48    2.93
   4  -6   0   31.85    3.07
   5   0   0    0.27    0.57
   5   0   0    1.31    0.71
   5   0   0   -0.39    0.40
   5  -1   0    3.00    0.84
   5   1   0    0.83    0.67
   5   1   0    1.77    0.62
   5  -2   0    0.99    0.82
   5  -2   0    0.28    0.75
   5   2   0    0.05    0.64
  -5   2   0   -0.62    0.73
   5  -3   0    2.75    1.03
  -5   3   0    1.92    1.00
   5  -3   0    5.64    1.12
   5   3   0    1.33    0.82
  -5   4   0    0.97    1.05
   5  -4   0    0.21    1.05
   5  -4   0   -0.38    1.04
   5  -5   0    1.68    1.17
   5  -5   0    2.27    1.24
   5  -5   0    6.55    1.33
   5  -6   0   -1.27    1.32
   6   0   0   13.91    1.69
   6   0   0   14.79    1.65
   6   0   0   13.09    1.31
   6   1   0   37.96    3.11
   6  -1   0   37.73    3.20
   6  -1   0   36.32    2.95
   6  -1   0   34.62    3.40
   6  -2   0   14.44    1.71
   6  -2   0   13.60    1.88
  -6   2   0   12.22    1.81
   6  -3   0   24.35    2.61
  -6   3   0   25.75    2.89
   6  -3   0   28.54    2.84
  -6   4   0    7.79    1.74
   6  -4   0    8.12    1.53
   6  -4   0    8.19    1.42
   6  -4   0    9.14    1.69
   6  -5   0   12.52    1.90
   6  -5   0   15.13    2.08
   7   0   0    3.01    1.07
   7  -1   0    1.37    0.75
   7  -1   0    2.18    1.16
   7   1   0    1.47    0.91
   7  -1   0    1.61    1.01
   7  -2   0    2.79    1.16
   7  -2   0    1.76    1.14
   7  -2   0    1.72    0.95
  -7   2   0    1.54    1.27
   7  -3   0    1.27    1.04
  -7   3   0    0.70    1.19
   7  -3   0    2.19    1.27
   7  -3   0   -0.35    1.23
   7  -4   0    0.82    1.29
  -7   4   0   -0.03    1.48
   7  -4   0   -0.01    1.12
   7  -5   0    0.96    1.35
   8   0   0   10.18    1.63
  -8   1   0   25.50    3.01
   8  -1   0   26.24    2.88
   8  -1   0   28.19    2.76
  -8   2   0    6.21    1.61
   8  -2   0    8.40    1.34
   8  -2   0    3.19    1.44
   8  -2   0    9.76    1.68
  -8   3   0   20.64    2.79
   8  -3   0   17.65    2.38
   8  -3   0   20.26    2.31
   8  -4   0    4.41    1.50
  -8   4   0    0.91    1.93
   8  -4   0    6.29    1.54
  -9   0   0    3.40    1.40
   9  -1   0    2.82    1.32
  -9   1   0    1.22    1.48
   9  -2   0    4.26    1.56
  -9   2   0    1.64    1.75
   9  -3   0    0.49    1.35
  10  -1   0   22.91    2.80
   0   0   1   -0.03    0.11
   0   0  -1   -0.29    0.15
   0   0  -1    0.02    0.10
   0   1  -1    0.47    0.20
   0  -1   1    1.32    0.21
   0  -1   1    0.76    0.25
   0  -1  -1    1.03    0.24
   0   2   1   -0.32    0.55
   0   2   1   -0.63    0.32
   0   2  -1   -0.32    0.48
   0   3  -1    1.11    0.34
   0   3   1    1.12    0.77
   0   3  -1   -0.16    0.54
   0   3   1    0.52    0.36
   0  -3   1    1.41    0.44
   0  -4   1   -0.58    0.54
   0  -4  -1   -0.49    0.51
   0   4   1   -0.72    0.41
   0   4   1    1.22    0.87
   0  -5  -1    0.66    0.71
   0  -6  -1   -1.26    1.11
   1   0   1   68.35    5.73
   1   0  -1   76.29    5.43
   1   0   1   75.60    5.59
  -1   0  -1   81.36    5.60
   1   1   1   96.50    7.88
  -1   1   1  108.11    8.74
   1   1  -1   98.96    7.87
   1  -1   1  120.25    8.07
   1   2   1   68.16    4.85
   1   2   1   66.98    5.39
  -1   2  -1   68.74    5.36
   1  -2   1   55.95    4.94
  -1  -2  -1   66.41    4.65
  -1  -2  -1   69.66    4.95
  -1   2   1   58.34    4.77
  -1   2   1   66.89    5.40
   1   2  -1   55.15    4.81
   1   3   1   66.70    4.85
   1   3   1   55.73    4.29
  -1   3  -1   59.18    4.85
  -1   3   1   52.29    4.91
  -1   3   1   54.41    4.22
   1   3  -1   52.26    4.29
   1  -3   1   45.99    4.39
  -1  -3  -1   62.01    4.17
   1   4   1   27.66    2.19
   1   4  -1   25.76    2.16
  -1  -4  -1   24.66    2.14
   1  -4   1   25.96    2.27
  -1   4   1   20.58    2.87
   1  -5  -1   24.88    2.38
   1  -5  -1   25.06    2.31
  -1  -5  -1   22.12    2.47
  -1  -6   1   11.22    1.66
   1  -6  -1   11.75    1.57
   1  -6   1    9.34    1.64
  -1  -6  -1   11.63    1.77
   2   0   1  386.69   26.65
   2   0  -1  360.25   25.85
   2   0   1  355.24   28.65
   2   0  -1  343.52   28.65
   2   0   1  362.35   27.28
   2   1   1   43.71    3.34
  -2  -1   1   37.71    3.45
   2   1   1   46.52    3.25
   2  -1   1   36.86    3.31
   2  -1   1   34.21    3.48
  -2   1   1   47.69    3.62
   2   1  -1   49.42    3.28
  -2   2  -1  236.09   18.91
  -2  -2   1  229.43   17.33
   2   2   1  250.36   17.11
  -2   2   1  234.55   18.95
  -2  -2  -1  212.10   17.35
  -2   2   1  252.87   17.06
   2  -2   1  217.99   17.50
   2   2  -1  210.40   17.10
  -2   3  -1   27.89    2.52
   2   3   1   26.30    2.16
  -2  -3   1   24.83    2.28
  -2  -3  -1   25.37    2.00
   2   3  -1   23.29    2.16
  -2  -3  -1   25.74    2.32
   2  -3   1   24.09    2.27
  -2   3   1   28.30    2.58
   2   4   1  109.21    7.80
  -2   4  -1  118.01    8.82
  -2  -4   1  102.19    8.00
   2   4  -1   93.54    7.76
  -2   4   1   92.56    8.80
   2  -4   1   96.40    7.94
  -2  -4  -1  103.99    8.03
   2   5   1   12.96    1.51
   2  -5  -1   12.20    1.54
   2  -5  -1   12.14    1.62
  -2  -5   1   10.70    1.60
  -2  -5  -1   11.19    1.69
   2  -5   1   12.67    1.58
  -2  -6   1   38.24    3.96
   2  -6  -1   44.74    3.76
   2  -6   1   46.42    3.80
  -2  -6  -1   39.95    4.12
   3   0   1   21.09    1.85
   3   0  -1   19.83    1.57
   3   0   1   18.77    1.70
   3   0  -1   18.49    1.73
   3   0  -1   22.44    1.87
   3   0   1   19.76    1.75
   3   1   1   27.13    2.10
   3   1   1   25.87    2.11
   3   1  -1   24.11    2.11
   3   1  -1   21.70    2.02
   3  -1   1   24.18    2.14
  -3   1   1   22.61    2.33
   3  -1   1   30.42    2.31
  -3   2  -1   17.28    1.68
  -3  -2   1   11.73    1.57
   3   2   1   15.60    1.46
   3   2  -1   16.58    1.52
   3  -2   1   16.33    1.56
  -3   2   1   13.70    1.69
   3  -2   1   15.02    1.62
  -3  -2  -1   14.69    1.73
  -3  -3   1   13.57    1.65
   3   3   1   10.71    1.37
  -3   3  -1   12.44    1.74
   3  -3   1   14.08    1.53
  -3  -3  -1   13.26    1.65
   3   3  -1   13.17    1.46
  -3   3   1   12.23    1.62
  -3  -4   1    8.77    1.30
  -3   4  -1    7.94    1.48
   3  -4  -1    8.80    1.34
   3   4   1   10.97    1.35
   3  -4   1    8.64    1.30
  -3  -4  -1   11.48    1.60
   3   4  -1   11.82    1.41
  -3   4   1    8.58    1.58
   3   5   1    7.90    1.27
   3  -5  -1    6.06    1.22
   3  -5  -1    6.37    1.34
  -3  -5  -1    4.92    1.46
   3  -5   1    5.16    1.22
   3  -6  -1    3.40    1.41
  -3  -6  -1    5.98    1.47
   3  -6   1    4.96    1.44
   4   0   1   37.31    2.84
   4   0  -1   36.63    2.63
   4   0  -1   30.87    3.03
   4   0   1   34.88    3.05
   4   0   1   31.53    2.84
   4   0  -1   37.03    2.85
   4   1   1   14.59    1.41
   4   1   1   14.91    1.44
   4  -1  -1   11.88    1.50
   4  -1  -1   13.49    1.54
   4   1  -1   12.21    1.30
  -4   1   1   13.85    1.58
   4  -1   1   14.03    1.45
   4  -1   1   15.01    1.54
   4   2   1   20.00    2.63
  -4   2  -1   29.80    2.67
   4  -2  -1   22.41    2.47
   4   2   1   24.85    2.40
   4  -2   1   28.04    2.59
   4   2  -1   28.50    2.44
   4  -2   1   30.56    2.50
  -4   2   1   33.91    2.71
   4   3   1    9.86    1.35
   4  -3  -1    9.48    1.39
  -4   3  -1   12.35    1.59
   4   3  -1    9.24    1.30
   4  -3   1   10.17    1.42
  -4   3   1    8.47    1.45
   4  -3   1   11.39    1.40
  -4   4  -1   19.49    2.34
   4  -4  -1   14.52    1.87
   4  -4  -1   15.08    1.99
  -4  -4   1   15.32    2.15
   4   4   1   16.08    1.89
  -4  -4  -1   16.96    2.23
   4  -4   1   19.43    2.12
  -4   4   1   18.23    2.30
   4  -4   1   19.43    2.03
   4  -5  -1    3.10    1.18
   4  -5  -1    3.51    1.28
   4   5   1    6.34    1.08
   4  -5   1    5.60    1.29
  -4  -5  -1    7.35    1.63
   4  -6  -1    9.03    1.81
   4  -6  -1    6.69    1.66
   4  -6   1    7.96    1.69
   4  -6   1   10.81    1.74
   5   0  -1   12.75    1.42
   5   0  -1   11.80    1.20
   5   0   1   12.54    1.50
   5   0   1   14.22    1.47
   5   0  -1   12.75    1.55
   5  -1  -1  118.94    8.23
   5  -1  -1  113.29    8.73
   5   1   1  112.05    8.56
   5   1   1  111.37    8.66
  -5   1   1  111.22    9.47
   5   1  -1  109.62    8.62
   5  -1   1  104.82    9.18
   5  -1   1  116.68    8.71
  -5   2  -1   11.34    1.51
   5  -2  -1   10.17    1.49
   5  -2  -1    9.57    1.20
   5   2   1   11.23    1.41
   5  -2  -1   11.53    1.46
   5   2   1   11.16    1.49
   5  -2   1   11.32    1.53
  -5   2   1    8.74    1.42
   5  -2   1   11.50    1.47
   5   3   1   75.38    5.81
  -5   3  -1   75.01    6.37
   5  -3  -1   67.65    6.19
   5  -3  -1   73.50    5.91
   5  -3  -1   69.19    5.56
   5  -3   1   68.96    6.16
   5  -3   1   78.08    5.88
  -5   4  -1    5.95    1.52
   5   4   1    6.00    1.28
   5  -4  -1    8.64    1.59
   5  -4  -1    8.84    1.34
   5  -4  -1    6.09    1.39
  -5   4   1    4.34    1.46
   5  -4   1    6.26    1.28
   5  -4   1    6.70    1.43
   5  -5  -1   37.20    3.33
   5  -5  -1   38.05    3.49
   5  -5  -1   40.46    3.69
   5  -5   1   32.39    3.23
   5  -5   1   35.61    3.42
   5  -6  -1    0.29    1.40
   5  -6   1    4.96    1.44
   6   0  -1    8.47    1.05
   6   0   1    8.82    0.97
   6   0  -1    8.58    1.19
   6   0   1   10.69    1.30
   6   0  -1    8.87    1.37
   6   1   1   37.32    2.89
   6  -1  -1   28.51    3.07
   6  -1  -1   35.18    2.96
   6  -1  -1   32.36    2.67
   6  -1   1   34.66    3.10
   6  -1   1   34.47    2.94
   6   1  -1   29.11    2.79
  -6   1   1   32.07    3.21
   6   2   1    5.62    1.12
   6  -2  -1    6.21    1.33
   6  -2  -1    7.39    1.10
   6  -2  -1    8.67    1.35
  -6   2  -1    9.89    1.48
   6  -2   1    7.30    1.31
  -6   2   1    5.63    1.28
   6  -2   1    6.61    1.28
   6  -3  -1   26.21    2.38
   6  -3  -1   21.25    2.56
  -6   3  -1   28.68    2.82
   6  -3  -1   23.05    2.50
   6   3   1   20.11    2.33
   6  -3   1   23.18    2.46
  -6   3   1   23.50    2.78
   6  -3   1   24.53    2.66
   6  -4  -1    2.50    1.31
   6  -4  -1    5.13    1.38
  -6   4  -1    2.42    1.31
   6  -4  -1    3.29    1.16
   6  -4   1    3.68    1.33
  -6   4   1    4.13    1.40
   6  -4   1    4.45    1.32
   6  -5  -1   10.92    1.87
   6  -5  -1   15.05    2.07
   6  -5   1   12.76    1.91
   6  -5   1   11.76    1.84
   7   0  -1   33.50    2.79
   7   0   1   25.23    2.77
   7  -1  -1   14.80    1.51
   7   1   1   12.25    1.59
   7  -1  -1   16.09    1.83
   7  -1  -1   15.06    1.90
   7  -1   1   11.80    1.68
   7  -1   1    9.86    1.38
   7   1  -1   15.54    1.70
   7  -1   1   10.54    1.76
  -7   1   1   16.55    2.03
  -7   2  -1   18.10    2.50
   7  -2  -1   25.94    2.30
   7  -2  -1   20.42    2.34
  -7   2   1   22.82    2.46
   7  -2   1   14.36    2.21
   7  -2   1   15.61    2.10
   7  -3  -1   12.73    1.71
   7  -3  -1   10.96    1.50
   7  -3  -1   10.59    1.93
  -7   3  -1    6.07    1.77
   7  -3   1    6.55    1.28
   7  -3   1    9.00    1.67
  -7   3   1    7.67    1.79
   7  -3   1    8.73    1.63
   7  -4  -1   12.06    1.83
  -7   4  -1    7.51    1.83
   7  -4  -1   11.20    1.69
   7  -4   1    9.26    1.65
   7  -4   1    8.43    1.70
  -7   4   1    9.83    1.81
   7  -5  -1    4.95    1.67
   7  -5   1    7.77    1.64
   8   0   1    6.77    1.49
   8   0  -1    7.20    1.36
   8  -1  -1   32.12    2.96
   8  -1  -1   24.30    3.06
  -8   1   1   28.11    3.22
   8  -1   1   34.23    2.98
   8  -2  -1    5.11    1.52
   8  -2  -1    7.30    1.53
   8  -2  -1    5.42    1.19
  -8   2  -1    5.26    1.62
   8  -2   1    4.73    1.18
   8  -2   1    3.15    1.34
  -8   2   1    2.87    1.63
   8  -2   1    6.07    1.49
   8  -3  -1   21.36    2.55
   8  -3  -1   21.86    2.31
  -8   3  -1   21.36    2.91
   8  -3   1   21.61    2.58
  -8   3   1   22.80    3.01
   8  -3   1   22.85    2.41
   8  -4  -1    0.77    1.35
   8  -4  -1    4.38    1.23
  -8   4  -1    4.75    1.75
  -8   4   1    5.94    1.56
   8  -4   1    3.43    1.51
   8  -4   1    0.32    1.25
   9   0   1   27.18    3.11
  -9   0   1   34.78    3.48
   9  -1  -1    3.97    1.56
  -9   1  -1    4.69    1.70
   9  -1   1    8.25    1.60
  -9   1   1    3.52    1.65
   9  -2  -1   28.89    2.95
  -9   2  -1   20.69    3.16
   9  -2   1   27.39    2.88
  -9   2   1   25.68    3.31
   9  -3  -1    2.41    1.52
   9  -3   1    3.11    1.60
  10  -1  -1    3.05    1.43
  10  -1   1    2.67    1.46
   0   0   2   28.03    2.20
   0   0  -2   20.66    1.96
   0  -1   2   -0.14    0.24
   0   1   2   -0.82    0.32
   0   1   2   -0.20    0.60
   0  -1  -2    0.00    0.25
   0   2   2   16.62    2.08
   0  -2   2   20.56    1.67
   0   2   2   20.87    1.66
   0  -2  -2   20.66    1.63
   0  -3  -2   -0.27    0.39
   0  -3   2   -0.18    0.39
   0   3   2    0.14    0.80
   0   3   2    0.14    0.37
   0  -4  -2    8.37    1.04
   0  -4   2    9.39    1.01
   0   4   2    7.72    0.95
   0   4   2    7.52    1.44
   0  -5  -2    0.92    0.67
   0  -6  -2    2.05    1.03
   1   0  -2   65.05    4.37
   1   0   2   61.73    4.63
  -1   0   2   53.38    4.98
   1   1   2  106.36    8.18
  -1  -1   2  102.91    8.71
   1   1   2  106.44    9.09
   1  -1   2  116.77    8.76
  -1  -1  -2  108.81    7.90
  -1   1   2  106.28    9.08
   1  -1   2  120.21    8.35
   1   2   2   55.92    4.49
   1   2   2   50.77    3.96
  -1   2  -2   48.95    4.33
   1  -2  -2   50.76    3.84
  -1  -2  -2   44.95    3.78
  -1   2   2   58.57    4.47
  -1  -2  -2   57.68    4.08
  -1   2   2   46.63    3.91
   1  -2   2   52.62    4.03
   1   3   2   65.14    4.50
  -1   3  -2   62.86    4.97
   1  -3  -2   59.16    4.39
   1   3   2   62.21    5.07
  -1  -3   2   56.11    4.45
  -1  -3  -2   52.14    4.30
  -1   3   2   60.37    4.42
   1  -3   2   50.48    4.54
  -1   3   2   54.17    5.12
   1   4   2   27.73    2.34
   1   4   2   28.46    2.88
   1  -4  -2   28.53    2.39
  -1  -4  -2   27.99    2.62
   1  -4   2   27.36    2.43
  -1   4   2   24.72    2.27
  -1  -4  -2   30.16    2.35
  -1   4   2   30.21    3.16
   1  -5  -2   25.66    2.41
  -1  -5  -2   26.04    2.65
   1  -6  -2   15.25    1.88
  -1  -6   2   13.28    1.98
  -1  -6  -2   13.17    1.90
   2   0   2   14.65    1.54
   2   0   2   17.92    1.46
  -2   0   2   15.29    1.64
   2   0  -2   20.70    1.41
  -2  -1   2    5.26    0.75
   2  -1  -2    6.55    0.74
   2   1   2   10.04    1.12
   2   1   2    5.35    0.72
  -2   1  -2    5.66    0.59
   2  -1   2    4.99    0.58
   2   1  -2    8.79    0.79
  -2   1   2    4.59    0.80
   2  -1   2    6.09    0.73
   2  -1   2    6.39    0.85
   2  -2  -2   11.64    1.25
  -2   2  -2   14.11    1.44
  -2  -2   2   13.93    1.26
   2   2   2   10.49    1.29
  -2  -2  -2   14.60    1.10
   2  -2   2   12.21    1.37
  -2  -2  -2   14.69    1.46
  -2   2   2   12.27    1.40
  -2   2   2   13.03    1.57
  -2  -3   2    3.18    0.69
   2  -3  -2    2.08    0.63
   2   3   2    2.09    0.60
  -2   3  -2    3.56    0.81
  -2  -3  -2    3.55    0.50
  -2   3   2    1.80    0.88
  -2   3   2    2.43    0.49
  -2  -3  -2    3.20    0.76
   2  -3   2    2.26    0.69
   2  -4  -2    6.55    1.00
   2   4   2    4.92    0.88
  -2   4  -2    5.94    1.23
  -2  -4   2    6.14    1.05
   2  -4   2    4.99    0.97
  -2  -4  -2    4.21    1.02
  -2   4   2    6.32    1.39
   2  -5  -2    2.36    1.02
   2  -5  -2   -0.27    0.81
  -2  -5   2    2.07    0.89
   2   5   2    0.50    0.78
   2  -5   2    0.89    0.86
  -2  -5  -2   -0.09    0.94
   2  -6  -2    1.49    1.06
  -2  -6  -2    3.88    1.16
   3   0   2   15.61    1.62
   3   0  -2   16.85    1.44
   3   0   2   18.99    1.52
   3   0  -2   18.40    1.69
   3   1   2  314.08   24.61
   3  -1  -2  314.17   23.34
   3   1   2  363.58   24.08
   3   1  -2  319.90   24.53
   3  -1   2  333.82   24.00
   3  -1   2  303.97   25.85
  -3   1   2  325.70   26.64
   3  -1   2  327.11   24.62
   3  -2  -2   10.66    1.27
  -3  -2   2   10.42    1.38
   3   2   2   14.01    1.31
  -3   2   2   14.58    1.60
   3  -2   2   13.96    1.38
   3  -2   2   12.69    1.39
   3  -3  -2  185.58   14.02
   3   3   2  212.28   14.44
  -3  -3   2  173.34   14.63
  -3  -3  -2  192.62   14.74
  -3   3   2  190.67   16.02
   3  -3   2  190.88   15.49
   3  -3   2  203.29   14.75
  -3   4  -2    8.04    1.32
  -3  -4   2   10.80    1.40
   3   4   2    6.24    1.08
   3  -4  -2    7.44    1.15
   3  -4   2    7.82    1.17
  -3   4   2    4.84    1.40
   3  -4   2    8.81    1.31
  -3  -4  -2    6.26    1.22
   3   5   2   91.51    7.00
   3  -5  -2   84.69    7.16
   3  -5  -2   92.78    6.85
  -3  -5  -2   95.86    7.37
   3  -5   2   82.15    7.06
   3  -6  -2    3.43    1.14
   3  -6  -2    3.77    1.42
  -3  -6  -2    4.08    1.24
   4   0   2    0.84    0.53
   4   0  -2    1.35    0.42
   4   0   2    1.35    0.58
   4   0  -2    1.62    0.66
   4   0  -2    1.11    0.52
   4   1   2   33.40    2.52
   4  -1  -2   29.97    2.74
   4  -1  -2   28.45    2.34
   4   1   2   33.62    2.55
   4  -1  -2   30.61    2.59
   4   1  -2   26.89    2.40
   4  -1   2   26.99    2.66
  -4   1   2   31.57    2.79
   4  -1   2   27.70    2.53
   4   2   2    1.07    0.63
   4  -2  -2    0.06    0.53
   4  -2   2    1.44    0.67
  -4   2   2    0.44    0.70
   4  -2   2    0.59    0.67
   4  -3  -2   15.40    1.94
   4  -3  -2   20.43    1.91
   4   3   2   16.39    1.84
  -4   3  -2   22.55    2.13
  -4   3   2   17.87    2.21
   4  -3   2   18.18    1.98
   4  -3   2   18.23    1.90
   4  -4  -2   -0.48    0.77
  -4   4  -2    1.76    0.99
   4  -4  -2    0.80    0.91
   4   4   2    0.01    0.80
  -4   4   2    0.73    1.16
   4  -4   2    0.08    0.88
  -4  -4  -2    1.66    1.09
   4  -4   2    1.01    0.89
   4  -5  -2    8.70    1.48
   4   5   2    9.50    1.47
   4  -5  -2    8.15    1.60
  -4  -5  -2    6.58    1.74
   4  -5   2    9.61    1.51
  -4   5   2    7.06    2.03
   4  -6  -2    1.25    1.10
   4  -6  -2   -1.43    1.34
   4  -6   2    0.99    1.10
   5   0  -2    2.35    0.78
   5   0   2    2.19    0.75
   5   0  -2    1.29    0.51
   5   0   2    1.72    0.67
   5   1   2   14.37    1.52
   5  -1  -2   13.14    1.35
   5  -1  -2   13.87    1.62
   5  -1  -2   10.73    1.58
   5   1   2   12.83    1.53
   5   1  -2   12.69    1.39
  -5   1   2   14.92    1.74
   5  -1   2   14.21    1.60
   5  -1   2   15.13    1.57
   5  -2  -2    2.31    0.92
   5   2   2    2.40    0.99
   5   2   2    1.36    0.80
   5  -2  -2    2.11    0.70
   5  -2  -2    1.83    0.91
   5  -2   2    1.16    0.85
   5  -2   2    2.24    0.85
  -5   2   2    2.57    0.95
  -5   3  -2   12.64    1.68
   5   3   2    8.55    1.44
   5  -3  -2    9.50    1.51
   5  -3  -2   12.96    1.77
   5  -3  -2   10.10    1.39
  -5   3   2    8.52    1.58
   5  -3   2   11.75    1.58
   5  -3   2   11.80    1.51
   5  -4  -2    1.35    0.94
  -5   4  -2    2.40    1.11
   5   4   2    1.89    0.95
   5  -4  -2    2.72    1.18
  -5   4   2    2.57    1.12
   5  -4   2    2.08    1.08
   5  -4   2   -0.50    1.12
   5   5   2    8.34    1.27
   5  -5  -2    6.02    1.44
   5  -5  -2    6.51    1.76
   5  -5  -2    6.43    1.57
  -5   5   2    5.22    1.73
   5  -5   2    8.86    1.50
   5  -6  -2    0.17    1.46
   5  -6   2    0.56    1.39
   6   0  -2   13.11    1.38
   6   0  -2   14.12    1.62
   6   0  -2   12.68    1.73
   6   0   2   14.50    1.66
   6   1   2   11.51    1.46
   6  -1  -2   10.48    1.45
   6  -1  -2    9.90    1.60
   6   1   2   12.94    1.52
   6  -1  -2   10.60    1.28
   6  -1   2   10.55    1.49
   6  -1   2   11.61    1.45
  -6   1   2    9.57    1.51
   6  -2  -2   10.53    1.64
   6  -2  -2   10.97    1.36
   6   2   2   10.95    1.56
   6  -2  -2   12.60    1.66
  -6   2   2   11.66    1.74
   6  -2   2   12.21    1.56
   6  -2   2   11.82    1.63
   6  -3  -2    6.74    1.24
   6   3   2    7.06    1.34
   6  -3  -2    7.26    1.45
   6  -3  -2    8.12    1.46
  -6   3  -2    5.93    1.35
   6  -3   2    6.75    1.34
  -6   3   2    6.76    1.58
   6  -3   2    6.87    1.37
   6  -4  -2    5.59    1.32
   6  -4  -2    4.40    1.39
   6  -4  -2    6.65    1.51
  -6   4  -2    3.86    1.49
   6   4   2    6.09    1.28
  -6   4   2    4.55    1.52
   6  -4   2    3.39    1.45
   6  -4   2    6.42    1.39
   6  -5  -2    0.92    1.42
   6  -5  -2    4.58    1.23
  -6   5   2   -1.04    1.53
   6  -5   2    3.71    1.33
   7   0  -2   72.47    6.71
   7   0  -2   80.96    6.34
   7   0   2   89.08    6.42
  -7   0   2   74.68    6.91
   7  -1  -2   28.64    3.14
   7  -1  -2   35.80    3.03
   7   1   2   31.85    2.94
   7  -1  -2   29.35    2.67
   7  -1   2   34.79    3.00
  -7   1   2   32.59    3.27
   7   2   2   71.58    5.52
   7  -2  -2   72.02    5.61
  -7   2  -2   66.16    6.09
   7  -2  -2   66.58    5.94
   7  -2  -2   62.58    5.19
   7  -2   2   59.71    5.51
  -7   2   2   75.17    6.18
   7  -2   2   65.96    5.83
  -7   3  -2   21.95    2.85
   7   3   2   27.52    2.58
   7  -3  -2   24.46    2.64
   7  -3  -2   21.08    2.72
   7  -3  -2   24.82    2.38
  -7   3   2   24.30    3.03
   7  -3   2   22.48    2.66
   7  -3   2   25.32    2.63
   7  -4  -2   37.10    3.60
   7  -4  -2   40.65    3.84
  -7   4  -2   43.68    4.31
   7  -4   2   45.46    3.88
  -7   4   2   39.01    4.31
   7  -5   2   12.34    1.98
  -8   0   2   14.64    2.15
   8   0  -2   17.02    2.06
   8   0   2   15.90    2.01
   8  -1  -2    4.47    1.29
   8  -1  -2    1.67    1.44
   8  -1   2    9.66    1.58
  -8   1   2    3.31    1.41
   8  -2  -2   12.78    2.04
   8  -2  -2   10.75    1.53
   8  -2  -2   13.87    1.97
  -8   2  -2   14.59    2.22
   8  -2   2   14.08    1.98
  -8   2   2   10.70    1.99
   8  -2   2   13.40    1.63
   8  -2   2   13.08    1.99
   8  -3  -2    1.51    1.12
   8  -3  -2    1.61    1.42
  -8   3  -2    3.79    1.84
   8  -3   2    4.25    1.49
  -8   3   2   -0.24    1.66
   8  -3   2    4.29    1.21
  -8   4  -2    1.65    1.98
   8  -4  -2    9.20    1.83
   8  -4  -2    6.84    1.51
   8  -4   2    7.78    1.73
   8  -4   2    4.90    1.54
   9   0   2   29.38    3.05
  -9   0   2   27.16    3.17
   9  -1  -2    2.98    1.44
  -9   1  -2    3.63    1.56
  -9  -1   2    1.34    1.44
  -9   1   2    1.49    1.39
   9  -1   2    5.34    1.61
  -9  -2   2   23.32    2.84
   9  -2  -2   22.70    2.75
  -9   2  -2   22.47    3.12
  -9   2   2   20.83    3.01
   9  -2   2   28.35    2.88
   9  -3  -2    4.06    1.48
   9  -3   2    6.06    1.60
  10  -1   2    7.35    1.89
   0   0   3    0.16    0.51
   0   0  -3    0.66    0.54
   0   0   3    0.96    0.58
   0  -1  -3   15.98    1.27
   0   1   3   13.94    1.31
   0   1   3   14.72    1.70
   0  -1   3   11.08    1.24
   0  -2   3   -0.19    0.30
   0   2   3    0.31    0.36
   0   2   3   -0.88    0.67
   0  -2  -3    0.01    0.32
   0   3   3    7.81    1.44
   0  -3  -3    9.30    1.08
   0   3   3   10.13    1.07
   0  -3   3    9.52    1.01
   0  -4   3    0.05    0.49
   0   4   3   -0.35    1.01
   0  -4  -3   -0.13    0.58
   0   4   3   -0.35    0.52
   0  -5  -3    5.06    1.25
   0  -5  -3    5.05    0.95
   0  -6  -3   -0.41    0.95
   1   0  -3   80.05    5.27
   1   0   3   70.60    5.54
   1   0   3   79.48    5.39
  -1   0   3   64.59    5.95
   1   0  -3   65.59    5.39
  -1   1  -3  303.81   26.15
   1   1   3  358.56   24.39
   1  -1  -3  339.93   23.68
  -1  -1   3  313.64   26.90
   1   1   3  328.26   27.04
  -1  -1  -3  350.07   24.76
  -1  -1  -3  338.93   23.67
   1  -1   3  298.90   24.93
   1  -1   3  363.92   26.16
  -1   1   3  343.54   27.01
   1  -1   3  295.99   24.32
   1   2   3   51.09    4.47
  -1   2  -3   54.76    4.21
   1  -2  -3   46.81    3.76
   1   2   3   49.47    3.89
   1  -2   3   48.01    3.93
  -1   2   3   45.62    3.89
  -1  -2  -3   48.52    3.72
  -1   2   3   53.57    4.42
  -1  -2  -3   55.64    4.00
   1  -2   3   50.34    4.10
   1   3   3  161.49   15.19
   1  -3  -3  199.12   13.28
  -1   3  -3  188.98   15.04
   1   3   3  186.82   13.65
  -1  -3  -3  179.87   13.91
  -1   3   3  188.86   15.27
  -1   3   3  173.33   13.58
  -1  -3  -3  190.65   13.23
   1  -3   3  177.10   13.91
   1   4   3   20.42    2.38
   1   4   3   19.82    1.80
   1  -4  -3   20.67    1.87
  -1  -4  -3   21.30    1.82
  -1   4   3   18.48    1.75
  -1   4   3   14.63    2.34
  -1  -4  -3   19.40    2.07
   1  -4   3   18.98    1.85
   1  -5  -3   81.10    5.68
  -1  -5  -3   64.37    5.97
   1  -6  -3    3.96    1.52
   1  -6  -3    6.54    1.23
  -1  -6  -3    5.21    1.42
   2   0   3  228.66   17.07
  -2   0   3  230.32   18.44
   2   0  -3  216.67   16.17
   2   1   3   57.44    5.16
   2  -1  -3   62.23    4.80
  -2  -1   3   59.01    5.40
   2  -1   3   70.86    5.08
   2  -1   3   65.33    4.87
   2   1  -3   68.89    5.26
   2   1  -3   69.33    4.88
   2  -1   3   69.68    5.31
  -2  -1  -3   62.55    4.78
  -2   1   3   67.53    5.54
   2  -2  -3  166.19   10.64
   2   2   3  125.74   10.93
  -2  -2   3  145.73   11.64
   2  -2   3  152.04   11.72
  -2  -2  -3  154.59   10.56
  -2   2   3  129.75   11.03
   2  -2   3  155.10   11.18
  -2   2   3  127.24   12.13
  -2  -2  -3  159.75   11.19
  -2   3  -3   43.92    3.61
   2   3   3   38.11    3.27
   2  -3  -3   41.15    3.21
   2  -3   3   42.87    3.48
  -2  -3  -3   35.28    3.06
  -2   3   3   40.04    3.77
  -2   3   3   43.47    3.19
   2  -3   3   39.13    3.31
   2   4   3   78.16    5.93
   2  -4  -3   78.64    5.82
  -2   4   3   67.81    6.86
  -2  -4  -3   86.49    6.24
   2  -4   3   71.27    6.03
   2   5   3   17.56    1.87
  -2  -5   3   17.72    2.02
   2  -5  -3   16.67    1.87
  -2   5   3   13.67    2.54
   2  -5   3   16.79    1.87
  -2  -5  -3   19.50    2.26
   2  -6  -3   31.14    3.04
  -2  -6  -3   35.22    3.30
  -3   0   3   11.23    1.19
   3   0   3    8.33    1.01
   3   0  -3    8.91    1.21
   3   0  -3   11.72    1.03
   3   0   3   11.04    1.21
   3   1   3   85.61    6.52
   3   1   3   85.50    6.68
   3  -1  -3   95.83    6.30
   3   1  -3   86.94    6.92
   3  -1   3   90.61    6.42
   3  -1   3   82.67    6.64
   3   1  -3   83.92    6.55
  -3   1   3   74.96    7.20
   3   2   3    8.73    1.04
  -3  -2   3    6.52    0.97
   3  -2  -3    9.60    1.08
   3  -2   3    8.63    1.12
   3  -2   3    8.75    1.11
  -3   2   3    9.63    1.27
   3  -3  -3   52.95    4.05
  -3  -3   3   44.69    4.17
   3   3   3   54.99    4.14
  -3   3  -3   60.67    4.58
   3  -3   3   51.78    4.21
  -3  -3  -3   50.14    4.37
  -3   3   3   47.66    4.68
   3  -3   3   50.27    4.40
  -3   3   3   50.97    4.08
  -3  -4   3    5.80    1.17
   3   4   3    5.36    1.02
   3  -4  -3    5.69    1.06
  -3   4  -3    4.72    1.21
  -3  -4  -3    6.55    1.28
   3  -4   3    5.12    1.05
  -3   4   3    5.53    1.42
   3  -4   3    6.61    1.09
   3  -5  -3   18.34    2.14
   3  -5  -3   20.80    2.34
   3   5   3   22.10    2.19
  -3  -5  -3   22.16    2.50
  -3   5   3   20.57    3.11
   3  -5   3   20.64    2.17
   3  -6  -3    3.66    1.23
   3  -6  -3    4.90    1.56
  -3  -6  -3    1.23    1.62
   4   0   3   15.30    1.49
   4   0  -3   15.12    1.56
   4   0   3   17.55    1.63
  -4   0   3   15.90    1.71
   4   0  -3   16.20    1.70
   4   0  -3   16.74    1.43
   4  -1  -3    1.02    0.47
   4   1   3    0.54    0.62
   4   1   3    0.18    0.47
   4   1  -3    0.28    0.39
   4  -1   3    1.72    0.64
   4   1  -3    0.32    0.53
   4  -1   3    0.19    0.43
  -4   1   3    0.23    0.60
   4  -1   3    0.36    0.57
   4   1  -3    0.62    0.51
   4   2   3   11.45    1.44
   4  -2  -3   15.90    1.43
   4  -2   3   13.90    1.52
  -4   2   3   13.33    1.76
   4  -2   3   12.94    1.54
   4   3   3    0.65    0.65
   4  -3  -3    0.06    0.69
  -4   3  -3   -0.73    0.71
  -4   3   3    0.19    0.95
   4  -3   3    1.03    0.77
   4  -3   3    1.23    0.75
  -4   4  -3    8.04    1.45
   4  -4  -3    9.72    1.38
   4   4   3    8.99    1.35
  -4   4   3    8.40    1.59
  -4  -4  -3    7.99    1.65
   4  -4   3    8.49    1.33
   4  -4   3   10.22    1.47
   4   5   3    1.16    0.84
   4  -5  -3    1.13    0.92
   4  -5  -3    0.57    1.14
   4  -5   3   -0.22    0.90
  -4  -5  -3    0.44    1.27
  -4   5   3    3.76    1.32
   4  -6  -3    5.71    1.41
   4  -6  -3    6.89    1.68
  -5   0   3  107.63    9.86
   5   0   3  122.04    8.94
   5   0  -3  117.36    8.60
   5   0   3  126.08    9.15
   5   0  -3  113.35    9.10
   5   0  -3  121.06    9.63
   5  -1  -3   33.54    2.90
   5   1   3   30.59    2.77
   5  -1  -3   30.03    3.00
   5  -1  -3   30.87    2.59
   5   1   3   32.83    2.83
   5  -1   3   31.79    2.93
   5  -1   3   37.42    2.85
  -5   1   3   30.30    3.04
   5   1  -3   35.62    2.69
   5   1  -3   29.04    2.60
   5   2   3   87.87    7.05
   5   2   3   76.37    6.75
   5  -2  -3   84.23    6.51
   5  -2  -3   87.83    7.33
   5  -2  -3  102.00    6.99
   5  -2   3   85.40    7.22
  -5   2   3   80.21    7.51
   5  -2   3   93.94    6.90
   5   3   3   23.42    2.40
   5  -3  -3   28.20    2.38
   5  -3  -3   24.07    2.52
  -5   3  -3   25.09    2.65
   5  -3   3   25.77    2.42
   5  -3   3   22.90    2.49
  -5   3   3   24.07    2.78
  -5   4  -3   54.78    4.76
   5   4   3   50.39    4.29
   5  -4  -3   53.73    4.18
   5  -4  -3   46.72    4.37
   5  -4   3   53.17    4.57
  -5   4   3   45.39    4.80
   5  -4   3   47.70    4.26
   5  -5  -3   11.27    1.69
   5   5   3   12.26    1.75
   5  -5  -3   13.13    2.03
   5  -5   3   11.44    1.78
  -5   5   3   11.06    2.21
   5  -6  -3   22.73    3.00
   5  -6   3   26.82    2.89
   6   0  -3    2.00    0.82
   6   0   3    1.35    0.88
  -6   0   3    2.31    0.88
   6   0   3    1.31    0.76
   6   0  -3    2.18    0.94
   6   0  -3    1.99    0.67
   6  -1  -3   52.08    3.96
   6   1   3   42.28    4.18
   6  -1  -3   55.13    4.32
   6   1   3   53.21    4.22
   6  -1  -3   47.93    4.51
   6   1  -3   55.82    4.13
   6  -1   3   49.94    4.27
  -6   1   3   51.51    4.64
   6  -2  -3    3.30    1.11
   6  -2  -3    1.85    1.06
   6   2   3    3.35    1.08
   6  -2  -3    1.15    0.76
   6   2   3    1.81    0.86
  -6   2   3    1.69    1.07
   6  -2   3    1.71    0.98
   6  -2   3    1.04    0.98
   6   3   3   36.82    3.40
   6  -3  -3   41.43    3.54
   6  -3  -3   37.55    3.70
   6  -3  -3   31.55    3.20
  -6   3  -3   41.68    3.81
   6  -3   3   37.43    3.56
  -6   3   3   38.23    3.89
   6  -3   3   39.90    3.45
   6  -4  -3    4.02    1.34
  -6   4  -3    0.30    1.17
   6  -4  -3    0.22    0.93
   6   4   3    1.06    1.03
   6  -4  -3    1.18    1.24
   6  -4   3    0.06    1.15
   6  -4   3    1.99    1.09
  -6   4   3    3.09    1.24
   6   5   3   24.68    2.35
   6  -5  -3   19.01    2.57
   6  -5  -3   21.88    2.54
  -6   5   3   17.31    2.88
   6  -5   3   20.57    2.47
  -7   0   3    0.58    1.01
   7   0  -3    1.41    0.94
   7   0  -3   -0.59    1.08
   7   1   3    3.80    0.95
   7  -1  -3    2.18    1.12
  -7  -1   3    1.60    0.94
   7   1   3    4.56    1.11
   7  -1  -3    0.94    0.73
   7  -1  -3    1.27    1.06
   7  -1   3    4.67    1.22
  -7   1   3    1.08    0.99
   7  -2  -3    1.34    1.15
   7  -2  -3    1.69    1.25
   7  -2  -3    1.42    0.80
  -7   2   3    0.17    1.17
   7  -3  -3    1.15    1.28
   7   3   3    2.05    1.09
   7  -3  -3    0.60    1.01
  -7   3  -3    1.88    1.36
   7  -3  -3    0.83    1.15
   7  -3   3    3.13    1.27
  -7   3   3    1.75    1.40
   7  -3   3    0.52    1.23
   7  -4  -3   -2.87    1.30
  -7   4  -3    3.55    1.45
   7  -4  -3    0.03    1.16
   7   4   3    5.35    1.19
   7  -4   3    4.39    1.41
  -7   4   3    1.13    1.38
   8   0  -3    1.98    1.21
  -8   0   3    3.10    1.31
   8   0   3    6.25    1.41
   8  -1  -3    7.13    1.53
   8  -1  -3    7.75    1.71
  -8  -1   3    5.89    1.50
   8  -1   3    8.28    1.55
  -8   1   3    5.67    1.60
   8  -2  -3    1.83    1.40
   8  -2  -3    1.07    0.98
  -8   2  -3    5.08    1.54
  -8  -2   3    2.94    1.19
   8  -2  -3    2.66    1.25
  -8   2   3    4.06    1.44
   8  -2   3    3.95    1.38
  -8   3  -3    3.96    1.55
   8  -3  -3    2.58    1.57
   8  -3  -3    5.24    1.30
   8  -3   3    8.35    1.68
  -8   3   3    6.95    1.80
   8  -4  -3    3.01    1.22
  -8   4  -3    4.80    1.71
   8  -4  -3    0.09    1.36
   8  -4   3    1.95    1.13
   8  -4   3    1.54    1.48
   9   0   3   21.11    2.32
  -9   0   3   13.64    2.19
  -9  -1   3   -0.62    1.27
   9  -1  -3   -0.50    1.38
   9  -1   3    3.46    1.42
  -9   1   3   -0.88    1.42
   9  -2  -3   16.99    2.24
  -9   2  -3   12.77    2.51
   9  -2   3   15.08    2.09
  -9   2   3   11.87    2.32
   9  -3  -3   -0.27    1.39
   9  -3   3    2.12    1.53
  10  -1   3    1.60    1.53
   0   0   4  280.86   21.29
   0   0   4  224.68   19.24
   0   0  -4  271.77   18.70
   0  -1   4    0.73    0.42
   0   1   4    0.93    0.55
   0  -1  -4    1.31    0.41
   0  -1  -4    0.86    0.39
   0   1   4   -0.35    0.68
   0   2   4  196.65   14.37
   0  -2  -4  202.23   13.94
   0  -2   4  204.76   14.64
   0  -2  -4  172.25   14.56
   0   2   4  188.75   16.07
   0   3   4    0.45    0.95
   0  -3   4   -0.11    0.41
   0   3   4   -0.58    0.43
   0  -3  -4   -0.08    0.54
   0  -3  -4    0.11    0.46
   0  -4  -4   90.01    7.10
   0   4   4   97.07    7.28
   0  -4  -4  109.85    7.61
   0   4   4   84.78    8.39
   0  -5  -4    0.77    0.81
   0  -5  -4    0.39    0.74
   0  -6  -4   33.37    3.32
   1   0  -4   57.96    4.85
   1   0  -4   58.54    4.76
  -1   0  -4   66.22    4.76
  -1   0   4   73.72    5.38
   1   0   4   59.47    4.86
   1   0   4   69.26    5.03
  -1  -1   4   81.82    6.65
   1   1   4   77.28    6.09
   1   1   4   82.97    6.86
  -1   1  -4   83.33    6.48
   1  -1  -4   89.98    5.92
  -1  -1  -4   81.30    6.26
   1  -1   4   89.49    6.23
  -1  -1  -4   74.11    5.94
  -1   1   4   65.38    6.26
   1  -1   4   86.14    6.06
  -1   1   4   71.64    6.77
   1   2   4   41.17    4.33
   1   2   4   46.51    3.75
   1  -2  -4   43.87    3.63
   1  -2   4   53.78    3.92
   1  -2   4   48.43    3.79
  -1   2   4   53.52    3.85
  -1  -2  -4   48.90    3.60
  -1  -2  -4   52.62    3.87
  -1   2   4   41.27    4.26
   1   3   4   37.22    3.40
   1   3   4   46.55    4.09
   1  -3  -4   44.22    3.36
   1  -3   4   41.81    3.46
  -1  -3  -4   42.24    3.58
   1  -3   4   40.06    3.56
  -1   3   4   44.67    3.40
  -1  -3  -4   44.72    3.30
  -1   3   4   47.06    4.15
   1   4   4   22.99    2.67
   1  -4  -4   21.85    2.05
   1   4   4   21.20    2.01
  -1   4   4   22.72    1.93
  -1   4   4   19.52    2.83
  -1  -4  -4   22.05    1.99
  -1  -4  -4   19.75    2.22
   1  -4   4   21.62    2.02
   1   5   4   18.85    1.83
   1  -5  -4   15.20    1.81
  -1  -5  -4   16.46    2.10
  -1   5   4   13.79    2.47
   1  -6  -4    4.00    1.27
   1  -6  -4    9.72    1.44
  -1  -6  -4    5.76    1.60
   2   0  -4  104.89    7.39
   2   0   4  102.64    7.59
  -2   0   4  101.40    8.41
   2   0   4   96.59    7.80
   2   1   4   57.05    4.76
   2  -1  -4   65.56    4.38
   2   1   4   57.48    4.51
  -2  -1   4   54.71    4.90
  -2   1   4   68.11    5.08
   2  -1   4   53.32    4.60
   2   1  -4   50.11    4.47
   2  -1   4   60.49    4.41
   2   1  -4   57.71    4.73
  -2  -1  -4   62.10    4.38
   2   2   4   88.97    6.06
   2  -2  -4   77.81    5.84
   2  -2   4   80.98    6.40
  -2  -2  -4   74.07    6.20
  -2   2   4   77.58    6.21
  -2  -2  -4   65.62    5.79
   2  -2   4   78.56    6.13
  -2   2   4   89.29    6.76
  -2   3  -4   35.25    3.45
   2   3   4   41.10    3.21
   2  -3  -4   35.95    3.11
   2  -3   4   38.84    3.22
  -2   3   4   35.96    3.15
  -2   3   4   43.83    3.82
   2  -3   4   36.85    3.33
  -2  -3  -4   42.13    3.02
  -2  -3  -4   44.37    3.42
   2  -4  -4   44.19    3.36
   2   4   4   41.89    3.35
   2  -4   4   36.79    3.38
  -2   4   4   47.83    4.27
  -2  -4  -4   33.98    3.49
   2   5   4   20.56    2.05
   2  -5  -4   18.17    2.04
  -2  -5   4   21.32    2.27
  -2  -5  -4   17.93    2.19
  -2   5   4   17.38    2.87
   2  -6  -4   19.42    2.22
  -2  -6  -4   16.03    2.50
   3   0   4   61.78    5.19
   3   0  -4   64.28    4.88
  -3   0   4   72.02    5.60
   3   0   4   65.84    5.04
  -3  -1   4    4.08    0.65
   3   1   4    5.69    0.92
   3   1   4    4.27    0.73
   3  -1  -4    5.12    0.67
   3  -1   4    3.85    0.55
   3   1  -4    4.73    0.84
   3   1  -4    4.11    0.67
   3  -1   4    5.22    0.79
  -3   1   4    6.11    0.90
   3   2   4   52.60    3.86
   3  -2  -4   52.96    3.71
  -3  -2   4   45.68    4.04
  -3  -2  -4   45.45    3.60
   3  -2   4   45.50    4.02
   3  -2   4   45.14    3.87
  -3   2   4   50.53    4.33
   3  -3  -4    2.30    0.70
  -3  -3   4    2.36    0.75
   3   3   4    2.45    0.71
  -3   3  -4    1.68    0.74
   3  -3   4    2.30    0.77
  -3   3   4    2.37    0.98
   3  -3   4    1.85    0.76
  -3  -3  -4    3.10    1.00
  -3   3   4    3.12    0.84
   3   4   4   25.46    2.25
   3  -4  -4   20.54    2.21
   3  -4   4   22.15    2.26
  -3  -4  -4   22.92    2.57
  -3   4   4   26.57    3.03
   3  -4   4   24.37    2.36
   3   5   4    1.62    0.87
   3  -5  -4    0.81    0.95
   3  -5   4   -0.64    0.93
  -3  -5  -4   -0.10    1.22
  -3   5   4   -0.36    1.74
   3  -6  -4    7.82    1.53
  -3  -6  -4    8.74    1.80
   4   0  -4   61.35    4.23
   4   0   4   58.03    4.34
   4   0  -4   53.95    4.72
   4   0   4   56.64    4.50
  -4   0   4   49.73    4.80
   4   1   4   32.39    2.65
   4   1   4   31.08    2.49
  -4  -1   4   32.89    2.73
   4  -1  -4   29.81    2.40
  -4   1   4   26.27    2.80
   4  -1   4   26.44    2.56
   4   1  -4   25.30    2.43
   4  -1   4   30.62    2.38
   4   1  -4   31.10    2.43
   4   1  -4   28.48    2.60
   4  -2  -4   49.84    3.46
   4   2   4   42.11    3.52
   4  -2   4   42.39    3.60
  -4   2   4   41.10    4.00
   4  -2   4   41.53    3.74
  -4   3  -4   21.82    2.20
   4   3   4   20.42    1.99
   4  -3  -4   21.71    2.01
  -4   3   4   17.34    2.34
   4  -3   4   21.68    2.06
   4  -3   4   21.33    2.07
  -4   3   4   15.47    2.11
   4   4   4   21.11    2.22
   4  -4  -4   21.07    2.24
  -4  -4  -4   19.38    2.67
   4  -4   4   25.82    2.36
  -4   4   4   25.70    2.89
   4  -4   4   22.89    2.40
   4  -5  -4   13.37    1.76
   4  -5  -4   13.88    1.99
   4   5   4   12.98    1.76
  -4   5   4   13.44    2.30
  -4  -5  -4   10.12    2.11
   4  -5   4   13.13    1.77
   4  -6  -4    9.74    1.98
   4  -6  -4    7.80    1.61
   5   0   4   -0.01    0.55
   5   0   4    0.82    0.77
   5   0  -4    0.49    0.67
   5   0  -4    1.05    0.79
  -5   0   4    0.63    0.70
   5   0  -4    1.03    0.58
   5   1   4   31.54    2.73
  -5  -1   4   30.68    2.86
   5  -1  -4   25.86    2.86
   5  -1  -4   28.11    2.47
   5   1   4   30.67    2.62
   5   1  -4   31.45    2.54
   5   1  -4   27.02    2.53
   5  -1   4   31.56    2.53
  -5   1   4   32.51    2.97
   5  -1   4   34.41    2.76
   5   1  -4   29.27    2.75
   5   2   4    0.80    0.69
   5  -2  -4    1.27    0.68
   5   2   4    2.24    1.21
  -5   2   4    0.38    0.96
   5  -2   4    0.69    0.81
   5  -2   4    1.04    0.80
  -5   3  -4   20.44    2.38
   5  -3  -4   22.47    2.11
   5   3   4   22.08    2.15
   5  -3   4   18.53    2.17
   5  -3   4   19.21    2.17
  -5   3   4   22.89    2.61
   5  -4  -4    1.46    1.20
  -5   4  -4    1.10    1.03
   5   4   4    1.24    0.93
   5  -4  -4    0.46    1.01
   5  -4   4    2.25    1.06
  -5   4   4    0.09    1.28
   5  -4   4    1.76    1.00
   5  -5  -4    9.39    1.61
   5   5   4   13.62    1.77
   5  -5  -4   10.79    1.87
   5  -5   4   11.23    1.71
  -5   5   4    7.58    2.27
   5  -6  -4    0.64    1.51
   6   0   4   94.97    7.10
  -6   0   4   98.09    7.88
   6   0  -4   90.35    7.23
   6   0  -4   96.04    6.84
   6   0   4   90.86    7.28
   6   0  -4   80.23    7.63
   6   1   4   38.94    3.54
   6  -1  -4   39.73    3.28
  -6  -1   4   45.41    3.83
   6   1   4   37.39    3.47
   6  -1  -4   39.78    3.81
   6  -1  -4   42.09    3.63
   6   1  -4   40.90    3.39
   6  -1   4   39.12    3.55
  -6   1   4   47.19    3.94
   6  -2  -4   62.88    5.28
   6   2   4   72.52    5.59
   6  -2  -4   73.92    5.73
  -6  -2   4   73.97    5.99
   6  -2  -4   65.15    6.00
   6   2   4   57.03    5.71
   6  -2   4   77.04    5.66
  -6   2   4   68.15    6.19
   6  -2   4   69.30    5.87
   6  -3  -4   26.52    2.59
  -6   3  -4   31.54    3.07
   6  -3  -4   27.31    3.00
   6  -3  -4   27.39    2.85
   6   3   4   25.32    2.67
   6  -3   4   32.16    2.80
   6  -3   4   28.28    2.82
  -6   3   4   23.49    3.08
   6  -4  -4   45.70    3.85
  -6   4  -4   42.09    4.32
   6   4   4   40.97    3.94
   6  -4  -4   47.51    4.12
   6  -4  -4   46.20    4.37
   6  -4   4   44.19    3.98
   6  -4   4   47.01    4.18
  -6   4   4   45.24    4.52
   6  -5  -4   15.72    2.18
   6  -5  -4   12.87    1.88
   6  -5   4   15.09    2.07
  -6   5   4   11.54    2.22
   7   0  -4    2.58    1.07
   7   0   4    4.97    1.04
   7   0  -4    3.78    1.32
  -7   0   4    3.58    1.15
   7   0   4    5.52    1.30
   7  -1  -4    0.44    1.09
   7   1   4   -0.26    0.86
   7  -1  -4    0.69    0.75
  -7  -1   4    0.73    0.96
   7  -1  -4    0.13    1.24
   7   1   4   -0.22    0.99
  -7   1   4    0.60    1.11
   7  -1   4    0.83    1.06
   7  -2  -4    4.36    1.37
   7   2   4    3.51    1.12
  -7  -2   4    3.90    1.16
   7  -2  -4    3.54    1.00
   7  -2  -4    2.07    1.46
  -7   2   4    3.35    1.33
   7  -2   4    1.65    1.17
   7  -3  -4    0.62    0.97
   7   3   4    0.49    1.01
   7  -3  -4    0.50    1.25
   7  -3  -4    0.55    1.25
  -7   3  -4   -1.20    1.23
   7  -3   4   -0.15    1.17
   7  -3   4   -0.05    1.05
  -7   3   4    0.84    1.38
   7   4   4    0.32    1.27
  -7   4  -4    5.48    1.40
   7  -4  -4    2.18    1.23
   7  -4  -4    0.98    1.36
  -7   4   4    3.67    1.45
   7  -4   4    0.38    1.31
   8   0  -4    1.86    1.07
  -8   0   4    1.68    1.12
   8   0  -4    1.55    1.30
   8   0   4    2.36    1.21
  -8  -1   4    3.96    1.39
   8  -1  -4    5.31    1.54
   8   1   4    6.68    1.49
   8  -1  -4    6.28    1.47
  -8   1   4    4.90    1.39
   8  -1   4    7.21    1.46
  -8  -2   4    0.64    1.11
   8   2   4    1.31    1.07
   8  -2  -4    0.59    0.96
   8  -2  -4   -1.52    1.23
   8  -2  -4    1.01    1.37
  -8   2   4    0.48    1.34
   8  -2   4    1.89    1.17
   8  -3  -4    3.58    1.58
  -8   3  -4    1.40    1.72
   8  -3  -4    3.79    1.22
   8   3   4    4.18    1.29
  -8   3   4    3.43    1.60
   8  -3   4    2.82    1.56
   8  -4  -4   -2.04    1.32
   8  -4  -4    2.57    1.33
   8  -4   4    0.07    1.42
   9   0   4    1.67    1.45
  -9   0   4   -3.63    1.36
   9  -1  -4    2.54    1.29
  -9  -1   4    1.96    1.21
  -9   1   4    2.98    1.41
   9  -1   4    0.81    1.47
   9  -2  -4   -1.12    1.42
  -9   2  -4    2.65    1.71
   9  -2   4    0.35    1.45
  -9   2   4   -2.17    1.64
   9  -3  -4   -0.55    1.40
  10  -1   4   46.48    4.34
   0   0   5    1.09    0.71
   0   0   5   -1.27    0.65
   0   0  -5    1.07    0.65
   0  -1  -5   47.53    3.55
   0   1   5   48.22    3.75
   0  -1  -5   54.43    3.71
   0   1   5   36.19    4.21
   0  -1   5   44.12    3.73
   0  -2  -5    0.15    0.42
   0   2   5    0.80    0.86
   0  -2  -5    0.16    0.39
   0   2   5    0.19    0.52
   0  -2   5   -0.21    0.40
   0  -3  -5   28.08    2.15
   0  -3   5   26.02    2.13
   0   3   5   27.06    2.92
   0  -3  -5   23.81    2.32
   0   3   5   20.69    2.12
   0   4   5    0.05    1.20
   0  -4  -5   -0.76    0.65
   0   4   5   -0.31    0.56
   0  -4  -5   -0.54    0.61
   0  -5  -5   13.55    1.60
   0   5   5   14.71    2.46
   0  -5  -5   11.41    1.75
   0  -6  -5    0.78    1.11
   1   0  -5    3.95    0.75
  -1   0  -5    2.76    0.67
   1   0   5    3.33    0.63
   1   0   5    4.15    0.74
  -1   0   5    3.18    0.44
  -1   0   5    3.62    0.67
   1   1   5   89.08    7.31
   1   1   5   86.88    8.20
  -1  -1   5  103.97    8.02
   1  -1  -5   97.88    7.09
  -1   1  -5   92.70    7.78
   1  -1  -5   93.22    7.35
  -1  -1  -5   97.62    7.14
  -1  -1  -5  101.20    7.49
  -1   1   5  105.99    7.55
   1   1  -5  108.26    7.21
   1  -1   5  103.72    7.47
  -1   1   5   79.57    8.12
   1  -1   5  100.91    7.30
   1  -2  -5    3.39    0.61
   1   2   5    2.90    1.01
  -1  -2   5    3.42    0.61
   1   2   5    3.20    0.65
  -1   2   5    2.59    0.89
  -1   2   5    4.69    0.90
  -1  -2  -5    3.45    0.58
   1  -2   5    2.65    0.61
  -1  -2  -5    3.97    0.70
   1  -2   5    3.55    0.63
   1  -3  -5   56.25    4.42
   1   3   5   58.99    4.57
   1   3   5   56.91    5.31
   1  -3   5   54.67    4.59
   1  -3   5   60.19    4.73
  -1  -3  -5   64.06    4.74
  -1  -3  -5   52.57    4.37
  -1   3   5   64.46    5.40
  -1   3   5   56.33    4.54
   1   4   5    2.21    0.74
   1  -4  -5    3.50    0.80
   1   4   5    2.56    1.21
  -1   4   5   -0.17    0.60
  -1  -4  -5    1.46    0.84
  -1  -4  -5    1.91    0.73
  -1   4   5    1.43    1.35
   1  -4   5    1.24    0.69
   1  -5  -5   25.93    2.57
   1  -5  -5   26.71    2.85
   1   5   5   36.37    3.61
   1   5   5   27.61    2.57
  -1   5   5   29.07    3.64
  -1  -5  -5   25.74    2.87
   1  -6  -5    1.55    1.07
   1  -6  -5    0.59    1.07
  -1  -6  -5    1.08    1.25
  -2   0   5  103.34    8.81
   2   0   5  104.38    7.93
   2   0   5  106.91    8.18
   2   0  -5  109.08    7.76
   2   1   5    0.33    0.46
   2  -1  -5    2.05    0.49
   2   1   5    1.66    0.82
  -2  -1   5    1.50    0.45
   2  -1   5    1.70    0.57
  -2   1   5    0.60    0.62
   2  -1   5    1.08    0.37
   2   1  -5    0.16    0.74
  -2  -1  -5    1.24    0.51
   2   1  -5    0.85    0.37
   2  -2  -5   77.63    5.71
   2   2   5   78.33    5.91
  -2  -2  -5   66.90    5.69
  -2   2   5   82.96    6.60
  -2   2   5   77.22    6.14
  -2  -2  -5   72.82    6.07
   2  -2   5   78.18    6.22
   2  -2   5   79.57    6.00
  -2   3  -5   -0.15    0.56
   2  -3  -5    0.67    0.60
   2   3   5   -0.91    0.54
   2  -3   5    0.47    0.54
  -2   3   5    0.03    0.67
  -2  -3  -5    1.55    0.70
  -2   3   5   -0.32    0.86
   2  -3   5    0.58    0.64
  -2  -3  -5    0.87    0.49
   2   4   5   42.41    3.41
   2  -4  -5   36.67    3.30
  -2   4   5   39.12    3.28
   2  -4   5   40.03    3.41
  -2   4   5   45.46    4.29
  -2  -4  -5   40.06    3.64
   2   5   5   -0.45    0.77
   2  -5  -5   -0.02    0.89
  -2  -5  -5    0.20    1.14
  -2   5   5    2.06    1.75
   2  -6  -5   13.79    1.81
  -2  -6  -5   12.16    2.10
  -3   0   5   90.22    7.46
   3   0   5   90.04    6.71
   3   0   5   89.61    6.92
   3   0  -5   84.99    6.53
   3   1   5    3.46    0.86
   3   1   5    2.00    0.59
   3  -1  -5    1.16    0.50
  -3  -1   5    1.30    0.49
   3  -1   5    2.17    0.66
   3   1  -5    2.39    0.75
  -3   1   5    1.65    0.66
   3   1  -5    1.68    0.52
   3  -1   5    1.46    0.43
   3   2   5   68.37    5.15
   3  -2  -5   70.95    4.99
  -3  -2   5   59.98    5.49
  -3   2   5   62.27    5.74
   3  -2   5   71.31    5.44
   3  -2   5   62.86    5.22
  -3  -2  -5   66.01    4.93
   3  -3  -5    1.42    0.65
  -3  -3   5    0.10    0.62
  -3   3  -5   -0.01    0.65
   3   3   5    0.22    0.68
  -3   3   5    1.34    1.01
   3  -3   5    1.29    0.64
  -3   3   5    0.60    0.88
   3  -3   5    0.92    0.71
  -3  -3  -5    0.63    0.80
   3   4   5   36.40    3.09
   3  -4  -5   31.16    3.04
  -3  -4  -5   33.61    3.41
   3  -4   5   40.65    3.19
  -3   4   5   35.80    3.76
   3   5   5   -0.98    0.78
   3  -5  -5   -0.42    0.91
  -3   5   5   -1.12    1.84
  -3  -5  -5    1.87    1.15
   3  -5   5   -0.14    0.97
   3  -6  -5   18.70    2.35
   3  -6  -5   20.87    2.61
   4   0   5   91.29    7.13
   4   0   5   94.92    7.38
   4   0  -5   88.98    7.73
   4   0  -5  109.51    6.97
  -4   0   5   86.26    7.91
   4  -1  -5    9.30    1.15
   4   1   5   11.18    1.32
   4   1   5    8.61    1.14
  -4  -1   5    9.48    1.21
   4   1  -5   10.90    1.30
   4  -1   5    8.80    1.00
   4   1  -5    7.79    1.11
  -4   1   5    9.86    1.33
   4  -1   5   10.03    1.23
   4   2   5   66.60    6.09
  -4  -2   5   80.61    6.60
   4  -2  -5   82.90    5.93
   4  -2   5   77.20    6.24
   4  -2   5   80.98    6.50
  -4   2   5   84.18    6.87
   4   3   5    4.75    0.97
   4  -3  -5    3.97    0.92
  -4   3  -5    5.73    1.00
  -4   3   5    1.94    1.21
   4  -3   5    5.07    1.06
   4  -3   5    5.27    1.00
  -4   3   5    4.74    1.25
   4  -4  -5   41.57    3.58
   4   4   5   40.25    3.61
   4  -4   5   45.74    3.73
  -4   4   5   43.40    4.31
   4   5   5    2.93    0.97
   4  -5  -5    1.79    1.10
  -4   5   5   -0.13    1.60
   4  -5   5    2.69    1.16
  -4  -5  -5    1.53    1.31
   4  -6  -5   24.33    2.86
   4  -6  -5   31.81    3.16
   5   0   5   33.45    2.76
   5   0   5   29.43    2.92
   5   0  -5   33.03    2.71
  -5   0   5   33.87    3.13
   5   0  -5   36.01    3.11
   5   1   5    6.46    1.02
  -5  -1   5    6.14    1.02
   5   1   5    8.97    1.25
   5  -1  -5    6.09    0.92
   5  -1  -5    6.64    1.28
   5   1  -5    6.43    1.07
   5   1  -5    7.48    0.99
  -5   1   5    5.56    1.16
   5  -1   5    5.95    0.88
   5  -1   5    5.96    1.11
   5   1  -5    7.05    0.92
   5   2   5   27.09    2.44
   5  -2  -5   25.94    2.36
   5   2   5   28.56    2.99
  -5  -2   5   28.58    2.59
   5  -2   5   24.90    2.56
   5  -2   5   26.13    2.56
  -5   2   5   28.13    2.90
   5   3   5    5.30    1.10
   5  -3  -5    5.07    1.05
  -5   3  -5    4.22    1.13
   5  -3   5    5.83    1.17
  -5   3   5    5.48    1.38
   5  -3   5    5.00    1.19
   5   4   5   15.77    1.98
   5  -4  -5   15.19    1.90
   5  -4   5   14.88    1.97
   5  -4   5   16.37    2.00
  -5   4   5   17.92    2.40
   5  -5  -5    2.76    1.34
   5   5   5    2.71    1.21
   5  -5  -5    3.02    1.39
  -5   5   5    6.96    1.61
   5  -5   5    3.50    1.23
   6   0  -5   29.23    2.80
   6   0   5   22.94    2.43
   6   0  -5   26.30    2.39
   6   0  -5   27.97    2.57
   6   0   5   27.75    2.64
  -6   0   5   29.37    2.83
   6  -1  -5    2.08    1.14
   6  -1  -5    0.70    0.70
   6   1   5    1.48    1.00
   6   1   5    0.82    0.75
  -6  -1   5    1.42    0.84
   6  -1  -5    1.84    1.00
   6  -1   5    1.50    0.99
   6  -1   5    1.91    0.72
   6   1  -5    0.77    0.86
  -6   1   5    0.90    0.90
   6  -2  -5   18.97    2.01
   6  -2  -5   23.15    2.40
   6  -2  -5   21.33    2.44
   6   2   5   20.56    2.53
   6   2   5   18.31    2.12
  -6  -2   5   21.16    2.28
   6  -2   5   25.67    2.32
  -6   2   5   19.40    2.50
   6   3   5    1.88    0.97
   6  -3  -5    2.37    1.29
   6  -3  -5    1.64    0.98
  -6   3  -5    1.95    1.20
   6  -3  -5    1.01    1.39
   6  -3   5    2.16    1.12
   6  -3   5    0.72    0.99
  -6   3   5   -0.86    1.21
   6   4   5   11.92    1.80
   6  -4  -5   10.76    1.73
   6  -4  -5   13.94    1.93
  -6   4   5    9.82    2.06
   6  -4   5   11.62    1.78
   6  -4   5   11.33    1.75
   6  -5  -5   -0.37    1.16
   6  -5  -5   -2.33    1.44
  -6   5   5   -5.01    1.72
   6  -5   5    2.34    1.29
   7   0  -5    8.96    1.61
   7   0  -5    8.21    1.37
  -7   0   5    6.95    1.47
   7   0   5    8.07    1.48
   7   0   5    7.20    1.29
   7  -1  -5   18.49    2.48
   7   1   5   17.90    2.09
  -7  -1   5   18.52    2.21
   7   1   5   20.03    2.28
   7  -1  -5   20.52    2.26
   7  -1  -5   19.87    1.98
   7  -1   5   18.39    2.17
  -7   1   5   16.95    2.35
   7  -2  -5    5.30    1.55
   7  -2  -5    7.02    1.19
  -7  -2   5    6.08    1.27
   7  -2  -5    6.35    1.56
   7   2   5    6.00    1.29
   7  -2   5    5.48    1.31
  -7   2   5    7.25    1.61
   7  -3  -5   15.64    2.25
   7  -3  -5   14.68    2.24
   7  -3  -5   16.34    1.98
  -7   3  -5   15.56    2.38
   7   3   5   15.96    2.06
   7  -3   5   17.18    2.18
  -7   3   5   14.92    2.39
   7   4   5    3.43    1.27
   7  -4  -5    5.14    1.58
   7  -4  -5    3.33    1.32
  -7   4   5    1.42    1.68
   7  -4   5    2.02    1.48
  -8   0   5   15.64    2.15
   8   0   5   15.59    2.14
   8   0  -5   13.52    2.19
   8   1   5   47.92    4.49
   8   1   5   54.55    4.67
   8  -1  -5   56.02    5.02
   8  -1  -5   60.64    4.70
  -8  -1   5   58.98    5.05
  -8   1   5   45.91    5.04
   8  -1   5   52.46    4.68
   8   2   5   14.62    1.95
   8  -2  -5   11.25    2.01
   8  -2  -5   11.21    1.56
   8  -2  -5    9.31    2.20
  -8   2   5   11.19    2.08
   8  -2   5   11.18    1.94
   8   3   5   44.54    3.76
   8  -3  -5   37.10    3.55
  -8   3  -5   43.13    4.30
   8  -3  -5   43.05    3.90
   8  -3   5   35.32    3.67
  -8   3   5   34.51    4.24
  -9   0   5    7.18    1.58
   9   0   5    4.38    1.64
   9  -1  -5    6.24    1.62
  -9  -1   5    4.94    1.63
   9  -1   5    7.67    1.75
  -9   1   5    6.85    1.78
  -9   2  -5    5.59    1.78
   9  -2  -5    1.64    1.64
   9  -2   5    6.85    1.74
  -9   2   5    3.03    1.62
  10  -1   5    4.74    1.65
   0   0   6   60.07    4.97
   0   0  -6   73.03    4.85
   0   0   6   55.75    5.45
   0   1   6    1.25    0.90
   0  -1  -6    1.68    0.55
   0   1   6    1.11    0.72
   0  -1   6    0.38    0.63
   0  -1   6    0.18    0.50
   0  -1  -6    1.32    0.53
   0  -2   6   49.44    3.88
   0   2   6   45.13    4.53
   0  -2  -6   47.46    3.71
   0  -2  -6   54.59    3.94
   0   2   6   45.40    3.92
   0  -3   6   -0.49    0.50
   0   3   6    0.08    0.57
   0  -3  -6    0.70    0.56
   0   3   6    0.85    1.10
   0  -3  -6    0.35    0.63
   0  -4  -6   22.36    2.13
   0   4   6   22.21    2.08
   0   4   6   19.33    2.77
   0  -4  -6   22.02    2.25
   0  -5  -6    0.42    0.89
   0  -5  -6   -1.39    0.85
   0   5   6   -1.73    1.61
   1   0  -6   23.44    2.11
  -1   0   6   25.20    2.27
   1   0   6   19.23    2.15
   1   0   6   24.06    2.04
  -1   0  -6   21.83    2.04
   1  -1  -6  222.02   14.91
   1   1   6  186.47   16.45
   1   1   6  183.48   14.77
   1  -1  -6  216.59   14.35
  -1   1   6  191.58   14.96
   1  -1   6  197.19   15.08
  -1   1   6  195.24   16.40
   1  -1   6  205.43   14.76
   1   1  -6  182.06   14.43
   1   2   6   19.99    2.46
   1  -2  -6   19.53    1.85
   1  -2  -6   22.18    1.81
   1   2   6   23.33    1.90
   1  -2   6   17.66    1.82
   1  -2   6   20.42    1.86
  -1   2   6   21.80    2.37
  -1  -2  -6   24.67    1.85
  -1   2   6   19.20    2.09
  -1  -2  -6   16.63    1.95
   1   3   6  120.70    8.78
   1   3   6  114.60    9.95
   1  -3  -6  121.21    8.53
   1  -3  -6  133.12    8.99
  -1  -3  -6  117.02    8.48
  -1   3   6  112.95    8.80
  -1   3   6   92.75    9.88
   1  -3   6  109.57    8.89
   1   4   6   12.68    1.52
   1  -4  -6   12.58    1.49
   1   4   6   12.74    2.09
   1  -4  -6   13.76    1.77
  -1  -4  -6   14.71    1.78
   1  -4   6   13.66    1.54
  -1   4   6   12.07    1.47
  -1   4   6   11.87    2.20
  -1  -4  -6   13.45    1.61
   1  -5  -6   49.26    4.01
   1   5   6   47.34    4.01
   1  -5  -6   45.36    4.22
   1   5   6   49.68    5.05
  -1   5   6   48.72    5.12
  -1  -5  -6   50.22    4.34
   1  -6  -6    6.82    1.45
  -2   0   6    5.77    0.83
   2   0  -6    5.11    0.80
   2   0   6    4.28    0.70
   2   0   6    5.38    0.88
   2  -1  -6   78.22    5.90
   2   1   6   88.15    6.08
  -2  -1   6   84.42    6.63
   2  -1  -6   79.42    6.06
  -2  -1  -6   79.89    5.94
   2   1  -6   67.95    6.00
  -2   1   6   90.73    6.79
   2  -1   6   75.88    5.99
   2  -1   6   70.21    6.19
   2  -2  -6    2.83    0.64
   2   2   6    2.38    0.69
  -2   2   6    3.89    0.98
   2  -2   6    3.20    0.47
   2  -2   6    3.29    0.72
  -2  -2  -6    4.16    0.75
  -2  -2  -6    3.65    0.87
  -2   2   6    2.42    1.13
   2   3   6   47.89    3.78
  -2   3  -6   44.64    4.00
   2  -3  -6   44.38    3.66
  -2   3   6   46.16    3.92
   2  -3   6   50.13    3.87
  -2  -3  -6   48.22    3.98
  -2   3   6   46.90    4.43
   2  -3   6   42.80    3.78
  -2  -3  -6   45.54    3.63
   2  -4  -6    1.32    0.81
   2   4   6    2.29    0.85
  -2  -4  -6    2.49    0.90
  -2   4   6    1.61    0.76
   2  -4   6    1.24    0.83
  -2   4   6    0.86    1.44
   2  -5  -6   21.26    2.21
   2   5   6   21.17    2.14
  -2  -5  -6   19.42    2.47
  -2   5   6   21.72    3.23
   2  -6  -6   -1.45    1.02
  -3   0   6   74.54    6.96
   3   0   6   80.96    6.48
   3   0  -6   91.91    6.16
   3   0   6   82.95    6.27
   3   1   6  115.93   10.03
   3  -1  -6  123.83    9.43
   3   1   6  120.69    9.71
  -3  -1   6  140.79   10.70
   3  -1   6  129.95    9.63
   3   1  -6  136.51   10.35
   3  -1   6  137.97    9.97
   3   1  -6  122.06    9.51
  -3   1   6  130.57   10.81
  -3  -2   6   63.44    5.39
   3  -2  -6   58.35    4.86
   3   2   6   70.33    5.07
  -3   2   6   71.05    5.69
   3  -2   6   64.38    5.15
  -3  -2  -6   64.39    4.88
  -3   2   6   57.67    5.31
   3  -3  -6   82.59    6.20
   3   3   6   85.30    6.39
  -3   3   6   75.54    6.52
   3  -3   6   91.72    6.52
  -3   3   6   79.71    7.18
  -3  -3  -6   71.47    6.60
   3  -3   6   83.53    6.70
   3   4   6   24.51    2.69
   3  -4  -6   33.24    2.82
  -3  -4  -6   30.05    3.12
   3  -4   6   33.71    2.88
  -3   4   6   34.20    3.54
   3   5   6   40.19    3.60
   3  -5  -6   40.23    3.63
  -3  -5  -6   41.27    4.10
  -3   5   6   45.77    4.77
   3  -5   6   44.28    3.75
   3  -6  -6   12.76    1.90
  -4   0   6   40.47    3.59
   4   0   6   38.25    3.20
   4   0   6   37.19    3.39
   4   0  -6   42.58    3.55
   4   0  -6   38.29    3.15
   4   1   6   -0.10    0.59
   4   1   6    0.49    0.85
  -4  -1   6    0.24    0.56
   4  -1  -6    0.20    0.55
   4   1  -6    0.59    0.58
   4   1  -6    1.38    0.74
   4  -1   6    1.08    0.73
   4  -1   6   -0.18    0.43
  -4   1   6   -0.43    0.71
  -4  -2   6   27.57    2.54
   4   2   6   29.83    2.51
   4  -2  -6   27.24    2.40
  -4   2   6   27.09    2.86
   4  -2   6   25.40    2.52
   4   3   6    0.36    0.67
   4  -3  -6   -0.34    0.72
  -4   3   6   -0.06    1.09
   4  -3   6   -0.03    0.84
   4  -3   6    0.40    0.72
  -4   3   6    0.90    1.02
   4   4   6   14.96    1.81
   4  -4  -6   14.91    1.86
   4  -4   6   14.82    1.87
  -4   4   6   16.12    2.42
   4  -5  -6    0.39    1.03
   4   5   6    0.94    0.89
   4  -5   6   -0.08    1.08
  -4   5   6   -2.30    1.73
   4  -6  -6    9.35    1.88
  -5   0   6   40.51    4.32
   5   0   6   48.46    3.86
   5   0  -6   52.78    4.29
   5   0  -6   48.30    3.79
   5   0   6   51.69    4.11
  -5  -1   6    1.15    0.69
   5   1   6    1.26    0.94
   5  -1  -6    0.90    0.65
   5   1   6    0.13    0.64
   5  -1   6    0.53    0.85
   5   1  -6    0.95    0.74
   5   1  -6    1.43    0.76
  -5   1   6    1.37    0.85
   5   1  -6    1.11    0.62
   5  -1   6   -0.18    0.54
   5   2   6   38.23    3.20
  -5  -2   6   38.55    3.41
   5  -2  -6   36.40    3.09
   5  -2   6   34.89    3.27
  -5   2   6   38.64    3.69
   5  -3  -6    0.91    0.86
   5   3   6   -0.49    0.76
  -5   3   6    1.36    1.15
   5  -3   6   -0.09    0.99
   5  -4  -6   24.83    2.42
   5   4   6   19.70    2.30
   5  -4   6   24.99    2.55
  -5   4   6   23.24    2.96
   5   5   6    2.24    1.09
   5  -5  -6    0.31    1.37
   5  -5  -6    0.52    1.17
   5  -5   6    2.99    1.22
  -5   5   6    3.04    1.50
  -6   0   6    2.74    0.99
   6   0  -6    2.64    0.88
   6   0  -6    3.07    0.93
   6   0  -6    2.41    1.26
   6   0   6    2.70    0.82
   6   0   6    2.99    1.15
   6   1   6   12.60    1.64
  -6  -1   6   11.22    1.54
   6  -1  -6   10.84    1.35
   6  -1  -6    9.21    1.66
   6   1   6    9.23    1.38
   6  -1   6   12.46    1.63
   6  -1   6   11.30    1.31
  -6   1   6   12.40    1.76
   6   1  -6   10.91    1.57
   6   2   6    1.51    1.40
   6   2   6    1.71    0.87
  -6  -2   6    1.97    0.93
   6  -2  -6    1.03    0.85
   6  -2  -6    0.39    1.21
  -6   2   6    3.03    1.16
   6  -2   6    3.09    1.14
   6   3   6    7.60    1.35
   6  -3  -6    5.94    1.23
  -6   3   6    5.69    1.48
   6  -3   6    5.73    1.32
   6  -4  -6    0.36    1.08
   6  -4  -6    0.89    1.38
   6   4   6    1.66    1.10
  -6   4   6   -0.35    1.45
   6  -4   6    1.63    1.19
   6  -5  -6    3.29    1.43
   6  -5  -6    5.05    1.66
  -6   5   6    3.59    1.84
   6  -5   6    6.16    1.37
   7   0  -6   54.51    4.40
   7   0   6   52.71    4.24
   7   0  -6   52.51    4.70
  -7   0   6   46.80    4.72
   7   0   6   48.88    4.42
  -7  -1   6   -0.06    0.92
   7   1   6    0.13    0.91
   7   1   6    1.54    1.12
   7  -1  -6    1.32    0.91
   7  -1  -6    1.27    1.16
   7  -1  -6    0.28    1.14
  -7   1   6    1.20    1.26
   7  -1   6    1.24    1.18
   7  -2  -6   42.66    3.64
   7   2   6   43.68    3.83
   7  -2  -6   45.96    4.03
   7  -2  -6   40.17    4.22
  -7   2   6   50.80    4.45
   7  -2   6   39.59    3.89
   7  -3  -6   -0.61    1.03
   7  -3  -6   -0.07    1.30
   7  -3  -6    2.30    1.33
   7   3   6   -0.08    1.04
  -7   3  -6    2.83    1.48
   7  -3   6    0.69    1.22
  -7   3   6    2.62    1.45
   7  -4  -6   30.72    2.97
   7  -4  -6   27.98    3.11
   7  -4   6   27.92    2.97
  -7   4   6   27.58    3.52
   8   0   6   10.33    1.86
   8   0   6    9.31    1.49
  -8   0   6    9.10    1.70
   8   0  -6    8.44    2.00
  -8  -1   6    1.24    1.09
   8   1   6    2.15    1.33
   8  -1  -6    2.53    1.36
   8  -1  -6   -2.93    1.26
   8   1   6    0.16    1.10
  -8   1   6    0.73    1.41
   8  -1   6    2.58    1.33
   8  -2  -6    7.46    1.81
   8   2   6    9.37    1.61
   8  -2  -6   10.11    1.44
  -8   2   6    7.16    1.91
   8  -2   6    7.79    1.74
   8  -3  -6   -0.24    1.52
   8  -3  -6    0.07    1.08
  -8   3  -6   -3.03    1.65
  -8   3   6    2.48    1.59
   8  -3   6    1.49    1.37
   9   0   6    0.10    1.44
  -9   0   6    1.04    1.36
  -9  -1   6   16.55    2.20
   9  -1   6   12.86    2.09
  -9   1   6   11.86    2.27
   9  -2  -6   -2.18    1.49
   9  -2   6   -0.77    1.40
   0   0   7    1.20    0.80
   0   0  -7   -0.01    0.64
   0   0   7   -0.19    0.76
   0  -1   7  326.84   26.51
   0   1   7  334.81   24.14
   0  -1  -7  293.88   23.33
   0  -1  -7  313.86   24.33
   0   1   7  356.98   26.74
   0  -1   7  318.24   24.59
   0  -2  -7   -0.26    0.49
   0   2   7    0.02    0.99
   0  -2  -7    0.99    0.52
   0  -2   7    0.41    0.60
   0   2   7    0.10    0.67
   0  -3   7  209.70   16.47
   0   3   7  223.98   16.23
   0  -3  -7  231.91   16.48
   0  -3  -7  201.47   15.70
   0   4   7   -0.54    1.32
   0  -4  -7    0.51    0.70
   0   4   7   -0.22    0.68
   0  -4  -7    0.26    0.77
   0  -5  -7   90.50    7.57
   0   5   7   92.85    8.64
   0  -5  -7   95.79    7.16
   1   0   7    1.72    0.69
  -1   0   7    2.42    0.78
   1   0   7    2.20    0.82
  -1   0  -7    1.69    0.69
   1   0  -7    1.70    0.70
   1  -1  -7  120.05    7.79
   1   1   7  100.85    8.99
   1  -1  -7  113.97    8.04
   1   1   7  101.83    8.03
  -1  -1   7   99.63    8.79
   1  -1   7  106.75    8.15
  -1   1   7  105.98    8.93
   1  -1   7  118.47    8.02
   1   1  -7   95.54    7.88
  -1   1   7  100.81    8.20
  -1  -1  -7   90.52    7.78
   1   2   7    0.39    0.99
   1   2   7    0.82    0.61
   1  -2  -7    1.14    0.52
   1  -2  -7    1.59    0.57
  -1  -2  -7    1.42    0.57
  -1  -2  -7    0.32    0.60
  -1   2   7    0.63    0.91
   1  -2   7    0.25    0.59
  -1   2   7    0.61    0.91
   1  -2   7    1.31    0.65
   1   3   7   72.47    6.29
   1   3   7   69.08    5.34
   1  -3  -7   68.37    5.18
   1  -3  -7   65.94    5.44
   1  -3   7   60.61    5.35
  -1   3   7   78.63    5.49
  -1  -3  -7   62.24    5.12
  -1  -3  -7   69.63    5.50
   1   4   7    0.39    0.62
   1   4   7   -0.42    1.28
   1  -4  -7   -0.06    0.78
   1  -4  -7    0.26    0.78
  -1  -4  -7   -0.27    0.75
  -1   4   7    0.63    0.70
   1  -4   7    0.74    0.78
  -1   4   7    1.35    1.51
  -1  -4  -7    0.19    0.71
   1  -5  -7   30.18    2.88
   1  -5  -7   28.43    2.96
   1   5   7   30.20    3.84
   1   5   7   32.64    2.85
  -1  -5  -7   27.11    3.01
  -1   5   7   32.61    3.96
   1  -6  -7    1.10    1.00
  -2   0   7    1.41    0.65
   2   0  -7    2.20    0.72
   2   0   7    1.98    0.58
   2   0   7    1.71    0.75
   2   1   7    2.21    0.61
  -2  -1   7    2.70    0.65
   2  -1  -7    1.88    0.65
   2  -1  -7    2.15    0.51
   2   1  -7    3.04    0.93
   2  -1   7    3.17    0.74
  -2  -1  -7    2.95    0.72
   2  -1   7    1.89    0.58
  -2   1   7    2.90    0.84
   2  -2  -7    1.81    0.60
   2  -2  -7    1.53    0.61
   2   2   7    2.15    0.67
  -2  -2  -7    2.81    0.71
  -2   2   7    0.59    0.82
  -2   2   7    1.91    1.11
   2  -2   7    1.30    0.67
   2  -2   7    0.70    0.46
   2  -3  -7    2.23    0.73
   2   3   7    1.48    0.75
  -2   3   7    2.20    1.23
   2  -3   7    2.66    0.78
  -2   3   7    1.96    1.08
  -2  -3  -7    3.07    0.79
  -2  -3  -7    1.93    0.86
   2  -4  -7    0.28    0.82
   2   4   7   -0.48    0.69
   2  -4  -7   -0.73    0.86
   2  -4   7    0.50    0.80
  -2   4   7    0.05    0.80
  -2  -4  -7   -0.16    0.92
  -2   4   7    1.35    1.27
   2  -5  -7    3.06    1.06
   2   5   7    2.25    0.80
   2  -5  -7    1.78    0.97
  -2  -5  -7    1.77    1.26
  -2   5   7   -0.25    1.85
   2  -6  -7   -2.30    1.16
  -3   0   7    2.52    0.77
   3   0  -7    2.72    0.74
   3   0   7    3.66    0.68
   3   0   7    5.16    0.92
  -3  -1   7    7.69    1.11
   3   1   7    9.32    1.14
   3   1   7   11.47    1.54
   3  -1  -7    9.58    1.13
  -3   1   7   11.96    1.52
   3  -1   7    9.85    1.05
   3   1  -7    8.58    1.12
   3   1  -7    9.80    1.27
   3  -1   7    9.27    1.24
   3   2   7    0.53    0.62
  -3  -2   7    3.42    0.62
   3  -2  -7    3.29    0.76
  -3   2   7    3.40    1.05
   3  -2   7    3.17    0.50
   3  -2   7    3.23    0.86
  -3  -2  -7    3.43    0.76
  -3   2   7    1.82    1.17
   3   3   7    4.18    0.99
   3  -3  -7    6.25    1.04
  -3   3   7    6.55    1.46
  -3   3   7    4.64    1.34
   3  -3   7    6.72    1.13
   3  -4  -7    1.71    0.93
   3   4   7    1.30    0.91
   3  -4   7    1.82    1.00
  -3   4   7    1.34    1.53
  -3  -4  -7    1.22    1.02
   3  -5  -7    1.75    1.14
   3   5   7    1.58    0.98
  -3   5   7    1.75    1.81
  -3  -5  -7    0.39    1.32
   3  -6  -7    1.98    1.20
   4   0  -7  115.36    8.37
   4   0   7  115.90    8.57
   4   0   7  120.93    8.86
  -4   0   7  100.18    9.48
  -4  -1   7   40.51    3.35
   4  -1  -7   34.50    2.97
   4   1   7   33.58    3.30
   4   1   7   31.75    3.03
   4  -1   7   33.03    3.16
  -4   1   7   36.04    3.46
   4  -1   7   38.78    2.93
   4   1  -7   38.84    3.22
   4   1  -7   37.69    3.09
   4   2   7  101.15    7.40
  -4  -2   7   89.75    7.98
   4  -2  -7   98.09    7.14
  -4   2   7  100.04    8.24
   4  -2   7   89.42    7.51
   4  -3  -7   26.17    2.36
   4   3   7   25.84    2.39
   4  -3   7   26.02    2.47
  -4   3   7   17.72    2.60
  -4   3   7   26.40    2.91
   4  -4  -7   50.11    4.16
   4   4   7   53.54    4.24
   4  -4   7   51.62    4.34
  -4   4   7   44.88    4.92
   4   5   7   12.41    1.78
   4  -5  -7   12.00    1.84
   4  -5   7   13.87    1.91
  -4   5   7   11.69    2.59
   4  -6  -7   35.24    3.64
   5   0  -7   35.77    2.95
  -5   0   7   33.87    3.27
   5   0   7   33.44    2.86
   5   0  -7   30.80    3.23
   5   0   7   37.63    3.15
   5  -1  -7   46.77    3.87
   5   1   7   40.06    3.93
   5   1   7   56.90    4.28
  -5  -1   7   57.76    4.42
  -5   1   7   41.29    4.44
   5  -1   7   51.37    3.86
   5  -1   7   50.88    4.16
   5   1  -7   48.05    3.94
   5   1  -7   47.60    4.25
   5   2   7   26.73    2.57
   5  -2  -7   29.31    2.55
  -5  -2   7   31.19    2.78
   5  -2   7   28.74    2.71
  -5   2   7   25.47    2.96
   5  -3  -7   35.88    3.09
   5   3   7   33.34    3.08
   5  -3   7   35.57    3.24
  -5   3   7   35.00    3.62
   5   4   7   15.01    1.95
   5  -4  -7   18.02    2.10
  -5   4   7   16.26    2.52
   5  -4   7   16.60    2.14
   5   5   7   16.61    2.00
   5  -5  -7   14.30    2.05
  -5   5   7   11.96    2.55
   5  -5   7   16.66    2.16
   6   0   7    7.98    1.47
  -6   0   7    7.57    1.41
   6   0  -7    7.48    1.22
   6   0  -7    6.43    1.37
   6   0   7    6.10    1.10
   6  -1  -7    3.62    0.95
  -6  -1   7    2.33    1.00
   6  -1  -7    3.49    1.30
   6   1   7    3.12    1.22
   6   1   7    2.71    0.88
   6  -1   7    1.78    0.78
   6  -1   7    2.72    1.14
  -6   1   7    3.30    1.23
   6   1  -7    3.24    1.16
   6   2   7    4.68    1.10
   6  -2  -7    6.06    1.14
   6  -2   7    6.24    1.34
  -6   2   7    5.64    1.44
   6  -3  -7    2.71    1.09
   6   3   7    1.45    0.99
   6  -3   7    2.91    1.29
  -6   3   7    1.30    1.36
   6   4   7    4.04    1.18
   6  -4  -7    2.26    1.29
  -6   4   7    0.93    1.57
   6  -4   7    3.11    1.43
   6  -5  -7    4.27    1.52
   6  -5   7    2.69    1.46
  -7   0   7    4.92    1.39
   7   0   7    3.47    1.41
   7   0   7    3.68    1.09
   7   0  -7    3.62    1.24
   7   0  -7    5.86    1.47
   7   1   7    0.89    1.26
   7   1   7    1.41    0.99
   7  -1  -7   -0.03    0.95
   7  -1  -7    2.10    1.20
  -7  -1   7    1.74    1.09
   7  -1  -7   -0.39    1.43
   7  -1   7    2.25    1.19
  -7   1   7    0.84    1.20
   7   1  -7    0.94    1.18
   7  -2  -7    4.95    1.43
   7   2   7    3.39    1.05
   7  -2  -7    4.04    1.43
   7  -2  -7    2.62    0.94
  -7   2   7    2.42    1.37
   7  -2   7    1.99    1.27
   7  -3  -7    0.34    1.12
   7   3   7    1.96    1.12
  -7   3  -7    3.94    1.50
   7  -3  -7    1.17    1.33
  -7   3   7    1.98    1.43
   7  -3   7    3.78    1.38
   7  -4  -7    2.16    1.49
   7  -4  -7    3.48    1.27
   7  -4   7    1.47    1.38
  -7   4   7   -2.35    1.72
  -8   0   7   12.15    2.05
   8   0  -7    9.52    2.17
   8   0   7   13.26    1.99
   8  -1  -7   13.36    2.24
   8   1   7   12.47    1.78
   8   1   7   11.23    1.93
   8  -1  -7   12.64    1.95
  -8  -1   7   12.38    1.97
   8  -1   7   13.63    1.99
  -8   1   7   11.21    2.09
   8  -2  -7   10.51    1.96
   8   2   7   12.19    1.82
   8  -2  -7    7.94    1.55
   8  -2   7   10.33    1.85
  -8   2   7    9.37    1.97
   8  -3  -7   11.50    2.07
  -8   3  -7    7.89    2.27
   8  -3  -7    8.64    1.57
   8  -3   7    9.46    1.90
  -8   3   7   10.12    2.09
  -9   0   7   15.78    2.43
   9   0   7   14.78    2.34
   9   1   7    2.77    1.34
  -9  -1   7    0.19    1.55
  -9   1   7   -0.21    1.68
   9  -1   7    4.63    1.51
   9  -2  -7   14.71    2.39
   9  -2   7   15.23    2.18
   0   0  -8  114.94    9.03
   0   0   8  125.39   10.32
   0   0   8  125.88    9.38
   0   1   8    0.36    0.85
   0   1   8   -0.02    0.76
   0  -1  -8    1.95    0.71
   0  -1   8   -0.34    0.62
   0   2   8  107.16    7.30
   0  -2   8   89.45    7.20
   0  -2  -8   81.77    7.13
   0   2   8   73.89    7.98
   0  -2  -8  107.75    6.89
   0   3   8    0.14    0.73
   0  -3  -8    0.18    0.61
   0  -3   8    0.28    0.68
   0   3   8   -1.19    1.04
   0  -3  -8    0.56    0.62
   0   4   8   48.34    4.36
   0   4   8   55.22    5.41
   0  -4  -8   53.38    4.28
   0  -4  -8   57.61    4.60
   0  -5  -8    0.68    1.09
   0  -5  -8    0.37    0.94
   0   5   8   -0.20    1.73
   1   0  -8   16.06    1.73
   1   0   8   16.81    1.93
   1   0   8   16.70    1.68
  -1   0   8   11.57    1.83
  -1   0  -8   14.99    1.69
   1  -1  -8    1.01    0.61
   1  -1  -8    1.31    0.55
   1   1   8    1.03    0.97
   1   1   8    0.71    0.68
  -1  -1   8    1.40    0.77
   1  -1   8    2.59    0.80
   1   1  -8    0.20    0.86
  -1   1   8    1.32    0.98
  -1   1   8   -0.01    0.80
   1  -1   8    0.74    0.73
  -1  -1  -8    1.59    0.72
   1  -2  -8   12.64    1.41
   1   2   8   11.79    1.46
   1   2   8   13.00    1.93
   1  -2  -8   12.09    1.44
  -1   2   8   13.76    1.81
  -1  -2  -8   11.67    1.37
   1  -2   8   12.79    1.47
  -1   2   8   11.03    1.80
   1  -2   8   12.54    1.43
  -1  -2  -8    9.97    1.43
   1   3   8    0.71    1.24
   1  -3  -8    0.54    0.67
   1   3   8    0.61    0.68
   1  -3  -8    0.83    0.74
  -1   3   8   -0.45    0.86
  -1  -3  -8   -0.14    0.72
  -1  -3  -8    0.93    0.71
   1  -3   8   -0.33    0.69
  -1   3   8   -0.30    1.14
   1  -4  -8    5.64    1.13
   1   4   8    6.49    1.18
   1   4   8    7.64    1.83
   1  -4  -8    5.54    1.22
  -1   4   8    5.26    1.86
  -1  -4  -8    7.91    1.16
  -1  -4  -8    8.32    1.39
  -1   4   8    6.90    1.21
   1   5   8   -0.23    1.60
   1  -5  -8   -0.42    0.94
   1  -5  -8   -0.22    1.04
   1   5   8    0.95    0.84
  -1  -5  -8   -0.41    1.14
  -1   5   8    0.86    1.69
   1  -6  -8    1.37    1.17
   2   0   8   30.95    2.94
  -2   0   8   31.02    3.06
   2   0   8   36.00    2.76
   2   0  -8   31.52    2.79
   2   1   8   58.98    4.46
  -2  -1   8   56.13    4.85
   2  -1  -8   54.86    4.39
   2  -1  -8   55.32    4.35
   2   1  -8   62.30    4.51
   2  -1   8   50.06    4.38
  -2   1   8   44.67    4.95
   2  -1   8   62.38    4.59
  -2  -1  -8   62.07    4.39
   2  -2  -8   25.95    2.44
   2  -2  -8   29.44    2.46
   2   2   8   27.03    2.50
   2  -2   8   27.57    2.57
  -2   2   8   27.47    3.01
  -2  -2  -8   29.52    2.54
  -2   2   8   33.03    2.97
   2  -2   8   28.83    2.36
   2  -3  -8   33.35    2.91
   2   3   8   34.89    3.04
   2  -3  -8   35.13    3.06
  -2   3   8   32.16    3.32
  -2   3   8   41.38    3.78
  -2  -3  -8   34.55    3.22
  -2  -3  -8   33.30    3.02
   2  -3   8   32.99    3.01
   2  -4  -8   16.19    1.88
   2  -4  -8   12.09    1.76
   2   4   8   14.38    1.79
  -2   4   8   17.09    2.54
  -2   4   8   18.47    1.98
   2  -4   8   16.29    1.86
  -2  -4  -8   14.92    1.99
   2  -5  -8   19.55    2.22
   2   5   8   19.68    2.18
   2  -5  -8   19.98    2.33
  -2  -5  -8   18.16    2.43
  -2   5   8   17.82    3.19
   2  -6  -8    8.25    1.55
   3   0   8    3.37    0.95
  -3   0   8    1.51    0.77
   3   0   8    1.01    0.60
   3   0  -8    2.63    0.82
  -3  -1   8   15.42    1.73
   3   1   8   14.43    1.62
   3  -1  -8   16.63    1.49
   3  -1  -8   15.29    1.70
   3   1   8   16.05    2.00
   3  -1   8   15.12    1.52
   3   1  -8   17.35    1.68
   3   1  -8   14.25    1.80
  -3   1   8   17.44    1.98
   3  -1   8   19.48    1.84
   3  -2  -8    1.03    0.66
  -3  -2   8    1.69    0.64
   3   2   8    1.62    0.74
   3  -2  -8    1.48    0.72
   3  -2   8    0.78    0.50
  -3   2   8    2.79    1.29
  -3   2   8    0.54    0.96
   3  -2   8    0.71    0.76
  -3  -2  -8    2.31    0.78
   3   3   8    9.73    1.38
   3  -3  -8   10.95    1.33
  -3   3   8    5.75    1.57
  -3   3   8    6.91    1.61
   3  -3   8    9.86    1.39
   3  -4  -8    0.90    0.95
   3  -4  -8    0.37    1.00
   3   4   8    0.54    0.84
   3  -4   8    0.91    1.00
  -3   4   8   -0.86    1.52
  -3  -4  -8    1.53    1.12
   3   5   8    2.80    1.03
   3  -5  -8    2.62    1.27
   3  -5  -8    4.72    1.20
  -3   5   8    3.74    1.78
  -3  -5  -8    1.94    1.47
   3  -6  -8    0.69    1.16
   4   0   8   14.60    1.48
   4   0  -8   13.78    1.63
  -4   0   8   12.24    1.69
   4   0   8   12.32    1.66
   4   1   8   53.82    3.84
   4   1   8   36.30    4.04
   4  -1  -8   47.88    3.73
  -4  -1   8   47.21    4.14
   4  -1  -8   43.38    3.65
   4  -1   8   47.49    3.68
   4   1  -8   51.00    4.03
  -4   1   8   46.09    4.27
   4  -1   8   43.92    3.93
   4   1  -8   45.65    3.77
   4   2   8    9.22    1.33
   4  -2  -8    9.36    1.24
   4  -2   8   10.21    1.42
  -4   2   8    9.42    1.56
   4  -3  -8   38.11    3.05
   4   3   8   32.35    3.06
   4  -3   8   35.41    3.16
  -4   3   8   33.41    3.62
  -4   3   8   32.88    3.48
   4  -4  -8    4.69    1.20
   4   4   8    6.35    1.21
   4  -4   8    7.43    1.34
  -4   4   8    3.69    1.71
   4   5   8   19.68    2.18
   4  -5  -8   16.49    2.25
   4  -5  -8   19.09    2.39
   4  -5   8   20.18    2.34
  -4   5   8   17.39    3.15
   5   0   8   45.90    4.07
   5   0   8   48.64    3.83
   5   0  -8   51.32    4.31
   5   0  -8   41.39    3.79
  -5   0   8   47.26    4.32
  -5  -1   8    4.46    0.99
   5  -1  -8    3.18    0.94
   5   1   8    4.23    1.27
   5   1   8    2.98    0.94
   5  -1   8    2.38    0.75
  -5   1   8    4.34    1.18
   5   1  -8    4.75    0.98
   5  -1   8    3.99    1.16
   5   1  -8    3.69    1.05
   5  -2  -8   34.02    2.95
   5   2   8   34.36    3.04
   5  -2   8   33.75    3.19
  -5   2   8   36.12    3.51
   5   3   8    1.91    0.94
   5  -3  -8    2.59    1.07
  -5   3   8    3.83    1.36
   5  -3   8    1.78    1.16
  -5   3   8    2.42    1.38
   5  -4  -8   20.87    2.28
   5   4   8   20.37    2.21
   5  -4   8   19.67    2.38
  -5   4   8   17.71    2.85
   5  -5  -8   -0.73    1.29
  -5   5   8   -3.30    1.86
   5  -5   8   -0.32    1.27
   6   0  -8   36.63    3.34
  -6   0   8   41.68    3.82
   6   0  -8   44.77    3.88
   6   0   8   37.56    3.54
   6   0   8   35.01    3.25
   6   1   8    7.51    1.60
   6   1   8    5.75    1.13
   6  -1  -8    4.84    1.13
  -6  -1   8    5.56    1.27
   6  -1  -8    6.07    1.52
   6   1  -8    4.78    1.38
  -6   1   8    5.29    1.39
   6  -1   8    6.53    1.43
   6  -2  -8   33.02    2.88
   6   2   8   34.21    2.94
  -6   2   8   28.19    3.34
   6  -2   8   31.99    3.07
   6   3   8    3.95    1.07
   6  -3  -8    3.85    1.19
   6  -3   8    2.71    1.29
  -6   3   8    4.29    1.50
   6  -4  -8   21.57    2.52
   6   4   8   20.95    2.39
   6  -4   8   23.37    2.56
  -6   4   8   20.25    2.97
   6  -5   8    2.06    1.52
   7   0   8    2.60    0.98
  -7   0   8    0.59    1.28
   7   0   8    2.99    1.37
   7   0  -8    4.19    1.49
   7  -1  -8   24.75    3.31
   7  -1  -8   34.36    3.20
   7   1   8   31.93    3.28
   7   1   8   34.62    3.01
  -7  -1   8   32.60    3.33
   7  -1  -8   34.27    2.97
  -7   1   8   29.54    3.33
   7  -1   8   30.68    3.16
   7   2   8    1.40    1.13
   7  -2  -8    2.11    1.48
   7  -2  -8    3.50    1.39
   7  -2  -8    2.43    1.06
   7  -2   8    1.54    1.29
  -7   2   8    2.22    1.29
   7  -3  -8   26.29    2.71
   7   3   8   16.71    2.18
   7  -3  -8   21.48    2.28
  -7   3   8   19.54    2.80
   7  -3   8   19.32    2.45
   7  -4  -8   -0.71    1.22
   7  -4  -8    1.41    1.26
   7  -4   8    2.13    1.46
  -8   0   8    9.59    1.96
   8   0  -8    8.98    2.14
   8   0   8    8.67    1.90
   8  -1  -8    2.23    1.93
  -8  -1   8    6.64    1.64
   8  -1  -8    9.12    1.76
   8   1   8    8.33    1.92
   8   1   8    9.66    1.50
   8  -1   8    7.15    1.70
  -8   1   8    8.38    1.74
   8  -2  -8    4.93    1.42
   8  -2  -8    4.32    1.81
   8   2   8    8.65    1.62
  -8   2   8    6.43    1.70
   8  -2   8    7.35    1.61
   8  -3  -8    3.69    1.86
   8  -3  -8    4.39    1.50
  -8   3  -8   10.72    2.03
   8  -3   8    5.48    1.72
   9   0   8   10.65    1.93
  -9   0   8    8.09    2.07
   9   1   8   15.02    1.83
   9  -1   8   10.36    2.30
   9  -2  -8    3.63    1.76
   0   0   9    0.99    0.91
   0   0  -9    0.59    0.70
   0   0   9    0.35    0.84
   0   1   9   15.95    1.83
   0   1   9   14.60    2.04
   0  -1   9   13.46    1.75
   0  -1  -9   13.03    1.59
   0  -1   9   14.30    1.69
   0  -2  -9    1.09    0.69
   0   2   9    0.08    0.91
   0  -2  -9    0.27    0.68
   0   2   9   -1.24    0.98
   0  -2   9   -0.44    0.82
   0   3   9    7.81    1.39
   0   3   9    8.75    1.77
   0  -3   9    7.60    1.21
   0  -3  -9    7.07    1.27
   0  -3  -9    9.89    1.24
   0  -4  -9    1.26    0.91
   0  -4  -9    0.18    0.85
   0   4   9   -0.18    1.44
   0   4   9    1.27    0.90
   0   5   9    3.79    1.12
   0  -5  -9    4.68    1.24
   0   5   9    2.60    2.03
   0  -5  -9    1.38    1.12
  -1   0   9   27.27    2.99
   1   0  -9   32.64    2.71
  -1   0  -9   27.50    2.71
   1   0   9   30.58    2.73
   1   0   9   32.51    3.09
   1   1   9   22.07    2.12
   1  -1  -9   19.27    2.00
   1  -1  -9   16.96    1.88
  -1  -1   9   18.40    2.14
   1   1   9   21.90    2.50
   1  -1   9   18.08    2.11
   1  -1   9   22.25    2.01
  -1   1   9   15.50    2.31
  -1  -1  -9   23.52    2.08
   1   1  -9   21.34    2.21
  -1   1   9   21.69    2.29
   1   2   9   26.78    3.02
   1   2   9   25.94    2.45
   1  -2  -9   22.69    2.28
   1  -2  -9   26.83    2.34
   1  -2   9   24.06    2.31
  -1   2   9   28.06    2.68
  -1   2   9   22.91    2.85
   1  -2   9   24.56    2.39
  -1  -2  -9   21.24    2.44
  -1  -2  -9   24.96    2.37
   1   3   9   15.08    2.26
   1   3   9   15.13    1.76
   1  -3  -9   12.66    1.63
   1  -3  -9   13.26    1.73
  -1   3   9   14.44    2.23
  -1  -3  -9   12.13    1.56
  -1   3   9   14.90    2.01
   1  -3   9   14.99    1.71
  -1  -3  -9   14.59    1.80
   1   4   9   12.78    2.35
   1   4   9   12.49    1.70
   1  -4  -9   12.87    1.65
   1  -4  -9   13.36    1.82
  -1  -4  -9   14.68    1.76
  -1  -4  -9   13.64    1.87
  -1   4   9   14.48    2.53
  -1   4   9   14.41    1.82
   1   5   9    8.06    2.18
   1  -5  -9    8.69    1.45
   1   5   9    9.21    1.42
   1  -5  -9    6.69    1.59
  -1   5   9    6.33    2.25
  -1  -5  -9    7.60    1.52
  -2   0   9  164.18   14.34
   2   0   9  184.20   12.99
   2   0   9  168.38   13.34
   2   1   9   31.88    2.78
   2  -1  -9   32.69    2.70
  -2  -1   9   34.40    3.06
   2  -1  -9   29.84    2.75
  -2  -1  -9   31.81    2.78
   2  -1   9   32.99    2.90
   2   1  -9   33.01    2.89
   2  -1   9   28.46    2.70
  -2   1   9   33.45    3.08
  -2   1   9   31.97    3.21
   2  -2  -9  129.52    9.86
   2   2   9  142.97   10.20
   2  -2  -9  146.09   10.24
   2  -2   9  124.54   10.05
   2  -2   9  119.77   10.32
  -2   2   9  139.38   11.42
  -2   2   9  133.81   10.46
  -2  -2  -9  133.03    9.89
   2  -3  -9   19.12    2.06
   2  -3  -9   21.48    2.02
   2   3   9   19.78    2.07
  -2  -3  -9   16.98    2.27
  -2   3   9   16.35    2.35
  -2   3   9   19.90    2.75
  -2  -3  -9   20.45    2.15
   2  -3   9   23.06    2.09
   2   4   9   73.89    5.66
   2  -4  -9   63.67    5.68
   2  -4  -9   75.40    5.51
  -2   4   9   72.89    5.74
  -2  -4  -9   60.92    5.83
  -2   4   9   65.69    6.60
   2  -4   9   71.59    5.68
   2  -5  -9    9.02    1.70
   2  -5  -9   11.17    1.71
   2   5   9    9.56    1.58
  -2  -5  -9   12.64    1.97
  -2   5   9   11.17    2.62
   2  -6  -9   29.29    2.99
   3   0  -9  102.33    8.13
  -3   0   9  103.32    9.16
   3   0   9  117.85    8.60
   3   0   9  110.34    8.26
   3  -1  -9    7.33    0.94
   3   1   9    8.36    1.16
   3  -1  -9    9.43    1.24
  -3  -1   9    8.27    1.20
   3   1  -9    8.09    1.24
  -3   1   9    6.67    1.35
   3  -1   9    7.83    1.25
   3  -1   9    7.57    1.02
   3  -2  -9   76.81    6.27
   3  -2  -9   90.49    6.17
   3   2   9   80.38    6.31
  -3   2   9   80.68    7.11
   3  -2   9   86.48    6.12
  -3   2   9   72.91    6.59
   3  -2   9   72.30    6.40
   3  -3  -9    4.07    0.94
   3   3   9    4.47    1.08
   3  -3  -9    4.43    1.03
  -3   3   9    3.92    1.52
  -3   3   9    5.21    1.53
   3  -3   9    5.42    1.12
   3  -4  -9   48.12    4.08
   3   4   9   47.39    4.04
   3  -4  -9   44.97    3.91
  -3   4   9   52.18    5.08
   3  -4   9   43.96    4.04
   3   5   9    3.35    0.98
   3  -5  -9    4.25    1.21
   3  -5  -9    2.19    1.08
  -3  -5  -9    2.67    1.38
  -3   5   9    0.04    1.86
   4   0   9   -0.07    0.59
   4   0   9    0.32    0.96
   4   0  -9    0.89    0.88
  -4   0   9   -0.13    0.82
  -4  -1   9   11.73    1.50
   4   1   9    9.86    1.64
   4  -1  -9    8.52    1.30
   4   1   9    7.17    1.17
   4  -1  -9    8.56    1.00
   4   1  -9    9.73    1.30
   4   1  -9    8.49    1.27
   4  -1   9    8.40    1.37
  -4   1   9    9.18    1.46
   4  -1   9    8.68    1.11
   4  -2  -9    0.57    0.60
   4  -2  -9    0.70    0.80
   4   2   9    0.24    0.74
   4  -2   9    0.50    0.94
  -4   2   9    0.87    1.00
  -4   2   9    0.64    1.21
   4  -3  -9    5.45    1.13
   4  -3  -9    5.91    1.13
   4   3   9    4.74    1.14
  -4   3   9    4.72    1.56
   4  -3   9    4.26    1.23
  -4   3   9    4.82    1.66
   4  -4  -9    0.91    0.98
   4  -4  -9   -0.34    0.97
   4   4   9    0.86    0.89
   4  -4   9    0.77    1.12
  -4   4   9    0.53    1.73
   4  -5  -9    2.95    1.22
   4   5   9    0.25    1.14
   4  -5  -9    5.39    1.23
  -4   5   9    5.10    1.79
  -5   0   9    5.99    1.25
   5   0   9    8.13    1.42
   5   0  -9    7.00    1.53
   5   0  -9    6.50    1.31
   5   0   9    6.10    1.09
  -5  -1   9    1.63    0.83
   5   1   9   -0.50    0.75
   5  -1  -9    0.17    0.86
   5   1   9    0.41    1.15
   5  -1   9    0.31    1.06
   5   1  -9    1.63    0.90
   5   1  -9   -0.77    0.95
  -5   1   9   -0.64    0.87
   5  -1   9    1.29    0.64
   5   2   9    4.77    1.10
   5  -2  -9    4.50    1.04
   5  -2   9    4.01    1.19
  -5   2   9    4.38    1.25
   5  -3  -9   -0.25    0.89
   5   3   9    0.23    0.73
   5  -3   9    0.31    1.08
  -5   3   9    1.31    1.31
  -5   3   9    1.73    1.30
   5  -4  -9    3.76    1.25
   5   4   9    3.16    1.19
  -5   4   9    4.29    1.64
   5  -4   9    4.16    1.41
   5  -5  -9    2.59    1.22
   5  -5   9    1.76    1.31
  -5   5   9   -2.79    1.98
   6   0   9    1.72    0.92
  -6   0   9    2.86    1.17
   6   0  -9    2.71    1.19
   6   0  -9    1.48    1.26
   6   0   9    2.27    1.19
   6   1   9   30.08    3.40
  -6  -1   9   39.81    3.57
   6  -1  -9   36.39    3.18
   6  -1  -9   38.87    3.76
   6   1   9   34.00    3.12
  -6   1   9   31.11    3.54
   6  -1   9   40.98    3.45
   6  -2  -9    1.46    0.95
   6   2   9    1.19    0.91
  -6   2   9    1.69    1.32
   6  -2   9   -0.47    1.06
   6   3   9   25.17    2.60
   6  -3  -9   25.61    2.62
   6  -3   9   27.55    2.79
  -6   3   9   25.48    3.20
   6  -4  -9    2.58    1.21
   6   4   9   -0.65    1.11
   6  -4   9    0.93    1.34
  -6   4   9   -0.73    1.78
  -7   0   9   12.63    1.97
   7   0  -9   11.39    2.23
   7   0   9   12.71    1.63
   7   0   9   11.79    1.92
   7   1   9   27.64    3.21
   7   1   9   32.46    2.97
  -7  -1   9   31.82    3.29
   7  -1  -9   34.32    3.49
   7  -1  -9   30.68    3.03
  -7   1   9   31.32    3.42
   7  -1   9   32.45    3.26
   7  -2  -9   11.47    1.98
   7  -2  -9   11.36    1.63
   7   2   9    7.73    1.48
   7  -2   9    9.38    1.76
  -7   2   9    9.20    1.84
   7   3   9   22.71    2.48
   7  -3  -9   21.05    2.44
  -7   3   9   23.86    3.02
   7  -3   9   20.42    2.52
   7  -4  -9    7.22    1.77
   7  -4  -9    3.67    1.76
   7  -4   9    6.99    1.70
   8   0   9   -0.50    1.38
  -8   0   9    1.60    1.39
   8   0  -9    3.22    1.64
   8   1   9    3.22    1.34
   8   1   9    6.50    1.54
   8  -1  -9    1.22    1.59
   8  -1   9    5.31    1.63
  -8   1   9    4.26    1.54
   8  -2  -9    3.31    1.57
   8   2   9    0.60    1.09
   8  -2  -9    1.13    1.23
  -8   2   9    1.58    1.39
   8  -2   9    1.03    1.40
   8  -3  -9    3.51    1.39
   8  -3  -9    3.60    1.52
   8  -3   9    4.57    1.54
  -9   0   9    1.88    1.65
   9   0   9   -0.67    1.66
   9  -1   9   13.01    2.28
   9  -2  -9   -0.53    1.53
   0   0  10   52.06    4.46
   0   0  10   52.69    4.95
   0   0 -10   56.03    4.32
   0  -1  10    0.77    0.84
   0  -1 -10    0.15    0.75
   0  -1  10    1.07    0.93
   0   1  10    0.60    1.01
   0   1  10   -0.43    0.89
   0   2  10   33.31    3.25
   0  -2 -10   31.85    3.02
   0   2  10   30.89    3.53
   0  -2 -10   36.45    2.96
   0   3  10    0.24    0.97
   0  -3 -10    0.08    0.81
   0   3  10    0.63    1.31
   0  -3 -10   -0.64    0.83
   0  -3  10    0.92    0.91
   0  -4 -10   18.38    2.21
   0  -4 -10   17.39    2.11
   0   4  10   17.57    2.10
   0   4  10   17.63    2.78
   0  -5 -10    1.91    1.10
   0   5  10    2.66    0.87
   0  -5 -10   -1.37    1.19
   0   5  10    1.60    1.80
   1   0 -10  130.39    9.07
  -1   0  10  107.20    9.38
  -1   0 -10  119.46    9.05
  -1   0  10  120.98   10.29
   1   0  10  126.32    9.34
  -1  -1  10    1.71    0.91
   1   1  10    0.86    1.05
   1  -1 -10    1.97    0.84
   1   1  10    0.45    0.87
   1  -1  10    1.56    0.96
  -1  -1 -10    0.43    0.75
   1   1 -10    1.14    0.98
  -1   1  10    0.85    1.02
   1  -1  10    0.41    0.80
  -1   1  10    0.45    0.98
   1  -2 -10  102.52    7.33
   1  -2 -10   90.81    7.04
   1   2  10   91.66    8.27
   1   2  10   91.52    7.36
  -1  -2 -10   75.62    7.02
   1  -2  10  110.43    7.27
  -1   2  10   85.69    7.46
   1  -2  10  106.09    7.43
  -1   2  10   79.10    8.17
   1  -3 -10    0.31    0.77
   1   3  10   -1.52    0.83
   1   3  10    0.62    1.35
   1  -3 -10    0.92    0.82
  -1   3  10    0.81    1.39
  -1   3  10   -0.53    1.07
  -1  -3 -10    0.11    0.82
  -1  -3 -10    0.49    0.94
   1  -3  10   -0.56    0.83
   1  -4 -10   44.11    4.37
   1   4  10   54.58    4.43
   1  -4 -10   53.14    4.26
   1   4  10   55.29    5.29
  -1  -4 -10   52.56    4.29
  -1   4  10   45.94    5.17
  -1   4  10   59.07    4.52
  -1  -4 -10   46.13    4.49
   1  -5 -10    2.99    1.02
   1  -5 -10    0.61    1.03
   1   5  10    1.00    0.90
   1   5  10    0.09    1.72
  -1   5  10    0.48    1.87
  -1  -5 -10   -0.30    1.20
   2   0 -10    5.80    1.11
   2   0  10    7.66    1.18
   2   0  10    6.34    1.34
  -2   0  10    6.08    1.28
   2  -1 -10   61.73    5.52
  -2  -1  10   65.67    6.10
   2  -1 -10   66.09    5.48
   2   1  10   71.34    5.62
  -2   1  10   67.74    5.84
   2  -1  10   75.39    5.77
   2   1 -10   79.27    5.56
  -2   1  10   72.17    6.31
   2  -1  10   67.43    5.54
  -2  -1 -10   79.76    5.50
   2  -2 -10    5.40    1.04
   2  -2 -10    6.08    1.00
   2   2  10    4.99    1.10
  -2  -2 -10    5.29    1.07
  -2   2  10    6.74    1.58
   2  -2  10    4.57    1.08
  -2   2  10    7.41    1.62
   2  -2  10    6.12    1.02
   2  -3 -10   49.13    3.74
   2   3  10   43.33    3.70
   2  -3 -10   40.40    3.54
   2  -3  10   43.20    3.70
  -2   3  10   36.36    3.97
  -2   3  10   45.17    4.47
  -2  -3 -10   38.66    3.57
   2  -4 -10    3.06    1.11
   2   4  10    3.14    0.97
   2  -4 -10    2.88    1.12
  -2   4  10    3.18    1.32
  -2   4  10    2.06    1.75
   2  -4  10    2.20    1.12
  -2  -4 -10    2.92    1.25
   2   5  10   20.09    2.33
   2  -5 -10   19.74    2.55
   2  -5 -10   21.49    2.40
  -2  -5 -10   20.65    2.73
  -2   5  10   17.51    3.11
   2  -6 -10    1.67    1.31
   3   0  10   12.10    1.69
   3   0 -10    8.85    1.44
  -3   0  10   11.10    1.54
   3   0  10   11.07    1.36
   3   1  10   50.32    4.35
   3  -1 -10   53.72    4.34
  -3  -1  10   55.12    4.79
   3  -1 -10   51.59    4.28
   3  -1  10   58.51    4.30
   3   1 -10   63.75    4.39
  -3   1  10   42.12    4.87
   3  -1  10   54.79    4.54
   3  -2 -10    9.27    1.36
   3   2  10    8.57    1.38
   3  -2 -10    9.79    1.26
  -3  -2 -10   11.02    1.42
  -3   2  10   10.78    1.88
  -3   2  10   11.38    1.82
   3  -2  10   10.05    1.47
   3   3  10   32.33    3.26
   3  -3 -10   35.98    3.28
   3  -3 -10   38.26    3.26
   3  -3  10   39.05    3.39
  -3   3  10   37.68    3.71
  -3   3  10   42.26    4.10
   3  -4 -10    4.40    1.14
   3  -4 -10    4.95    1.21
   3   4  10    5.80    1.33
   3  -4  10    5.30    1.25
  -3   4  10    3.60    1.77
  -3   4  10    4.54    1.39
   3  -5 -10   21.65    2.51
   3  -5 -10   21.14    2.59
   3   5  10   21.80    2.42
  -3   5  10   24.68    3.50
   4   0  10   31.54    2.93
   4   0  10   27.82    2.53
   4   0 -10   23.05    2.69
  -4   0  10   30.94    2.94
   4  -1 -10    0.08    0.89
  -4  -1  10    1.08    0.80
   4   1  10   -0.01    0.70
  -4   1  10    0.37    0.97
   4  -1  10    0.38    1.00
   4   1 -10    2.46    0.90
   4  -1  10    0.74    0.66
   4   1 -10    0.87    0.85
   4  -2 -10   23.37    2.20
   4   2  10   24.16    2.33
   4  -2 -10   23.76    2.32
  -4   2  10   17.47    2.62
   4  -2  10   24.13    2.50
  -4   2  10   27.09    2.87
   4  -3 -10    0.97    0.90
   4   3  10   -0.25    0.82
   4  -3 -10    1.05    0.79
  -4   3  10   -0.10    1.23
   4  -3  10    0.14    1.05
  -4   3  10    0.62    1.43
   4  -4 -10   11.47    1.66
   4  -4 -10   11.37    1.71
   4   4  10   12.23    1.81
   4  -4  10   14.07    1.88
  -4   4  10   11.58    2.46
   4   5  10    0.20    1.04
   4  -5 -10   -0.10    1.19
  -4   5  10   -0.97    1.74
   5   0 -10   11.27    1.73
   5   0  10   11.77    1.50
  -5   0  10   13.77    1.80
   5   0  10   11.36    1.78
   5   0 -10   11.55    1.87
   5  -1 -10   47.72    3.85
  -5  -1  10   48.82    4.16
   5   1  10   43.54    3.75
   5   1  10   39.13    4.13
   5  -1  10   45.86    3.67
  -5   1  10   42.56    4.26
   5  -1  10   45.68    4.00
   5   1 -10   41.85    3.71
   5   2  10   11.00    1.55
   5  -2 -10    9.02    1.44
   5  -2  10   10.97    1.70
  -5   2  10   11.51    1.82
   5  -3 -10   27.84    2.83
   5   3  10   27.31    2.83
  -5   3  10   34.97    3.61
  -5   3  10   35.09    3.28
   5  -3  10   28.61    3.03
   5   4  10    6.35    1.42
   5  -4 -10    6.26    1.52
   5  -4  10    7.56    1.55
  -5   4  10    6.12    1.96
   5  -5  10   24.50    2.88
   6   0 -10    5.62    1.61
  -6   0  10    7.43    1.38
   6   0 -10    4.18    1.42
   6   0  10    4.66    1.07
   6   0  10    5.47    1.56
   6   1  10    7.33    1.30
   6  -1 -10    6.90    1.49
   6  -1 -10    8.94    1.78
  -6  -1  10    7.85    1.39
   6   1  10    6.54    1.75
   6  -1  10    6.92    1.55
  -6   1  10    6.21    1.60
   6  -2 -10    3.76    1.20
   6   2  10    4.77    1.14
   6  -2  10    3.94    1.34
  -6   2  10    4.31    1.46
   6   3  10    2.99    1.19
   6  -3 -10    4.98    1.32
   6  -3  10    4.90    1.51
  -6   3  10    2.39    1.55
   6  -4 -10    3.10    1.38
   6  -4  10    5.11    1.49
  -6   4  10    4.95    1.77
  -7   0  10   16.64    2.20
   7   0 -10   12.08    2.52
   7   0  10   16.50    2.34
   7   0  10   13.97    1.82
   7  -1 -10    7.19    1.53
   7   1  10    6.54    1.69
   7  -1 -10    6.54    1.88
   7   1  10    6.37    1.41
  -7   1  10    7.79    1.67
   7  -1  10    6.47    1.68
   7  -2 -10   12.30    1.78
   7  -2 -10   15.03    2.30
   7   2  10   13.45    1.88
  -7   2  10   12.70    2.17
   7  -2  10   13.98    2.13
   7  -3 -10    5.23    1.53
  -7   3  10    3.46    1.75
   7  -3  10    6.19    1.71
   8   0  10   11.21    2.08
  -8   0  10   10.88    1.85
   8   1  10   -0.21    1.02
   8   1  10    0.26    1.47
  -8   1  10    1.29    1.38
   8  -1  10   -1.39    1.45
   8  -2 -10   12.01    1.98
   8  -2 -10    7.42    1.50
   8  -2  10    5.92    1.82
  -8   2  10    1.81    1.76
   9   0  10    7.06    1.98
   9   1  10    9.75    2.24
   0   0 -11    1.97    0.91
   0   0  11    0.00    1.06
   0   0  11    0.61    0.95
   0  -1 -11   76.08    6.48
   0   1  11   84.03    7.53
   0  -1  11   90.11    6.75
   0   1  11   88.71    6.82
   0   2  11   -0.08    1.08
   0  -2 -11   -0.08    0.80
   0  -2 -11    0.71    0.88
   0   2  11   -0.90    1.17
   0  -2  11    0.85    0.99
   0  -3 -11   49.00    4.41
   0   3  11   50.52    4.55
   0   3  11   57.93    5.26
   0  -3  11   53.68    4.36
   0  -3 -11   46.97    4.21
   0  -4 -11    0.06    1.15
   0   4  11   -0.78    1.02
   0  -4 -11    0.24    1.04
   0   4  11   -0.44    1.63
   0   5  11   30.90    3.00
   0  -5 -11   27.81    3.25
   0   5  11   29.72    3.98
   0  -5 -11   25.58    3.10
   1   0  11   12.15    1.68
   1   0 -11   12.96    1.62
  -1   0  11   13.74    1.86
  -1   0  11   13.13    1.87
  -1   0 -11   13.87    1.66
   1   1  11   18.85    2.57
  -1  -1  11   17.26    2.26
   1  -1 -11   18.37    2.13
   1   1  11   18.10    2.14
  -1   1  11   17.24    2.50
  -1  -1 -11   17.62    1.97
   1  -1  11   20.47    2.07
  -1   1  11   18.53    2.31
   1   1 -11   20.94    2.23
   1  -2 -11   11.17    1.49
   1  -2 -11    8.88    1.39
   1   2  11   12.42    2.07
   1   2  11   10.16    1.65
   1  -2  11   13.97    1.66
   1  -2  11    9.21    1.52
  -1   2  11   11.00    1.98
  -1  -2 -11    8.50    1.39
  -1   2  11   13.22    1.95
   1  -3 -11   11.84    1.61
   1   3  11   14.88    2.37
   1   3  11   13.56    1.89
   1  -3 -11   13.49    1.72
  -1   3  11   10.68    2.02
   1  -3  11   14.19    1.78
  -1  -3 -11   11.12    1.77
  -1   3  11   13.62    2.36
  -1  -3 -11   11.20    1.70
   1  -4 -11    5.66    1.31
   1   4  11    6.08    1.51
   1  -4 -11    5.15    1.43
   1   4  11    6.22    2.08
  -1  -4 -11    7.25    1.57
  -1  -4 -11    5.70    1.41
  -1   4  11    5.33    1.91
  -1   4  11    5.76    1.53
   1   5  11    6.78    2.41
   1  -5 -11    6.30    1.44
   1   5  11    5.71    1.58
   1  -5 -11    3.00    1.62
  -1   5  11    9.71    2.40
  -1  -5 -11    6.45    1.74
   2   0  11   10.05    1.45
  -2   0  11    8.44    1.55
   2   0 -11    9.78    1.43
   2   1  11   29.63    2.92
   2  -1 -11   29.92    2.94
  -2  -1  11   33.72    3.21
  -2  -1 -11   37.11    2.95
   2  -1  11   31.68    2.86
  -2   1  11   26.01    3.29
   2   1 -11   37.89    2.99
   2  -1  11   26.52    3.05
  -2   1  11   34.02    3.23
   2  -2 -11    8.33    1.25
   2  -2 -11    8.34    1.34
   2   2  11    8.80    1.43
  -2   2  11    6.83    1.69
   2  -2  11    9.27    1.29
   2  -2  11    6.85    1.35
  -2   2  11   11.60    1.92
  -2  -2 -11   10.03    1.32
   2  -3 -11   24.41    2.30
   2  -3 -11   20.70    2.27
   2   3  11   20.80    2.37
  -2   3  11   22.10    2.83
  -2  -3 -11   22.99    2.40
  -2   3  11   21.23    3.01
   2  -3  11   20.92    2.30
   2   4  11    5.71    1.31
   2  -4 -11    5.14    1.17
   2  -4 -11    8.50    1.46
  -2   4  11    4.42    1.50
  -2   4  11    4.73    2.15
   2   5  11   10.35    1.79
   2  -5 -11   14.48    1.97
  -2   5  11   14.00    2.60
   3   0  11    5.70    1.37
   3   0  11    6.19    1.08
  -3   0  11    5.51    1.29
   3   0 -11    4.20    1.15
   3  -1 -11    1.34    1.01
   3  -1 -11    2.37    0.77
  -3  -1  11    2.06    1.06
   3   1  11    2.57    0.86
  -3   1  11    1.04    1.17
   3   1 -11    3.97    1.09
   3  -1  11    2.26    0.85
   3  -1  11    3.25    1.16
   3   2  11    3.89    1.11
   3  -2 -11    5.51    1.02
   3  -2 -11    5.20    1.18
  -3   2  11    4.91    1.56
  -3   2  11    6.79    1.59
  -3  -2 -11    5.78    1.14
   3  -2  11    4.71    1.20
   3  -3 -11    1.37    0.99
   3  -3 -11    2.69    1.04
   3   3  11    3.02    1.10
  -3   3  11    3.08    1.45
   3  -3  11    1.90    1.12
  -3   3  11    2.06    1.65
   3  -4 -11    4.00    1.27
   3   4  11    4.76    1.28
   3  -4 -11    3.69    1.23
  -3   4  11    3.81    1.36
   3  -4  11    4.79    1.30
  -3   4  11    3.75    1.79
   3  -5 -11   -0.80    1.18
   3   5  11   -1.66    1.13
  -3   5  11   -0.53    2.09
  -4   0  11   10.60    1.63
   4   0  11    7.17    1.56
   4   0 -11    7.52    1.41
   4   0  11    8.78    1.29
   4   1  11   25.84    2.53
  -4  -1  11   24.82    2.78
   4  -1 -11   23.14    2.64
   4  -1  11   27.33    2.45
   4   1 -11   27.10    2.61
  -4   1  11   31.35    3.08
   4  -1  11   27.95    2.76
   4  -2 -11    7.23    1.29
   4   2  11    5.53    1.14
   4  -2  11    7.41    1.44
  -4   2  11    7.42    1.59
  -4   2  11    5.43    1.61
   4   3  11   17.25    2.01
   4  -3 -11   14.10    1.91
   4  -3 -11   18.06    2.02
   4  -3  11   17.43    2.23
  -4   3  11   19.34    2.71
  -4   3  11   16.87    2.43
   4   4  11    3.94    1.32
   4  -4 -11    3.66    1.24
   4  -4 -11    4.36    1.38
   4  -4  11    4.64    1.54
  -4   4  11    2.05    2.04
   4  -5 -11    7.95    1.80
  -4   5  11    8.53    2.48
   5   0  11    2.92    1.45
  -5   0  11    3.39    1.25
   5   0 -11    3.75    1.29
   5   0  11    2.98    0.97
   5  -1 -11   29.69    2.76
   5   1  11   27.86    3.09
  -5  -1  11   30.84    2.97
   5   1  11   25.70    2.60
   5   1 -11   28.50    2.69
  -5   1  11   25.70    3.06
   5  -1  11   25.72    2.82
   5   2  11    3.32    1.10
   5  -2 -11    3.69    1.19
  -5   2  11    2.10    1.39
   5  -2  11    1.65    1.22
  -5   2  11    2.43    1.46
   5  -3 -11   13.85    2.04
   5   3  11   19.51    2.23
  -5   3  11   23.16    2.62
   5  -3  11   19.21    2.42
  -5   3  11   19.92    2.67
   5   4  11    1.97    1.18
   5  -4 -11    2.62    1.39
  -5   4  11    0.05    1.89
   5  -4  11    2.54    1.42
   6   0  11   27.50    2.64
   6   0 -11   25.47    2.94
   6   0  11   30.75    3.20
  -6   0  11   27.75    3.12
   6   0 -11   33.92    3.37
   6  -1 -11   39.93    3.91
   6   1  11   35.38    3.69
   6   1  11   34.54    3.20
   6  -1 -11   35.56    3.34
   6  -1  11   33.00    3.45
  -6   1  11   37.81    3.76
   6   2  11   21.30    2.29
   6  -2 -11   22.39    2.40
   6  -2  11   22.73    2.57
  -6   2  11   22.08    2.79
   6  -3 -11   17.58    2.41
   6   3  11   21.97    2.48
  -6   3  11   27.37    3.32
   6  -3  11   30.52    2.89
   6  -4 -11   12.19    2.14
   6  -4  11   16.58    2.22
  -7   0  11    1.46    1.48
   7   0  11    1.76    1.64
   7  -1 -11    2.94    1.32
   7  -1 -11    2.90    1.59
   7   1  11    1.97    1.63
   7   1  11    3.80    1.14
   7  -1  11    0.54    1.39
  -7   1  11    2.52    1.46
   7  -2 -11    0.88    1.24
   7   2  11    2.64    1.09
  -7   2  11    1.06    1.57
   7  -2  11    1.89    1.40
   7  -3 -11    2.42    1.37
   7  -3  11   -1.24    1.57
   8   0  11   -1.12    1.74
  -8   0  11   -4.16    1.38
   8   1  11    3.50    1.17
   8   1  11    4.20    1.77
   8  -1  11    3.39    1.54
  -8   1  11    0.30    1.58
   8  -2 -11   -1.98    1.46
   8  -2 -11    5.96    1.75
   8  -2  11   -0.25    1.40
   0   0  12   84.61    6.16
   0   0  12   71.48    6.70
   0   0 -12   70.73    5.85
   0  -1 -12    0.60    0.85
   0   1  12   -0.39    1.13
   0   1  12    0.22    0.95
   0  -1  12    0.79    0.97
   0   2  12   50.62    5.12
   0  -2  12   51.87    4.45
   0   2  12   58.58    4.77
   0  -2 -12   49.27    4.37
   0  -3 -12   -0.12    1.03
   0  -3 -12    0.18    0.96
   0   3  12   -0.49    1.22
   0   3  12    0.38    1.42
   0   4  12   38.09    3.54
   0  -4 -12   32.60    3.40
   0   4  12   36.78    4.20
   0  -4 -12   31.11    3.26
   0  -5 -12    1.09    1.21
   0   5  12    0.66    1.91
   0   5  12   -2.04    1.17
  -1   0  12   31.30    3.15
   1   0  12   35.98    3.09
  -1   0 -12   34.93    3.01
   1   0 -12   30.30    2.91
  -1   0  12   30.00    3.35
  -1  -1  12   21.09    2.51
   1  -1 -12   17.19    2.25
   1   1  12   25.69    2.85
   1   1  12   19.06    2.36
  -1   1  12   19.00    2.66
  -1  -1 -12   21.09    2.21
  -1   1  12   24.26    2.53
   1  -1  12   22.48    2.28
   1  -2 -12   25.60    2.67
   1  -2 -12   25.20    2.70
   1   2  12   26.49    2.85
   1   2  12   27.47    3.25
  -1  -2 -12   26.49    2.67
   1  -2  12   28.18    2.66
   1  -2  12   26.65    2.81
  -1   2  12   30.93    3.05
  -1   2  12   27.49    3.32
   1   3  12   12.96    1.98
   1  -3 -12   10.52    1.60
   1   3  12   11.10    2.15
   1  -3 -12   10.86    1.62
  -1  -3 -12   10.79    1.65
   1  -3  12   11.63    1.70
  -1   3  12   12.37    2.19
  -1   3  12   11.32    2.05
   1  -4 -12   15.07    2.03
   1  -4 -12   14.63    2.00
   1   4  12   19.16    2.90
   1   4  12   14.68    2.13
  -1   4  12   13.46    2.24
  -1  -4 -12   13.45    2.04
  -1  -4 -12   10.88    2.08
  -1   4  12   16.18    2.66
   1  -5 -12    2.86    1.59
   1   5  12    5.69    1.62
  -1   5  12    9.01    2.43
   2   0 -12    6.05    1.22
  -2   0  12    4.08    1.34
   2   0  12    5.35    1.21
   2   1  12   36.02    3.37
  -2  -1  12   40.33    3.67
   2  -1 -12   34.65    3.35
  -2   1  12   31.26    3.78
  -2  -1 -12   41.14    3.32
   2  -1  12   37.23    3.29
   2   1 -12   39.62    3.35
  -2   1  12   40.08    3.63
   2  -1  12   34.15    3.54
   2  -2 -12    4.35    1.16
   2   2  12    3.38    1.19
   2  -2 -12    2.42    1.01
   2  -2  12    3.88    1.23
  -2   2  12    4.77    1.53
  -2  -2 -12    5.93    1.14
  -2   2  12    4.54    1.58
   2  -2  12    6.80    1.14
   2  -3 -12   26.66    2.71
   2  -3 -12   22.47    2.59
   2   3  12   28.36    2.80
  -2   3  12   33.95    3.28
  -2  -3 -12   28.52    2.74
   2  -3  12   24.77    2.75
  -2   3  12   23.88    3.36
   2  -4 -12    1.37    1.29
   2  -4 -12    1.50    1.09
   2   4  12    2.25    1.32
  -2   4  12    2.58    1.40
  -2   4  12    1.38    1.92
   2  -5 -12   16.50    2.23
   2   5  12   16.57    2.28
  -2   5  12   17.15    3.02
   3   0  12   16.66    2.02
   3   0 -12   18.94    2.20
  -3   0  12   21.68    2.53
   3   0  12   20.95    2.46
   3   1  12    1.52    0.96
  -3  -1  12    2.47    1.07
   3  -1 -12    2.19    1.19
   3  -1  12    1.18    1.10
  -3   1  12    2.06    1.30
  -3   1  12    1.53    1.30
   3  -1  12    1.37    0.91
   3   1 -12    1.34    0.99
   3   2  12   11.81    1.82
   3  -2 -12   14.26    1.81
   3  -2 -12   14.26    1.86
  -3  -2 -12   18.66    2.07
   3  -2  12   13.44    1.89
  -3   2  12   17.98    2.47
  -3   2  12   14.01    2.19
   3   3  12    0.63    1.12
   3  -3 -12    0.79    0.96
   3  -3 -12    1.04    0.97
  -3   3  12    3.12    1.44
  -3   3  12    1.84    1.47
   3  -3  12    1.15    1.09
   3  -4 -12    7.25    1.55
   3   4  12    7.84    1.65
   3  -4 -12   10.61    1.46
  -3   4  12    8.91    2.35
   3  -4  12   10.06    1.67
  -3   4  12    7.64    1.70
   3  -5 -12    0.86    1.23
  -3   5  12   -2.52    2.11
   4   0  12    0.61    0.87
   4   0  12    0.43    1.32
  -4   0  12    1.36    1.09
   4   0 -12   -0.54    0.98
   4   1  12   63.45    5.57
   4  -1 -12   62.58    5.58
  -4  -1  12   71.32    6.18
   4   1 -12   79.18    5.52
   4  -1  12   70.98    5.84
   4  -1  12   70.45    5.52
  -4   1  12   65.21    6.29
   4   2  12    2.22    0.95
   4  -2 -12    0.13    1.12
  -4   2  12    1.30    1.41
  -4   2  12    1.37    1.41
   4  -2  12   -0.86    1.06
   4   3  12   44.32    4.12
   4  -3 -12   45.42    4.00
  -4   3  12   51.44    4.39
   4  -3  12   47.86    4.23
  -4   3  12   44.49    4.86
   4   4  12   -0.11    1.19
   4  -4 -12   -1.12    1.12
  -4   4  12    3.30    1.72
   4  -4  12    1.42    1.34
   5   0 -12    4.07    1.32
   5   0  12    3.97    1.53
  -5   0  12    2.24    1.38
   5   0  12    3.16    1.02
   5  -1 -12   20.91    2.53
   5   1  12   21.63    2.23
  -5   1  12   22.99    2.86
   5   1 -12   21.44    2.39
   5  -1  12   19.66    2.51
   5   2  12    2.36    1.04
   5  -2 -12    1.36    1.28
  -5   2  12    3.01    1.57
  -5   2  12    4.57    1.43
   5  -2  12    4.44    1.45
   5   3  12   15.67    1.99
   5  -3 -12   13.34    1.90
   5  -3  12   15.57    2.11
  -5   3  12   11.64    2.35
  -5   3  12   10.99    2.21
   5  -4 -12   -0.47    1.36
   5  -4  12    1.68    1.38
  -5   4  12   -2.83    1.93
   6   0 -12    8.34    1.67
   6   0  12    6.45    1.77
   6   0  12   10.17    1.42
  -6   0  12    9.44    1.74
   6   1  12    2.73    1.13
   6  -1 -12    2.10    1.38
   6  -1  12    3.05    1.52
  -6   1  12    1.59    1.27
   6  -2 -12    7.91    1.64
   6   2  12    6.74    1.29
  -6   2  12    6.18    1.74
  -6   2  12    3.70    1.85
   6  -2  12    6.63    1.70
   6   3  12    0.62    1.09
   6  -3 -12    1.70    1.26
   6  -3  12    1.45    1.42
   6  -4  12    4.28    1.62
  -7   0  12   -1.74    1.41
   7   0  12    2.14    1.50
   7  -1 -12    0.76    1.43
   7  -1 -12    9.09    1.72
   7   1  12   -1.39    1.10
   7  -1  12    3.51    1.65
  -7   1  12   -0.78    1.45
   7  -2 -12    1.29    1.31
   7   2  12   -1.69    1.12
  -7   2  12    0.63    1.48
   7  -2  12   -0.45    1.49
   7  -3 -12   -0.10    1.20
   7  -3  12    0.14    1.48
  -8   0  12   30.84    3.54
   8   0  12   28.48    3.32
  -8   1  12    8.01    2.21
   8  -1  12   11.43    2.16
   8  -2 -12   38.44    4.05
   0   0  13    1.08    1.04
   0   0 -13    0.95    0.96
   0   0  13   -0.23    1.15
   0   1  13   29.79    3.34
   0   1  13   31.09    2.94
   0  -1 -13   24.73    2.69
   0  -1  13   29.23    2.85
   0   2  13   -1.00    1.19
   0  -2  13    0.67    1.11
   0  -2 -13    1.07    0.98
   0   2  13   -0.37    1.34
   0  -3 -13   16.50    2.13
   0   3  13   20.37    2.84
   0   3  13   15.93    2.42
   0  -3 -13   15.18    2.10
   0   4  13   -1.37    1.81
   0  -4 -13   -0.75    1.21
   0   4  13   -2.09    1.38
   0  -4 -13   -0.07    1.21
   0   5  13   11.49    2.48
   0   5  13    8.69    1.92
   0  -5 -13   10.94    2.09
   1   0  13   87.05    6.96
  -1   0  13   86.51    7.68
  -1   0  13   85.44    7.03
   1   0 -13   88.33    6.72
   1  -1 -13    0.47    1.02
   1   1  13    0.65    1.29
  -1  -1  13    0.15    1.12
   1   1  13    0.67    1.01
  -1  -1  13    2.00    1.23
  -1   1  13   -0.31    1.19
   1  -1  13    0.23    0.97
  -1   1  13    1.17    1.17
  -1  -1 -13    1.30    0.96
   1  -2 -13   59.36    5.59
   1   2  13   78.68    6.61
   1   2  13   73.76    5.92
  -1   2  13   59.08    6.43
  -1  -2 -13   74.43    5.58
   1  -2  13   74.26    5.71
  -1   2  13   69.63    5.98
   1  -3 -13    1.50    1.09
   1  -3 -13    0.38    1.11
   1   3  13    1.95    1.67
   1   3  13   -0.12    1.25
   1  -3  13    0.38    1.22
  -1   3  13    0.50    1.38
  -1   3  13    1.16    1.56
  -1  -3 -13    0.54    1.06
   1  -4 -13   34.71    3.56
   1   4  13   32.62    3.70
   1  -4 -13   37.24    3.69
   1   4  13   47.65    4.61
  -1   4  13   36.34    3.88
  -1  -4 -13   39.83    3.73
  -1   4  13   41.75    4.54
   1  -5 -13    0.65    1.29
   1   5  13    5.05    1.20
  -1   5  13    1.13    2.14
  -2   0  13    3.11    1.36
  -2   0  13    5.35    1.53
   2   0 -13    4.04    1.11
   2   0  13    4.66    1.25
   2   1  13    2.26    1.05
  -2  -1  13    1.17    1.08
   2  -1 -13    1.13    1.05
  -2  -1 -13    1.60    0.98
  -2   1  13    1.00    1.31
   2   1 -13    1.03    1.07
  -2   1  13    2.76    1.28
   2  -1  13    2.22    0.98
   2   2  13    4.12    1.29
   2  -2 -13    2.33    1.22
   2  -2 -13    2.07    1.06
  -2   2  13    5.30    1.55
  -2   2  13    2.11    1.56
   2  -2  13    2.29    1.34
  -2  -2 -13    5.33    1.17
   2  -2  13    6.22    1.21
   2  -3 -13    1.25    1.11
   2  -3 -13    0.61    0.95
   2   3  13    1.24    1.24
  -2  -3 -13    2.91    1.09
  -2   3  13    1.01    1.76
  -2   3  13    1.41    1.59
   2  -3  13    2.94    1.19
   2  -4 -13    2.09    1.32
   2  -4 -13    0.68    1.20
   2   4  13    2.49    1.51
  -2   4  13    2.39    1.80
  -2   4  13    3.41    1.52
   2  -5 -13   -2.46    1.43
  -2   5  13    2.03    2.00
   3   0  13   66.82    5.21
  -3   0  13   56.54    5.78
   3   0 -13   66.62    5.17
   3   1  13   44.75    3.88
   3  -1 -13   39.48    3.93
  -3  -1  13   45.11    4.29
  -3   1  13   37.88    4.43
   3  -1  13   46.85    3.82
  -3   1  13   45.95    4.22
   3   1 -13   47.71    3.81
   3  -1  13   43.36    4.10
   3  -2 -13   47.67    4.29
   3   2  13   48.24    4.35
  -3   2  13   47.86    4.57
  -3   2  13   50.56    5.06
   3  -2  13   55.43    4.51
   3   3  13   27.68    3.07
   3  -3 -13   31.03    2.98
   3  -3 -13   27.66    2.94
  -3   3  13   31.35    3.71
  -3   3  13   36.82    3.43
   3  -3  13   27.48    3.04
   3  -4 -13   33.46    3.29
   3   4  13   34.40    3.47
   3  -4 -13   30.33    3.22
  -3   4  13   29.28    3.36
  -3   4  13   32.31    4.17
   3  -5 -13   16.09    2.37
   4   0  13   12.94    1.83
   4   0  13   16.35    2.30
  -4   0  13   15.47    2.21
   4   0 -13   14.22    1.95
   4  -1 -13    2.72    1.42
   4   1  13    3.14    1.15
   4  -1  13    2.96    1.09
  -4   1  13    2.91    1.59
   4  -1  13    2.38    1.32
   4   1 -13    4.40    1.15
   4   2  13   11.15    1.74
   4  -2 -13   11.20    1.81
  -4   2  13   15.64    2.36
   4  -2  13   10.69    1.84
  -4   2  13   12.08    2.12
   4  -3 -13    2.37    1.38
   4   3  13    1.64    1.28
  -4   3  13    2.12    1.84
   4  -3  13    2.29    1.35
  -4   3  13    3.75    1.46
   4   4  13    7.95    1.82
   4  -4 -13    8.84    1.68
   4  -4  13    8.03    1.69
  -4   4  13    9.97    2.31
   5   0  13    0.47    1.49
   5   0  13    0.63    1.03
  -5   0  13    1.40    1.14
   5   0 -13    1.41    1.27
   5   1  13    4.91    1.29
   5  -1 -13    3.93    1.56
   5   1 -13    5.71    1.32
  -5   1  13    6.21    1.61
   5  -1  13    5.80    1.68
   5   2  13    0.62    1.02
   5  -2 -13    0.81    1.24
   5  -2  13    0.30    1.34
  -5   2  13    1.59    1.47
  -5   2  13    2.71    1.46
   5   3  13    3.26    1.36
   5  -3 -13    2.60    1.52
  -5   3  13   -0.28    1.57
   5  -3  13    4.74    1.45
  -5   3  13    3.36    1.90
   5  -4 -13    0.64    1.32
   5  -4  13    1.28    1.54
   6   0  13    0.18    1.55
   6   0 -13    1.50    1.41
   6   0  13   -2.27    1.01
  -6   0  13   -2.91    1.36
   6  -1 -13    1.57    1.53
   6   1  13    1.98    1.27
  -6   1  13    2.98    1.68
   6  -1  13    4.94    1.75
   6  -2 -13    1.78    1.27
   6   2  13   -0.02    1.06
  -6   2  13    3.56    1.42
  -6   2  13    0.18    1.50
   6  -2  13    0.08    1.39
   6  -3 -13    1.21    1.53
   6  -3  13    2.08    1.56
  -6   3  13    1.79    1.71
  -7   0  13    0.75    1.45
   7   0  13    2.83    1.57
   7  -1 -13   24.70    3.15
   7   1  13   28.89    2.89
  -7   1  13   24.01    3.44
   7  -1  13   30.74    3.26
   7  -2 -13    2.71    1.36
  -7   2  13    3.83    1.62
   7  -2  13    0.40    1.54
   8   0  13    9.19    2.09
   0   0  14    8.11    1.52
   0   0  14    6.42    1.66
   0   0 -14    7.21    1.34
   0   1  14    0.41    1.11
   0  -1  14    0.01    1.15
   0   1  14   -0.63    1.29
   0  -1 -14    0.25    0.90
   0  -2 -14    5.26    1.40
   0   2  14    6.69    1.64
   0  -2  14    7.09    1.52
   0   2  14    7.39    1.84
   0   3  14   -0.40    1.57
   0  -3 -14    0.84    1.19
   0   3  14    1.54    1.40
   0   4  14    5.14    2.04
   0  -4 -14    1.59    1.32
   0   4  14    0.15    1.62
   0  -4 -14    3.11    1.60
  -1   0  14   66.10    5.67
   1   0  14   61.69    5.58
  -1   0  14   66.76    6.17
   1   0 -14   75.57    5.45
  -1  -1  14    1.49    1.22
   1   1  14    2.12    1.13
  -1  -1  14    1.91    1.26
   1   1  14    1.87    1.49
   1  -1 -14    1.66    1.10
   1  -1  14    4.03    1.24
  -1  -1 -14    0.99    0.92
  -1   1  14    2.51    1.28
  -1   1  14    1.74    1.37
   1   2  14   60.33    5.41
  -1  -2  14   49.50    4.70
   1  -2 -14   40.76    4.44
   1   2  14   56.32    4.80
   1  -2  14   57.75    4.60
  -1   2  14   53.70    5.33
  -1   2  14   61.54    4.91
  -1  -2 -14   51.27    4.40
   1  -3 -14   -0.29    1.06
   1   3  14   -0.14    1.34
   1  -3 -14    1.20    1.31
   1   3  14    0.36    1.70
  -1   3  14    0.53    1.58
  -1   3  14    3.66    1.53
  -1  -3 -14    1.35    1.18
   1  -4 -14   27.86    3.22
   1   4  14   26.99    3.30
   1  -4 -14   31.79    3.28
   1   4  14   33.29    3.94
  -1  -4 -14   33.28    3.20
  -1   4  14   27.95    3.93
  -1   4  14   28.46    3.44
   1  -5 -14   -0.56    1.44
  -2   0  14   -0.33    1.18
   2   0  14    0.99    1.17
   2   0 -14   -0.04    0.92
  -2   0  14    0.40    1.30
   2   1  14    1.28    1.08
  -2  -1  14    0.49    1.23
   2  -1 -14    2.67    1.23
   2  -1  14    2.15    1.07
   2   1 -14    1.97    1.11
  -2   1  14    0.72    1.45
  -2   1  14    2.79    1.37
   2   2  14    0.22    1.13
   2  -2 -14   -1.04    1.13
   2  -2  14   -0.22    1.29
  -2  -2 -14    0.85    0.98
  -2   2  14    1.60    1.42
  -2   2  14   -1.12    1.50
   2   3  14    1.14    1.29
   2  -3 -14    0.26    1.22
   2  -3 -14   -0.17    1.04
  -2   3  14    2.86    1.43
   2  -3  14    1.95    1.41
  -2   3  14    1.14    1.79
  -2  -3 -14    2.42    1.02
   2   4  14   -1.43    1.40
   2  -4 -14    2.33    1.21
   2  -4 -14    1.88    1.28
  -2   4  14    2.49    1.47
  -2   4  14    2.32    1.79
   2  -5 -14    2.72    1.44
  -3   0  14   -0.92    1.25
   3   0 -14    1.66    1.09
   3   0  14    0.64    1.04
   3   1  14   11.08    1.72
   3  -1 -14    7.53    1.67
   3  -1  14   12.18    1.66
  -3   1  14   10.90    2.04
  -3   1  14   10.26    1.93
   3   1 -14   10.31    1.57
   3  -1  14   11.04    1.98
   3  -2 -14   -0.49    1.26
   3   2  14   -0.08    1.10
  -3   2  14    0.61    1.49
   3  -2  14    2.12    1.29
  -3   2  14    2.47    1.60
   3   3  14    8.15    1.75
   3  -3 -14    7.88    1.58
  -3   3  14    9.88    2.28
  -3   3  14    7.18    1.85
   3  -3  14    8.24    1.70
   3  -4 -14    1.35    1.37
   3   4  14   -1.85    1.57
  -3   4  14    3.62    1.55
  -3   4  14    1.16    2.08
   4   0  14    2.04    1.15
  -4   0  14    2.27    1.54
   4   0 -14    1.93    1.28
   4  -1 -14   12.04    2.11
   4   1  14   15.23    2.03
  -4   1  14   16.63    2.59
   4  -1  14   17.73    2.03
   4   1 -14   17.74    2.09
   4  -1  14   16.01    2.39
  -4   1  14   12.55    2.29
   4  -2 -14    1.50    1.36
   4   2  14    0.72    1.13
  -4   2  14    0.86    1.75
   4  -2  14    1.15    1.40
  -4   2  14    2.38    1.52
   4  -3 -14    8.26    1.78
   4   3  14   10.71    2.03
   4  -3  14   14.38    2.10
  -4   3  14   13.37    2.56
  -4   3  14   11.14    2.10
   4  -4 -14   -0.07    1.43
   4  -4  14    1.39    1.44
   5   0 -14   35.99    3.46
   5   0  14   32.63    3.31
   5   0  14   36.77    3.73
  -5   0  14   34.60    3.89
   5  -1 -14   16.09    2.51
   5   1  14   20.26    2.42
  -5   1  14   21.59    2.97
   5  -1  14   19.99    2.62
   5   1 -14   25.71    2.43
   5  -2 -14   24.49    3.01
   5   2  14   29.84    2.86
   5  -2  14   30.20    3.14
  -5   2  14   21.53    3.14
  -5   2  14   29.11    3.60
   5  -3 -14   14.08    2.14
   5   3  14   13.85    2.20
  -5   3  14   15.17    2.89
   5  -3  14   16.05    2.32
  -5   3  14   12.00    2.13
   5  -4  14   22.57    2.95
  -6   0  14    3.38    1.44
   6   0  14    2.23    1.73
   6   0 -14   -0.03    1.46
   6  -1 -14    0.82    1.59
   6   1  14    2.01    1.31
  -6   1  14    3.94    1.65
   6  -1  14    5.49    1.59
   6   2  14    0.07    1.29
   6  -2 -14    1.79    1.48
  -6   2  14    0.32    1.59
  -6   2  14    6.18    1.67
   6  -2  14    0.70    1.50
   6  -3 -14    0.37    1.47
   6  -3  14    2.05    1.68
   7   0  14    7.55    2.07
   7   1  14   -1.66    1.18
   7  -1 -14    1.90    1.59
   7  -1  14    3.73    1.61
  -7   1  14    5.86    1.49
   7  -2 -14    7.13    1.87
   7  -2  14    5.90    1.82
   0   0 -15    0.69    1.03
   0   0  15   -1.00    1.33
   0   0  15    0.63    1.16
   0   1  15   95.73    8.06
   0  -1  15   92.42    7.22
   0  -1 -15   84.79    6.92
   0   1  15   83.37    7.22
   0  -2 -15   -0.09    1.12
   0   2  15    1.43    1.27
   0   2  15    0.41    1.51
   0  -2  15    0.24    1.29
   0  -3 -15   52.25    4.75
   0   3  15   57.98    5.64
   0   3  15   56.19    5.12
   0   4  15    1.00    1.86
   0  -4 -15    1.57    1.38
   0   4  15   -3.47    1.53
   1   0 -15    0.62    1.02
  -1   0  15    0.33    1.35
   1   0  15    1.20    1.19
  -1   0  15    0.35    1.21
  -1  -1  15   10.72    1.90
   1   1  15    8.45    1.65
   1  -1 -15    7.40    1.49
  -1   1  15   11.13    2.10
  -1   1  15   10.32    1.80
   1  -1  15   11.20    1.74
  -1  -1 -15   10.57    1.57
   1   2  15   -0.06    1.41
  -1  -2  15    1.48    1.32
   1   2  15    1.73    1.28
   1  -2 -15    0.36    1.12
  -1  -2 -15    0.23    0.99
  -1   2  15   -0.94    1.51
   1  -2  15    0.77    1.17
  -1   2  15    1.31    1.29
   1   3  15    4.19    1.70
   1   3  15    5.91    1.93
   1  -3 -15    8.57    1.73
  -1   3  15    6.22    2.10
  -1   3  15    7.86    1.83
  -1  -3 -15    5.54    1.56
   1  -4 -15   -0.11    1.29
   1  -4 -15   -0.08    1.49
   1   4  15    0.07    1.42
   1   4  15   -3.15    1.88
  -1   4  15    0.55    1.98
  -1   4  15   -3.41    1.40
  -1  -4 -15   -0.89    1.33
   2   0  15    0.48    1.16
  -2   0  15    0.82    1.30
  -2   0  15    1.95    1.50
   2   0 -15    1.26    1.16
   2  -1 -15    9.69    1.70
   2   1  15    7.90    1.61
  -2  -1  15    7.67    1.86
  -2   1  15    9.53    1.98
  -2   1  15    7.03    1.77
   2  -1  15    9.61    1.57
   2   2  15   -0.95    1.13
   2  -2 -15   -0.86    1.23
  -2   2  15   -0.30    1.49
  -2   2  15    1.19    1.44
  -2  -2 -15    0.16    1.03
   2   3  15    4.60    1.60
   2  -3 -15    4.53    1.69
  -2   3  15    7.71    2.00
  -2   3  15    8.91    1.84
  -2  -3 -15    8.20    1.51
   2  -4 -15   -0.95    1.39
   2   4  15    0.88    1.60
   2  -4 -15    1.39    1.29
  -2   4  15    4.01    1.50
  -2   4  15    1.84    1.87
  -3   0  15   18.84    2.56
  -3   0  15   14.83    2.37
   3   0  15   14.73    2.05
   3   0 -15   16.43    2.04
   3   1  15    1.34    1.23
   3  -1 -15    3.94    1.48
   3   1 -15    4.94    1.27
  -3   1  15    0.01    1.56
  -3   1  15    2.05    1.49
   3  -1  15    3.45    1.23
   3  -2 -15   12.63    2.11
   3   2  15   12.14    1.98
  -3   2  15   15.34    2.40
  -3   2  15   14.00    2.53
   3  -2  15   14.25    2.20
   3   3  15    3.37    1.51
   3  -3 -15    2.86    1.49
   3  -3  15    3.99    1.58
  -3   3  15    1.81    2.11
  -3   3  15    3.12    1.63
   3  -4 -15    8.68    1.87
  -3   4  15    6.51    2.08
   4   0 -15   16.85    2.12
  -4   0  15   19.08    2.62
   4   0  15   15.72    2.16
   4  -1 -15   18.11    2.46
   4   1  15   18.22    2.33
  -4   1  15   16.39    2.75
   4   1 -15   21.69    2.28
  -4   1  15   19.03    2.71
   4  -1  15   21.14    2.67
   4  -2 -15   14.34    2.25
   4   2  15   14.80    2.15
  -4   2  15   15.60    2.73
   4  -2  15   13.78    2.19
  -4   2  15   11.74    2.17
   4  -3 -15   12.50    2.11
   4   3  15   12.07    2.20
  -4   3  15   13.77    2.16
   4  -3  15   14.79    2.14
  -4   3  15   11.70    2.59
   5   0  15    2.73    1.42
   5   0 -15    6.39    1.54
  -5   0  15    2.54    1.86
   5   1  15   -2.84    1.19
   5  -1 -15    1.23    1.38
   5  -1  15   -0.54    1.55
  -5   1  15   -0.06    1.58
   5   1 -15   -1.33    1.03
  -5   1  15   -2.19    1.69
   5  -2 -15    4.08    1.74
   5   2  15    4.46    1.35
   5  -2  15    4.89    1.56
  -5   2  15    4.81    1.65
  -5   2  15    1.39    2.03
   5  -3 -15    0.14    1.45
  -5   3  15    0.99    1.29
   5  -3  15   -1.90    1.61
   6   0 -15   17.00    2.25
   6   1  15   10.27    1.93
   6  -1 -15   11.12    1.94
   6  -1  15   15.42    2.37
  -6   1  15   10.15    2.53
   6  -2 -15    9.15    2.15
   6  -2  15   16.36    2.34
  -6   2  15   11.76    2.63
   7  -1 -15    5.32    1.72
   0   0  16    1.38    1.52
   0   0 -16    2.39    1.14
   0   0  16    0.56    1.12
   0  -1  16    1.28    1.25
   0   1  16   -0.07    1.19
   0   1  16    0.35    1.39
   0  -1 -16    0.64    1.11
   0   2  16    2.72    1.33
   0  -2  16   -2.08    1.31
   0   2  16    0.39    1.60
   0  -2 -16    0.84    1.10
   0  -3 -16    0.35    1.34
   0   3  16   -1.55    1.61
   0   3  16    2.78    1.60
   0   4  16   -0.44    1.85
   0  -4 -16    1.99    1.40
   0   4  16   -3.15    1.72
   1   0 -16    6.47    1.45
   1   0  16    6.16    1.47
  -1   0  16    8.03    1.80
  -1   0  16    7.57    1.74
   1  -1 -16    0.32    1.01
  -1  -1  16   -0.11    1.36
   1   1  16    2.20    1.20
  -1   1  16    0.34    1.50
  -1  -1 -16    1.26    1.02
  -1   1  16   -1.09    1.22
   1  -1  16    0.70    1.17
   1   2  16    6.90    1.63
   1   2  16    8.16    2.12
  -1  -2  16    2.46    1.55
   1  -2 -16    5.32    1.54
  -1   2  16    5.20    1.82
  -1  -2 -16    6.41    1.40
  -1   2  16    9.03    2.07
   1  -3 -16    0.49    1.20
   1   3  16   -2.38    1.68
   1   3  16    0.47    1.56
  -1   3  16   -0.21    1.76
  -1  -3 -16    1.22    1.07
  -1   3  16    0.60    1.63
   1  -4 -16    1.71    1.61
  -1   4  16    2.46    2.12
  -1  -4 -16    0.32    1.54
  -1   4  16    3.51    1.79
   2   0  16   20.35    2.42
  -2   0  16   18.64    2.68
  -2   0  16   18.65    2.60
   2   0 -16   22.15    2.41
   2  -1 -16   96.42    7.39
   2   1  16   88.12    7.55
  -2  -1  16   92.38    7.73
   2  -1  16  103.99    7.57
  -2   1  16   92.26    7.68
  -2   1  16   86.70    8.39
   2  -2 -16   12.72    2.08
  -2  -2  16   16.50    2.45
   2   2  16   15.06    2.25
  -2  -2 -16   15.01    1.94
  -2   2  16   13.23    2.32
  -2   2  16   17.58    2.66
   2  -3 -16   52.17    5.44
   2   3  16   62.41    5.71
  -2   3  16   65.12    6.42
  -2  -3 -16   76.53    5.39
   2  -4 -16    7.67    2.10
  -3   0  16   -0.01    1.49
   3   0  16    1.77    1.24
   3   0 -16    1.97    1.25
  -3   0  16   -0.12    1.44
   3   1  16    0.57    1.26
   3  -1 -16    1.28    1.44
  -3   1  16    1.65    1.50
   3  -1  16    2.94    1.25
  -3   1  16   -0.25    1.72
   3  -2 -16   -0.16    1.27
   3   2  16   -2.04    1.10
  -3   2  16    1.40    1.38
  -3   2  16    0.91    1.87
   3  -3 -16   -1.74    1.42
   3   3  16    0.38    1.43
  -3   3  16   -1.27    2.02
   3  -3  16   -0.80    1.50
  -3   3  16    2.49    1.44
   4   0 -16    5.08    1.45
  -4   0  16    6.06    1.88
   4   0  16    4.40    1.39
  -4   0  16    3.32    1.76
   4   1  16    5.42    1.50
   4  -1 -16    4.06    1.66
   4   1 -16    7.02    1.51
  -4   1  16    2.49    1.87
  -4   1  16    5.05    1.93
   4   2  16    3.04    1.47
   4  -2 -16    1.91    1.63
  -4   2  16    1.71    1.80
   4  -2  16    7.03    1.84
  -4   2  16    0.71    1.90
   4  -3 -16    0.37    1.64
  -4   3  16    3.84    2.13
   4  -3  16    4.67    1.85
  -4   3  16    6.36    1.79
   5   0  16    0.99    1.30
   5   0 -16    1.79    1.28
   5   1  16    0.32    1.51
   5  -1 -16    3.75    1.66
  -5   1  16    5.80    1.83
  -5   1  16    3.16    1.98
   5   1 -16    3.43    1.35
   5  -1  16    3.25    1.84
   5  -2 -16   -0.65    1.62
  -5   2  16    0.38    1.53
  -5   2  16    0.86    1.84
   5  -2  16    1.45    1.69
   5  -3  16    6.22    1.76
   6   0 -16   35.62    3.45
   6  -1 -16   -2.65    1.48
   6  -1  16    2.92    1.82
  -6   1  16   -4.01    1.91
   0   0  17   -0.86    1.16
   0  -1  17   33.22    3.31
   0   1  17   26.92    3.22
   0  -1 -17   32.20    3.11
   0   1  17   36.50    3.89
   0  -2  17    1.44    1.32
   0  -2 -17   -0.51    0.99
   0   2  17    1.12    1.65
   0   2  17    2.56    1.33
   0   3  17   19.64    2.85
   0  -3 -17   23.19    2.79
   0   3  17   24.29    3.32
   0  -4 -17   -1.91    1.46
   1   0  17    5.62    1.49
  -1   0  17    3.37    1.49
  -1   0  17    4.56    1.59
   1   0 -17    2.84    1.32
  -1  -1  17   11.50    2.15
   1   1  17    9.36    1.84
   1  -1 -17   10.50    1.77
  -1  -1 -17   14.04    1.87
  -1   1  17   13.09    2.35
  -1   1  17    9.70    1.98
   1  -1  17   13.60    2.01
   1   2  17    3.03    1.37
   1  -2 -17    2.80    1.50
  -1  -2  17    6.17    1.70
  -1  -2 -17    5.53    1.36
  -1   2  17    4.85    1.52
  -1   2  17    4.28    1.95
   1   3  17    9.54    2.21
   1  -3 -17    8.91    1.88
  -1  -3 -17   10.19    1.69
  -1   3  17    8.47    2.36
  -1   3  17    8.63    2.24
   1  -4 -17    3.64    1.50
  -2   0  17    0.35    1.42
  -2   0  17    3.27    1.62
   2   0  17    2.97    1.29
   2   0 -17    1.49    1.27
  -2  -1  17    0.03    1.56
   2   1  17    0.44    1.23
   2  -1 -17    1.84    1.22
   2  -1  17   -0.17    1.33
  -2   1  17    0.35    1.39
  -2   1  17    1.36    1.73
   2  -2 -17   -1.33    1.28
  -2  -2  17    1.25    1.57
   2   2  17   -1.79    1.28
  -2  -2 -17    0.88    1.16
  -2   2  17    2.05    1.51
  -2   2  17    0.37    1.71
   2  -3 -17    2.80    1.38
   2   3  17   -0.34    1.48
  -2   3  17    2.23    1.50
  -2   3  17   -0.82    1.93
  -2  -3 -17   -1.26    1.20
   3   0  17   41.27    3.93
  -3   0  17   41.62    4.24
   3   0 -17   41.59    3.83
  -3   0  17   45.29    4.47
   3  -1 -17    1.09    1.44
   3   1  17    0.33    1.30
  -3  -1  17   -0.09    1.59
  -3   1  17    1.15    1.50
  -3   1  17    3.78    1.67
   3   2  17   35.50    3.36
   3  -2 -17   24.29    3.29
  -3   2  17   34.31    4.00
  -3   2  17   31.35    3.48
   3  -3 -17   -0.60    1.51
   4   0  17    5.11    1.51
   4   0 -17    3.97    1.58
  -4   0  17    7.29    2.08
   4   1  17    5.67    1.61
   4  -1 -17    9.09    1.94
  -4   1  17    7.23    1.98
  -4   1  17   10.49    2.47
   4  -2 -17    4.19    1.62
  -4   2  17    5.20    1.97
  -4   2  17    3.04    2.25
   4  -3  17    6.27    2.03
   5   0 -17    7.60    1.79
   5  -1 -17   -2.14    1.51
  -5   1  17    1.73    1.78
   5  -2 -17    5.86    1.73
   5  -2  17    4.84    1.96
   6   0 -17   -1.38    1.57
   6  -1 -17   -1.75    1.61
   0   0  18    1.12    1.35
   0  -1  18    0.77    1.39
   0  -1 -18    1.77    1.20
   0   1  18    2.04    1.29
   0   1  18   -0.99    1.52
   0   2  18   -1.44    1.40
   0   2  18   -1.37    1.80
   0  -2 -18   -0.81    1.19
   0  -3 -18    3.17    1.26
   0   3  18   -3.79    1.87
  -1   0  18   28.87    3.36
   1   0  18   33.29    3.34
   1   0 -18   34.11    3.25
  -1   0  18   36.56    3.89
   1  -1 -18    1.46    1.30
  -1  -1  18   -2.37    1.53
   1   1  18    0.98    1.47
  -1   1  18    1.38    1.37
   1  -1  18    1.62    1.23
  -1   1  18    0.72    1.68
   1  -2 -18   26.61    2.93
  -1  -2  18   29.42    3.32
   1   2  18   23.93    3.04
  -1   2  18   27.41    3.19
  -1   2  18   30.35    3.74
  -1  -2 -18   32.07    3.04
   1  -3 -18   -0.87    1.43
  -1  -3 -18   -0.10    1.34
   2   0 -18    6.01    1.49
  -2   0  18    4.28    1.85
   2   0  18    6.79    1.55
   2  -1 -18    3.40    1.52
   2   1  18    5.15    1.57
  -2  -1  18    7.46    1.87
  -2   1  18    5.40    1.67
   2  -1  18    4.50    1.49
  -2   1  18    5.11    1.92
   2   2  18    3.91    1.58
  -2  -2  18    4.36    1.88
   2  -2 -18    2.51    1.61
  -2   2  18    5.22    1.66
  -2   2  18    5.22    2.02
   2  -3 -18    4.83    1.79
  -3   0  18    1.46    1.54
   3   0  18   -1.32    1.20
   3   0 -18    1.12    1.34
  -3  -1  18    3.80    1.62
   3   1  18    2.88    1.40
   3  -1 -18    6.43    1.52
  -3   1  18    2.10    1.80
  -3   1  18    5.54    1.91
  -3  -2  18   -0.60    1.80
   3  -2 -18   -0.74    1.59
  -3   2  18    1.64    1.75
   4   0 -18   -0.90    1.24
   4   0  18   -1.11    1.36
   4   1  18    1.31    1.34
   4  -1 -18    1.09    1.42
  -4   1  18   -3.59    1.89
   4  -2 -18    1.29    1.69
   5   0 -18   30.12    3.22
   5  -1 -18   11.09    2.06
   0   0  19   -0.87    1.43
   0   1  19   44.36    4.52
   0  -1  19   51.79    4.59
   0  -1 -19   52.95    4.39
   0  -2 -19   -0.61    1.15
   0   2  19    2.12    1.87
   0  -3 -19   38.72    3.77
   1   0  19   19.74    2.31
  -1   0  19   14.03    2.30
   1  -1 -19    1.51    1.37
   1   1  19   -0.95    1.26
  -1  -1  19    2.31    1.52
   1  -1  19    2.29    1.30
  -1   1  19    1.67    1.30
  -1   1  19   -0.98    1.65
  -1  -2  19   10.92    2.37
   1  -2 -19   11.80    1.97
  -1  -2 -19   11.08    1.83
  -1   2  19   14.71    2.68
  -1  -3 -19    0.99    1.29
   2   0  19    1.88    1.31
  -2   0  19   -0.25    1.65
   2   0 -19    1.79    1.41
   2   1  19    2.66    1.51
  -2  -1  19    1.95    1.70
   2  -1 -19    2.59    1.55
  -2   1  19    3.17    1.52
  -2   1  19    1.36    1.93
  -2  -2  19    0.79    1.58
   2  -2 -19    2.95    1.37
  -2   2  19   -3.01    1.86
   3   0 -19   10.15    1.85
   3   0  19    9.02    1.92
   3  -1 -19    8.07    1.85
  -3   1  19    8.06    2.28
   4   0 -19   25.70    2.97
   4  -1 -19    7.72    1.88
  -4   1  19   12.49    2.25
   0   0  20    8.40    1.66
   0  -1  20    1.06    1.40
   0  -2 -20    6.40    1.69
   1   0  20    0.75    1.42
   1  -1 -20    7.62    1.70
   1  -1  20   12.23    1.83
  -1   1  20    7.23    2.21
  -1  -2 -20    2.03    1.28
   2  -1 -20   22.89    2.81
  -2   1  20   21.29    3.22
   3   0 -20    6.53    1.77
   0   0   0    0.00    0.00
;
_shelx_hkl_checksum              66133
_shelx_shelxl_version_number     2014/7
_olex2_submission_special_instructions 'No special instructions were received'
loop_
_symmetry_equiv_pos_as_xyz
'x, y, z'
'-x+1/2, -y, z+1/2'
'x+1/2, -y+1/2, -z+1/2'
'-x, y+1/2, -z'
'-x, -y, -z'
'x-1/2, y, -z-1/2'
'-x-1/2, y-1/2, z-1/2'
'x, -y-1/2, z'
loop_
_atom_site_label
_atom_site_type_symbol
_atom_site_fract_x
_atom_site_fract_y
_atom_site_fract_z
_atom_site_U_iso_or_equiv
_atom_site_adp_type
_atom_site_occupancy
_atom_site_site_symmetry_order
_atom_site_calc_flag
_atom_site_refinement_flags_posn
_atom_site_refinement_flags_adp
_atom_site_refinement_flags_occupancy
Rb1 Rb 0.37413(15) 0.2500 0.65349(8) 0.0130(2) Uani 1 2 d S T P
Cu2 Cu -0.07465(19) 0.2500 0.53337(10) 0.0104(3) Uani 1 2 d S T P
Te3 Te 0.17383(10) 0.2500 0.37790(5) 0.0106(2) Uani 1 2 d S T P
loop_
_atom_site_aniso_label
_atom_site_aniso_U_11
_atom_site_aniso_U_22
_atom_site_aniso_U_33
_atom_site_aniso_U_23
_atom_site_aniso_U_13
_atom_site_aniso_U_12
Rb1 0.0115(5) 0.0120(5) 0.0156(5) 0.000 -0.0005(3) 0.000
Cu2 0.0108(6) 0.0051(5) 0.0153(6) 0.000 0.0007(4) 0.000
Te3 0.0129(3) 0.0051(3) 0.0138(3) 0.000 0.0032(2) 0.000
loop_
_atom_type_symbol
_atom_type_description
_atom_type_scat_dispersion_real
_atom_type_scat_dispersion_imag
_atom_type_scat_source
Rb Rb -0.9393 2.9676 'International Tables Vol C Tables 4.2.6.8 and 6.1.1.4'
Cu Cu 0.3201 1.2651 'International Tables Vol C Tables 4.2.6.8 and 6.1.1.4'
Te Te -0.5308 1.6751 'International Tables Vol C Tables 4.2.6.8 and 6.1.1.4'
loop_
_geom_angle_atom_site_label_1
_geom_angle_atom_site_label_2
_geom_angle_atom_site_label_3
_geom_angle
_geom_angle_site_symmetry_1
_geom_angle_site_symmetry_3
Rb1 Rb1 Rb1 102.78(5) 6_657 6_557
Rb1 Rb1 Te3 136.39(3) 6_657 5_556
Rb1 Rb1 Te3 53.208(11) 6_557 5_556
Cu2 Rb1 Rb1 143.050(15) 5_556 6_657
Cu2 Rb1 Rb1 165.66(4) 1_655 6_557
Cu2 Rb1 Rb1 90.69(2) 5_556 6_557
Cu2 Rb1 Rb1 62.87(2) 1_655 6_657
Cu2 Rb1 Rb1 67.58(2) . 6_557
Cu2 Rb1 Rb1 143.050(15) 5_566 6_657
Cu2 Rb1 Rb1 170.36(5) . 6_657
Cu2 Rb1 Rb1 90.69(2) 5_566 6_557
Cu2 Rb1 Cu2 40.93(2) . 5_566
Cu2 Rb1 Cu2 101.07(3) 5_556 1_655
Cu2 Rb1 Cu2 40.93(2) . 5_556
Cu2 Rb1 Cu2 101.07(3) 5_566 1_655
Cu2 Rb1 Cu2 69.37(3) 5_556 5_566
Cu2 Rb1 Cu2 126.76(5) . 1_655
Cu2 Rb1 Te3 41.67(3) . .
Cu2 Rb1 Te3 78.81(2) 5_566 5_556
Cu2 Rb1 Te3 108.50(3) . 2
Cu2 Rb1 Te3 37.890(16) . 5_556
Cu2 Rb1 Te3 38.721(17) 5_556 .
Cu2 Rb1 Te3 108.50(3) . 2_565
Cu2 Rb1 Te3 38.721(17) 5_566 .
Cu2 Rb1 Te3 37.90(2) 5_556 5_556
Cu2 Rb1 Te3 136.93(2) 1_655 5_556
Cu2 Rb1 Te3 129.82(3) . 5_656
Cu2 Rb1 Te3 129.82(3) . 5_666
Te3 Rb1 Rb1 133.85(3) 5_656 6_557
Te3 Rb1 Rb1 64.06(3) 2 6_657
Te3 Rb1 Rb1 133.85(3) 5_666 6_557
Te3 Rb1 Rb1 64.06(3) 2_565 6_657
Te3 Rb1 Rb1 55.42(2) 2 6_557
Te3 Rb1 Rb1 56.621(12) 5_656 6_657
Te3 Rb1 Rb1 109.25(2) . 6_557
Te3 Rb1 Rb1 55.42(2) 2_565 6_557
Te3 Rb1 Rb1 147.97(3) . 6_657
Te3 Rb1 Rb1 56.621(12) 5_666 6_657
Te3 Rb1 Cu2 39.467(14) 5_666 1_655
Te3 Rb1 Cu2 131.69(4) 5_656 5_566
Te3 Rb1 Cu2 89.28(2) 5_666 5_566
Te3 Rb1 Cu2 114.00(3) 2_565 1_655
Te3 Rb1 Cu2 89.28(2) 5_656 5_556
Te3 Rb1 Cu2 39.467(14) 5_656 1_655
Te3 Rb1 Cu2 114.00(3) 2 1_655
Te3 Rb1 Cu2 98.479(19) 2 5_556
Te3 Rb1 Cu2 85.10(3) . 1_655
Te3 Rb1 Cu2 131.69(4) 5_666 5_556
Te3 Rb1 Cu2 98.479(19) 2_565 5_566
Te3 Rb1 Cu2 144.65(3) 2_565 5_556
Te3 Rb1 Cu2 144.65(3) 2 5_566
Te3 Rb1 Te3 137.067(17) 2 .
Te3 Rb1 Te3 78.969(19) 5_666 2_565
Te3 Rb1 Te3 137.067(17) 2_565 .
Te3 Rb1 Te3 98.97(3) 5_656 .
Te3 Rb1 Te3 110.521(7) 5_656 5_556
Te3 Rb1 Te3 108.50(3) 2_565 5_556
Te3 Rb1 Te3 67.96(2) . 5_556
Te3 Rb1 Te3 73.08(2) 5_666 5_656
Te3 Rb1 Te3 166.66(4) 5_666 5_556
Te3 Rb1 Te3 98.97(3) 5_666 .
Te3 Rb1 Te3 120.51(3) 5_656 2_565
Te3 Rb1 Te3 120.51(3) 5_666 2
Te3 Rb1 Te3 71.89(2) 2_565 2
Te3 Rb1 Te3 72.750(19) 2 5_556
Te3 Rb1 Te3 78.969(19) 5_656 2
Rb1 Cu2 Rb1 139.07(2) . 5_556
Rb1 Cu2 Rb1 127.46(3) 5_566 6_557
Rb1 Cu2 Rb1 127.46(3) 5_556 6_557
Rb1 Cu2 Rb1 78.93(3) 5_556 1_455
Rb1 Cu2 Rb1 78.93(3) 5_566 1_455
Rb1 Cu2 Rb1 139.07(2) . 5_566
Rb1 Cu2 Rb1 61.21(3) 1_455 6_557
Rb1 Cu2 Rb1 126.76(5) . 1_455
Rb1 Cu2 Rb1 69.37(3) 5_556 5_566
Rb1 Cu2 Rb1 65.55(3) . 6_557
Cu2 Cu2 Rb1 116.81(7) 5_556 5_566
Cu2 Cu2 Rb1 80.71(6) 5_556 .
Cu2 Cu2 Rb1 119.24(5) 5_566 1_455
Cu2 Cu2 Rb1 58.36(5) 5_566 5_566
Cu2 Cu2 Rb1 112.23(6) 5_566 6_557
Cu2 Cu2 Rb1 116.81(7) 5_566 5_556
Cu2 Cu2 Rb1 119.24(5) 5_556 1_455
Cu2 Cu2 Rb1 80.71(6) 5_566 .
Cu2 Cu2 Rb1 58.36(5) 5_556 5_556
Cu2 Cu2 Rb1 112.23(6) 5_556 6_557
Cu2 Cu2 Cu2 118.00(10) 5_566 5_556
Cu2 Cu2 Te3 59.48(5) 5_566 .
Cu2 Cu2 Te3 61.71(3) 5_566 5_566
Cu2 Cu2 Te3 61.71(3) 5_556 5_556
Cu2 Cu2 Te3 59.48(5) 5_556 .
Cu2 Cu2 Te3 170.21(9) 5_556 5_566
Cu2 Cu2 Te3 170.21(9) 5_566 5_556
Te3 Cu2 Rb1 78.09(3) . 5_566
Te3 Cu2 Rb1 151.96(5) . 1_455
Te3 Cu2 Rb1 71.94(2) 5_556 5_556
Te3 Cu2 Rb1 131.21(4) 5_566 5_556
Te3 Cu2 Rb1 61.32(3) 5_566 6_557
Te3 Cu2 Rb1 81.28(4) . .
Te3 Cu2 Rb1 146.83(5) . 6_557
Te3 Cu2 Rb1 89.69(4) 5_566 .
Te3 Cu2 Rb1 65.34(3) 5_566 1_455
Te3 Cu2 Rb1 89.69(3) 5_556 .
Te3 Cu2 Rb1 61.32(3) 5_556 6_557
Te3 Cu2 Rb1 78.09(3) . 5_556
Te3 Cu2 Rb1 131.21(4) 5_556 5_566
Te3 Cu2 Rb1 65.34(3) 5_556 1_455
Te3 Cu2 Rb1 71.94(2) 5_566 5_566
Te3 Cu2 Te3 121.19(3) 5_566 .
Te3 Cu2 Te3 121.19(3) 5_556 .
Te3 Cu2 Te3 116.69(5) 5_566 5_556
Rb1 Te3 Rb1 166.66(4) 5_656 5_566
Rb1 Te3 Rb1 62.74(2) 2_564 5_566
Rb1 Te3 Rb1 112.04(2) . 5_556
Rb1 Te3 Rb1 110.521(7) 5_656 5_556
Rb1 Te3 Rb1 62.74(2) 2_554 5_556
Rb1 Te3 Rb1 141.936(11) 2_564 .
Rb1 Te3 Rb1 67.96(2) 5_656 2_554
Rb1 Te3 Rb1 98.96(2) 2_564 5_556
Rb1 Te3 Rb1 141.936(11) 2_554 .
Rb1 Te3 Rb1 63.039(17) 5_556 5_566
Rb1 Te3 Rb1 108.88(2) 5_656 2_564
Rb1 Te3 Rb1 81.03(3) 5_656 .
Rb1 Te3 Rb1 71.89(2) 2_554 2_564
Rb1 Te3 Rb1 108.88(2) 5_666 2_554
Rb1 Te3 Rb1 98.96(2) 2_554 5_566
Rb1 Te3 Rb1 112.04(2) . 5_566
Rb1 Te3 Rb1 81.03(3) 5_666 .
Rb1 Te3 Rb1 110.521(7) 5_666 5_566
Rb1 Te3 Rb1 73.08(2) 5_666 5_656
Rb1 Te3 Rb1 67.96(2) 5_666 2_564
Rb1 Te3 Rb1 166.66(4) 5_666 5_556
Cu2 Te3 Rb1 69.34(3) 5_566 .
Cu2 Te3 Rb1 64.01(3) . 5_556
Cu2 Te3 Rb1 106.27(3) 5_566 5_556
Cu2 Te3 Rb1 148.29(4) 5_556 2_564
Cu2 Te3 Rb1 125.90(3) . 2_554
Cu2 Te3 Rb1 52.42(3) 5_566 5_566
Cu2 Te3 Rb1 52.42(3) 5_556 5_556
Cu2 Te3 Rb1 69.34(3) 5_556 .
Cu2 Te3 Rb1 148.29(4) 5_566 2_554
Cu2 Te3 Rb1 125.22(3) . 5_666
Cu2 Te3 Rb1 106.27(3) 5_556 5_566
Cu2 Te3 Rb1 57.05(3) . .
Cu2 Te3 Rb1 81.45(3) 5_566 2_564
Cu2 Te3 Rb1 64.01(3) . 5_566
Cu2 Te3 Rb1 125.90(3) . 2_564
Cu2 Te3 Rb1 139.28(4) 5_566 5_656
Cu2 Te3 Rb1 139.28(4) 5_556 5_666
Cu2 Te3 Rb1 75.19(3) 5_566 5_666
Cu2 Te3 Rb1 81.45(3) 5_556 2_554
Cu2 Te3 Rb1 75.19(3) 5_556 5_656
Cu2 Te3 Rb1 125.22(3) . 5_656
Cu2 Te3 Cu2 116.69(5) 5_566 5_556
Cu2 Te3 Cu2 58.81(3) 5_566 .
Cu2 Te3 Cu2 58.81(3) 5_556 .
loop_
_geom_bond_atom_site_label_1
_geom_bond_atom_site_label_2
_geom_bond_distance
_geom_bond_site_symmetry_2
Rb1 Rb1 4.1372(13) 6_557
Rb1 Rb1 4.1372(13) 6_657
Rb1 Cu2 3.8448(13) 5_566
Rb1 Cu2 3.9094(16) 1_655
Rb1 Cu2 3.8448(13) 5_556
Rb1 Cu2 3.3168(16) .
Rb1 Te3 3.7272(10) 2_565
Rb1 Te3 4.1853(10) 5_556
Rb1 Te3 3.7272(10) 2
Rb1 Te3 3.6751(10) 5_666
Rb1 Te3 3.9067(12) .
Rb1 Te3 3.6751(10) 5_656
Cu2 Rb1 4.2012(17) 6_557
Cu2 Rb1 3.8448(13) 5_556
Cu2 Rb1 3.8448(13) 5_566
Cu2 Rb1 3.9094(16) 1_455
Cu2 Cu2 2.5526(13) 5_556
Cu2 Cu2 2.5526(13) 5_566
Cu2 Te3 2.5704(7) 5_556
Cu2 Te3 2.6276(14) .
Cu2 Te3 2.5704(7) 5_566
Te3 Rb1 3.6751(10) 5_666
Te3 Rb1 3.6751(10) 5_656
Te3 Rb1 3.7272(10) 2_554
Te3 Rb1 3.7272(10) 2_564
Te3 Rb1 4.1853(10) 5_566
Te3 Rb1 4.1853(10) 5_556
Te3 Cu2 2.5704(7) 5_566
Te3 Cu2 2.5704(7) 5_556
