#------------------------------------------------------------------------------
#$Date: 2018-09-27 07:13:35 +0300 (Thu, 27 Sep 2018) $
#$Revision: 211196 $
#$URL: file:///home/coder/svn-repositories/cod/cif/4/12/46/4124627.cif $
#------------------------------------------------------------------------------
#
# This file is available in the Crystallography Open Database (COD),
# http://www.crystallography.net/
#
# All data on this site have been placed in the public domain by the
# contributors.
#
data_4124627
loop_
_publ_author_name
'Ivanova, Maria V.'
'Mercier, H\'el\`ene P A'
'Schrobilgen, Gary J.'
_publ_section_title
;
 [XeOXeOXe](2+), the Missing Oxide of Xenon(II); Synthesis, Raman
 Spectrum, and X-ray Crystal Structure of [XeOXeOXe][\m-F(ReO2F3)2]2.
;
_journal_issue                   41
_journal_name_full               'Journal of the American Chemical Society'
_journal_page_first              13398
_journal_page_last               13413
_journal_paper_doi               10.1021/jacs.5b08765
_journal_volume                  137
_journal_year                    2015
_chemical_formula_sum            'F14 O10 Re4 Xe3'
_chemical_formula_weight         1564.70
_space_group_crystal_system      triclinic
_space_group_IT_number           2
_space_group_name_Hall           '-P 1'
_space_group_name_H-M_alt        'P -1'
_symmetry_space_group_name_Hall  '-P 1'
_symmetry_space_group_name_H-M   'P -1'
_atom_sites_solution_primary     direct
_atom_sites_solution_secondary   difmap
_audit_creation_method           SHELXL-2014/6
_cell_angle_alpha                88.2797(13)
_cell_angle_beta                 69.1278(12)
_cell_angle_gamma                62.0249(12)
_cell_formula_units_Z            1
_cell_length_a                   7.7142(2)
_cell_length_b                   8.0991(2)
_cell_length_c                   10.0494(2)
_cell_measurement_temperature    100(2)
_cell_measurement_theta_max      61.16
_cell_volume                     510.91(2)
_computing_cell_refinement       'Bruker SMART'
_computing_data_collection       'Bruker SMART'
_computing_data_reduction        'Bruker SMART'
_computing_molecular_graphics    'SHELXL-2014/6 (Sheldrick, 2014)'
_computing_publication_material  'SHELXL-2014/6 (Sheldrick, 2014)'
_computing_structure_refinement  'SHELXL-2014/6 (Sheldrick, 2014)'
_computing_structure_solution    'SHELXL-2014/6 (Sheldrick, 2014)'
_diffrn_ambient_temperature      100(2)
_diffrn_measured_fraction_theta_full 0.986
_diffrn_measured_fraction_theta_max 0.988
_diffrn_measurement_device_type  'CCD area detector'
_diffrn_measurement_method       'omega scans'
_diffrn_radiation_type           MoK\a
_diffrn_radiation_wavelength     0.71073
_diffrn_reflns_av_R_equivalents  0.0506
_diffrn_reflns_av_unetI/netI     0.0274
_diffrn_reflns_Laue_measured_fraction_full 0.986
_diffrn_reflns_Laue_measured_fraction_max 0.988
_diffrn_reflns_limit_h_max       11
_diffrn_reflns_limit_h_min       -11
_diffrn_reflns_limit_k_max       11
_diffrn_reflns_limit_k_min       -11
_diffrn_reflns_limit_l_max       14
_diffrn_reflns_limit_l_min       -14
_diffrn_reflns_number            27434
_diffrn_reflns_point_group_measured_fraction_full 0.986
_diffrn_reflns_point_group_measured_fraction_max 0.988
_diffrn_reflns_theta_full        25.242
_diffrn_reflns_theta_max         30.581
_diffrn_reflns_theta_min         2.199
_diffrn_source                   'fine-focus sealed tube'
_exptl_absorpt_coefficient_mu    28.668
_exptl_absorpt_correction_T_max  0.583
_exptl_absorpt_correction_T_min  0.219
_exptl_absorpt_correction_type   multi-scan
_exptl_absorpt_process_details   'Apex2 v2.0-2 (Bruker, 2005)'
_exptl_crystal_colour            orange
_exptl_crystal_density_diffrn    5.086
_exptl_crystal_density_method    'not measured'
_exptl_crystal_description       plates
_exptl_crystal_F_000             668
_exptl_crystal_size_max          0.320
_exptl_crystal_size_mid          0.176
_exptl_crystal_size_min          0.052
_refine_diff_density_max         1.767
_refine_diff_density_min         -2.841
_refine_diff_density_rms         0.310
_refine_ls_extinction_coef       0.00194(12)
_refine_ls_extinction_expression Fc^*^=kFc[1+0.001xFc^2^\l^3^/sin(2\q)]^-1/4^
_refine_ls_extinction_method     SHELXL
_refine_ls_goodness_of_fit_ref   1.049
_refine_ls_matrix_type           full
_refine_ls_number_parameters     143
_refine_ls_number_reflns         3105
_refine_ls_number_restraints     0
_refine_ls_restrained_S_all      1.049
_refine_ls_R_factor_all          0.0355
_refine_ls_R_factor_gt           0.0283
_refine_ls_shift/su_max          0.002
_refine_ls_shift/su_mean         0.000
_refine_ls_structure_factor_coef Fsqd
_refine_ls_weighting_details
'w=1/[\s^2^(Fo^2^)+(0.0081P)^2^+12.9430P] where P=(Fo^2^+2Fc^2^)/3'
_refine_ls_weighting_scheme      calc
_refine_ls_wR_factor_gt          0.0574
_refine_ls_wR_factor_ref         0.0597
_reflns_Friedel_coverage         0.000
_reflns_number_gt                2738
_reflns_number_total             3105
_reflns_threshold_expression     'I > 2\s(I)'
_cod_data_source_file            ja5b08765_si_002.cif
_cod_data_source_block           '[XeOXeOXe][?-F(ReO2F3)2]2'
_cod_depositor_comments          'Adding full bibliography for 4124627.cif.'
_cod_database_code               4124627
_shelx_space_group_comment
;
The symmetry employed for this shelxl refinement is uniquely defined
by the following loop, which should always be used as a source of
symmetry information in preference to the above space-group names.
They are only intended as comments.
;
_shelxl_version_number           2014/6
_shelx_res_file
;
TITL MVI35full in P-1
CELL 0.71073   7.7142   8.0991  10.0494  88.2797  69.1278  62.0249
ZERR    1.00   0.0002   0.0002   0.0002   0.0013  0.0012  0.0012
LATT  1
SFAC O F XE RE
UNIT 10 14 3 4
TEMP -173.000
L.S. 8
BOND
FMAP 2
PLAN 20
EQIV $5 -X, 2-Y, 3-Z
BIND O2 F7_$5
EQIV $6 1-X, 2-Y, 2-Z
BIND O4 O1_$6
EQIV $7 x+1, Y, z-1
BIND Xe1 F3_$7
EQIV $8 1-x, 1-Y, 2-z
BIND Xe1 F3_$8
EQIV $9 x, Y, z-1
BIND Xe1 O3_$9
EQIV $10 2-x, 1-Y, 2-z
BIND Xe1 O3_$10
EQIV $11 1+x, Y-1, z-1
BIND Xe1 O4_$11
EQIV $12 1-x, 2-Y, 2-z
BIND Xe1 O4_$12
EQIV $13 x, Y, z-1
BIND Xe1 O2_$13
EQIV $14 2-x, 1-Y, 2-z
BIND Xe1 O2_$14
EQIV $15 x+1, Y, z-1
BIND Xe1 F7_$15
EQIV $16 1-x, 1-Y, 2-z
BIND Xe1 F7_$16
EQIV $17 1-x, 1-y, 2-z
BIND Xe2 F1_$17
EQIV $18 1-x, 2-Y, 2-z
BIND Xe2 F4_$18
EQIV $19 1-x, 2-Y, 2-z
BIND Xe2 F5_$19
EQIV $20 1-x, 1-y, 2-z
BIND Xe2 F6_$20
EQIV $21 -x, 2-Y, 2-z
BIND Xe2 O5_$21
EQIV $22 1-x, 1-Y, 2-z
BIND Xe2 F3_$22
EQIV $23 2-x, 1-Y, 2-z
BIND Xe2 O3_$23
ACTA
OMIT -5 -4 1
OMIT -2 5 1
OMIT 0 0 2
OMIT 1 -1 2
OMIT -1 1 0
OMIT 0 1 0
OMIT 1 9 0
OMIT 0 -1 1
OMIT -1 -1 1
OMIT 8 4 4
OMIT 1 1 1
OMIT 1 1 0
OMIT 1 0 1
OMIT 1 2 4
OMIT 0 1 1
OMIT -1 0 2
OMIT 1 3 3
OMIT 3 -1 6
OMIT 1 2 2
OMIT 3 -1 2
OMIT 4 1 2
OMIT 4 1 4
OMIT -1 -2 2
OMIT 4 1 0
OMIT 2 -2 4
OMIT 3 0 0
OMIT 1 0 4
WGHT    0.008100   12.943000
EXTI    0.001940
FVAR       0.08400
RE1   4    0.564541    0.682178    1.285793    11.00000    0.00972    0.01366 =
         0.01137    0.00236   -0.00453   -0.00511
RE2   4   -0.012819    0.997276    1.242435    11.00000    0.01159    0.01393 =
         0.01505    0.00155   -0.00629   -0.00486
XE1   3    1.000000    0.500000    0.500000    10.50000    0.02511    0.01851 =
         0.01700    0.00647   -0.01054   -0.01359
XE2   3    0.653661    0.669706    0.861720    11.00000    0.01695    0.01983 =
         0.01704    0.00309   -0.00726   -0.01003
F1    2    0.572955    0.590088    1.099179    11.00000    0.02144    0.01863 =
         0.01147    0.00114   -0.00579   -0.00974
F2    2    0.254206    0.841043    1.307121    11.00000    0.01169    0.02251 =
         0.02113    0.00368   -0.00677   -0.00420
F3    2    0.468231    0.512075    1.353469    11.00000    0.02314    0.01890 =
         0.01707    0.00592   -0.00720   -0.01324
F4    2    0.594215    0.867829    1.183593    11.00000    0.02478    0.02175 =
         0.02435    0.00847   -0.00875   -0.01616
F5    2    0.186778    1.049814    1.108301    11.00000    0.02689    0.03794 =
         0.01957    0.00706   -0.00390   -0.02068
F6    2    0.138085    0.766730    1.113765    11.00000    0.03260    0.01664 =
         0.03589   -0.00471   -0.01852   -0.00331
O3    1    0.824234    0.527495    1.237910    11.00000    0.01735    0.02517 =
         0.02560    0.00753   -0.01049   -0.00632
O5    1   -0.210987    1.110332    1.186569    11.00000    0.02031    0.01993 =
         0.03299    0.00205   -0.01462   -0.00853
O4    1   -0.078606    1.175476    1.375031    11.00000    0.02067    0.01580 =
         0.02103   -0.00039   -0.01091   -0.00558
O1    1    0.737725    0.730735    0.663647    11.00000    0.03403    0.02125 =
         0.01615    0.00860   -0.00883   -0.01634
O2    1    0.502635    0.791079    1.448010    11.00000    0.02135    0.02902 =
         0.01836    0.00172   -0.00896   -0.01594
F7    2   -0.121635    0.874487    1.370848    11.00000    0.02227    0.03324 =
         0.04176    0.01859   -0.01069   -0.01661

HKLF 4

REM  MVI35full in P-1
REM R1 =  0.0283 for    2738 Fo > 4sig(Fo)  and  0.0355 for all    3105 data
REM    143 parameters refined using      0 restraints

END

WGHT      0.0080     12.9468

REM Highest difference peak  1.767,  deepest hole -2.841,  1-sigma level  0.310
Q1    1  -0.0138  0.9378  1.2570  11.00000  0.05    1.77
Q2    1   0.0461  1.0270  1.2230  11.00000  0.05    1.67
Q3    1   0.5190  0.7642  0.9228  11.00000  0.05    1.49
Q4    1   0.6276  0.7861  0.9187  11.00000  0.05    1.33
Q5    1   0.5265  0.6443  1.3199  11.00000  0.05    1.33
Q6    1  -0.0560  1.0385  1.2774  11.00000  0.05    1.29
Q7    1   0.5325  0.7149  1.3370  11.00000  0.05    1.28
Q8    1   0.0170  0.8813  1.4287  11.00000  0.05    1.23
Q9    1   1.0397  0.5778  0.4412  11.00000  0.05    1.19
Q10   1   0.5963  0.6990  1.2568  11.00000  0.05    1.14
Q11   1   0.5325  0.7176  1.2655  11.00000  0.05    1.13
Q12   1   0.5038  0.7356  1.2998  11.00000  0.05    1.12
Q13   1   0.6172  0.6379  1.2890  11.00000  0.05    1.10
Q14   1   0.5843  0.6893  1.3181  11.00000  0.05    1.10
Q15   1  -0.0350  1.0221  1.2186  11.00000  0.05    1.07
Q16   1   0.5171  0.6747  0.9017  11.00000  0.05    1.03
Q17   1   0.7038  0.7429  0.8013  11.00000  0.05    1.03
Q18   1  -0.1482  0.9914  1.3475  11.00000  0.05    1.02
Q19   1   1.1366  0.3930  0.4430  11.00000  0.05    1.02
Q20   1   0.7361  0.6229  0.5949  11.00000  0.05    1.01
;
_shelx_res_checksum              43206
_shelx_hkl_file
;
  -1   0   0    0.55    0.27
  -1   0   0    0.65    0.33
  -1   0   0    0.85    0.33
  -1   0   0    0.53    0.37
  -1   0   0    0.15    0.23
  -1   0   0    0.11    0.34
   1   0   0   -0.06    0.27
   1   0   0    0.42    0.35
   1   0   0    0.49    0.27
   1   0   0   -0.06    0.34
  -2   0   0  345.92   13.18
  -2   0   0  335.11   13.71
  -2   0   0  333.44   13.33
  -2   0   0  319.84   13.98
  -2   0   0  337.84   13.37
  -2   0   0  335.91   12.44
   2   0   0  332.55   12.48
   2   0   0  330.16   11.89
   2   0   0  326.48   12.41
   2   0   0  339.36   13.78
  -3   0   0   91.15    4.33
  -3   0   0   98.76    4.67
  -3   0   0   97.94    4.31
  -3   0   0   86.72    3.93
  -3   0   0  100.79    4.44
  -3   0   0   91.24    4.48
   3   0   0   92.08    4.57
   3   0   0  102.85    4.29
   3   0   0   95.98    3.74
   3   0   0   87.14    4.10
  -4   0   0   40.24    2.97
  -4   0   0   45.34    2.74
  -4   0   0   40.11    2.27
  -4   0   0   39.89    2.43
  -4   0   0   43.13    2.55
  -4   0   0   40.63    2.70
  -4   0   0   40.37    2.71
   4   0   0   45.91    2.99
   4   0   0   40.99    2.52
   4   0   0   42.11    2.08
   4   0   0   42.11    2.80
  -5   0   0  134.68    5.85
  -5   0   0  124.01    6.24
  -5   0   0  129.90    5.77
  -5   0   0  128.16    6.43
  -5   0   0  135.35    6.51
  -5   0   0  130.94    6.24
  -5   0   0  138.42    6.86
   5   0   0  136.88    5.27
   5   0   0  122.14    6.72
   5   0   0  136.40    5.99
   5   0   0  124.86    6.10
  -6   0   0   23.34    2.21
  -6   0   0   22.91    2.85
  -6   0   0   23.47    2.38
  -6   0   0   27.17    2.83
  -6   0   0   22.40    2.47
  -6   0   0   25.42    2.52
   6   0   0   24.00    2.58
   6   0   0   24.48    2.88
   6   0   0   24.34    2.53
   6   0   0   23.29    2.42
  -7   0   0   70.42    4.50
  -7   0   0   70.44    4.86
  -7   0   0   65.29    4.37
  -7   0   0   77.39    5.28
  -7   0   0   72.44    4.11
  -7   0   0   73.61    4.21
   7   0   0   58.01    4.22
   7   0   0   66.75    4.57
   7   0   0   71.39    5.29
   7   0   0   75.24    4.51
  -8   0   0    0.57    1.47
  -8   0   0    0.97    1.81
  -8   0   0   -1.76    1.30
  -8   0   0    2.62    1.50
  -8   0   0    0.10    1.55
  -8   0   0    2.91    1.89
   8   0   0   -1.55    1.49
   8   0   0    2.94    1.94
   8   0   0   -2.24    2.19
   8   0   0    0.46    1.57
   8  -1   0   14.06    2.48
   8  -1   0    8.35    2.41
   8  -1   0    9.33    2.21
  -8   1   0    9.27    2.01
  -8   1   0    6.33    2.48
  -8   1   0    8.77    2.67
  -8   1   0    9.56    2.06
  -8   1   0   11.12    2.36
  -8   1   0    8.50    2.30
   7  -1   0   18.01    3.50
   7  -1   0   23.86    2.67
   7  -1   0   17.28    2.56
   7  -1   0   19.61    2.63
  -7   1   0   18.09    2.31
  -7   1   0   16.95    3.11
  -7   1   0   21.26    3.01
  -7   1   0   16.92    2.23
  -7   1   0   17.41    2.58
  -7   1   0   20.65    2.55
   6  -1   0    4.50    1.58
   6  -1   0    2.16    1.82
   6  -1   0    4.84    1.62
   6  -1   0    2.04    1.30
  -6   1   0    2.91    1.36
  -6   1   0    1.36    1.27
  -6   1   0    3.52    1.20
  -6   1   0    3.22    1.41
  -6   1   0    2.23    1.56
  -6   1   0    2.05    1.73
   5  -1   0   38.03    2.61
   5  -1   0   34.64    2.83
   5  -1   0   40.48    3.62
   5  -1   0   34.84    2.73
  -5   1   0   32.50    2.92
  -5   1   0   34.34    2.54
  -5   1   0   32.67    2.87
  -5   1   0   28.99    3.28
  -5   1   0   34.93    3.03
  -5   1   0   33.32    2.35
   4  -1   0    2.28    0.92
   4  -1   0    0.30    1.30
   4  -1   0    2.55    1.27
   4  -1   0    2.84    0.70
   4  -1   0    2.84    0.99
  -4   1   0    2.54    0.91
  -4   1   0    2.80    1.31
  -4   1   0    1.50    1.17
  -4   1   0    3.12    0.83
  -4   1   0    2.51    1.04
  -4   1   0    2.08    1.37
   3  -1   0  215.49    8.44
   3  -1   0  212.72    8.31
   3  -1   0  213.06    7.76
   3  -1   0  210.82    9.43
  -3   1   0  209.61    9.57
  -3   1   0  198.56    9.51
  -3   1   0  203.80    8.07
  -3   1   0  215.93    8.81
  -3   1   0  199.75    8.19
  -3   1   0  223.76    8.92
  -3   1   0  215.94    8.99
   2  -1   0  125.43    5.66
   2  -1   0  119.47    4.90
   2  -1   0  124.98    4.60
   2  -1   0  117.16    5.02
  -2   1   0  123.72    4.81
  -2   1   0  119.07    5.28
  -2   1   0  125.12    5.79
  -2   1   0  122.18    5.18
  -2   1   0  119.24    4.83
  -2   1   0  131.14    5.37
  -2   1   0  117.27    5.79
   1  -1   0  601.10   22.76
   1  -1   0  643.79   22.02
   1  -1   0  618.61   22.02
   1  -1   0  614.48   22.80
   1  -1   0  631.36   24.53
   1  -1   0  624.45   23.41
   1  -1   0  643.05   25.43
  -1   1   0  610.24   26.10
  -1   1   0  620.63   24.53
  -1   1   0  626.94   22.90
  -1   1   0  594.32   25.38
  -1   1   0  634.76   24.14
  -1   1   0  668.39   24.66
  -1   1   0  637.45   23.41
   0  -1   0    3.45    0.32
   0  -1   0    3.17    0.30
   0  -1   0    2.95    0.28
   0  -1   0    3.67    0.37
   0  -1   0    3.57    0.86
   0  -1   0    3.35    0.39
   0  -1   0    4.13    0.31
   0   1   0    2.14    0.48
   0   1   0    1.23    0.59
   0   1   0    3.02    0.63
   0   1   0    2.62    0.32
  -1  -1   0   61.29    2.62
  -1  -1   0   65.91    2.65
  -1  -1   0   62.48    2.85
  -1  -1   0   60.51    2.52
  -1  -1   0   64.52    2.58
  -1  -1   0   63.96    2.44
  -1  -1   0   59.54    2.47
  -1  -1   0   61.29    2.36
  -1  -1   0   60.87    2.31
  -1  -1   0   62.39    2.64
  -1  -1   0   63.21    2.43
  -1  -1   0   63.38    2.33
  -1  -1   0   57.98    2.79
   1   1   0   65.16    2.65
  -2  -1   0  334.02   13.17
  -2  -1   0  349.82   13.80
  -2  -1   0  339.50   13.50
  -2  -1   0  336.42   12.58
  -2  -1   0  349.83   13.46
  -2  -1   0  341.37   13.67
  -2  -1   0  323.92   14.03
  -2  -1   0  343.50   12.61
  -2  -1   0  315.85   12.24
  -2  -1   0  334.92   11.91
  -2  -1   0  320.19   12.50
  -2  -1   0  352.14   12.63
   2   1   0  354.30   13.81
   2   1   0  338.49   12.53
   2   1   0  339.21   12.57
   2   1   0  326.30   11.97
  -3  -1   0   33.80    1.31
  -3  -1   0   31.34    1.95
  -3  -1   0   29.46    1.86
  -3  -1   0   32.45    1.82
  -3  -1   0   33.88    1.97
  -3  -1   0   31.44    1.94
  -3  -1   0   33.29    2.01
  -3  -1   0   32.61    1.87
  -3  -1   0   31.75    2.00
   3   1   0   31.06    2.02
   3   1   0   34.20    1.92
   3   1   0   28.55    1.92
   3   1   0   33.89    1.64
  -4  -1   0  182.82    8.13
  -4  -1   0  179.78    7.96
  -4  -1   0  185.44    7.43
  -4  -1   0  182.69    6.52
  -4  -1   0  176.66    7.31
  -4  -1   0  187.79    7.88
  -4  -1   0  183.81    8.13
  -4  -1   0  176.82    7.95
  -4  -1   0  190.02    7.58
   4   1   0  182.60    7.52
   4   1   0  179.92    6.93
   4   1   0  189.07    7.56
   4   1   0  186.91    8.28
  -5  -1   0    2.70    0.99
  -5  -1   0    2.66    1.06
  -5  -1   0    3.01    0.92
  -5  -1   0    1.30    0.92
  -5  -1   0    2.47    1.10
  -5  -1   0    4.47    1.26
  -5  -1   0    1.77    1.19
   5   1   0    0.86    1.25
   5   1   0    3.16    1.34
   5   1   0    2.51    1.12
   5   1   0    2.85    0.93
  -6  -1   0   43.97    3.61
  -6  -1   0   48.91    3.21
  -6  -1   0   43.97    3.17
  -6  -1   0   47.19    3.30
  -6  -1   0   45.19    3.01
  -6  -1   0   44.08    2.88
   6   1   0   44.61    3.46
   6   1   0   49.22    3.49
   6   1   0   47.19    3.48
  -7  -1   0    4.09    1.66
  -7  -1   0    4.05    1.40
  -7  -1   0    2.13    1.31
  -7  -1   0    3.46    1.72
  -7  -1   0    2.13    1.37
  -7  -1   0    1.34    1.38
   7   1   0    3.65    1.84
   7   1   0    0.12    1.33
   7   1   0    2.61    1.77
   7   1   0    2.68    1.39
  -8  -1   0   46.56    4.39
  -8  -1   0   43.47    3.72
  -8  -1   0   47.08    3.72
  -8  -1   0   37.23    4.00
  -8  -1   0   39.64    3.36
  -8  -1   0   35.60    3.73
   8   1   0   36.71    3.64
   8   1   0   39.82    3.84
   8   1   0   43.97    4.57
   8   1   0   41.49    3.77
  -9  -1   0   -2.36    1.82
  -9  -1   0    0.32    1.92
  -9  -1   0    2.67    2.30
  -9  -1   0   -0.65    1.48
  -9  -1   0    0.65    1.42
   9   1   0   -1.45    1.93
   9   1   0    0.92    1.79
   9   1   0    0.68    1.85
   7  -2   0    2.29    1.83
   7  -2   0    2.57    1.77
   7  -2   0    1.14    2.46
  -7   2   0    7.98    2.67
  -7   2   0    3.47    1.48
  -7   2   0    4.73    1.65
  -7   2   0    6.32    2.17
  -7   2   0    1.32    1.68
   6  -2   0   68.78    4.37
   6  -2   0   81.24    4.54
   6  -2   0   68.44    4.50
   6  -2   0   73.77    6.18
  -6   2   0   79.04    4.81
  -6   2   0   76.43    4.31
  -6   2   0   76.43    4.45
  -6   2   0   90.72    5.22
  -6   2   0   71.65    6.02
  -6   2   0   82.83    4.23
   5  -2   0   20.12    2.97
   5  -2   0   20.32    2.31
   5  -2   0   17.23    2.13
   5  -2   0   18.52    2.02
  -5   2   0   17.74    1.97
  -5   2   0   17.00    2.98
  -5   2   0   21.00    2.36
  -5   2   0   23.42    2.47
  -5   2   0   23.70    2.71
  -5   2   0   18.83    1.88
   4  -2   0  184.36    7.60
   4  -2   0  191.93    7.93
   4  -2   0  181.39    7.68
   4  -2   0  182.16    6.93
   4  -2   0  163.21    8.93
  -4   2   0  185.87    8.22
  -4   2   0  178.48    7.89
  -4   2   0  172.75    9.07
  -4   2   0  175.77    7.38
  -4   2   0  187.22    8.31
  -4   2   0  176.06    9.03
   3  -2   0    9.33    0.97
   3  -2   0   10.97    1.27
   3  -2   0   10.38    1.98
   3  -2   0    7.72    1.26
   3  -2   0   10.12    1.11
  -3   2   0   10.40    1.93
  -3   2   0   16.07    1.22
  -3   2   0   14.22    1.22
  -3   2   0   10.28    1.93
  -3   2   0   11.41    1.19
  -3   2   0   11.08    1.41
  -3   2   0   10.11    1.49
   2  -2   0  315.76   12.24
   2  -2   0  318.46   13.99
   2  -2   0  321.39   12.43
   2  -2   0  322.91   11.66
   2  -2   0  321.43   12.18
   2  -2   0  317.97   12.95
  -2   2   0  322.43   12.12
  -2   2   0  343.90   13.25
  -2   2   0  343.16   12.46
  -2   2   0  303.29   14.41
  -2   2   0  313.15   14.09
  -2   2   0  328.36   12.98
  -2   2   0  323.20   13.03
   1  -2   0  141.09    5.20
   1  -2   0  141.29    5.17
   1  -2   0  138.82    5.65
   1  -2   0  140.15    5.60
   1  -2   0  139.43    6.56
   1  -2   0  140.92    5.43
   1  -2   0  142.51    5.51
  -1   2   0  143.03    5.84
  -1   2   0  120.72    6.71
  -1   2   0  137.14    5.32
  -1   2   0  124.71    6.86
  -1   2   0  136.70    5.57
  -1   2   0  146.69    5.67
  -1   2   0  148.68    5.97
   0  -2   0    7.54    0.65
   0  -2   0    9.63    0.69
   0  -2   0    9.54    0.71
   0  -2   0   11.24    0.90
   0  -2   0   10.29    0.83
   0  -2   0    9.82    1.86
   0  -2   0    9.37    0.77
   0   2   0    9.35    0.80
   0   2   0    8.27    1.39
   0   2   0    8.03    1.53
   0   2   0    4.32    1.04
  -1  -2   0  823.16   38.25
  -1  -2   0  926.55   32.39
  -1  -2   0  928.58   32.82
  -1  -2   0  939.21   33.38
  -1  -2   0  911.62   35.91
  -1  -2   0  959.28   33.38
  -1  -2   0  924.55   36.81
  -1  -2   0  915.02   32.45
  -1  -2   0  956.34   35.29
  -1  -2   0  933.93   36.74
  -1  -2   0  865.84   39.83
  -1  -2   0  897.47   33.99
  -1  -2   0  958.15   36.06
  -1  -2   0  912.30   34.50
   1   2   0 1000.00   36.83
   1   2   0  957.94   36.74
   1   2   0  873.87   38.28
   1   2   0  924.24   35.28
   1   2   0  910.68   35.90
  -2  -2   0   -0.26    0.62
  -2  -2   0   -0.05    0.39
  -2  -2   0   -0.26    0.34
  -2  -2   0   -0.06    0.31
  -2  -2   0   -0.97    0.62
  -2  -2   0   -0.42    0.40
  -2  -2   0   -0.63    0.34
  -2  -2   0    0.32    0.51
  -2  -2   0   -0.07    0.43
  -2  -2   0    0.08    0.41
  -2  -2   0   -0.28    0.39
  -2  -2   0    0.00    0.51
  -2  -2   0    0.02    0.59
  -2  -2   0   -0.10    0.36
  -2  -2   0    0.20    0.46
   2   2   0    0.03    0.44
  -3  -2   0  286.01   10.75
  -3  -2   0  281.66   10.82
  -3  -2   0  296.53   11.68
  -3  -2   0  279.01   10.19
  -3  -2   0  282.04   11.53
  -3  -2   0  289.94   10.92
  -3  -2   0  291.01   11.31
  -3  -2   0  288.35   10.29
  -3  -2   0  260.38   11.67
  -3  -2   0  291.74   12.10
  -3  -2   0  272.78   10.52
  -3  -2   0  287.26   10.95
  -3  -2   0  294.28   11.87
  -3  -2   0  287.50   10.97
   3   2   0  281.76   10.78
   3   2   0  290.24   11.87
   3   2   0  276.42   10.24
   3   2   0  287.05   10.81
  -4  -2   0   89.60    4.22
  -4  -2   0   92.74    3.67
  -4  -2   0   89.72    4.13
  -4  -2   0   84.64    4.29
  -4  -2   0   92.33    3.48
  -4  -2   0   96.08    4.42
  -4  -2   0   93.02    3.98
  -4  -2   0   91.46    4.20
  -4  -2   0   90.53    4.34
  -4  -2   0   95.54    4.36
   4   2   0   91.21    3.69
   4   2   0   94.92    4.21
   4   2   0   88.30    3.63
   4   2   0   88.40    4.22
   4   2   0   90.88    4.45
  -5  -2   0  141.91    6.38
  -5  -2   0  137.85    5.99
  -5  -2   0  146.30    6.23
  -5  -2   0  139.80    6.60
  -5  -2   0  140.51    6.61
  -5  -2   0  145.12    6.32
  -5  -2   0  140.84    6.53
  -5  -2   0  145.91    6.55
   5   2   0  140.19    6.80
   5   2   0  146.71    6.26
   5   2   0  143.32    5.63
   5   2   0  132.04    6.22
  -6  -2   0   73.65    4.26
  -6  -2   0   72.24    3.97
  -6  -2   0   69.70    4.22
  -6  -2   0   78.78    4.36
  -6  -2   0   79.33    3.92
  -6  -2   0   68.30    4.00
   6   2   0   68.94    4.34
   6   2   0   70.49    4.14
   6   2   0   72.07    3.50
   6   2   0   74.97    4.10
  -7  -2   0   41.28    3.36
  -7  -2   0   40.11    3.33
  -7  -2   0   51.67    3.57
  -7  -2   0   41.37    3.66
  -7  -2   0   45.24    3.10
  -7  -2   0   47.16    3.80
   7   2   0   47.06    3.94
   7   2   0   51.30    3.80
   7   2   0   45.39    3.56
  -8  -2   0   28.03    2.66
  -8  -2   0   24.66    2.73
  -8  -2   0   24.11    3.00
  -8  -2   0   21.27    3.00
  -8  -2   0   22.10    2.88
  -8  -2   0   20.35    2.54
   8   2   0   22.15    3.25
   8   2   0   23.94    2.91
   8   2   0   23.64    2.95
   8   2   0   24.73    2.99
  -9  -2   0   -0.62    1.27
  -9  -2   0   -1.80    1.72
  -9  -2   0   -1.14    1.77
  -9  -2   0    0.14    1.93
  -9  -2   0   -1.78    1.33
   9   2   0    0.40    1.91
   9   2   0   -4.18    1.82
   9   2   0    2.77    2.24
   9   2   0    1.57    1.79
   7  -3   0   17.37    2.72
   7  -3   0   23.15    3.99
   7  -3   0   20.75    2.97
  -7   3   0   26.78    3.46
  -7   3   0   14.95    2.35
  -7   3   0   16.55    2.82
  -7   3   0   12.40    3.36
   6  -3   0    7.97    2.01
   6  -3   0    6.26    2.75
   6  -3   0    6.58    2.01
  -6   3   0    8.72    1.66
  -6   3   0    5.04    2.64
  -6   3   0    7.72    2.11
  -6   3   0    7.80    2.08
   5  -3   0   19.00    2.25
   5  -3   0   19.81    2.31
   5  -3   0   23.32    3.45
  -5   3   0   12.72    2.95
  -5   3   0   16.38    2.32
  -5   3   0   20.15    2.51
  -5   3   0   22.37    3.04
  -5   3   0   22.89    2.07
   4  -3   0    5.00    1.40
   4  -3   0    7.67    1.57
   4  -3   0    6.06    0.99
   4  -3   0    6.43    1.18
   4  -3   0   10.22    2.47
  -4   3   0    7.93    2.42
  -4   3   0    6.14    1.11
  -4   3   0    4.27    1.10
  -4   3   0    7.15    1.48
  -4   3   0   10.68    2.32
  -4   3   0    4.53    1.55
   3  -3   0   58.51    2.67
   3  -3   0   52.85    4.38
   3  -3   0   55.81    3.11
   3  -3   0   56.35    2.87
   3  -3   0   61.63    3.19
  -3   3   0   59.69    3.31
  -3   3   0   54.23    3.10
  -3   3   0   57.20    2.75
  -3   3   0   50.18    4.47
  -3   3   0   51.58    3.38
  -3   3   0   47.07    4.39
  -3   3   0   50.57    2.84
   2  -3   0  137.24    5.91
   2  -3   0  140.05    7.13
   2  -3   0  143.66    5.46
   2  -3   0  146.53    5.36
   2  -3   0  144.72    5.89
   2  -3   0  139.19    5.74
   2  -3   0  140.76    5.86
  -2   3   0  115.83    7.44
  -2   3   0  144.35    5.93
  -2   3   0  140.31    5.56
  -2   3   0  149.26    6.30
  -2   3   0  112.61    7.14
  -2   3   0  143.25    6.35
   1  -3   0   20.90    1.53
   1  -3   0   21.50    1.47
   1  -3   0   19.66    1.29
   1  -3   0   19.39    2.03
   1  -3   0   21.62    1.21
   1  -3   0   23.15    1.30
   1  -3   0   21.21    1.52
  -1   3   0   22.83    1.71
  -1   3   0   17.72    2.58
  -1   3   0   21.26    1.49
  -1   3   0   14.12    2.45
  -1   3   0   21.49    1.63
  -1   3   0   20.70    1.17
   0  -3   0  278.75   10.31
   0  -3   0  286.67   10.42
   0  -3   0  279.22   10.78
   0  -3   0  288.07   10.05
   0  -3   0  295.46   11.39
   0  -3   0  242.53   13.20
   0  -3   0  282.48   10.86
   0  -3   0  278.29   10.04
   0   3   0  285.60   11.00
   0   3   0  232.54   12.44
   0   3   0  280.73   10.77
   0   3   0  246.62   12.19
  -1  -3   0   28.31    1.62
  -1  -3   0   30.59    1.53
  -1  -3   0   28.49    1.55
  -1  -3   0   22.17    2.50
  -1  -3   0   29.77    1.50
  -1  -3   0   30.13    1.30
  -1  -3   0   30.83    1.42
  -1  -3   0   28.29    1.49
  -1  -3   0   29.31    1.51
   1   3   0   28.11    1.93
   1   3   0   23.76    2.40
   1   3   0   27.64    1.36
   1   3   0   29.12    1.59
  -2  -3   0   39.38    2.01
  -2  -3   0   40.56    1.86
  -2  -3   0   36.04    1.78
  -2  -3   0   38.69    2.47
  -2  -3   0   36.03    2.11
  -2  -3   0   36.35    1.97
  -2  -3   0   36.55    1.92
  -2  -3   0   38.32    1.81
  -2  -3   0   39.18    1.77
  -2  -3   0   41.80    2.01
  -2  -3   0   39.97    1.96
  -2  -3   0   33.77    2.73
  -2  -3   0   40.70    1.80
  -2  -3   0   39.45    1.90
  -2  -3   0   36.85    1.69
   2   3   0   39.78    1.97
   2   3   0   37.97    1.93
   2   3   0   38.65    2.65
  -3  -3   0  105.05    4.95
  -3  -3   0  101.73    5.03
  -3  -3   0   99.80    4.02
  -3  -3   0  106.43    4.51
  -3  -3   0  100.49    4.65
  -3  -3   0  105.85    4.08
  -3  -3   0   96.50    4.51
  -3  -3   0  103.51    4.57
  -3  -3   0  105.29    4.48
  -3  -3   0   98.26    4.13
  -3  -3   0  109.39    4.26
  -3  -3   0  111.20    4.64
  -3  -3   0  100.91    4.28
  -3  -3   0  101.57    4.56
  -3  -3   0  102.09    4.30
   3   3   0  105.31    4.63
  -4  -3   0    0.44    0.61
  -4  -3   0    0.31    0.77
  -4  -3   0    0.28    0.63
  -4  -3   0    0.10    0.57
  -4  -3   0    0.99    0.84
  -4  -3   0    0.87    0.60
  -4  -3   0    0.07    0.43
  -4  -3   0    0.21    0.66
  -4  -3   0    1.31    0.51
  -4  -3   0    0.24    0.67
  -4  -3   0   -0.20    0.77
  -4  -3   0   -0.04    0.50
  -4  -3   0   -0.58    0.49
   4   3   0    0.58    0.45
   4   3   0    0.74    0.69
   4   3   0    0.16    0.49
   4   3   0    0.22    0.68
  -5  -3   0  134.06    5.98
  -5  -3   0  130.09    5.53
  -5  -3   0  130.57    5.03
  -5  -3   0  122.02    5.86
  -5  -3   0  122.58    5.85
  -5  -3   0  128.58    6.15
  -5  -3   0  133.49    6.07
  -5  -3   0  129.65    6.19
  -5  -3   0  137.79    5.32
  -5  -3   0  128.29    6.04
   5   3   0  136.45    5.23
   5   3   0  137.67    6.26
   5   3   0  133.62    5.97
   5   3   0  130.92    5.27
   5   3   0  132.43    5.83
  -6  -3   0    6.74    1.32
  -6  -3   0    7.25    1.27
  -6  -3   0    7.71    1.55
  -6  -3   0    2.85    1.17
  -6  -3   0    3.94    1.17
  -6  -3   0    5.31    1.39
  -6  -3   0    5.80    1.44
  -6  -3   0    5.29    1.13
   6   3   0    3.46    1.26
   6   3   0    6.50    1.53
   6   3   0    4.68    1.02
   6   3   0    3.74    1.34
  -7  -3   0   48.66    3.19
  -7  -3   0   41.36    3.05
  -7  -3   0   44.39    3.62
  -7  -3   0   37.57    3.32
  -7  -3   0   42.66    2.91
  -7  -3   0   43.38    3.28
   7   3   0   36.87    3.31
   7   3   0   40.48    3.35
   7   3   0   51.43    3.55
  -8  -3   0    7.94    1.85
  -8  -3   0   11.09    2.06
  -8  -3   0   13.30    2.21
  -8  -3   0    9.36    1.70
  -8  -3   0    9.37    2.08
  -8  -3   0   10.57    2.16
   8   3   0   11.26    2.38
   8   3   0    8.45    2.17
   8   3   0   11.23    2.26
  -9  -3   0   57.66    4.52
  -9  -3   0   58.54    5.03
  -9  -3   0   58.49    4.79
  -9  -3   0   54.42    4.86
  -9  -3   0   55.92    4.10
   9   3   0   60.04    4.69
   9   3   0   48.63    4.84
   9   3   0   50.88    4.52
   9   3   0   51.16    4.68
   6  -4   0    8.93    2.23
   6  -4   0    9.02    2.92
   6  -4   0    5.01    3.25
   6  -4   0    9.84    2.06
  -6   4   0    4.82    2.78
  -6   4   0    8.53    2.34
   5  -4   0   56.47    3.83
   5  -4   0   61.29    5.94
   5  -4   0   50.45    4.87
   5  -4   0   58.39    3.91
  -5   4   0   46.69    5.19
  -5   4   0   56.16    5.08
  -5   4   0   48.90    4.12
  -5   4   0   53.68    4.22
   4  -4   0   22.84    3.76
   4  -4   0   24.21    3.34
   4  -4   0   23.87    2.38
   4  -4   0   26.81    2.56
  -4   4   0   26.28    3.55
  -4   4   0   16.18    3.23
  -4   4   0   25.04    2.52
  -4   4   0   26.14    2.06
  -4   4   0   28.90    2.86
   3  -4   0  166.24    9.38
   3  -4   0  164.92    8.26
   3  -4   0  156.45    6.81
   3  -4   0  159.85    6.91
   3  -4   0  160.46    6.29
  -3   4   0  155.17    6.43
  -3   4   0  122.96    8.42
  -3   4   0  159.14    7.48
  -3   4   0  156.80    8.98
  -3   4   0  163.89    7.31
   2  -4   0    2.92    0.76
   2  -4   0    2.57    0.97
   2  -4   0    3.69    2.07
   2  -4   0    1.11    1.03
   2  -4   0    3.30    1.70
   2  -4   0    3.08    0.73
   2  -4   0    1.73    0.66
   2  -4   0    2.98    1.01
  -2   4   0    2.15    1.91
  -2   4   0    2.56    0.67
  -2   4   0    0.50    2.09
  -2   4   0    1.93    1.04
  -2   4   0    2.71    1.27
  -2   4   0    4.39    1.07
   1  -4   0  415.01   16.74
   1  -4   0  397.80   15.01
   1  -4   0  393.32   14.36
   1  -4   0  409.67   19.13
   1  -4   0  402.27   14.87
   1  -4   0  406.37   14.41
   1  -4   0  401.86   15.51
   1  -4   0  400.56   15.62
  -1   4   0  409.83   15.51
  -1   4   0  314.78   17.94
  -1   4   0  403.87   14.71
  -1   4   0  416.25   16.02
  -1   4   0  324.61   17.38
  -1   4   0  404.49   15.92
   0  -4   0   62.90    2.95
   0  -4   0   61.44    2.76
   0  -4   0   60.54    2.62
   0  -4   0   61.66    2.73
   0  -4   0   63.01    2.69
   0  -4   0   50.31    4.74
   0  -4   0   65.53    2.95
   0  -4   0   63.53    3.10
   0   4   0   58.28    3.06
   0   4   0   58.63    3.02
   0   4   0   54.68    4.36
   0   4   0   50.88    4.34
   0   4   0   53.69    2.98
  -1  -4   0   29.94    1.49
  -1  -4   0   28.25    1.64
  -1  -4   0   26.63    1.55
  -1  -4   0   30.74    1.86
  -1  -4   0   29.37    1.44
  -1  -4   0   28.92    1.38
  -1  -4   0   28.15    1.61
  -1  -4   0   17.30    2.80
  -1  -4   0   28.52    1.60
   1   4   0   24.19    2.72
   1   4   0   29.49    1.56
   1   4   0   26.06    1.82
   1   4   0   28.21    1.78
   1   4   0   34.33    2.57
  -2  -4   0  477.69   18.43
  -2  -4   0  458.37   16.70
  -2  -4   0  453.13   17.30
  -2  -4   0  463.93   18.75
  -2  -4   0  451.09   20.34
  -2  -4   0  472.49   17.24
  -2  -4   0  470.75   18.29
  -2  -4   0  475.67   17.88
  -2  -4   0  455.18   16.74
  -2  -4   0  462.82   18.19
  -2  -4   0  439.25   20.86
  -2  -4   0  473.89   17.27
   2   4   0  475.21   18.28
   2   4   0  466.08   18.22
   2   4   0  470.39   17.85
   2   4   0  478.08   18.96
   2   4   0  445.20   20.28
  -3  -4   0    0.69    0.60
  -3  -4   0    0.78    0.50
  -3  -4   0    0.18    0.83
  -3  -4   0    0.45    0.44
  -3  -4   0    0.84    0.60
  -3  -4   0    0.29    0.59
  -3  -4   0    1.74    0.56
  -3  -4   0    1.75    1.25
  -3  -4   0    0.82    0.56
  -3  -4   0    0.47    0.48
  -3  -4   0    1.29    0.55
  -3  -4   0    0.38    0.55
  -3  -4   0   -0.27    0.74
  -3  -4   0    0.42    0.53
  -3  -4   0    0.74    0.77
   3   4   0    1.15    0.62
   3   4   0    0.69    0.55
   3   4   0    0.31    0.53
   3   4   0    0.44    1.14
   3   4   0    1.28    0.62
  -4  -4   0  305.55   12.48
  -4  -4   0  316.23   12.83
  -4  -4   0  299.79   11.23
  -4  -4   0  310.29   11.22
  -4  -4   0  311.67   11.97
  -4  -4   0  300.65   12.14
  -4  -4   0  316.70   11.80
  -4  -4   0  288.63   11.38
  -4  -4   0  294.40   13.47
  -4  -4   0  304.33   11.72
  -4  -4   0  300.84   13.68
  -4  -4   0  306.24   12.69
  -4  -4   0  293.56   12.68
  -4  -4   0  305.74   12.31
  -4  -4   0  317.30   12.12
   4   4   0  316.88   11.93
   4   4   0  315.85   12.85
   4   4   0  296.73   11.19
  -5  -4   0   20.69    1.57
  -5  -4   0   19.60    1.60
  -5  -4   0   19.67    1.43
  -5  -4   0   20.07    2.09
  -5  -4   0   21.47    1.84
  -5  -4   0   24.74    2.18
  -5  -4   0   21.04    2.20
  -5  -4   0   21.95    1.86
  -5  -4   0   21.22    1.77
  -5  -4   0   24.00    2.16
  -5  -4   0   21.96    1.87
  -5  -4   0   20.95    1.55
   5   4   0   20.91    1.51
   5   4   0   22.20    1.55
   5   4   0   25.51    2.00
   5   4   0   20.44    1.87
  -6  -4   0  134.60    6.33
  -6  -4   0  137.47    6.16
  -6  -4   0  134.44    6.26
  -6  -4   0  129.37    6.25
  -6  -4   0  131.04    6.37
  -6  -4   0  138.26    5.28
  -6  -4   0  132.17    6.46
  -6  -4   0  138.19    6.63
  -6  -4   0  125.82    5.67
   6   4   0  119.72    6.01
   6   4   0  126.12    6.29
   6   4   0  131.88    6.52
   6   4   0  139.30    5.46
  -7  -4   0   12.56    1.98
  -7  -4   0    8.64    1.58
  -7  -4   0   13.03    1.62
  -7  -4   0   12.01    2.09
  -7  -4   0   10.87    1.75
  -7  -4   0   13.86    1.83
  -7  -4   0   11.73    2.08
   7   4   0   14.83    2.22
   7   4   0   17.77    2.17
   7   4   0   13.60    1.98
  -8  -4   0   62.15    4.22
  -8  -4   0   64.87    4.62
  -8  -4   0   67.09    4.47
  -8  -4   0   62.96    4.24
  -8  -4   0   65.71    4.03
  -8  -4   0   62.88    3.75
   8   4   0   58.22    4.48
   8   4   0   65.64    4.25
   8   4   0   65.98    4.29
  -9  -4   0    6.89    2.01
  -9  -4   0    9.06    2.17
  -9  -4   0    4.99    2.23
  -9  -4   0    3.82    1.76
  -9  -4   0    8.35    1.77
   9   4   0    2.88    2.09
   9   4   0    5.60    2.19
   9   4   0    7.32    2.16
   9   4   0    4.84    2.14
 -10  -4   0   -1.23    2.07
 -10  -4   0   -0.55    2.01
 -10  -4   0    2.95    2.09
 -10  -4   0    3.10    1.97
 -10  -4   0    1.47    1.52
  10   4   0   -1.02    2.08
  10   4   0    0.93    2.00
  10   4   0    3.25    2.05
   5  -5   0    3.03    2.98
   5  -5   0    1.27    1.66
   5  -5   0    3.43    1.69
  -5   5   0    7.38    2.98
  -5   5   0    1.54    2.39
  -5   5   0    0.62    1.88
   4  -5   0   42.60    3.98
   4  -5   0   39.30    3.29
   4  -5   0   40.34    3.23
   4  -5   0   47.74    5.38
  -4   5   0   33.18    3.35
  -4   5   0   28.69    4.36
  -4   5   0   44.90    4.79
   3  -5   0   -0.24    1.10
   3  -5   0    0.67    0.83
   3  -5   0   -1.42    0.97
   3  -5   0    0.51    1.66
   3  -5   0   -1.29    2.29
  -3   5   0    0.44    2.39
  -3   5   0   -0.57    2.17
  -3   5   0    3.52    1.60
   2  -5   0   51.81    3.81
   2  -5   0   59.43    3.25
   2  -5   0   54.59    3.50
   2  -5   0   62.45    2.97
   2  -5   0   58.78    3.26
   2  -5   0   56.72    5.71
  -2   5   0   50.48    5.18
  -2   5   0   59.92    3.64
  -2   5   0   44.18    4.84
  -2   5   0   57.32    3.65
   1  -5   0   73.84    4.03
   1  -5   0   73.64    3.35
   1  -5   0   71.89    3.37
   1  -5   0   74.98    3.57
   1  -5   0   71.24    3.93
   1  -5   0   75.98    3.71
   1  -5   0   70.95    5.91
  -1   5   0   74.22    5.40
  -1   5   0   71.55    3.62
  -1   5   0   80.12    4.00
  -1   5   0   71.44    3.15
  -1   5   0   77.47    4.02
  -1   5   0   71.93    6.03
   0  -5   0   15.69    2.98
   0  -5   0   18.20    1.47
   0  -5   0   14.74    1.51
   0  -5   0   17.41    1.44
   0  -5   0   18.76    1.49
   0  -5   0   17.22    1.76
   0  -5   0   17.60    1.45
   0   5   0   21.47    1.86
   0   5   0   16.61    1.69
   0   5   0   12.44    2.63
   0   5   0   19.81    3.03
   0   5   0   19.38    1.52
  -1  -5   0  276.30   10.80
  -1  -5   0  287.24   11.29
  -1  -5   0  287.00   10.41
  -1  -5   0  274.73   10.29
  -1  -5   0  287.24   11.14
  -1  -5   0  285.42   10.31
  -1  -5   0  282.37   10.64
  -1  -5   0  238.52   13.70
  -1  -5   0  280.86   10.50
   1   5   0  268.01   11.03
   1   5   0  249.91   11.27
   1   5   0  260.17   12.56
   1   5   0  272.90   11.23
   1   5   0  265.72   13.16
  -2  -5   0   21.32    1.36
  -2  -5   0   23.84    1.22
  -2  -5   0   24.13    1.53
  -2  -5   0   23.47    1.34
  -2  -5   0   27.62    1.73
  -2  -5   0   23.41    1.90
  -2  -5   0   22.39    1.63
  -2  -5   0   20.23    2.72
  -2  -5   0   23.74    1.72
   2   5   0   21.20    2.81
   2   5   0   25.12    1.68
   2   5   0   24.86    2.08
   2   5   0   22.38    1.84
   2   5   0   23.33    1.33
  -3  -5   0  158.56    6.54
  -3  -5   0  154.33    6.35
  -3  -5   0  153.91    6.62
  -3  -5   0  146.33    6.45
  -3  -5   0  154.03    6.65
  -3  -5   0  158.63    6.20
  -3  -5   0  158.60    6.66
  -3  -5   0  158.24    6.13
  -3  -5   0  167.12    6.74
  -3  -5   0  158.89    8.22
  -3  -5   0  157.94    7.91
  -3  -5   0  153.95    6.11
  -3  -5   0  148.67    6.13
   3   5   0  154.72    6.90
   3   5   0  158.13    8.02
   3   5   0  158.86    6.62
   3   5   0  159.39    6.70
   3   5   0  156.59    6.47
  -4  -5   0   30.78    2.44
  -4  -5   0   27.59    1.96
  -4  -5   0   27.15    2.87
  -4  -5   0   28.89    2.03
  -4  -5   0   33.26    1.91
  -4  -5   0   36.77    2.13
  -4  -5   0   27.60    1.84
  -4  -5   0   29.17    1.78
  -4  -5   0   31.52    2.47
  -4  -5   0   30.55    2.06
  -4  -5   0   27.75    2.31
  -4  -5   0   28.50    2.02
  -4  -5   0   29.21    1.75
  -4  -5   0   28.74    1.69
  -4  -5   0   30.01    1.83
   4   5   0   30.59    2.97
   4   5   0   29.82    1.95
   4   5   0   30.11    2.01
   4   5   0   31.85    1.89
   4   5   0   26.78    1.93
  -5  -5   0   -0.27    0.64
  -5  -5   0   -0.07    0.66
  -5  -5   0   -0.42    1.25
  -5  -5   0   -0.12    0.61
  -5  -5   0    1.64    0.84
  -5  -5   0   -0.22    0.83
  -5  -5   0    0.78    0.87
  -5  -5   0   -0.47    0.68
  -5  -5   0    1.32    0.79
  -5  -5   0    0.34    0.70
  -5  -5   0   -0.03    0.77
  -5  -5   0    0.40    0.81
  -5  -5   0    0.77    0.91
  -5  -5   0    1.93    1.29
  -5  -5   0    0.71    1.19
   5   5   0    0.30    0.66
   5   5   0    2.55    1.40
   5   5   0   -0.10    0.84
   5   5   0   -0.58    0.75
   5   5   0    0.74    0.70
  -6  -5   0   16.50    1.81
  -6  -5   0   15.48    2.04
  -6  -5   0   14.56    2.14
  -6  -5   0   18.70    1.83
  -6  -5   0   16.62    1.55
  -6  -5   0   21.24    2.27
  -6  -5   0   18.63    2.29
  -6  -5   0   17.35    1.50
  -6  -5   0   16.22    1.78
  -6  -5   0   13.78    1.47
  -6  -5   0   16.28    1.69
  -6  -5   0   19.34    1.93
   6   5   0   20.48    1.59
   6   5   0   15.75    1.82
   6   5   0   16.73    1.89
   6   5   0   21.24    1.64
   6   5   0   18.98    2.20
  -7  -5   0    1.63    1.04
  -7  -5   0    2.23    1.16
  -7  -5   0    1.98    1.15
  -7  -5   0    3.70    1.57
  -7  -5   0    3.81    1.65
  -7  -5   0    4.60    1.37
  -7  -5   0    2.04    1.41
   7   5   0    2.91    0.99
   7   5   0    3.92    1.49
   7   5   0    2.06    1.50
   7   5   0    5.00    1.47
  -8  -5   0   22.98    2.44
  -8  -5   0   21.88    2.25
  -8  -5   0   23.60    3.02
  -8  -5   0   20.42    2.72
  -8  -5   0   22.80    2.50
  -8  -5   0   21.19    2.54
  -8  -5   0   22.21    2.89
   8   5   0   19.18    2.65
   8   5   0   19.81    2.72
   8   5   0   20.61    2.58
  -9  -5   0    5.70    1.56
  -9  -5   0    9.85    2.25
  -9  -5   0    7.49    1.84
  -9  -5   0   10.03    2.05
  -9  -5   0    7.44    2.06
  -9  -5   0    7.62    2.36
   9   5   0    4.13    2.08
   9   5   0    5.55    2.04
   9   5   0    2.00    1.89
 -10  -5   0   56.67    4.16
 -10  -5   0   52.54    5.16
 -10  -5   0   60.11    5.10
 -10  -5   0   54.06    4.77
  10   5   0   47.46    4.83
  10   5   0   42.80    4.43
  10   5   0   56.39    4.73
   5  -6   0   14.31    2.50
   5  -6   0   13.78    2.54
   5  -6   0   12.45    3.91
  -5   6   0   14.12    3.39
  -5   6   0    5.20    3.05
   4  -6   0   30.07    3.00
   4  -6   0   28.98    3.02
   4  -6   0   25.19    4.51
  -4   6   0   26.84    3.24
  -4   6   0   23.85    4.24
  -4   6   0   34.94    4.62
   3  -6   0   17.57    2.28
   3  -6   0   17.15    2.17
   3  -6   0   17.92    1.89
   3  -6   0   19.10    3.88
  -3   6   0   14.48    2.41
  -3   6   0   14.90    3.45
  -3   6   0   21.11    3.73
   2  -6   0  138.64    8.95
   2  -6   0  128.47    5.65
   2  -6   0  134.41    5.98
   2  -6   0  119.33    5.99
  -2   6   0  134.91    6.59
  -2   6   0  128.74    6.67
  -2   6   0  131.48    8.50
  -2   6   0  136.05    8.31
   1  -6   0    1.09    0.86
   1  -6   0    1.31    0.96
   1  -6   0    0.68    0.81
   1  -6   0    1.23    0.95
   1  -6   0    1.40    2.45
   1  -6   0    0.48    1.19
  -1   6   0    0.83    2.33
  -1   6   0    0.00    1.14
  -1   6   0   -1.62    2.13
  -1   6   0    0.41    1.07
   0  -6   0  318.14   12.48
   0  -6   0  319.37   12.28
   0  -6   0  310.37   16.27
   0  -6   0  320.17   13.06
   0  -6   0  319.03   12.01
   0  -6   0  319.65   11.98
   0   6   0  319.90   13.23
   0   6   0  295.24   15.56
   0   6   0  329.38   13.06
   0   6   0  314.86   15.06
  -1  -6   0   14.67    1.41
  -1  -6   0   14.96    1.16
  -1  -6   0   11.89    2.94
  -1  -6   0   14.29    1.48
  -1  -6   0   12.59    1.70
  -1  -6   0   14.13    1.39
  -1  -6   0   14.03    1.42
   1   6   0   10.85    2.64
   1   6   0   16.04    2.99
   1   6   0   13.04    1.57
   1   6   0   12.09    1.63
  -2  -6   0   88.64    3.94
  -2  -6   0   92.09    4.12
  -2  -6   0   88.62    4.12
  -2  -6   0   89.25    3.60
  -2  -6   0   89.00    3.91
  -2  -6   0   78.92    6.01
  -2  -6   0   90.94    4.48
  -2  -6   0   87.21    3.93
   2   6   0   87.51    5.19
   2   6   0   90.60    4.41
   2   6   0   79.90    4.26
   2   6   0   88.45    5.77
  -3  -6   0  272.16   11.09
  -3  -6   0  272.22   10.63
  -3  -6   0  256.96   10.16
  -3  -6   0  267.92   10.91
  -3  -6   0  261.32   10.99
  -3  -6   0  271.36   10.49
  -3  -6   0  257.73   10.14
  -3  -6   0  273.95   10.23
  -3  -6   0  267.58   13.05
   3   6   0  256.55   12.81
   3   6   0  256.14   10.90
   3   6   0  273.33   10.79
   3   6   0  269.90   11.11
   3   6   0  283.89   11.69
  -4  -6   0    6.79    1.22
  -4  -6   0    5.82    1.02
  -4  -6   0    7.63    1.51
  -4  -6   0    6.37    1.16
  -4  -6   0    4.71    1.02
  -4  -6   0    3.93    0.94
  -4  -6   0    6.62    1.22
  -4  -6   0    6.77    0.82
  -4  -6   0    6.79    0.93
  -4  -6   0    6.39    2.21
  -4  -6   0    8.18    1.09
  -4  -6   0    5.64    1.04
  -4  -6   0    6.37    0.91
  -4  -6   0    6.18    1.49
   4   6   0    4.81    1.12
   4   6   0    6.38    0.93
   4   6   0    7.17    2.11
   4   6   0    4.96    1.08
   4   6   0    7.22    1.20
   4   6   0    4.61    0.91
  -5  -6   0  123.61    6.56
  -5  -6   0  126.39    5.40
  -5  -6   0  127.61    5.50
  -5  -6   0  130.72    6.06
  -5  -6   0  132.30    5.47
  -5  -6   0  128.84    5.97
  -5  -6   0  123.26    5.40
  -5  -6   0  116.85    7.11
  -5  -6   0  139.12    5.90
  -5  -6   0  126.65    5.79
  -5  -6   0  125.87    5.98
  -5  -6   0  127.67    6.04
  -5  -6   0  145.91    6.38
  -5  -6   0  127.50    5.68
   5   6   0  130.57    5.36
   5   6   0  132.67    6.03
   5   6   0  130.86    6.00
   5   6   0  137.44    7.25
   5   6   0  130.24    5.79
   5   6   0  133.60    6.03
  -6  -6   0   14.00    1.85
  -6  -6   0   12.69    1.42
  -6  -6   0   10.01    1.47
  -6  -6   0   13.45    1.54
  -6  -6   0   11.83    1.57
  -6  -6   0   10.62    1.64
  -6  -6   0   10.38    1.59
  -6  -6   0   14.36    1.67
  -6  -6   0   14.30    1.59
  -6  -6   0   13.90    2.30
  -6  -6   0    9.97    1.97
  -6  -6   0   12.24    1.39
  -6  -6   0   12.55    2.14
   6   6   0   10.73    1.53
   6   6   0   15.59    2.34
   6   6   0    8.96    1.25
   6   6   0   12.07    1.68
   6   6   0   16.27    1.62
  -7  -6   0   50.17    3.31
  -7  -6   0   53.26    3.73
  -7  -6   0   55.62    3.10
  -7  -6   0   50.07    4.07
  -7  -6   0   47.45    3.31
  -7  -6   0   48.90    3.38
  -7  -6   0   52.88    3.27
  -7  -6   0   46.09    3.92
   7   6   0   52.79    3.44
   7   6   0   49.42    3.40
   7   6   0   53.42    4.00
   7   6   0   54.73    2.92
  -8  -6   0    2.14    1.28
  -8  -6   0    5.54    1.89
  -8  -6   0    4.27    1.94
  -8  -6   0    1.61    1.67
  -8  -6   0    1.83    1.20
  -8  -6   0    2.21    1.32
   8   6   0   -0.35    1.39
   8   6   0    5.56    1.73
   8   6   0    4.08    1.84
  -9  -6   0   64.46    4.21
  -9  -6   0   59.21    4.91
  -9  -6   0   68.87    4.58
  -9  -6   0   66.69    3.99
  -9  -6   0   57.90    4.98
  -9  -6   0   62.74    5.28
   9   6   0   66.08    5.04
   9   6   0   69.72    4.57
   9   6   0   57.77    4.95
 -10  -6   0    0.53    2.05
 -10  -6   0   -1.26    1.87
 -10  -6   0    0.08    1.78
 -10  -6   0   -2.60    1.30
  10   6   0    3.09    2.00
  10   6   0    2.30    1.96
  10   6   0   -0.99    1.88
   4  -7   0    3.19    2.90
   4  -7   0    0.11    1.56
  -4   7   0    1.72    2.79
  -4   7   0    3.00    2.91
   3  -7   0   47.25    5.73
   3  -7   0   47.34    3.59
   3  -7   0   43.99    3.68
  -3   7   0   40.21    5.07
  -3   7   0   39.80    5.13
  -3   7   0   41.55    4.01
   2  -7   0    0.59    1.29
   2  -7   0    0.16    2.31
   2  -7   0    1.51    1.09
   2  -7   0    1.74    1.35
  -2   7   0    0.20    2.76
  -2   7   0   -0.73    1.41
  -2   7   0    0.99    2.54
   1  -7   0   56.10    3.52
   1  -7   0   70.42    6.52
   1  -7   0   59.35    3.22
   1  -7   0   59.51    4.15
   1  -7   0   57.47    3.33
   1  -7   0   69.55    3.65
  -1   7   0   65.91    4.32
  -1   7   0   61.68    4.02
  -1   7   0   58.79    6.06
  -1   7   0   67.56    5.90
   0  -7   0   15.43    1.68
   0  -7   0   15.27    1.86
   0  -7   0   15.18    1.66
   0  -7   0   18.42    2.31
   0  -7   0   14.33    1.64
   0  -7   0   16.45    3.47
   0   7   0   16.56    2.00
   0   7   0   15.77    2.16
   0   7   0   15.53    3.27
   0   7   0   17.22    3.79
  -1  -7   0    0.88    2.36
  -1  -7   0    2.59    1.07
  -1  -7   0    0.51    1.05
  -1  -7   0    1.19    0.89
  -1  -7   0    0.16    0.75
  -1  -7   0   -0.10    0.71
   1   7   0    0.53    2.15
   1   7   0    0.67    2.30
   1   7   0    0.03    0.97
   1   7   0    1.61    0.98
  -2  -7   0  138.67    5.87
  -2  -7   0  142.04    5.69
  -2  -7   0  134.95    5.85
  -2  -7   0  132.78    5.67
  -2  -7   0  108.82    8.14
  -2  -7   0  123.12    6.16
   2   7   0  125.57    6.12
   2   7   0  136.82    7.68
   2   7   0  130.14    8.02
   2   7   0  136.39    6.22
  -3  -7   0    8.27    2.27
  -3  -7   0   11.28    1.57
  -3  -7   0    6.42    1.11
  -3  -7   0    8.79    1.41
  -3  -7   0    8.04    1.18
  -3  -7   0    6.16    1.25
   3   7   0    9.27    1.91
   3   7   0    7.51    2.41
   3   7   0    5.12    1.22
   3   7   0    8.64    1.37
  -4  -7   0   75.85    3.78
  -4  -7   0   86.96    5.19
  -4  -7   0   83.19    4.10
  -4  -7   0   74.31    3.76
  -4  -7   0   83.18    4.31
  -4  -7   0   77.78    4.30
   4   7   0   81.92    4.24
   4   7   0   88.88    5.69
   4   7   0   78.53    4.45
   4   7   0   77.83    4.20
  -5  -7   0   12.46    1.87
  -5  -7   0   14.04    1.55
  -5  -7   0   12.13    1.59
  -5  -7   0   11.52    2.63
  -5  -7   0   10.04    1.43
  -5  -7   0   12.50    1.43
  -5  -7   0    9.99    1.60
  -5  -7   0   13.62    2.04
  -5  -7   0    9.17    1.50
  -5  -7   0   12.27    1.66
  -5  -7   0   11.33    1.40
   5   7   0   11.61    1.39
   5   7   0   14.02    1.38
   5   7   0   11.61    1.58
   5   7   0   11.56    1.56
   5   7   0   12.24    1.63
   5   7   0   13.10    2.51
  -6  -7   0    2.60    1.16
  -6  -7   0    0.51    0.78
  -6  -7   0    0.14    0.88
  -6  -7   0    2.03    1.13
  -6  -7   0    1.09    1.04
  -6  -7   0    1.85    0.89
  -6  -7   0    4.51    1.75
  -6  -7   0    0.68    0.91
  -6  -7   0    1.01    0.96
  -6  -7   0    3.08    1.16
  -6  -7   0    0.33    0.97
  -6  -7   0    1.16    0.90
  -6  -7   0    4.92    2.02
   6   7   0    0.60    0.90
   6   7   0    1.24    1.07
   6   7   0    0.56    0.98
   6   7   0    2.03    1.05
   6   7   0    0.09    1.72
   6   7   0    2.17    0.93
  -7  -7   0    2.69    1.12
  -7  -7   0    2.67    1.70
  -7  -7   0    3.83    1.14
  -7  -7   0    0.73    1.30
  -7  -7   0    1.75    1.12
  -7  -7   0   -0.72    1.15
  -7  -7   0    3.63    1.19
  -7  -7   0    2.10    1.12
  -7  -7   0    2.08    1.21
  -7  -7   0    3.25    1.79
   7   7   0    2.47    1.22
   7   7   0    0.99    0.96
   7   7   0    2.16    1.09
   7   7   0    3.27    1.32
   7   7   0   -0.97    1.12
  -8  -7   0   10.69    2.41
  -8  -7   0   10.99    1.89
  -8  -7   0   10.14    1.95
  -8  -7   0   11.90    1.91
  -8  -7   0    9.56    2.26
  -8  -7   0   10.07    1.68
  -8  -7   0    9.88    2.13
   8   7   0    9.77    2.26
   8   7   0   11.87    2.08
   8   7   0   12.19    2.05
   8   7   0   11.36    1.69
  -9  -7   0    5.38    2.23
  -9  -7   0    5.13    1.71
  -9  -7   0    2.63    1.67
  -9  -7   0    8.91    2.59
  -9  -7   0    3.29    1.88
  -9  -7   0    6.34    1.64
   9   7   0    6.33    2.01
   9   7   0    7.02    2.23
   9   7   0    7.46    2.07
 -10  -7   0    0.69    1.78
 -10  -7   0    2.15    2.31
 -10  -7   0    5.21    2.45
 -10  -7   0    5.94    2.23
 -10  -7   0    2.93    1.59
  10   7   0    5.75    2.41
  10   7   0    4.00    1.99
  10   7   0    7.04    2.22
  -3   8   0    6.91    3.25
   2  -8   0   24.41    2.78
   2  -8   0   22.80    2.33
   2  -8   0   23.88    4.44
  -2   8   0   20.98    4.36
  -2   8   0   21.30    2.97
  -2   8   0   27.44    4.30
   1  -8   0   65.19    4.08
   1  -8   0   74.42    7.13
   1  -8   0   66.84    3.80
  -1   8   0   70.26    5.01
  -1   8   0   71.20    4.57
  -1   8   0   65.42    6.77
  -1   8   0   80.27    6.70
   0  -8   0    0.30    1.53
   0  -8   0   -0.32    0.98
   0  -8   0    1.28    1.06
   0  -8   0    1.12    1.25
   0  -8   0    1.37    1.19
   0  -8   0   -0.52    2.51
   0   8   0    0.18    1.36
   0   8   0    1.37    1.29
   0   8   0    4.47    2.60
   0   8   0    2.35    2.69
  -1  -8   0  193.34    8.08
  -1  -8   0  194.53    8.09
  -1  -8   0  195.64   11.71
  -1  -8   0  192.45    8.45
  -1  -8   0  206.25    8.35
  -1  -8   0  200.53    9.06
   1   8   0  210.41   10.80
   1   8   0  195.56   11.17
   1   8   0  191.42    8.91
   1   8   0  182.22    8.85
  -2  -8   0    0.48    0.99
  -2  -8   0    1.19    0.87
  -2  -8   0   -0.35    0.88
  -2  -8   0   -1.26    1.05
  -2  -8   0   -2.29    2.14
  -2  -8   0    1.02    0.95
   2   8   0    1.98    2.54
   2   8   0   -0.87    0.97
   2   8   0    1.92    2.14
   2   8   0   -0.75    0.97
  -3  -8   0   63.95    3.41
  -3  -8   0   74.42    5.57
  -3  -8   0   63.41    3.59
  -3  -8   0   66.45    3.80
  -3  -8   0   65.45    3.41
  -3  -8   0   57.61    3.86
   3   8   0   66.94    3.91
   3   8   0   65.91    5.75
   3   8   0   61.00    3.72
   3   8   0   59.39    5.02
  -4  -8   0   87.51    4.36
  -4  -8   0   97.91    6.17
  -4  -8   0   88.14    4.37
  -4  -8   0   88.68    4.79
  -4  -8   0   88.58    4.50
  -4  -8   0  100.45    4.91
   4   8   0   86.38    4.70
   4   8   0   92.37    5.29
   4   8   0   93.17    6.31
   4   8   0   85.37    4.72
  -5  -8   0    7.31    1.84
  -5  -8   0    9.87    1.40
  -5  -8   0    8.74    1.61
  -5  -8   0    6.13    1.26
  -5  -8   0    8.61    1.98
  -5  -8   0    6.81    1.43
   5   8   0   10.55    1.62
   5   8   0    8.61    1.57
   5   8   0    7.67    2.35
  -6  -8   0   68.81    4.87
  -6  -8   0   64.53    3.50
  -6  -8   0   62.58    3.72
  -6  -8   0   59.42    3.70
  -6  -8   0   64.18    3.91
  -6  -8   0   62.34    3.48
  -6  -8   0   66.79    4.28
  -6  -8   0   67.74    3.55
   6   8   0   70.76    3.53
   6   8   0   63.93    4.88
   6   8   0   62.94    3.82
   6   8   0   61.79    3.81
  -7  -8   0   18.84    1.93
  -7  -8   0   16.85    1.91
  -7  -8   0   15.97    2.10
  -7  -8   0   13.31    2.62
  -7  -8   0   16.64    2.16
  -7  -8   0   16.21    2.06
  -7  -8   0   17.78    2.24
  -7  -8   0   16.97    1.99
   7   8   0   18.52    2.08
   7   8   0   14.63    2.03
   7   8   0   17.83    2.12
   7   8   0   18.99    1.95
  -8  -8   0   48.13    3.42
  -8  -8   0   43.15    3.17
  -8  -8   0   52.98    3.55
  -8  -8   0   45.57    3.10
  -8  -8   0   49.83    4.50
  -8  -8   0   43.00    3.87
   8   8   0   45.01    3.61
   8   8   0   51.46    3.82
   8   8   0   48.85    3.06
   8   8   0   40.59    3.95
  -9  -8   0    0.60    1.25
  -9  -8   0    3.82    2.26
  -9  -8   0   -0.18    1.72
  -9  -8   0   -0.41    1.28
   9   8   0    1.81    1.71
   9   8   0    0.74    1.39
   9   8   0    0.28    1.89
   1  -9   0    3.39    1.71
   1  -9   0    3.87    1.45
   1  -9   0    4.35    3.05
  -1   9   0    3.93    2.94
  -1   9   0    4.07    3.49
   0  -9   0   48.81    3.33
   0  -9   0   56.49    3.33
   0  -9   0   50.98    3.54
   0  -9   0   63.84    6.61
   0   9   0   62.35    5.86
   0   9   0   51.98    6.06
   0   9   0   53.78    4.52
   0   9   0   47.34    4.14
  -1  -9   0    6.56    1.96
  -1  -9   0    4.46    1.40
  -1  -9   0    5.97    2.92
  -1  -9   0    4.15    1.19
  -1  -9   0    4.74    1.35
   1   9   0    4.49    1.50
   1   9   0    5.30    1.71
   1   9   0   11.71    3.49
   1   9   0   11.29    3.06
  -2  -9   0    1.10    1.57
  -2  -9   0   -2.11    2.44
  -2  -9   0   -0.14    1.00
  -2  -9   0    1.22    1.23
  -2  -9   0    1.29    1.07
   2   9   0    2.81    2.52
   2   9   0    1.23    2.61
   2   9   0   -0.20    1.24
   2   9   0   -0.01    1.12
  -3  -9   0   61.28    3.43
  -3  -9   0   57.13    4.02
  -3  -9   0   59.72    3.62
  -3  -9   0   55.83    3.36
  -3  -9   0   67.35    6.09
   3   9   0   57.04    5.61
   3   9   0   55.99    5.47
   3   9   0   64.33    4.02
   3   9   0   56.51    3.71
  -4  -9   0   17.92    2.05
  -4  -9   0   14.30    1.78
  -4  -9   0   16.44    3.06
  -4  -9   0   13.71    2.14
  -4  -9   0   19.20    2.41
  -4  -9   0   13.26    1.74
   4   9   0   12.43    3.05
   4   9   0   16.79    2.21
   4   9   0   13.20    1.95
  -5  -9   0   40.64    3.09
  -5  -9   0   48.70    3.19
  -5  -9   0   43.31    2.91
  -5  -9   0   41.29    3.57
  -5  -9   0   56.74    4.27
  -5  -9   0   51.84    4.12
   5   9   0   46.82    3.24
   5   9   0   46.08    4.64
   5   9   0   46.11    3.58
  -6  -9   0   -2.13    1.68
  -6  -9   0    2.15    1.36
  -6  -9   0    0.88    1.21
  -6  -9   0   -0.33    1.02
  -6  -9   0    0.32    1.40
  -6  -9   0    1.41    1.17
   6   9   0   -0.47    1.07
   6   9   0   -1.35    1.15
   6   9   0    2.04    2.13
   6   9   0   -0.36    0.99
  -7  -9   0   13.41    2.02
  -7  -9   0   13.98    1.85
  -7  -9   0   14.95    2.07
  -7  -9   0   11.42    2.60
  -7  -9   0   12.37    1.94
  -7  -9   0   14.58    2.14
   7   9   0   11.65    1.76
   7   9   0   12.77    1.94
   7   9   0   14.28    2.04
  -8  -9   0    2.63    1.55
  -8  -9   0   -0.83    1.26
  -8  -9   0    3.34    1.38
  -8  -9   0    0.45    2.26
  -8  -9   0    1.27    1.23
  -8  -9   0    2.99    1.40
   8   9   0    3.39    1.35
   8   9   0   -0.25    1.26
   8   9   0    6.54    1.76
  -9  -9   0   16.38    2.41
  -9  -9   0   19.71    2.71
  -9  -9   0   14.19    2.10
  -9  -9   0   13.14    3.13
  -9  -9   0   16.22    2.75
   9   9   0   14.04    2.23
   9   9   0   12.27    2.34
   9   9   0   17.13    2.99
   0 -10   0   26.33    2.75
   0 -10   0   31.69    5.02
   0 -10   0   28.63    3.11
   0  10   0   24.15    3.65
   0  10   0   25.79    4.95
   0  10   0   31.74    4.62
  -1 -10   0   -0.54    1.18
  -1 -10   0    1.37    1.43
  -1 -10   0    4.66    3.00
  -1 -10   0   -0.78    1.10
   1  10   0    2.81    3.05
   1  10   0   -0.96    1.73
  -2 -10   0  142.71    7.39
  -2 -10   0  128.03    6.43
  -2 -10   0  135.69    6.29
  -2 -10   0  117.73    6.07
  -2 -10   0  145.21    9.69
   2  10   0  127.71    6.83
   2  10   0  123.12    7.01
   2  10   0  138.60    9.17
  -3 -10   0    0.20    1.15
  -3 -10   0    1.73    2.61
  -3 -10   0   -0.97    1.16
  -3 -10   0    2.13    1.26
  -3 -10   0    1.36    1.47
   3  10   0    3.82    1.48
   3  10   0    0.67    1.42
   3  10   0    2.02    2.47
  -4 -10   0   56.59    3.50
  -4 -10   0   52.10    3.51
  -4 -10   0   58.97    4.19
  -4 -10   0   67.84    6.08
  -4 -10   0   57.44    3.77
   4  10   0   52.02    5.47
   4  10   0   59.67    4.09
   4  10   0   58.86    3.91
  -5 -10   0   16.97    2.13
  -5 -10   0   14.68    2.01
  -5 -10   0   15.93    2.19
  -5 -10   0   17.09    2.53
  -5 -10   0   16.64    2.92
   5  10   0   14.48    3.28
   5  10   0   16.40    2.34
   5  10   0   14.69    2.23
  -6 -10   0   16.17    2.06
  -6 -10   0   19.17    2.32
  -6 -10   0   22.02    2.98
  -6 -10   0   21.94    2.33
  -6 -10   0   17.09    2.50
   6  10   0   17.45    3.42
   6  10   0   14.80    2.34
   6  10   0   20.34    2.45
  -7 -10   0   18.03    2.18
  -7 -10   0   20.03    2.66
  -7 -10   0   21.56    2.52
  -7 -10   0   19.70    2.39
   7  10   0   25.72    2.81
   7  10   0   21.31    2.55
   7  10   0   22.91    2.42
  -8 -10   0   10.66    2.15
  -8 -10   0   12.58    1.99
  -8 -10   0   13.60    2.29
  -8 -10   0   15.32    2.29
   8  10   0   16.36    2.40
   8  10   0   11.68    2.19
   8  10   0   10.22    2.04
   8  10   0    9.98    1.88
  -2 -11   0    2.01    1.40
  -2 -11   0    1.88    1.47
  -3 -11   0    6.77    1.81
  -3 -11   0    8.77    3.34
  -3 -11   0    5.73    1.58
  -3 -11   0    6.58    1.70
   3  11   0    9.87    3.67
   3  11   0    6.03    2.11
  -4 -11   0   19.68    2.35
  -4 -11   0   20.10    2.51
  -4 -11   0   23.87    2.57
  -4 -11   0   13.59    3.46
  -4 -11   0   25.47    3.16
   4  11   0   14.65    2.58
   4  11   0   16.48    3.80
  -5 -11   0    2.50    1.37
  -5 -11   0    2.54    2.25
  -5 -11   0    5.01    1.66
  -5 -11   0    4.51    2.04
  -5 -11   0    1.85    1.31
   5  11   0    2.88    1.67
   5  11   0    2.67    2.61
  -6 -11   0    8.94    1.85
  -6 -11   0   14.51    2.28
  -6 -11   0   14.79    2.17
  -6 -11   0   17.87    3.00
  -6 -11   0   12.26    2.45
   6  11   0   11.93    3.29
   6  11   0   14.24    2.36
  -7 -11   0   -1.20    1.22
  -7 -11   0   -1.30    1.34
  -7 -11   0   -1.40    1.31
   7  11   0   -0.29    1.12
   7  11   0   -0.82    1.49
   7  11  -1   10.46    2.19
   7  11  -1    2.44    1.42
  -7 -11   1    2.92    1.84
  -7 -11   1    1.32    1.51
  -7 -11   1    4.13    1.61
  -7 -11   1    3.44    1.70
   6  11  -1   28.13    4.30
   6  11  -1   22.91    2.97
  -6 -11   1   27.47    3.72
  -6 -11   1   31.04    3.00
  -6 -11   1   18.91    2.43
  -6 -11   1   23.92    2.74
  -6 -11   1   27.33    3.23
   5  11  -1   15.11    3.62
   5  11  -1    9.42    2.16
  -5 -11   1   13.21    2.07
  -5 -11   1   18.34    3.43
  -5 -11   1   10.80    2.06
  -5 -11   1   10.42    2.30
  -5 -11   1    8.45    1.87
   4  11  -1    2.38    2.68
   4  11  -1    3.54    1.68
  -4 -11   1    3.32    1.79
  -4 -11   1    4.95    1.57
  -4 -11   1    2.83    2.49
  -4 -11   1    3.68    1.64
  -4 -11   1    3.61    1.53
   3  11  -1    0.86    1.62
   3  11  -1    0.75    2.80
  -3 -11   1    2.57    1.41
  -3 -11   1    0.68    2.62
  -3 -11   1    2.26    1.46
  -3 -11   1    1.08    1.66
  -3 -11   1   -0.28    1.25
   2  11  -1    5.26    3.24
   2  11  -1    1.95    1.88
  -2 -11   1    0.53    2.00
  -2 -11   1    0.63    1.47
  -2 -11   1    0.85    2.68
  -2 -11   1    1.21    1.42
   8  10  -1    2.39    1.35
   8  10  -1    1.93    1.62
  -8 -10   1    1.74    1.59
  -8 -10   1    4.67    1.78
  -8 -10   1    2.34    1.39
   7  10  -1   81.10    5.05
   7  10  -1   85.63    5.09
   7  10  -1   86.64    4.57
  -7 -10   1   89.67    4.96
  -7 -10   1   87.99    4.65
  -7 -10   1   87.62    4.89
  -7 -10   1   90.31    5.25
   6  10  -1   -1.04    1.16
   6  10  -1    0.12    1.29
   6  10  -1   -2.92    2.09
  -6 -10   1    0.06    1.10
  -6 -10   1    0.35    1.34
  -6 -10   1   -0.70    1.16
  -6 -10   1   -0.73    1.51
  -6 -10   1   -0.91    1.16
   5  10  -1   18.88    2.42
   5  10  -1   14.78    3.45
   5  10  -1   14.51    2.24
  -5 -10   1   11.84    1.97
  -5 -10   1   14.26    2.03
  -5 -10   1   15.16    2.94
  -5 -10   1   15.73    2.45
  -5 -10   1   11.01    1.76
   4  10  -1    8.52    3.15
   4  10  -1    9.93    2.04
   4  10  -1   12.32    2.08
  -4 -10   1   12.96    1.98
  -4 -10   1   16.68    2.10
  -4 -10   1   13.37    1.90
  -4 -10   1   16.17    3.36
  -4 -10   1   11.75    2.22
   3  10  -1    1.71    2.49
   3  10  -1   -1.12    1.33
   3  10  -1    0.23    1.36
  -3 -10   1    0.80    1.22
  -3 -10   1    2.86    1.26
  -3 -10   1    0.19    2.49
  -3 -10   1    1.96    1.20
  -3 -10   1    1.08    1.58
   2  10  -1    6.22    3.05
   2  10  -1    6.84    1.83
   2  10  -1    6.30    3.20
   2  10  -1    9.58    2.08
  -2 -10   1   12.07    3.49
  -2 -10   1    8.07    1.80
  -2 -10   1    6.74    2.07
  -2 -10   1    9.65    1.71
  -2 -10   1    6.22    1.59
   1  10  -1   -0.49    2.71
   1  10  -1    5.91    3.16
   1  10  -1   -0.79    1.52
  -1 -10   1   -1.37    1.74
  -1 -10   1   -1.32    2.48
  -1 -10   1   -0.07    1.12
  -1 -10   1    0.60    1.34
   0  10  -1   11.39    2.74
   0  10  -1   14.53    3.65
   0  10  -1    6.53    3.63
   0 -10   1   16.14    2.47
   0 -10   1   13.69    2.91
   0 -10   1   17.13    2.34
   0 -10   1   16.26    3.98
   9   9  -1   14.38    2.47
   9   9  -1   14.61    2.96
  -9  -9   1   23.63    3.65
   8   9  -1   25.66    2.93
   8   9  -1   27.28    3.48
   8   9  -1   31.24    2.99
   8   9  -1   32.39    2.76
  -8  -9   1   32.27    3.01
  -8  -9   1   32.22    3.91
  -8  -9   1   37.46    2.89
  -8  -9   1   27.96    2.96
   7   9  -1    0.74    1.28
   7   9  -1   -0.58    1.15
   7   9  -1   -1.49    0.89
   7   9  -1    0.29    1.21
  -7  -9   1    0.77    1.26
  -7  -9   1   -0.66    1.18
  -7  -9   1    1.20    1.27
  -7  -9   1   -0.45    1.16
  -7  -9   1   -0.41    1.02
  -7  -9   1    0.61    1.96
   6   9  -1    1.49    1.30
   6   9  -1   -0.68    1.14
   6   9  -1    4.52    2.20
  -6  -9   1    0.52    0.98
  -6  -9   1    2.13    1.55
  -6  -9   1    0.28    1.18
  -6  -9   1    1.80    1.39
  -6  -9   1    0.07    1.10
   5   9  -1   29.00    2.84
   5   9  -1   38.57    3.09
   5   9  -1   25.99    3.99
  -5  -9   1   32.39    2.82
  -5  -9   1   36.69    2.84
  -5  -9   1   40.81    3.90
  -5  -9   1   33.23    3.03
  -5  -9   1   31.73    2.65
   4   9  -1   21.71    3.04
   4   9  -1   21.31    2.41
   4   9  -1   24.09    2.59
   4   9  -1   24.88    3.87
  -4  -9   1   26.12    2.32
  -4  -9   1   22.03    2.60
  -4  -9   1   21.55    2.20
  -4  -9   1   27.71    3.64
  -4  -9   1   23.43    2.40
   3   9  -1    0.51    2.37
   3   9  -1    3.39    1.46
   3   9  -1    5.81    2.53
   3   9  -1    4.66    1.43
  -3  -9   1    2.13    1.05
  -3  -9   1    3.13    2.54
  -3  -9   1    4.56    1.21
  -3  -9   1    4.35    1.30
  -3  -9   1    2.48    1.47
   2   9  -1    2.86    1.37
   2   9  -1    6.44    1.66
   2   9  -1    5.13    2.76
   2   9  -1    6.96    2.88
  -2  -9   1    9.40    3.13
  -2  -9   1    6.62    1.47
  -2  -9   1    7.06    1.37
  -2  -9   1    7.11    1.50
  -2  -9   1    6.71    1.76
   1   9  -1   10.20    3.30
   1   9  -1    6.89    2.94
   1   9  -1    8.67    1.85
   1   9  -1    7.53    1.92
  -1  -9   1    9.44    1.75
  -1  -9   1    5.39    1.93
  -1  -9   1    7.58    1.53
  -1  -9   1    7.99    1.57
  -1  -9   1    5.49    3.11
   0   9  -1   19.90    2.65
   0   9  -1   22.73    2.99
   0   9  -1   25.50    4.16
   0   9  -1   17.92    4.03
   0  -9   1   14.29    1.99
   0  -9   1   16.71    2.25
   0  -9   1   15.72    2.73
   0  -9   1   20.91    4.14
  -1   9  -1    0.28    2.74
  -1   9  -1   -0.85    2.61
  -1   9  -1    3.33    2.11
   1  -9   1    2.17    1.40
   1  -9   1    2.15    2.63
   1  -9   1    3.57    1.70
   9   8  -1   20.60    3.25
   9   8  -1   27.60    3.16
  -9  -8   1   31.09    3.14
  -9  -8   1   33.24    3.98
  -9  -8   1   25.21    3.43
  -9  -8   1   28.10    3.44
   8   8  -1   39.67    3.46
   8   8  -1   41.81    3.33
   8   8  -1   47.15    4.12
   8   8  -1   42.74    3.54
  -8  -8   1   35.08    3.99
  -8  -8   1   39.97    3.37
  -8  -8   1   40.40    3.52
  -8  -8   1   42.24    3.37
  -8  -8   1   34.99    3.82
  -8  -8   1   42.66    3.72
  -8  -8   1   40.74    3.05
   7   8  -1    4.46    1.19
   7   8  -1    4.84    1.32
   7   8  -1    4.56    1.35
   7   8  -1    7.43    2.01
   7   8  -1    6.23    1.54
  -7  -8   1    3.62    1.54
  -7  -8   1    4.07    1.41
  -7  -8   1    5.54    1.47
  -7  -8   1    7.06    2.25
  -7  -8   1    2.88    1.25
  -7  -8   1    5.82    1.24
  -7  -8   1    3.06    1.20
  -7  -8   1    2.41    1.30
   6   8  -1  142.30    6.51
   6   8  -1  137.26    6.59
   6   8  -1  130.70    8.04
   6   8  -1  137.32    5.96
   6   8  -1  135.47    6.77
  -6  -8   1  138.58    6.00
  -6  -8   1  129.55    6.00
  -6  -8   1  135.79    6.50
  -6  -8   1  138.69    7.40
  -6  -8   1  145.84    6.60
  -6  -8   1  136.68    6.90
  -6  -8   1  133.76    8.40
  -6  -8   1  134.08    6.27
  -6  -8   1  127.28    7.10
   5   8  -1   -0.65    1.92
   5   8  -1    0.20    1.05
   5   8  -1    3.13    1.23
   5   8  -1    2.16    1.43
  -5  -8   1    0.17    2.45
  -5  -8   1    2.19    1.26
  -5  -8   1    2.66    1.74
  -5  -8   1    3.94    1.65
  -5  -8   1    2.32    0.96
  -5  -8   1    0.74    1.08
  -5  -8   1    1.71    0.98
   4   8  -1   33.31    2.73
   4   8  -1   33.99    3.09
   4   8  -1   32.84    2.78
   4   8  -1   29.44    3.93
  -4  -8   1   40.89    3.97
  -4  -8   1   39.18    3.05
  -4  -8   1   29.46    2.99
  -4  -8   1   36.33    2.73
  -4  -8   1   33.43    2.54
  -4  -8   1   33.93    2.54
   3   8  -1   12.93    1.80
   3   8  -1   12.40    3.00
   3   8  -1   14.70    2.48
   3   8  -1   11.45    1.75
  -3  -8   1   13.94    1.94
  -3  -8   1   11.30    1.59
  -3  -8   1   18.42    3.17
  -3  -8   1   14.73    1.64
  -3  -8   1   11.52    1.57
  -3  -8   1   12.42    1.90
   2   8  -1   15.30    3.24
   2   8  -1   13.48    1.76
   2   8  -1    7.68    1.70
   2   8  -1   12.41    2.89
  -2  -8   1   14.48    3.22
  -2  -8   1   13.42    1.61
  -2  -8   1   11.56    1.93
  -2  -8   1   15.78    1.79
  -2  -8   1   13.21    1.66
   1   8  -1   -1.30    2.28
   1   8  -1    2.28    1.40
   1   8  -1    2.44    1.28
   1   8  -1    0.42    2.50
  -1  -8   1    1.66    2.47
  -1  -8   1    2.15    1.01
  -1  -8   1    1.97    1.02
  -1  -8   1    1.32    1.06
  -1  -8   1    1.02    1.36
   0   8  -1    4.27    2.92
   0   8  -1    5.26    2.74
   0   8  -1    2.21    1.52
   0   8  -1    4.24    1.55
   0  -8   1    4.58    1.64
   0  -8   1    0.66    2.50
   0  -8   1    4.07    1.29
   0  -8   1    6.80    1.33
   0  -8   1    3.84    1.44
  -1   8  -1    5.73    2.98
  -1   8  -1    5.72    1.96
  -1   8  -1    7.80    3.34
  -1   8  -1    6.34    1.89
   1  -8   1    7.41    1.56
   1  -8   1    4.97    1.99
   1  -8   1    4.81    2.61
   1  -8   1    7.11    1.42
  -2   8  -1   17.69    2.79
  -2   8  -1   23.71    4.44
  -2   8  -1   16.17    3.71
   2  -8   1   22.28    4.05
   2  -8   1   11.25    2.11
   2  -8   1   21.88    2.29
  -3   8  -1   35.79    5.13
  -3   8  -1   38.50    5.03
   3  -8   1   31.06    4.80
   3  -8   1   32.98    3.39
   9   7  -1   34.62    3.84
   9   7  -1   33.41    3.53
   9   7  -1   36.50    3.66
   9   7  -1   32.99    3.45
  -9  -7   1   34.54    3.95
  -9  -7   1   39.08    3.94
  -9  -7   1   32.43    3.75
  -9  -7   1   36.46    2.99
  -9  -7   1   30.31    3.33
   8   7  -1   33.78    3.50
   8   7  -1   30.37    3.10
   8   7  -1   25.35    2.99
   8   7  -1   33.06    3.20
  -8  -7   1   35.98    2.75
  -8  -7   1   33.95    2.95
  -8  -7   1   27.48    3.14
  -8  -7   1   34.59    3.10
  -8  -7   1   34.59    3.62
  -8  -7   1   29.39    3.55
   7   7  -1   77.63    4.27
   7   7  -1   73.14    4.40
   7   7  -1   73.72    3.76
   7   7  -1   76.10    4.35
   7   7  -1   67.26    4.65
  -7  -7   1   82.04    4.43
  -7  -7   1   75.31    4.49
  -7  -7   1   75.87    3.81
  -7  -7   1   75.54    4.83
  -7  -7   1   80.19    4.01
  -7  -7   1   69.56    4.83
  -7  -7   1   76.62    4.23
  -7  -7   1   80.41    4.27
  -7  -7   1   73.21    4.43
  -7  -7   1   74.60    3.88
   6   7  -1    7.82    1.47
   6   7  -1   10.01    1.34
   6   7  -1   10.83    2.38
   6   7  -1    9.71    1.46
   6   7  -1    9.17    1.53
   6   7  -1    7.96    1.41
   6   7  -1   12.67    1.65
  -6  -7   1    9.24    1.31
  -6  -7   1    8.50    1.48
  -6  -7   1   11.03    1.68
  -6  -7   1   10.44    2.02
  -6  -7   1   10.94    2.60
  -6  -7   1    7.62    1.34
  -6  -7   1    7.66    1.49
  -6  -7   1    6.97    1.40
  -6  -7   1    8.11    1.44
  -6  -7   1   10.16    1.53
  -6  -7   1   10.62    1.49
  -6  -7   1    6.21    1.17
  -6  -7   1   11.65    2.23
  -6  -7   1    7.80    1.23
  -6  -7   1   10.70    1.78
   5   7  -1   -0.43    0.88
   5   7  -1   -1.47    1.63
   5   7  -1    0.83    0.94
   5   7  -1   -1.26    0.74
   5   7  -1   -0.13    1.02
   5   7  -1    1.52    0.83
  -5  -7   1   -0.43    0.68
  -5  -7   1    0.86    0.79
  -5  -7   1   -0.57    0.87
  -5  -7   1    0.77    0.67
  -5  -7   1    2.29    1.26
  -5  -7   1    1.10    0.85
  -5  -7   1    0.28    0.97
  -5  -7   1    0.97    0.87
  -5  -7   1    1.14    1.07
  -5  -7   1   -0.58    1.38
  -5  -7   1    2.55    2.15
  -5  -7   1   -0.53    0.85
  -5  -7   1   -0.85    0.71
  -5  -7   1    0.39    0.83
   4   7  -1   15.63    1.75
   4   7  -1   17.42    1.53
   4   7  -1   17.20    1.83
   4   7  -1   20.03    3.14
   4   7  -1   15.87    1.92
  -4  -7   1   16.87    1.54
  -4  -7   1   14.87    1.79
  -4  -7   1   14.06    1.55
  -4  -7   1   16.91    2.99
  -4  -7   1   17.42    1.65
  -4  -7   1   16.94    2.15
  -4  -7   1   16.00    2.48
  -4  -7   1   15.11    1.72
  -4  -7   1   17.56    1.39
   3   7  -1    5.72    1.28
   3   7  -1    6.81    1.63
   3   7  -1    3.77    2.11
   3   7  -1    6.76    1.29
  -3  -7   1    5.01    1.09
  -3  -7   1    4.03    1.92
  -3  -7   1    5.92    1.07
  -3  -7   1    6.22    1.31
  -3  -7   1    5.37    1.12
  -3  -7   1    8.71    1.48
   2   7  -1   -0.03    0.90
   2   7  -1   -0.12    1.79
   2   7  -1    0.03    2.16
   2   7  -1    0.92    1.04
  -2  -7   1    1.81    0.83
  -2  -7   1    2.78    1.18
  -2  -7   1    3.01    0.89
  -2  -7   1   -0.70    2.05
  -2  -7   1   -0.65    1.06
  -2  -7   1    0.95    0.87
   1   7  -1    2.69    2.41
   1   7  -1    3.71    1.18
   1   7  -1    2.55    2.40
   1   7  -1    3.81    1.28
  -1  -7   1    2.81    1.03
  -1  -7   1    2.67    0.94
  -1  -7   1    1.14    0.95
  -1  -7   1    3.17    1.04
  -1  -7   1    1.20    2.03
  -1  -7   1    3.70    1.34
   0   7  -1    7.17    1.56
   0   7  -1   11.66    3.08
   0   7  -1    8.01    1.72
   0   7  -1    9.59    2.81
   0  -7   1    7.34    1.32
   0  -7   1    7.78    1.80
   0  -7   1   10.26    1.43
   0  -7   1    9.51    1.37
   0  -7   1   11.23    1.41
   0  -7   1    6.26    2.79
  -1   7  -1   64.96    5.84
  -1   7  -1   60.66    3.95
  -1   7  -1   62.88    6.16
  -1   7  -1   55.49    3.94
   1  -7   1   62.13    4.03
   1  -7   1   59.17    3.33
   1  -7   1   60.55    5.99
   1  -7   1   58.30    3.50
  -2   7  -1    7.69    1.87
  -2   7  -1    3.13    2.67
  -2   7  -1    6.05    1.84
  -2   7  -1    4.33    2.72
   2  -7   1    6.00    1.54
   2  -7   1    6.30    1.32
   2  -7   1    6.05    2.94
   2  -7   1    3.09    1.76
  -3   7  -1   20.09    2.94
  -3   7  -1   26.09    4.23
  -3   7  -1   28.59    4.37
   3  -7   1   28.63    2.53
   3  -7   1   21.98    2.66
   3  -7   1   32.68    4.65
  -4   7  -1    2.89    2.78
  -4   7  -1    4.16    2.86
   4  -7   1    6.73    1.93
   4  -7   1    7.25    3.17
 -10  -6   1   50.49    5.17
 -10  -6   1   60.81    5.10
   9   6  -1    3.54    1.97
   9   6  -1    3.91    2.14
   9   6  -1    5.06    1.99
   9   6  -1    3.41    1.93
  -9  -6   1    4.09    1.70
  -9  -6   1    7.17    1.63
  -9  -6   1    4.43    2.07
  -9  -6   1    3.34    1.95
   8   6  -1   73.20    4.77
   8   6  -1   72.29    4.53
   8   6  -1   73.74    4.79
   8   6  -1   74.18    4.89
  -8  -6   1   79.96    4.72
  -8  -6   1   75.02    4.70
  -8  -6   1   71.94    4.26
  -8  -6   1   85.57    5.12
  -8  -6   1   66.59    5.20
  -8  -6   1   75.09    4.05
  -8  -6   1   87.15    5.12
   7   6  -1   16.70    2.10
   7   6  -1   19.40    2.27
   7   6  -1   18.75    1.76
   7   6  -1   22.17    2.68
  -7  -6   1   20.55    2.11
  -7  -6   1   20.37    2.29
  -7  -6   1   20.48    2.26
  -7  -6   1   16.49    2.50
  -7  -6   1   21.65    2.65
  -7  -6   1   18.92    1.90
  -7  -6   1   16.50    2.07
  -7  -6   1   16.86    2.28
   6   6  -1    0.35    1.01
   6   6  -1    1.10    0.82
   6   6  -1   -1.25    1.21
   6   6  -1    0.76    0.77
   6   6  -1    0.74    0.96
  -6  -6   1    0.83    0.91
  -6  -6   1    0.38    0.87
  -6  -6   1   -1.27    1.31
  -6  -6   1    0.00    0.79
  -6  -6   1    0.40    1.54
  -6  -6   1    0.49    0.85
  -6  -6   1   -0.28    1.15
  -6  -6   1   -1.54    0.78
  -6  -6   1    0.23    0.96
  -6  -6   1   -0.10    0.72
  -6  -6   1   -0.05    0.75
  -6  -6   1    0.74    0.87
  -6  -6   1   -1.08    0.94
  -6  -6   1   -0.78    0.89
  -6  -6   1   -1.04    0.88
   5   6  -1  142.54    5.98
   5   6  -1  135.44    7.36
   5   6  -1  137.69    6.29
   5   6  -1  126.30    6.04
   5   6  -1  134.09    6.30
  -5  -6   1  128.42    6.30
  -5  -6   1  138.38    6.17
  -5  -6   1  131.50    6.18
  -5  -6   1  136.36    5.53
  -5  -6   1  134.49    6.43
  -5  -6   1  141.02    6.00
  -5  -6   1  138.48    5.61
  -5  -6   1  125.27    6.28
  -5  -6   1  137.14    5.85
  -5  -6   1  129.04    5.53
  -5  -6   1  137.24    6.06
  -5  -6   1  141.97    6.91
  -5  -6   1  126.54    7.28
  -5  -6   1  111.59    5.95
  -5  -6   1  129.17    5.67
   4   6  -1    1.74    0.75
   4   6  -1    0.49    0.85
   4   6  -1    2.16    0.98
   4   6  -1    0.33    1.68
  -4  -6   1    1.41    0.75
  -4  -6   1    3.58    1.31
  -4  -6   1    1.82    0.77
  -4  -6   1    2.07    0.87
  -4  -6   1    2.16    0.99
  -4  -6   1    0.99    1.77
  -4  -6   1    1.09    0.79
  -4  -6   1    2.73    0.93
  -4  -6   1   -0.38    0.61
  -4  -6   1    2.12    0.80
  -4  -6   1    2.50    0.81
  -4  -6   1    1.83    1.22
  -4  -6   1    2.30    0.80
  -4  -6   1    2.15    0.76
   3   6  -1   66.07    3.27
   3   6  -1   67.61    3.49
   3   6  -1   62.66    4.85
   3   6  -1   67.95    3.79
  -3  -6   1   68.84    3.62
  -3  -6   1   67.70    3.03
  -3  -6   1   71.02    4.61
  -3  -6   1   69.19    3.30
  -3  -6   1   65.47    3.18
  -3  -6   1   69.08    3.38
  -3  -6   1   73.31    5.44
  -3  -6   1   71.89    3.35
  -3  -6   1   65.70    3.62
  -3  -6   1   66.13    3.15
   2   6  -1   11.57    1.77
   2   6  -1    7.86    2.47
   2   6  -1   10.67    1.08
   2   6  -1    8.39    1.30
  -2  -6   1   10.94    1.34
  -2  -6   1    9.91    0.94
  -2  -6   1   11.71    1.30
  -2  -6   1    8.81    1.36
  -2  -6   1    9.21    1.21
  -2  -6   1   13.01    2.56
  -2  -6   1    7.60    1.09
  -2  -6   1   12.90    1.14
   1   6  -1   45.24    2.78
   1   6  -1   47.60    4.69
   1   6  -1   53.60    4.32
  -1  -6   1   46.74    2.62
  -1  -6   1   49.70    2.37
  -1  -6   1   51.09    2.68
  -1  -6   1   52.06    2.64
  -1  -6   1   45.49    4.82
  -1  -6   1   48.14    3.06
  -1  -6   1   51.30    2.62
  -1  -6   1   50.71    2.72
   0   6  -1    1.66    1.07
   0   6  -1    0.48    1.91
   0   6  -1    1.89    2.32
   0   6  -1    3.28    1.18
   0  -6   1    3.26    0.98
   0  -6   1    2.10    0.83
   0  -6   1    3.72    2.16
   0  -6   1    4.30    1.00
   0  -6   1    1.25    0.71
   0  -6   1    3.34    1.24
   0  -6   1    3.02    0.95
   0  -6   1    3.16    0.86
  -1   6  -1   17.65    2.10
  -1   6  -1   18.53    2.10
  -1   6  -1   24.71    3.67
  -1   6  -1   27.63    3.89
   1  -6   1   17.45    3.38
   1  -6   1   22.81    1.89
   1  -6   1   19.30    2.20
   1  -6   1   18.68    1.73
   1  -6   1   21.61    2.08
   1  -6   1   20.94    1.72
   1  -6   1   20.73    2.03
  -2   6  -1    0.78    1.30
  -2   6  -1    2.23    2.47
  -2   6  -1    2.69    2.41
  -2   6  -1    1.06    1.30
   2  -6   1   -0.09    0.95
   2  -6   1    0.39    2.21
   2  -6   1    0.10    0.87
   2  -6   1    2.99    1.25
   2  -6   1    0.06    1.30
  -3   6  -1   23.64    3.95
  -3   6  -1   21.02    3.69
  -3   6  -1   21.97    2.87
   3  -6   1   20.15    2.01
   3  -6   1   24.09    2.38
   3  -6   1   21.35    2.49
   3  -6   1   24.59    3.94
  -4   6  -1   40.79    4.92
  -4   6  -1   46.31    5.09
  -4   6  -1   36.94    3.76
   4  -6   1   30.94    3.12
   4  -6   1   30.96    4.57
  -5   6  -1   29.96    4.40
   5  -6   1   25.21    4.33
   5  -6   1   29.76    3.26
 -10  -5   1   -1.73    1.58
   9   5  -1    3.14    1.96
   9   5  -1   -0.31    1.69
   9   5  -1    2.77    1.96
   9   5  -1    5.83    2.03
  -9  -5   1    3.15    1.92
  -9  -5   1    6.56    1.62
  -9  -5   1    4.11    1.83
  -9  -5   1    2.82    2.01
  -9  -5   1    1.07    1.67
   8   5  -1   21.99    2.78
   8   5  -1   26.76    2.85
   8   5  -1   22.51    2.79
   8   5  -1   21.70    2.76
  -8  -5   1   23.11    2.69
  -8  -5   1   17.27    2.62
  -8  -5   1   23.99    2.77
  -8  -5   1   20.30    2.72
  -8  -5   1   22.65    2.25
   7   5  -1   53.53    3.49
   7   5  -1   49.93    3.80
   7   5  -1   44.28    3.36
  -7  -5   1   51.82    3.17
  -7  -5   1   46.28    3.80
  -7  -5   1   41.71    3.56
  -7  -5   1   51.81    3.46
  -7  -5   1   48.18    3.28
  -7  -5   1   54.24    3.03
  -7  -5   1   47.21    3.56
   6   5  -1  134.48    6.11
   6   5  -1  131.61    6.53
   6   5  -1  133.28    5.49
   6   5  -1  129.09    6.43
   6   5  -1  138.14    5.77
  -6  -5   1  127.38    6.46
  -6  -5   1  136.47    6.58
  -6  -5   1  139.19    6.22
  -6  -5   1  136.22    5.57
  -6  -5   1  136.92    5.53
  -6  -5   1  135.43    6.58
  -6  -5   1  153.47    5.86
  -6  -5   1  130.40    7.00
  -6  -5   1  134.68    5.83
  -6  -5   1  131.14    6.16
  -6  -5   1  133.83    6.41
  -6  -5   1  129.93    6.52
  -6  -5   1  133.34    6.39
   5   5  -1   36.94    2.01
   5   5  -1   31.20    2.34
   5   5  -1   34.85    2.32
  -5  -5   1   31.38    2.33
  -5  -5   1   33.63    2.85
  -5  -5   1   32.91    1.99
  -5  -5   1   38.76    2.05
  -5  -5   1   34.69    2.14
  -5  -5   1   37.66    2.38
  -5  -5   1   32.31    2.31
  -5  -5   1   34.01    2.41
  -5  -5   1   37.00    2.38
  -5  -5   1   37.45    2.83
  -5  -5   1   35.28    2.11
  -5  -5   1   36.23    2.65
  -5  -5   1   33.73    2.25
  -5  -5   1   37.01    2.19
  -5  -5   1   35.84    3.18
   4   5  -1    7.13    1.04
   4   5  -1    5.58    0.98
  -4  -5   1    5.88    1.05
  -4  -5   1    5.95    1.04
  -4  -5   1    5.22    0.94
  -4  -5   1    5.79    1.00
  -4  -5   1    4.54    1.22
  -4  -5   1    5.62    1.33
  -4  -5   1    4.94    0.92
  -4  -5   1    4.57    0.86
  -4  -5   1    5.48    0.85
  -4  -5   1    4.70    0.82
  -4  -5   1    5.22    1.29
  -4  -5   1    5.87    0.85
  -4  -5   1    6.83    1.04
  -4  -5   1    4.98    1.60
   3   5  -1    1.81    0.61
   3   5  -1    0.70    1.31
   3   5  -1    1.88    0.70
   3   5  -1    0.18    0.72
  -3  -5   1    3.81    1.69
  -3  -5   1    0.21    0.69
  -3  -5   1    1.00    0.90
  -3  -5   1    6.21    1.36
  -3  -5   1    1.99    0.62
  -3  -5   1    1.49    0.64
  -3  -5   1    0.54    0.55
  -3  -5   1    0.86    0.57
  -3  -5   1    0.63    0.59
  -3  -5   1    0.00    0.66
  -3  -5   1    0.86    0.73
  -3  -5   1    1.06    0.91
  -3  -5   1    0.90    0.49
  -3  -5   1    1.47    0.62
  -3  -5   1    2.02    0.74
   2   5  -1    3.78    1.05
   2   5  -1    2.87    0.84
   2   5  -1    4.68    0.72
   2   5  -1    3.29    1.69
  -2  -5   1    3.09    0.75
  -2  -5   1    3.80    0.90
  -2  -5   1    4.11    0.56
  -2  -5   1    4.14    0.77
  -2  -5   1    5.23    0.74
  -2  -5   1    3.52    0.72
  -2  -5   1    2.72    1.77
  -2  -5   1    4.00    0.62
  -2  -5   1    5.02    1.47
  -2  -5   1    3.43    0.95
   1   5  -1    2.69    0.85
   1   5  -1    4.19    1.84
   1   5  -1    4.36    0.87
   1   5  -1    4.82    1.51
  -1  -5   1    5.43    0.86
  -1  -5   1    5.36    0.69
  -1  -5   1    2.43    1.67
  -1  -5   1    5.29    0.86
  -1  -5   1    4.85    0.92
  -1  -5   1    4.53    0.75
  -1  -5   1    6.24    0.92
  -1  -5   1    4.86    0.99
   0   5  -1   13.98    0.85
   0   5  -1   14.48    1.55
   0   5  -1   13.39    2.60
   0   5  -1   17.22    2.08
   0   5  -1   13.78    2.76
   0  -5   1   18.77    1.47
   0  -5   1   16.02    1.52
   0  -5   1   14.68    1.59
   0  -5   1   16.13    2.91
   0  -5   1   15.04    1.36
   0  -5   1   17.53    1.47
   0  -5   1   14.16    1.25
  -1   5  -1   14.04    1.63
  -1   5  -1   13.33    1.65
  -1   5  -1   13.48    2.68
  -1   5  -1   12.68    1.86
  -1   5  -1   13.09    2.71
   1  -5   1   14.48    1.40
   1  -5   1   15.08    3.02
   1  -5   1   12.30    1.53
   1  -5   1   12.99    1.28
   1  -5   1   13.81    1.70
   1  -5   1   13.87    1.36
   1  -5   1   12.08    1.59
  -2   5  -1   89.69    4.64
  -2   5  -1   86.88    4.82
  -2   5  -1   87.80    4.82
  -2   5  -1   98.21    6.43
  -2   5  -1   85.97    6.17
   2  -5   1   88.07    4.24
   2  -5   1   99.70    4.61
   2  -5   1   91.29    4.12
   2  -5   1   93.06    5.13
   2  -5   1   95.64    6.65
   2  -5   1   89.60    4.63
  -3   5  -1   31.41    4.11
  -3   5  -1   28.26    2.85
  -3   5  -1   31.49    3.98
  -3   5  -1   32.08    2.76
   3  -5   1   24.87    2.99
   3  -5   1   24.16    2.40
   3  -5   1   25.88    2.26
   3  -5   1   33.36    4.20
   3  -5   1   27.68    2.14
  -4   5  -1   60.22    5.68
  -4   5  -1   72.31    6.01
  -4   5  -1   68.43    4.51
   4  -5   1   57.66    5.96
   4  -5   1   68.45    3.50
   4  -5   1   72.33    4.06
   4  -5   1   68.21    4.78
   4  -5   1   55.41    3.96
  -5   5  -1    4.16    2.56
  -5   5  -1    1.19    1.87
  -5   5  -1    4.87    2.60
   5  -5   1    3.91    1.72
   5  -5   1    2.12    2.80
   5  -5   1    3.06    1.70
   5  -5   1    6.60    2.37
  -6   5  -1   -0.76    2.39
   6  -5   1    1.42    1.82
   6  -5   1    0.62    1.80
   6  -5   1   -0.53    2.44
   9   4  -1   79.18    5.44
   9   4  -1   69.94    5.43
   9   4  -1   76.03    5.56
   9   4  -1   79.93    5.24
  -9  -4   1   76.75    5.52
  -9  -4   1   86.64    5.37
  -9  -4   1   75.19    5.30
  -9  -4   1   85.91    5.26
  -9  -4   1   78.58    4.49
   8   4  -1   13.63    2.35
   8   4  -1   11.35    2.22
   8   4  -1   16.25    2.45
   8   4  -1   12.49    2.30
  -8  -4   1   12.01    2.35
  -8  -4   1    9.76    2.00
  -8  -4   1   13.39    2.19
  -8  -4   1   13.68    1.92
  -8  -4   1   12.66    2.20
   7   4  -1  150.63    7.40
   7   4  -1  136.44    6.90
   7   4  -1  140.68    6.80
  -7  -4   1  151.96    7.24
  -7  -4   1  151.40    6.86
  -7  -4   1  142.14    7.13
  -7  -4   1  140.11    6.87
  -7  -4   1  141.21    6.34
  -7  -4   1  147.31    7.30
   6   4  -1    4.15    0.91
   6   4  -1    4.27    1.40
   6   4  -1    4.97    1.42
   6   4  -1    7.08    1.43
  -6  -4   1    5.46    1.21
  -6  -4   1    3.56    1.22
  -6  -4   1    5.72    1.27
  -6  -4   1    4.62    1.38
  -6  -4   1    5.95    1.36
  -6  -4   1    6.09    1.37
  -6  -4   1    6.44    1.57
  -6  -4   1    5.52    1.14
  -5  -4   1   16.24    1.70
   4   4  -1  185.46    8.00
   4   4  -1  176.67    7.24
  -4  -4   1  180.98    7.58
  -4  -4   1  183.41    8.55
  -4  -4   1  175.00    6.87
  -4  -4   1  181.96    6.90
  -4  -4   1  172.50    7.81
  -4  -4   1  183.04    8.54
  -4  -4   1  177.38    7.93
  -4  -4   1  188.00    7.58
  -4  -4   1  180.34    7.30
  -4  -4   1  179.16    7.37
  -4  -4   1  195.85    7.06
  -4  -4   1  181.25    7.94
  -4  -4   1  182.36    7.78
  -4  -4   1  176.94    7.24
  -4  -4   1  185.30    7.67
   3   4  -1    7.04    0.95
  -3  -4   1    5.99    0.79
  -3  -4   1    6.84    0.83
  -3  -4   1    7.24    0.92
  -3  -4   1    6.85    0.81
  -3  -4   1    5.98    0.77
  -3  -4   1    8.13    0.92
  -3  -4   1    7.47    0.88
  -3  -4   1    6.65    0.87
  -3  -4   1    4.91    1.31
  -3  -4   1    8.17    0.99
  -3  -4   1    8.65    1.26
  -3  -4   1    7.16    1.19
  -3  -4   1    9.20    1.21
  -3  -4   1    7.86    0.93
  -3  -4   1    7.02    0.97
   2   4  -1  147.34    6.16
   2   4  -1  148.79    6.21
   2   4  -1  149.12    6.51
   2   4  -1  157.49    7.50
  -2  -4   1  149.56    6.16
  -2  -4   1  149.60    6.20
  -2  -4   1  147.03    6.11
  -2  -4   1  149.85    6.02
  -2  -4   1  144.02    7.52
  -2  -4   1  147.34    5.70
  -2  -4   1  151.54    5.99
  -2  -4   1  151.21    6.34
  -2  -4   1  134.98    5.69
  -2  -4   1  156.57    5.89
  -2  -4   1  148.37    6.53
  -2  -4   1  146.23    5.81
  -2  -4   1  151.65    7.42
  -2  -4   1  144.60    6.18
   1   4  -1   15.61    0.82
   1   4  -1   15.55    1.31
  -1  -4   1   16.28    1.20
  -1  -4   1   18.13    1.29
  -1  -4   1   16.04    0.82
   0   4  -1   50.45    3.02
   0   4  -1   37.42    3.69
   0   4  -1   47.61    3.54
   0   4  -1   49.97    2.54
   0  -4   1   47.69    2.50
   0  -4   1   48.22    2.29
   0  -4   1   48.34    2.44
   0  -4   1   46.68    2.61
   0  -4   1   46.41    4.24
   0  -4   1   47.30    2.32
   0  -4   1   49.47    2.24
  -1   4  -1   35.04    2.37
  -1   4  -1   36.17    2.82
  -1   4  -1   36.09    3.65
  -1   4  -1   36.54    3.59
  -1   4  -1   36.88    1.66
   1  -4   1   38.27    2.29
   1  -4   1   38.04    1.95
   1  -4   1   36.39    1.98
   1  -4   1   39.01    2.58
   1  -4   1   34.31    2.02
   1  -4   1   37.03    2.16
   1  -4   1   38.33    3.98
  -2   4  -1   84.66    5.99
  -2   4  -1   87.41    4.54
  -2   4  -1   79.57    4.64
  -2   4  -1   87.13    3.59
  -2   4  -1   85.84    4.16
  -2   4  -1   89.33    6.10
   2  -4   1   85.91    3.93
   2  -4   1   85.82    4.13
   2  -4   1   86.45    4.22
   2  -4   1   85.65    4.90
   2  -4   1   82.86    3.78
   2  -4   1   96.10    6.22
  -3   4  -1   -0.46    0.59
  -3   4  -1    2.66    2.15
  -3   4  -1    0.16    1.16
  -3   4  -1   -0.34    1.22
  -3   4  -1    0.73    1.01
  -3   4  -1   -1.75    1.99
   3  -4   1   -1.19    0.95
   3  -4   1    2.91    2.28
   3  -4   1    1.83    1.08
   3  -4   1   -0.44    1.01
   3  -4   1    0.81    1.55
   3  -4   1    0.54    0.74
  -4   4  -1   11.81    2.77
  -4   4  -1   11.62    2.08
  -4   4  -1   10.24    2.01
  -4   4  -1   10.50    2.84
   4  -4   1   13.58    2.54
   4  -4   1   14.71    3.17
   4  -4   1   13.84    1.91
   4  -4   1   12.43    1.78
   4  -4   1   14.01    1.52
  -5   4  -1   40.28    4.50
  -5   4  -1   28.31    3.31
  -5   4  -1   36.17    3.53
  -5   4  -1   43.63    4.27
   5  -4   1   36.29    3.15
   5  -4   1   34.99    3.23
   5  -4   1   39.70    4.07
   5  -4   1   40.98    4.81
  -6   4  -1   55.15    5.54
  -6   4  -1   54.01    4.68
  -6   4  -1   46.01    4.32
   6  -4   1   48.10    4.09
   6  -4   1   54.85    4.14
   6  -4   1   63.89    5.38
   6  -4   1   50.70    5.74
   9   3  -1    5.65    2.29
   9   3  -1    6.73    2.09
   9   3  -1    6.96    2.45
   9   3  -1    4.20    2.37
  -9  -3   1    6.58    2.31
  -9  -3   1    5.13    2.10
  -9  -3   1   10.23    2.39
  -9  -3   1    5.99    1.93
  -9  -3   1    7.77    1.92
   8   3  -1   17.91    2.66
   8   3  -1   21.30    2.87
   8   3  -1   29.71    3.33
   8   3  -1   27.25    3.01
  -8  -3   1   21.52    2.81
  -8  -3   1   23.30    2.49
  -8  -3   1   21.03    2.85
  -8  -3   1   20.89    2.80
  -8  -3   1   26.37    2.86
   7   3  -1   22.97    2.58
   7   3  -1   22.89    2.56
   7   3  -1   23.31    2.66
   7   3  -1   24.38    2.68
  -7  -3   1   17.20    2.20
  -7  -3   1   21.46    2.29
  -7  -3   1   21.22    2.55
  -7  -3   1   22.62    2.58
  -7  -3   1   22.67    2.57
  -7  -3   1   22.27    2.19
   6   3  -1   68.09    3.99
   6   3  -1   65.58    3.94
   6   3  -1   70.89    3.89
  -6  -3   1   61.75    3.76
  -6  -3   1   64.03    3.89
  -6  -3   1   67.17    3.51
  -6  -3   1   65.81    3.64
  -6  -3   1   65.18    3.84
  -6  -3   1   64.90    3.69
  -6  -3   1   67.09    3.98
   5   3  -1  181.60    8.20
   5   3  -1  176.28    7.03
   5   3  -1  190.91    7.77
   5   3  -1  178.07    6.80
   5   3  -1  176.49    7.49
  -5  -3   1  193.91    8.35
  -5  -3   1  176.68    7.71
  -5  -3   1  171.50    7.90
  -5  -3   1  178.56    7.06
  -5  -3   1  176.71    6.66
  -5  -3   1  177.51    8.16
  -5  -3   1  173.22    7.57
  -5  -3   1  173.62    8.05
  -5  -3   1  183.40    8.03
  -5  -3   1  177.65    7.18
  -5  -3   1  181.16    7.66
   4   3  -1  109.72    4.26
   4   3  -1  108.13    4.72
   4   3  -1  109.05    5.15
   4   3  -1  109.93    4.97
  -4  -3   1  105.70    5.09
  -4  -3   1  112.53    4.81
  -4  -3   1  100.97    4.45
  -4  -3   1  108.80    4.72
  -4  -3   1  118.86    4.72
  -4  -3   1  112.11    5.40
  -4  -3   1  108.36    4.96
  -4  -3   1  108.17    4.22
  -4  -3   1  106.31    4.99
  -4  -3   1  111.43    4.52
  -4  -3   1  108.49    4.27
  -4  -3   1  109.26    5.06
  -4  -3   1  103.92    5.00
  -4  -3   1  106.33    4.79
  -3  -3   1   31.60    1.74
  -3  -3   1   27.94    1.65
  -3  -3   1   28.66    1.99
  -3  -3   1   30.42    1.50
  -3  -3   1   28.70    1.74
  -3  -3   1   30.96    1.60
  -3  -3   1   31.21    1.71
  -3  -3   1   26.52    1.81
  -3  -3   1   32.27    1.83
  -3  -3   1   30.38    1.70
  -3  -3   1   30.42    1.89
  -3  -3   1   29.32    2.20
  -3  -3   1   28.16    1.48
  -3  -3   1   29.47    2.04
  -3  -3   1   32.70    1.85
   2   3  -1   37.91    1.83
  -2  -3   1   34.74    1.66
  -2  -3   1   35.89    2.30
  -2  -3   1   41.53    1.92
  -2  -3   1   34.15    1.64
  -2  -3   1   35.37    1.70
  -2  -3   1   33.60    1.82
  -2  -3   1   37.29    1.83
  -2  -3   1   33.76    1.77
  -2  -3   1   34.93    1.75
  -2  -3   1   33.97    1.94
  -2  -3   1   31.96    1.87
  -2  -3   1   35.03    1.68
  -2  -3   1   35.98    2.03
  -2  -3   1   32.73    2.51
  -2  -3   1   34.99    1.81
   1   3  -1    2.80    1.21
   1   3  -1    1.67    0.65
   1   3  -1    0.96    0.43
   1   3  -1    1.24    0.48
  -1  -3   1    1.45    0.32
  -1  -3   1    1.67    0.96
  -1  -3   1    0.61    0.50
  -1  -3   1    1.66    0.47
  -1  -3   1    0.95    0.42
  -1  -3   1    0.46    0.46
  -1  -3   1    0.28    1.04
  -1  -3   1    1.91    0.50
  -1  -3   1    0.58    0.36
  -1  -3   1    0.83    0.48
   0   3  -1   69.86    4.27
   0   3  -1   66.33    3.75
   0   3  -1   71.16    3.19
   0   3  -1   74.80    3.27
   0  -3   1   52.97    4.17
   0  -3   1   72.67    2.93
   0  -3   1   70.85    2.92
   0  -3   1   67.27    2.84
   0  -3   1   70.45    3.00
   0  -3   1   70.33    3.23
   0  -3   1   72.64    3.19
  -1   3  -1    5.98    1.94
  -1   3  -1    2.90    1.34
  -1   3  -1    4.62    1.70
  -1   3  -1    4.52    0.88
  -1   3  -1    5.21    0.49
   1  -3   1    6.05    1.21
   1  -3   1    5.10    0.82
   1  -3   1    5.09    0.44
   1  -3   1    4.61    0.71
   1  -3   1    5.54    0.87
   1  -3   1    4.30    0.66
   1  -3   1    5.31    0.71
   1  -3   1    3.31    1.83
  -2   3  -1    0.69    0.57
  -2   3  -1   10.86    2.29
  -2   3  -1    3.44    1.37
  -3   3  -1  114.84    5.05
  -3   3  -1  114.10    4.77
  -3   3  -1  125.49    5.67
  -3   3  -1  116.77    5.06
  -3   3  -1   93.61    6.48
  -3   3  -1  108.36    6.66
  -3   3  -1  110.31    5.81
   3  -3   1  106.96    5.01
   3  -3   1  114.69    5.04
   3  -3   1  121.20    6.54
   3  -3   1  116.96    5.19
   3  -3   1  119.16    4.75
   3  -3   1  116.68    5.03
  -4   3  -1   43.46    2.49
  -4   3  -1   34.77    3.90
  -4   3  -1   45.16    4.01
  -4   3  -1   42.07    3.07
  -4   3  -1   48.63    3.46
  -4   3  -1   40.96    2.53
   4  -3   1   41.16    2.58
   4  -3   1   41.38    2.91
   4  -3   1   43.56    2.38
   4  -3   1   42.80    4.34
   4  -3   1   42.87    2.98
   4  -3   1   45.21    4.08
  -5   3  -1  139.60    7.41
  -5   3  -1  127.17    6.76
  -5   3  -1  139.12    5.95
  -5   3  -1  114.93    7.76
  -5   3  -1  128.15    6.98
   5  -3   1  132.98    7.74
   5  -3   1  123.88    8.07
   5  -3   1  141.39    6.22
   5  -3   1  124.96    6.24
  -6   3  -1    3.02    1.70
  -6   3  -1   -1.38    1.63
  -6   3  -1   -0.08    2.08
   6  -3   1   -2.38    2.17
   6  -3   1    0.22    2.28
   6  -3   1    1.51    1.64
   6  -3   1   -0.89    1.40
  -7   3  -1    2.52    1.94
  -7   3  -1    3.38    1.83
  -7   3  -1    7.33    2.39
  -7   3  -1    2.87    2.41
   7  -3   1    4.41    2.64
   7  -3   1    2.55    1.92
   7  -3   1    2.25    1.77
   9   2  -1    7.27    2.61
   9   2  -1    7.28    2.39
   9   2  -1    4.55    2.22
  -9  -2   1   10.97    2.19
  -9  -2   1    6.49    1.77
  -9  -2   1    9.79    2.67
  -9  -2   1    6.12    2.28
  -9  -2   1    7.18    2.43
   8   2  -1   99.25    5.92
   8   2  -1   91.10    5.55
   8   2  -1  108.43    5.84
   8   2  -1   97.37    6.33
  -8  -2   1   98.87    6.17
  -8  -2   1   98.75    5.45
  -8  -2   1   97.49    5.98
  -8  -2   1  100.51    6.09
  -8  -2   1   99.90    5.21
   7   2  -1   16.16    2.52
   7   2  -1   13.77    2.29
   7   2  -1   23.22    2.61
   7   2  -1   19.49    2.46
  -7  -2   1   14.82    2.28
  -7  -2   1   14.64    2.07
  -7  -2   1   12.27    2.14
  -7  -2   1   17.63    2.21
  -7  -2   1   14.86    2.18
  -7  -2   1   15.88    1.93
   6   2  -1  203.46    9.29
   6   2  -1  203.56    8.85
   6   2  -1  198.99    9.59
   6   2  -1  197.41    8.76
  -6  -2   1  197.25    8.41
  -6  -2   1  204.80    8.67
  -6  -2   1  211.35    9.35
  -6  -2   1  215.73    9.50
  -6  -2   1  201.82    8.94
  -6  -2   1  195.44    9.45
  -6  -2   1  206.36    9.30
   5   2  -1    5.49    1.24
   5   2  -1    2.11    1.19
   5   2  -1    4.56    0.88
   5   2  -1    4.85    1.23
  -5  -2   1    3.69    0.98
  -5  -2   1    3.27    1.04
  -5  -2   1    6.45    1.24
  -5  -2   1    4.91    1.12
  -5  -2   1    4.86    1.11
  -5  -2   1    3.60    1.06
  -5  -2   1    4.32    1.18
   4   2  -1   21.19    1.31
   4   2  -1   21.84    1.82
   4   2  -1   23.04    1.92
   4   2  -1   18.08    1.76
  -4  -2   1   23.02    1.93
  -4  -2   1   21.21    1.66
  -4  -2   1   21.95    1.89
  -4  -2   1   21.50    1.67
  -4  -2   1   23.96    1.76
  -4  -2   1   25.42    1.97
  -4  -2   1   22.84    1.85
  -4  -2   1   21.89    1.83
  -4  -2   1   23.47    1.67
  -4  -2   1   22.20    1.11
  -4  -2   1   23.24    1.21
  -4  -2   1   22.78    1.73
   3   2  -1   65.24    2.66
   3   2  -1   63.15    3.12
   3   2  -1   66.01    3.27
   3   2  -1   66.39    3.07
  -3  -2   1   59.77    2.99
  -3  -2   1   70.86    3.26
  -3  -2   1   70.17    3.22
  -3  -2   1   67.65    3.30
  -3  -2   1   68.24    3.05
  -3  -2   1   72.38    3.46
  -3  -2   1   65.31    3.02
  -3  -2   1   69.55    2.83
  -3  -2   1   63.61    2.66
  -3  -2   1   63.92    3.21
  -3  -2   1   66.11    2.87
  -3  -2   1   70.94    3.30
  -3  -2   1   66.08    3.09
  -3  -2   1   66.24    2.61
  -2  -2   1    3.67    0.58
  -2  -2   1    2.99    0.60
  -2  -2   1    3.61    0.60
  -2  -2   1    3.46    0.57
  -2  -2   1    3.41    0.56
  -2  -2   1    3.13    0.61
  -2  -2   1    3.30    0.48
  -2  -2   1    2.95    0.58
  -2  -2   1    3.34    0.75
  -2  -2   1    3.54    0.59
  -2  -2   1    4.13    0.54
  -2  -2   1    3.64    0.46
  -2  -2   1    3.53    0.74
  -2  -2   1    3.70    0.58
  -2  -2   1    3.80    0.88
   1   2  -1   65.77    3.11
   1   2  -1   67.30    2.88
   1   2  -1   67.40    2.94
  -1  -2   1   66.07    3.52
  -1  -2   1   69.78    2.84
  -1  -2   1   68.83    2.71
  -1  -2   1   68.20    3.10
  -1  -2   1   77.91    3.07
  -1  -2   1   74.59    2.98
  -1  -2   1   67.89    2.69
  -1  -2   1   62.59    2.66
  -1  -2   1   67.83    2.76
  -1  -2   1   70.54    2.91
  -1  -2   1   68.80    2.97
  -1  -2   1   70.97    2.80
  -1  -2   1   66.99    2.79
  -1  -2   1   71.19    2.91
  -1  -2   1   64.00    3.56
   0   2  -1   -0.90    0.99
   0   2  -1    0.83    0.48
   0   2  -1    0.73    0.46
   0   2  -1    0.89    0.67
   0  -2   1    0.32    0.38
   0  -2   1    0.48    0.46
   0  -2   1    0.09    0.37
   0  -2   1    0.97    0.49
   0  -2   1    1.96    1.16
   0  -2   1    0.85    1.10
   0  -2   1    0.34    0.32
   0  -2   1    1.16    0.43
  -1   2  -1   55.54    2.27
  -1   2  -1   51.95    3.58
  -1   2  -1   53.02    2.13
  -1   2  -1   44.57    3.24
  -1   2  -1   45.15    3.47
  -1   2  -1   57.71    2.64
   1  -2   1   50.59    3.03
   1  -2   1   54.62    2.29
   1  -2   1   49.94    3.69
   1  -2   1   53.75    2.41
   1  -2   1   54.08    2.27
   1  -2   1   55.27    2.44
  -2   2  -1  122.80    4.94
  -2   2  -1  104.58    6.26
  -2   2  -1  117.91    4.61
  -2   2  -1  113.98    5.66
  -2   2  -1   99.98    6.06
  -2   2  -1  123.77    5.30
   2  -2   1  117.25    4.93
   2  -2   1  122.02    6.07
   2  -2   1  114.33    6.41
   2  -2   1  116.26    4.74
   2  -2   1  119.89    4.58
   2  -2   1  118.64    4.81
  -3   2  -1  180.20    8.98
  -3   2  -1  196.96    7.43
  -3   2  -1  192.15    8.47
  -3   2  -1  181.37    8.07
  -3   2  -1  185.07    7.79
  -3   2  -1  190.15    7.30
  -3   2  -1  179.88    9.11
   3  -2   1  185.35    7.61
   3  -2   1  168.17    8.94
   3  -2   1  198.03    7.11
   3  -2   1  186.93    7.44
   3  -2   1  175.59    7.37
  -4   2  -1   54.66    4.00
  -4   2  -1   53.80    2.78
  -4   2  -1   50.02    3.61
  -4   2  -1   50.32    3.30
  -4   2  -1   56.39    3.00
  -4   2  -1   42.75    4.19
   4  -2   1   56.39    3.25
   4  -2   1   54.12    2.69
   4  -2   1   55.76    4.52
   4  -2   1   54.71    3.15
  -5   2  -1    3.70    1.04
  -5   2  -1    2.84    1.57
  -5   2  -1    4.57    1.19
  -5   2  -1    4.69    1.54
  -5   2  -1    5.18    2.15
  -5   2  -1    3.29    1.63
   5  -2   1    2.22    2.01
   5  -2   1    6.42    1.55
   5  -2   1    5.14    1.05
   5  -2   1    8.32    1.58
   5  -2   1    2.93    1.11
  -6   2  -1    9.35    1.79
  -6   2  -1    8.47    2.19
  -6   2  -1   12.64    1.76
  -6   2  -1    6.09    1.56
  -6   2  -1    6.93    1.78
  -6   2  -1    5.03    2.40
   6  -2   1    7.84    2.81
   6  -2   1   12.00    2.13
   6  -2   1   11.10    1.76
   6  -2   1   10.43    1.97
  -7   2  -1   32.38    4.05
  -7   2  -1   33.10    3.48
  -7   2  -1   39.75    3.25
  -7   2  -1   34.10    3.17
  -7   2  -1   29.02    3.76
   7  -2   1   31.90    4.43
   7  -2   1   35.96    3.41
   7  -2   1   33.51    3.35
  -8   2  -1    7.26    2.02
  -8   2  -1    7.35    2.68
  -8   2  -1    5.94    2.50
   8  -2   1    4.99    2.16
   8  -2   1    5.05    2.17
   9   1  -1   30.47    3.64
   9   1  -1   34.38    3.89
   9   1  -1   40.75    3.96
  -9  -1   1   37.78    3.70
  -9  -1   1   43.63    3.66
  -9  -1   1   29.10    4.10
  -9  -1   1   36.07    4.06
  -9  -1   1   30.78    4.12
   8   1  -1   25.38    3.06
   8   1  -1   26.33    3.09
   8   1  -1   23.47    3.43
   8   1  -1   20.50    3.01
  -8  -1   1   24.01    2.75
  -8  -1   1   22.92    3.04
  -8  -1   1   24.41    3.34
  -8  -1   1   23.22    2.61
  -8  -1   1   25.95    3.35
   7   1  -1   59.40    4.30
   7   1  -1   56.17    3.82
   7   1  -1   51.65    4.06
   7   1  -1   52.15    3.81
  -7  -1   1   53.35    3.89
  -7  -1   1   53.34    3.78
  -7  -1   1   58.65    3.54
  -7  -1   1   52.72    3.92
  -7  -1   1   55.57    3.58
  -7  -1   1   53.52    4.50
   6   1  -1    1.47    1.12
   6   1  -1   -1.84    1.23
   6   1  -1    2.95    1.52
   6   1  -1    0.66    1.37
  -6  -1   1    0.02    0.88
  -6  -1   1    0.41    1.07
  -6  -1   1    0.03    1.04
  -6  -1   1    0.63    1.17
  -6  -1   1    0.08    1.11
  -6  -1   1   -1.16    0.99
  -6  -1   1    0.24    1.14
   5   1  -1   16.75    1.91
   5   1  -1   15.90    1.86
   5   1  -1   16.63    1.83
   5   1  -1   15.55    1.95
  -5  -1   1   15.43    1.84
  -5  -1   1   18.15    1.81
  -5  -1   1   15.53    1.80
  -5  -1   1   19.25    1.82
  -5  -1   1   14.89    1.95
  -5  -1   1   18.82    1.98
  -5  -1   1   17.32    1.88
   4   1  -1   77.24    3.57
   4   1  -1   70.55    3.76
   4   1  -1   68.63    3.51
   4   1  -1   72.07    2.96
  -4  -1   1   65.83    3.72
  -4  -1   1   69.23    3.35
  -4  -1   1   67.46    3.39
  -4  -1   1   66.53    3.54
  -4  -1   1   73.01    3.66
  -4  -1   1   72.81    3.82
  -4  -1   1   73.57    3.67
   3   1  -1   59.98    3.16
   3   1  -1   61.08    2.96
   3   1  -1   61.88    2.52
   3   1  -1   58.96    2.98
  -3  -1   1   68.31    3.31
  -3  -1   1   65.46    3.02
  -3  -1   1   66.47    3.22
  -3  -1   1   61.88    3.10
  -3  -1   1   61.82    2.92
  -3  -1   1   60.58    2.50
  -3  -1   1   59.34    2.83
  -3  -1   1   62.70    2.88
  -3  -1   1   66.00    3.24
  -3  -1   1   60.80    3.08
   2   1  -1   12.62    0.99
   2   1  -1   10.06    0.97
   2   1  -1   10.09    0.96
   2   1  -1   10.59    0.65
  -2  -1   1   11.28    0.95
  -2  -1   1   11.11    1.01
  -2  -1   1    9.85    0.84
  -2  -1   1   12.06    1.01
  -2  -1   1    9.62    1.02
  -2  -1   1    9.52    0.66
  -2  -1   1   12.88    0.74
  -2  -1   1    9.63    0.90
  -2  -1   1   13.29    0.93
  -2  -1   1   10.74    1.00
  -2  -1   1   10.83    0.87
  -2  -1   1   10.39    0.85
   1   1  -1   88.93    3.45
   1   1  -1   92.01    3.54
   1   1  -1   91.17    3.70
  -1  -1   1   89.33    3.80
  -1  -1   1   90.09    3.53
  -1  -1   1   87.55    4.00
  -1  -1   1   90.90    3.71
  -1  -1   1   83.99    3.43
  -1  -1   1   88.76    3.49
  -1  -1   1   88.23    3.53
  -1  -1   1   86.21    3.27
  -1  -1   1   90.15    3.71
  -1  -1   1   87.72    3.29
  -1  -1   1   87.90    3.45
  -1  -1   1   90.04    3.23
  -1  -1   1   91.64    3.37
   0   1  -1   20.71    0.95
   0   1  -1   20.56    0.99
   0   1  -1   19.91    1.06
   0  -1   1   18.85    1.10
   0  -1   1   19.07    1.24
   0  -1   1   18.82    0.93
   0  -1   1   18.51    0.99
   0  -1   1   19.08    0.89
   0  -1   1   19.51    0.88
   0  -1   1   19.55    1.35
   0  -1   1   20.21    1.01
  -1   1  -1  201.71    7.39
  -1   1  -1  198.26    8.76
  -1   1  -1  213.31    7.97
  -1   1  -1  180.83    8.52
  -1   1  -1  210.38    7.99
  -1   1  -1  169.66    8.74
   1  -1   1  182.36    8.58
   1  -1   1  206.51    7.63
   1  -1   1  194.03    9.26
   1  -1   1  204.77    7.50
   1  -1   1  210.51    7.24
   1  -1   1  203.44    7.37
  -2   1  -1   39.31    2.62
  -2   1  -1   35.95    1.89
  -2   1  -1   34.29    2.71
  -2   1  -1   33.60    1.74
  -2   1  -1   43.54    2.22
  -2   1  -1   29.67    2.41
   2  -1   1   36.94    1.67
   2  -1   1   38.44    2.79
   2  -1   1   38.69    2.15
   2  -1   1   38.67    1.91
   2  -1   1   38.02    1.80
  -3   1  -1   58.07    3.85
  -3   1  -1   56.41    2.71
  -3   1  -1   62.06    3.51
  -3   1  -1   56.97    2.93
  -3   1  -1   58.39    3.17
  -3   1  -1   57.31    3.49
   3  -1   1   62.19    2.87
   3  -1   1   59.35    3.74
   3  -1   1   58.86    2.68
   3  -1   1   58.67    3.09
   3  -1   1   60.12    2.49
  -4   1  -1  178.78    7.79
  -4   1  -1  174.79    8.32
  -4   1  -1  186.95    8.31
  -4   1  -1  175.78    7.94
  -4   1  -1  186.05    8.77
  -4   1  -1  177.96    7.22
   4  -1   1  180.59    6.92
   4  -1   1  181.21    7.68
   4  -1   1  175.51    7.37
   4  -1   1  169.62    8.74
  -5   1  -1   16.74    2.29
  -5   1  -1   14.67    1.98
  -5   1  -1   18.21    1.94
  -5   1  -1   13.73    2.41
  -5   1  -1   15.73    1.96
  -5   1  -1   15.25    1.60
  -5   1  -1   16.84    1.85
   5  -1   1   13.62    2.14
   5  -1   1   20.16    2.08
   5  -1   1   11.51    2.50
   5  -1   1   17.46    1.53
  -6   1  -1  180.70    8.58
  -6   1  -1  176.12    9.27
  -6   1  -1  172.11    7.81
  -6   1  -1  183.22    9.05
  -6   1  -1  174.32    8.34
  -6   1  -1  197.00    7.96
   6  -1   1  183.68    8.39
   6  -1   1  165.19    9.46
   6  -1   1  178.46    8.23
   6  -1   1  181.12    8.03
  -7   1  -1    2.77    1.53
  -7   1  -1    3.43    2.11
  -7   1  -1    3.41    1.46
  -7   1  -1    2.56    1.89
  -7   1  -1    4.36    1.58
  -7   1  -1    4.21    1.72
   7  -1   1    0.82    1.36
   7  -1   1    4.93    2.70
   7  -1   1    2.35    1.69
   7  -1   1    2.32    1.69
  -8   1  -1   14.01    2.89
  -8   1  -1   15.08    2.49
  -8   1  -1   17.26    2.44
  -8   1  -1   13.30    2.50
  -8   1  -1   16.03    2.42
  -8   1  -1   14.24    3.05
   8  -1   1    9.08    3.11
   8  -1   1   16.63    2.55
   8  -1   1   12.81    2.58
   8  -1   1   10.91    2.44
   8   0  -1   18.74    2.83
   8   0  -1   22.81    2.93
   8   0  -1   26.30    3.14
   8   0  -1   19.52    3.47
  -8   0   1   25.94    3.72
  -8   0   1   26.03    2.83
  -8   0   1   17.29    2.84
  -8   0   1   22.76    2.64
  -8   0   1   23.65    3.25
   7   0  -1   29.83    3.79
   7   0  -1   39.36    3.52
   7   0  -1   41.05    3.57
   7   0  -1   39.48    3.53
  -7   0   1   36.78    3.65
  -7   0   1   43.84    3.57
  -7   0   1   46.25    3.43
  -7   0   1   38.30    3.49
  -7   0   1   38.05    3.17
  -7   0   1   42.52    4.15
   6   0  -1   12.22    1.93
   6   0  -1   14.20    2.07
   6   0  -1   14.22    2.35
   6   0  -1   10.62    1.99
  -6   0   1   14.36    2.07
  -6   0   1   16.49    2.19
  -6   0   1   12.84    1.94
  -6   0   1   15.28    1.87
  -6   0   1   11.34    1.77
  -6   0   1   18.29    2.27
  -6   0   1   11.83    2.26
   5   0  -1  143.55    6.56
   5   0  -1  148.76    7.38
   5   0  -1  146.92    6.70
   5   0  -1  143.94    6.86
  -5   0   1  150.00    6.91
  -5   0   1  153.79    6.44
  -5   0   1  145.34    6.89
  -5   0   1  142.07    6.36
  -5   0   1  147.94    7.44
  -5   0   1  141.52    7.27
  -5   0   1  150.72    7.00
   4   0  -1   10.30    1.38
   4   0  -1   10.57    0.86
   4   0  -1   11.68    1.55
   4   0  -1    7.65    1.20
   4   0  -1   10.24    1.58
  -4   0   1   10.35    1.24
  -4   0   1   11.29    1.45
  -4   0   1   10.94    1.53
  -4   0   1    8.78    1.22
  -4   0   1    8.92    1.26
  -4   0   1   11.93    1.59
  -4   0   1    9.07    1.48
   3   0  -1  108.76    4.03
   3   0  -1  108.76    4.68
   3   0  -1  108.45    5.08
   3   0  -1  106.34    4.63
   3   0  -1  107.18    4.84
  -3   0   1  109.29    5.13
  -3   0   1  109.56    4.89
  -3   0   1  112.80    4.54
  -3   0   1  101.93    4.82
  -3   0   1  106.18    4.83
  -3   0   1  104.67    5.21
   2   0  -1   49.71    2.21
   2   0  -1   45.64    2.30
   2   0  -1   41.27    2.16
   2   0  -1   42.57    2.17
   2   0  -1   42.36    1.70
  -2   0   1   45.24    2.19
  -2   0   1   42.09    2.32
  -2   0   1   41.87    2.45
  -2   0   1   42.63    2.29
  -2   0   1   43.88    1.87
  -2   0   1   45.12    2.25
  -2   0   1   40.97    2.19
  -2   0   1   41.40    1.99
   1   0  -1   18.99    1.04
   1   0  -1   18.65    1.05
   1   0  -1   19.36    1.05
   1   0  -1   19.11    1.14
   1   0  -1   19.36    1.08
  -1   0   1   17.53    1.03
  -1   0   1   19.47    1.02
  -1   0   1   17.90    0.98
  -1   0   1   18.16    1.32
  -1   0   1   17.91    1.16
  -1   0   1   19.35    1.07
  -1   0   1   18.67    1.07
  -1   0   1   17.62    1.09
  -1   0   1   18.53    1.09
   0   0  -1    2.12    0.27
   0   0  -1    3.00    0.29
   0   0  -1    3.29    0.32
   0   0   1    3.14    0.39
   0   0   1    2.48    0.36
   0   0   1    2.94    0.30
   0   0   1    2.63    0.30
   0   0   1    2.49    0.26
   0   0   1    2.73    0.29
  -1   0  -1    7.35    0.63
  -1   0  -1    6.12    0.83
  -1   0  -1    6.06    0.81
  -1   0  -1    5.68    0.60
  -1   0  -1    6.78    0.93
  -1   0  -1    7.31    0.55
  -1   0  -1    7.76    0.56
   1   0   1    8.25    0.62
   1   0   1    7.24    0.58
   1   0   1    6.48    0.50
   1   0   1    4.74    0.88
  -2   0  -1   78.89    3.44
  -2   0  -1   71.38    3.41
  -2   0  -1   72.11    3.07
  -2   0  -1   72.24    3.07
  -2   0  -1   71.09    3.58
  -2   0  -1   76.91    3.13
  -2   0  -1   71.30    3.35
  -2   0  -1   69.45    3.67
   2   0   1   70.74    3.20
   2   0   1   73.88    3.03
   2   0   1   76.12    3.80
   2   0   1   74.13    3.14
  -3   0  -1  218.73    9.61
  -3   0  -1  224.27    9.75
  -3   0  -1  213.71    8.56
  -3   0  -1  220.18    9.30
  -3   0  -1  229.97    9.39
  -3   0  -1  234.96    9.60
  -3   0  -1  221.34    8.69
  -3   0  -1  227.24    8.73
   3   0   1  228.66    8.73
   3   0   1  222.05    8.82
   3   0   1  224.27    9.89
   3   0   1  230.55    8.37
  -4   0  -1  231.66    8.96
  -4   0  -1  229.31    9.66
  -4   0  -1  226.96    9.88
  -4   0  -1  226.47    9.88
  -4   0  -1  223.36    8.91
  -4   0  -1  229.97    9.66
  -4   0  -1  216.23   10.07
   4   0   1  222.82    9.19
   4   0   1  223.23   10.22
   4   0   1  225.64    8.54
   4   0   1  228.45    9.05
  -5   0  -1  132.67    6.65
  -5   0  -1  132.99    6.28
  -5   0  -1  132.18    5.84
  -5   0  -1  126.72    6.77
  -5   0  -1  121.90    6.32
  -5   0  -1  134.42    6.31
  -5   0  -1  135.90    5.93
   5   0   1  134.40    6.22
   5   0   1  125.77    6.83
   5   0   1  143.50    6.07
   5   0   1  133.19    5.42
  -6   0  -1   -0.99    0.95
  -6   0  -1   -1.43    0.83
  -6   0  -1    0.33    1.49
  -6   0  -1   -0.16    1.43
  -6   0  -1   -1.00    0.90
  -6   0  -1   -0.23    1.25
   6   0   1   -1.19    1.42
   6   0   1    0.74    1.69
   6   0   1    0.17    0.87
   6   0   1    0.39    1.20
  -7   0  -1   -1.68    1.26
  -7   0  -1    0.97    1.77
  -7   0  -1    1.30    1.27
  -7   0  -1    0.02    1.32
  -7   0  -1   -1.03    1.53
  -7   0  -1   -0.99    1.07
   7   0   1   -0.71    1.68
   7   0   1    1.30    2.00
   7   0   1   -1.31    1.26
  -8   0  -1   21.30    3.34
  -8   0  -1   26.65    2.89
  -8   0  -1   20.79    2.82
  -8   0  -1   27.40    2.81
  -8   0  -1   25.67    3.55
  -8   0  -1   24.06    3.02
   8   0   1   19.33    3.62
   8   0   1   24.37    2.94
   8   0   1   23.55    3.14
   8   0   1   28.58    3.08
  -9   0  -1   -0.71    1.59
  -9   0  -1   -1.48    2.12
  -9   0  -1    3.13    2.26
  -9   0  -1    4.15    1.90
  -9   0  -1   -0.09    1.78
  -9   0  -1    3.95    1.67
   9   0   1    3.21    1.88
   9   0   1    4.07    2.07
   9   0   1    2.60    2.06
   8  -1  -1   29.70    3.31
   8  -1  -1   25.06    3.20
   8  -1  -1   29.62    3.46
  -8   1   1   29.10    4.16
  -8   1   1   32.90    3.16
  -8   1   1   25.71    3.06
  -8   1   1   25.35    3.67
   7  -1  -1   31.97    4.27
   7  -1  -1   45.88    3.77
   7  -1  -1   34.60    3.45
   7  -1  -1   43.61    3.69
  -7   1   1   43.63    3.72
  -7   1   1   41.19    3.74
  -7   1   1   43.10    3.50
  -7   1   1   41.15    4.57
  -7   1   1   44.32    4.16
  -7   1   1   47.48    3.53
   6  -1  -1   60.77    4.59
   6  -1  -1   54.31    3.68
   6  -1  -1   63.52    3.90
   6  -1  -1   53.63    3.67
  -6   1   1   58.04    4.22
  -6   1   1   55.18    3.36
  -6   1   1   54.53    3.94
  -6   1   1   56.99    3.75
  -6   1   1   63.76    3.67
  -6   1   1   56.60    3.87
  -6   1   1   44.27    4.38
   5  -1  -1   19.48    2.01
   5  -1  -1   16.44    1.95
   5  -1  -1   17.21    2.07
   5  -1  -1   13.99    2.24
  -5   1   1   13.88    2.00
  -5   1   1   18.99    2.15
  -5   1   1   16.48    2.23
  -5   1   1   13.90    2.43
  -5   1   1   16.65    1.88
  -5   1   1   14.56    1.68
   4  -1  -1    1.70    0.95
   4  -1  -1    2.35    0.59
   4  -1  -1    2.30    1.17
   4  -1  -1    1.27    1.07
   4  -1  -1    1.31    1.28
  -4   1   1    3.54    1.24
  -4   1   1    2.00    0.98
  -4   1   1    1.92    0.95
  -4   1   1    1.81    0.79
  -4   1   1    3.00    1.39
  -4   1   1    1.27    1.37
   3  -1  -1   51.44    2.65
   3  -1  -1   49.98    2.60
   3  -1  -1   45.95    2.96
   3  -1  -1   54.01    2.07
  -3   1   1   49.74    2.64
  -3   1   1   47.49    3.10
  -3   1   1   38.50    2.21
  -3   1   1   46.70    2.45
  -3   1   1   49.10    3.24
  -3   1   1   50.01    2.81
  -3   1   1   42.81    2.63
   2  -1  -1   56.06    2.95
   2  -1  -1   56.44    2.24
   2  -1  -1   55.00    2.74
   2  -1  -1   56.72    2.15
   2  -1  -1   58.18    2.68
   2  -1  -1   56.71    2.71
  -2   1   1   57.12    2.55
  -2   1   1   54.18    3.31
  -2   1   1   58.36    2.85
  -2   1   1   59.40    3.17
  -2   1   1   56.05    2.54
  -2   1   1   61.02    2.77
  -2   1   1   55.54    2.76
   1  -1  -1    4.48    0.38
   1  -1  -1    4.70    0.64
   1  -1  -1    4.52    0.68
   1  -1  -1    5.11    0.60
   1  -1  -1    4.97    0.40
   1  -1  -1    3.92    0.61
  -1   1   1    3.44    0.55
  -1   1   1    4.64    0.64
  -1   1   1    4.90    0.90
  -1   1   1    5.26    0.69
  -1   1   1    4.25    0.53
  -1   1   1    3.84    1.00
  -1   1   1    4.88    0.59
   0  -1  -1  120.62    4.86
   0  -1  -1  118.20    4.50
   0  -1  -1  118.14    4.32
   0  -1  -1  126.67    4.87
   0  -1  -1  118.97    4.47
   0  -1  -1  117.51    4.29
   0  -1  -1  120.74    4.81
   0   1   1  117.53    4.98
   0   1   1  121.45    5.32
   0   1   1  115.74    4.68
   0   1   1  118.86    4.71
   0   1   1  119.36    4.72
   0   1   1  120.73    4.86
   0   1   1  112.68    4.48
  -1  -1  -1   24.56    1.15
  -1  -1  -1   24.88    1.06
  -1  -1  -1   23.58    1.11
  -1  -1  -1   23.97    1.08
  -1  -1  -1   26.95    1.24
  -1  -1  -1   23.12    1.53
  -1  -1  -1   24.64    1.09
  -1  -1  -1   22.18    1.29
  -1  -1  -1   23.20    1.04
   1   1   1   23.41    1.14
   1   1   1   23.72    1.05
   1   1   1   22.48    1.33
   1   1   1   20.79    1.34
  -2  -1  -1  372.98   14.02
  -2  -1  -1  394.48   15.10
  -2  -1  -1  386.72   15.56
  -2  -1  -1  387.24   14.37
  -2  -1  -1  385.55   13.75
  -2  -1  -1  390.87   15.64
  -2  -1  -1  411.35   15.47
   2   1   1  373.53   14.28
   2   1   1  378.89   13.79
   2   1   1  379.67   14.55
   2   1   1  406.30   15.86
  -3  -1  -1   38.88    2.22
  -3  -1  -1   40.40    1.74
  -3  -1  -1   45.08    2.33
  -3  -1  -1   40.69    2.40
  -3  -1  -1   41.39    2.27
  -3  -1  -1   38.39    2.05
  -3  -1  -1   37.11    2.11
  -3  -1  -1   42.59    1.97
  -3  -1  -1   37.82    2.20
   3   1   1   42.60    2.45
   3   1   1   43.98    2.31
   3   1   1   39.79    1.74
   3   1   1   39.66    2.20
   3   1   1   39.72    2.00
  -4  -1  -1  121.82    4.55
  -4  -1  -1  125.54    5.67
  -4  -1  -1  117.91    5.61
  -4  -1  -1  123.20    5.57
  -4  -1  -1  122.10    5.39
  -4  -1  -1  126.04    5.67
  -4  -1  -1  115.90    5.17
  -4  -1  -1  117.14    5.24
  -4  -1  -1  117.78    5.10
   4   1   1  124.77    5.88
   4   1   1  122.02    5.26
   4   1   1  119.66    5.28
   4   1   1  119.47    4.89
  -5  -1  -1   93.50    4.47
  -5  -1  -1   92.38    4.64
  -5  -1  -1   86.36    4.69
  -5  -1  -1   91.46    4.79
  -5  -1  -1   95.57    4.34
  -5  -1  -1   89.62    4.36
  -5  -1  -1   91.85    4.35
  -5  -1  -1   93.73    4.71
   5   1   1   86.72    4.41
   5   1   1   86.30    4.58
   5   1   1   94.51    4.04
   5   1   1   88.73    5.01
  -6  -1  -1    8.94    1.69
  -6  -1  -1    8.64    1.59
  -6  -1  -1    7.86    1.61
  -6  -1  -1    9.97    1.83
  -6  -1  -1   10.71    1.62
  -6  -1  -1   10.22    1.70
   6   1   1    9.47    1.95
   6   1   1    9.79    1.76
   6   1   1    9.04    1.40
   6   1   1   11.35    1.94
  -7  -1  -1  150.80    8.06
  -7  -1  -1  156.90    7.06
  -7  -1  -1  171.96    7.42
  -7  -1  -1  159.74    8.22
  -7  -1  -1  156.03    7.59
  -7  -1  -1  151.46    7.75
   7   1   1  150.69    7.48
   7   1   1  156.46    8.47
   7   1   1  154.33    7.39
  -8  -1  -1    4.53    1.92
  -8  -1  -1    0.91    1.57
  -8  -1  -1   -2.09    1.65
  -8  -1  -1    1.86    1.44
  -8  -1  -1    0.30    1.41
  -8  -1  -1    1.29    1.35
   8   1   1   -0.33    2.12
   8   1   1    0.25    1.46
   8   1   1    1.77    1.91
  -9  -1  -1   40.92    4.13
  -9  -1  -1   38.94    3.77
  -9  -1  -1   34.39    4.32
  -9  -1  -1   34.59    4.05
  -9  -1  -1   43.34    3.58
  -9  -1  -1   38.78    3.74
   9   1   1   32.79    3.52
   9   1   1   38.04    3.93
   9   1   1   31.75    3.69
   7  -2  -1   29.86    3.31
   7  -2  -1   39.10    4.79
   7  -2  -1   29.60    3.22
  -7   2   1   21.66    3.85
  -7   2   1   27.35    3.44
  -7   2   1   31.81    3.11
  -7   2   1   25.37    2.72
   6  -2  -1   18.09    2.36
   6  -2  -1   17.95    2.42
   6  -2  -1   15.03    2.10
   6  -2  -1   14.13    3.13
  -6   2   1   17.51    2.03
  -6   2   1   18.29    2.48
  -6   2   1   18.23    2.26
  -6   2   1   15.58    2.97
  -6   2   1   14.39    2.35
  -6   2   1   11.01    1.97
   5  -2  -1    7.73    1.43
   5  -2  -1    6.55    2.15
   5  -2  -1    8.28    1.68
   5  -2  -1    6.95    1.66
  -5   2   1    5.50    1.98
  -5   2   1    8.32    1.68
  -5   2   1    3.00    1.99
  -5   2   1    6.38    1.23
  -5   2   1    3.48    1.26
  -5   2   1    8.16    1.80
   4  -2  -1  114.45    6.36
   4  -2  -1  122.43    5.44
   4  -2  -1  111.73    5.39
   4  -2  -1  116.58    5.53
  -4   2   1  113.55    6.54
  -4   2   1  116.25    6.57
  -4   2   1  122.44    5.58
  -4   2   1  116.07    5.18
  -4   2   1  117.63    5.81
  -4   2   1  121.51    5.76
   3  -2  -1   28.28    1.52
   3  -2  -1   27.35    2.56
   3  -2  -1   28.31    2.12
   3  -2  -1   26.86    1.88
   3  -2  -1   27.81    2.10
  -3   2   1   26.96    2.02
  -3   2   1   24.72    2.82
  -3   2   1   32.63    2.40
  -3   2   1   26.05    1.89
  -3   2   1   26.63    1.79
  -3   2   1   30.39    2.94
  -3   2   1   28.91    1.93
   2  -2  -1   86.71    3.20
   2  -2  -1   84.71    3.76
   2  -2  -1   83.78    3.76
   2  -2  -1   80.03    4.20
   2  -2  -1   85.12    3.75
   2  -2  -1   82.91    3.29
  -2   2   1   81.84    3.97
  -2   2   1   74.35    4.65
  -2   2   1   83.12    3.77
  -2   2   1   80.70    3.82
  -2   2   1   80.38    3.53
  -2   2   1   86.39    3.78
  -2   2   1   88.11    4.59
   1  -2  -1    9.82    0.96
   1  -2  -1   11.02    0.85
   1  -2  -1   10.77    0.72
   1  -2  -1    9.17    1.15
   1  -2  -1   11.64    1.00
   1  -2  -1   11.23    0.77
  -1   2   1   11.04    1.39
  -1   2   1    8.08    0.94
  -1   2   1   10.13    0.85
  -1   2   1   10.04    1.59
  -1   2   1    7.39    0.75
  -1   2   1    8.94    0.94
   0  -2  -1   27.25    1.48
   0  -2  -1   28.55    1.60
   0  -2  -1   29.89    1.40
   0  -2  -1   28.40    1.50
   0  -2  -1   37.46    1.86
   0  -2  -1   30.15    1.41
   0   2   1   29.99    1.36
   0   2   1   31.84    2.38
   0   2   1   36.69    2.32
   0   2   1   31.77    1.67
   0   2   1   26.74    1.55
  -1  -2  -1   37.03    1.61
  -1  -2  -1   37.81    1.63
  -1  -2  -1   36.63    1.71
  -1  -2  -1   26.22    2.57
  -1  -2  -1   37.99    1.75
  -1  -2  -1   36.11    1.62
  -1  -2  -1   36.16    1.64
  -1  -2  -1   37.02    1.83
  -1  -2  -1   35.45    1.97
   1   2   1   35.62    2.34
   1   2   1   37.49    1.74
   1   2   1   35.60    1.78
   1   2   1   27.32    2.14
  -2  -2  -1   31.44    1.60
  -2  -2  -1   32.12    2.30
  -2  -2  -1   31.17    1.60
  -2  -2  -1   30.71    1.54
  -2  -2  -1   33.42    2.13
  -2  -2  -1   30.78    1.70
  -2  -2  -1   31.50    1.49
  -2  -2  -1   32.41    1.72
  -2  -2  -1   31.66    1.64
  -2  -2  -1   33.55    1.50
  -2  -2  -1   32.63    1.53
  -2  -2  -1   31.33    1.83
   2   2   1   30.91    1.61
   2   2   1   31.74    1.50
   2   2   1   39.72    2.15
   2   2   1   32.29    1.63
  -3  -2  -1    6.62    0.82
  -3  -2  -1    5.22    0.77
  -3  -2  -1    4.80    1.01
  -3  -2  -1    6.39    0.82
  -3  -2  -1    6.88    0.71
  -3  -2  -1    5.51    0.93
  -3  -2  -1    5.54    0.80
  -3  -2  -1    5.72    0.62
  -3  -2  -1    6.56    1.11
  -3  -2  -1    5.39    0.74
   3   2   1    4.52    0.78
   3   2   1    6.66    0.86
   3   2   1    5.14    0.64
   3   2   1    4.81    0.61
  -4  -2  -1  116.49    5.11
  -4  -2  -1  113.87    5.15
  -4  -2  -1  111.81    5.07
  -4  -2  -1  126.05    5.51
  -4  -2  -1  118.64    5.13
  -4  -2  -1  118.42    5.15
  -4  -2  -1  107.97    4.75
  -4  -2  -1  114.26    4.41
  -4  -2  -1  114.33    5.27
   4   2   1  115.02    5.05
   4   2   1  113.47    5.44
   4   2   1  116.52    4.58
   4   2   1  110.21    4.57
  -5  -2  -1  159.61    5.92
  -5  -2  -1  160.70    6.84
  -5  -2  -1  159.04    7.39
  -5  -2  -1  150.26    6.97
  -5  -2  -1  156.23    6.81
  -5  -2  -1  155.57    6.94
  -5  -2  -1  167.14    7.24
  -5  -2  -1  154.29    7.13
  -5  -2  -1  166.30    6.63
   5   2   1  150.15    6.77
   5   2   1  159.58    6.83
   5   2   1  156.41    7.44
   5   2   1  163.50    6.28
   5   2   1  153.87    6.08
  -6  -2  -1  111.87    5.36
  -6  -2  -1  112.14    5.67
  -6  -2  -1  121.81    5.91
  -6  -2  -1  107.29    5.46
  -6  -2  -1  103.10    5.43
  -6  -2  -1  119.24    5.86
  -6  -2  -1  107.43    5.12
   6   2   1  113.40    4.84
   6   2   1  103.40    5.43
   6   2   1  112.93    5.96
   6   2   1  111.16    5.50
  -7  -2  -1    6.83    1.77
  -7  -2  -1    3.94    1.40
  -7  -2  -1    7.66    1.89
  -7  -2  -1    7.26    1.69
  -7  -2  -1    5.59    1.60
  -7  -2  -1    5.24    1.46
   7   2   1    5.42    1.60
   7   2   1    8.24    1.84
   7   2   1    6.11    1.82
  -8  -2  -1   12.84    2.09
  -8  -2  -1    8.09    2.02
  -8  -2  -1   11.06    1.89
  -8  -2  -1   11.87    2.24
  -8  -2  -1    9.97    2.35
  -8  -2  -1   12.54    2.11
   8   2   1   16.36    2.54
   8   2   1   13.22    2.70
   8   2   1   10.03    2.06
  -9  -2  -1   12.88    2.71
  -9  -2  -1   14.47    2.18
  -9  -2  -1    8.89    2.64
  -9  -2  -1    6.01    1.98
  -9  -2  -1   15.20    2.57
  -9  -2  -1   12.65    2.57
   9   2   1   15.21    2.69
   9   2   1   14.91    2.64
   9   2   1   15.78    3.22
   9   2   1   11.77    2.48
   7  -3  -1   15.20    2.80
   7  -3  -1   15.54    2.66
  -7   3   1   13.49    3.29
  -7   3   1   17.65    2.62
   6  -3  -1   29.85    3.10
   6  -3  -1   33.73    3.28
   6  -3  -1   31.08    4.31
  -6   3   1   31.08    3.33
  -6   3   1   33.03    2.84
  -6   3   1   23.23    3.82
  -6   3   1   34.77    3.44
   5  -3  -1   63.44    5.67
   5  -3  -1   70.01    4.19
   5  -3  -1   77.97    4.38
  -5   3   1   78.54    4.71
  -5   3   1   79.14    3.99
  -5   3   1   75.14    5.43
  -5   3   1   78.73    4.63
  -5   3   1   66.31    5.86
   4  -3  -1   24.33    2.34
   4  -3  -1   22.44    3.11
   4  -3  -1   22.87    2.30
   4  -3  -1   24.44    2.11
  -4   3   1   26.09    3.34
  -4   3   1   30.42    2.75
  -4   3   1   27.31    2.43
  -4   3   1   24.63    1.99
  -4   3   1   23.77    3.32
   3  -3  -1    0.14    0.77
   3  -3  -1    1.63    1.08
   3  -3  -1    0.33    0.57
   3  -3  -1    0.71    1.57
   3  -3  -1    0.98    0.96
  -3   3   1    0.04    1.49
  -3   3   1    1.74    1.22
  -3   3   1    0.05    0.68
  -3   3   1    3.48    1.16
  -3   3   1   -0.21    1.76
  -3   3   1   -0.02    0.79
   2  -3  -1    2.52    0.74
   2  -3  -1    0.62    0.57
   2  -3  -1    3.11    0.58
   2  -3  -1    1.09    0.93
   2  -3  -1    2.94    1.46
   2  -3  -1    1.86    0.93
  -2   3   1    4.83    1.19
  -2   3   1    2.99    1.63
  -2   3   1    0.88    0.95
  -2   3   1    3.13    0.83
  -2   3   1    2.77    0.68
  -2   3   1   -1.30    1.61
   1  -3  -1   37.70    1.96
   1  -3  -1   39.12    1.80
   1  -3  -1   38.66    2.09
   1  -3  -1   36.56    2.04
   1  -3  -1   39.48    2.76
   1  -3  -1   38.12    1.83
  -1   3   1   33.75    2.99
  -1   3   1   40.88    2.24
  -1   3   1   36.68    1.96
  -1   3   1   36.64    2.18
  -1   3   1   38.10    1.89
  -1   3   1   32.45    3.21
   0  -3  -1   42.91    1.97
   0  -3  -1   42.51    2.15
   0  -3  -1   46.11    2.48
   0  -3  -1   41.95    2.29
   0  -3  -1   41.97    2.02
   0  -3  -1   43.93    1.96
   0  -3  -1   45.13    2.13
   0   3   1   41.92    3.23
   0   3   1   43.44    3.15
   0   3   1   44.87    2.30
   0   3   1   42.64    1.90
   0   3   1   42.47    2.21
  -1  -3  -1    7.67    0.74
  -1  -3  -1    6.35    0.86
  -1  -3  -1    7.21    0.77
  -1  -3  -1    7.19    0.42
  -1  -3  -1    7.18    0.88
  -1  -3  -1    8.88    0.83
  -1  -3  -1    7.39    1.90
  -1  -3  -1    5.40    0.65
   1   3   1    7.65    0.84
   1   3   1    6.35    1.49
   1   3   1    6.94    0.83
   1   3   1    6.16    0.77
   1   3   1    7.07    1.45
  -2  -3  -1    1.76    0.35
  -2  -3  -1    1.54    0.47
  -2  -3  -1    2.23    0.56
  -2  -3  -1    1.88    0.36
  -2  -3  -1    1.16    0.50
  -2  -3  -1    1.23    0.46
  -2  -3  -1   -0.73    0.85
  -2  -3  -1    1.39    0.52
  -2  -3  -1    0.77    0.43
  -2  -3  -1    1.60    1.05
  -2  -3  -1    1.88    0.31
  -2  -3  -1    0.89    0.53
   2   3   1    1.41    0.35
   2   3   1    0.37    0.48
   2   3   1   -0.28    0.46
   2   3   1    0.63    0.49
   2   3   1    1.02    1.05
  -3  -3  -1  277.24   10.87
  -3  -3  -1  270.14   11.68
  -3  -3  -1  275.48   10.75
  -3  -3  -1  252.28    9.89
  -3  -3  -1  282.97    9.80
  -3  -3  -1  259.98   10.28
  -3  -3  -1  266.99   11.79
  -3  -3  -1  231.52   10.62
  -3  -3  -1  265.51    9.74
  -3  -3  -1  254.53   10.53
  -3  -3  -1  266.29   10.38
  -3  -3  -1  279.08   11.21
   3   3   1  271.78    9.75
   3   3   1  273.51   11.03
   3   3   1  263.32   10.33
   3   3   1  276.05   11.68
  -4  -3  -1   19.54    1.56
  -4  -3  -1   18.59    1.37
  -4  -3  -1   21.04    1.94
  -4  -3  -1   17.82    1.71
  -4  -3  -1   18.61    1.38
  -4  -3  -1   20.84    1.43
  -4  -3  -1   21.94    1.61
  -4  -3  -1   21.69    1.69
  -4  -3  -1   20.31    1.49
  -4  -3  -1   20.62    1.25
  -4  -3  -1   19.37    1.61
  -4  -3  -1   22.57    1.94
   4   3   1   18.99    1.36
   4   3   1   16.90    1.27
   4   3   1   20.65    1.62
   4   3   1   20.49    1.65
  -5  -3  -1  179.52    7.72
  -5  -3  -1  195.95    7.98
  -5  -3  -1  183.87    8.22
  -5  -3  -1  203.44    8.14
  -5  -3  -1  176.48    7.91
  -5  -3  -1  183.38    8.02
  -5  -3  -1  176.91    7.42
  -5  -3  -1  185.57    7.02
  -5  -3  -1  192.47    8.51
  -5  -3  -1  182.75    8.12
   5   3   1  184.78    7.18
   5   3   1  185.62    7.73
   5   3   1  192.63    8.44
   5   3   1  184.24    7.35
  -6  -3  -1   17.02    2.01
  -6  -3  -1   19.15    1.86
  -6  -3  -1   18.54    2.25
  -6  -3  -1   17.87    2.12
  -6  -3  -1   21.77    2.21
  -6  -3  -1   17.36    1.83
  -6  -3  -1   20.40    2.03
   6   3   1   18.60    1.65
   6   3   1   18.95    2.17
   6   3   1   17.30    1.95
   6   3   1   17.28    2.04
  -7  -3  -1   -0.58    1.03
  -7  -3  -1    2.28    1.28
  -7  -3  -1   -0.71    1.14
  -7  -3  -1   -0.33    1.00
  -7  -3  -1    1.12    1.18
  -7  -3  -1    2.60    1.49
  -7  -3  -1    0.15    1.08
   7   3   1   -0.57    1.34
   7   3   1    2.62    1.45
   7   3   1    2.72    1.09
   7   3   1    3.08    1.56
  -8  -3  -1   95.37    5.48
  -8  -3  -1  100.70    6.02
  -8  -3  -1  107.55    5.70
  -8  -3  -1  108.22    6.11
  -8  -3  -1   98.20    5.70
  -8  -3  -1  106.61    5.27
   8   3   1   87.29    5.97
   8   3   1  105.59    5.66
   8   3   1  101.19    5.57
  -9  -3  -1    2.01    1.95
  -9  -3  -1    0.97    1.80
  -9  -3  -1    7.19    2.04
  -9  -3  -1    4.03    1.58
  -9  -3  -1    5.72    1.87
  -9  -3  -1    4.71    1.81
   9   3   1    3.62    1.95
   9   3   1    3.63    2.13
   9   3   1    5.15    2.50
 -10  -3  -1   38.60    4.01
 -10  -3  -1   34.12    3.90
 -10  -3  -1   33.98    3.34
 -10  -3  -1   30.43    4.18
 -10  -3  -1   38.69    4.36
  10   3   1   30.34    3.75
  10   3   1   30.05    3.89
  10   3   1   31.09    3.69
   6  -4  -1   47.06    3.96
   6  -4  -1   43.85    3.82
   6  -4  -1   40.44    5.49
  -6   4   1   36.91    3.85
  -6   4   1   26.79    4.48
   5  -4  -1    4.41    1.80
   5  -4  -1    0.92    2.23
   5  -4  -1    6.43    1.77
  -5   4   1    0.28    2.30
  -5   4   1    0.48    1.65
  -5   4   1    4.05    2.29
   4  -4  -1    0.58    1.31
   4  -4  -1    2.43    1.43
   4  -4  -1    5.07    2.37
  -4   4   1    2.91    2.28
  -4   4   1   -0.51    1.26
  -4   4   1   -0.60    0.81
  -4   4   1    1.97    2.21
  -4   4   1    0.49    1.10
   3  -4  -1   49.99    2.48
   3  -4  -1   49.86    3.03
   3  -4  -1   45.53    4.19
   3  -4  -1   47.66    3.13
  -3   4   1   50.09    2.70
  -3   4   1   43.42    4.44
  -3   4   1   43.03    4.67
  -3   4   1   46.18    3.24
  -3   4   1   49.33    2.99
   2  -4  -1   15.61    1.34
   2  -4  -1   17.46    1.74
   2  -4  -1   16.78    1.76
   2  -4  -1   18.42    1.32
   2  -4  -1   16.83    1.43
   2  -4  -1   18.97    2.56
  -2   4   1   17.57    3.18
  -2   4   1   18.32    1.55
  -2   4   1   19.84    2.02
  -2   4   1   14.63    1.29
  -2   4   1   18.31    1.99
  -2   4   1   13.03    2.49
   1  -4  -1    6.29    1.06
   1  -4  -1    7.56    1.60
   1  -4  -1    8.54    0.92
   1  -4  -1    6.97    0.87
   1  -4  -1    6.90    1.10
   1  -4  -1    7.54    0.89
  -1   4   1    9.08    0.90
  -1   4   1    5.84    2.03
  -1   4   1    7.41    1.22
  -1   4   1    7.09    2.34
   0  -4  -1    3.20    0.68
   0  -4  -1    3.15    0.57
   0  -4  -1    3.67    0.85
   0  -4  -1    3.05    0.64
   0  -4  -1    2.67    0.72
   0  -4  -1    2.53    0.80
   0  -4  -1    2.88    2.04
   0  -4  -1    2.73    0.76
   0   4   1    2.03    1.77
   0   4   1    2.18    1.69
   0   4   1    1.82    0.72
   0   4   1    1.42    0.40
   0   4   1    1.32    0.74
  -1  -4  -1   26.03    3.23
  -1  -4  -1   30.86    1.40
  -1  -4  -1   29.39    1.62
  -1  -4  -1   26.81    1.91
  -1  -4  -1   30.33    1.73
  -1  -4  -1   28.57    2.01
  -1  -4  -1   31.59    1.64
  -1  -4  -1   30.81    1.79
  -1  -4  -1   30.24    1.29
   1   4   1   20.77    2.67
   1   4   1   28.04    2.86
   1   4   1   29.04    1.79
   1   4   1   29.21    1.85
  -2  -4  -1   69.21    3.23
  -2  -4  -1   70.00    2.66
  -2  -4  -1   68.75    2.93
  -2  -4  -1   68.90    3.05
  -2  -4  -1   57.23    4.25
  -2  -4  -1   60.81    3.56
  -2  -4  -1   65.75    3.09
  -2  -4  -1   70.40    2.89
  -2  -4  -1   69.90    3.28
  -2  -4  -1   67.86    2.93
   2   4   1   68.70    2.80
   2   4   1   64.00    4.06
   2   4   1   64.86    3.22
   2   4   1   67.23    3.55
   2   4   1   70.28    3.25
  -3  -4  -1   56.87    2.67
  -3  -4  -1   57.76    3.23
  -3  -4  -1   50.87    2.46
  -3  -4  -1   57.94    3.04
  -3  -4  -1   51.32    2.52
  -3  -4  -1   51.61    2.71
  -3  -4  -1   52.71    2.48
  -3  -4  -1   51.89    2.70
  -3  -4  -1   54.69    2.47
  -3  -4  -1   52.79    2.30
  -3  -4  -1   55.82    2.62
  -3  -4  -1   52.33    2.66
  -3  -4  -1   53.52    2.52
   3   4   1   50.59    2.60
   3   4   1   55.73    2.55
   3   4   1   51.46    2.62
   3   4   1   53.39    3.44
  -4  -4  -1    4.21    0.87
  -4  -4  -1    4.22    0.84
  -4  -4  -1    4.47    1.14
  -4  -4  -1    3.00    1.02
  -4  -4  -1    5.68    0.77
  -4  -4  -1    5.63    0.87
  -4  -4  -1    5.29    0.80
  -4  -4  -1    3.34    1.13
  -4  -4  -1    2.62    0.76
  -4  -4  -1    4.03    0.81
  -4  -4  -1    4.58    1.33
  -4  -4  -1    3.64    0.75
  -4  -4  -1    3.74    0.68
   4   4   1    5.38    0.88
   4   4   1    3.66    0.77
   4   4   1    5.06    1.32
   4   4   1    3.26    0.71
  -5  -4  -1   45.86    3.07
  -5  -4  -1   44.30    2.56
  -5  -4  -1   46.31    2.62
  -5  -4  -1   45.01    2.70
  -5  -4  -1   41.89    2.56
  -5  -4  -1   53.87    3.16
  -5  -4  -1   44.39    2.74
  -5  -4  -1   45.83    2.48
  -5  -4  -1   54.84    3.11
  -5  -4  -1   43.66    3.14
  -5  -4  -1   46.64    2.44
  -5  -4  -1   44.07    2.28
   5   4   1   49.93    2.83
   5   4   1   47.52    2.74
   5   4   1   46.54    2.43
   5   4   1   46.51    3.03
   5   4   1   46.12    2.34
  -6  -4  -1   65.27    3.36
  -6  -4  -1   55.40    3.41
  -6  -4  -1   52.93    3.44
  -6  -4  -1   67.99    3.80
  -6  -4  -1   56.19    3.79
  -6  -4  -1   62.93    2.89
  -6  -4  -1   56.63    3.23
  -6  -4  -1   66.41    4.09
  -6  -4  -1   68.85    3.66
   6   4   1   58.00    3.55
   6   4   1   61.38    3.70
   6   4   1   58.30    3.62
   6   4   1   59.23    3.02
   6   4   1   62.87    2.95
  -7  -4  -1  116.36    6.43
  -7  -4  -1  120.08    5.92
  -7  -4  -1  119.59    5.92
  -7  -4  -1  116.38    6.10
  -7  -4  -1  119.64    6.12
  -7  -4  -1  136.10    5.61
  -7  -4  -1  124.03    6.12
   7   4   1  120.88    5.24
   7   4   1  120.28    5.90
   7   4   1  107.31    5.87
   7   4   1  118.19    6.35
  -8  -4  -1    5.79    1.73
  -8  -4  -1    7.17    2.12
  -8  -4  -1    7.29    1.75
  -8  -4  -1    4.69    1.37
  -8  -4  -1    3.78    1.64
  -8  -4  -1    4.15    1.71
  -8  -4  -1    5.96    1.52
   8   4   1    3.47    1.63
   8   4   1    5.26    1.85
   8   4   1    6.12    1.87
  -9  -4  -1   18.54    2.74
  -9  -4  -1   21.01    2.98
  -9  -4  -1   18.09    2.51
  -9  -4  -1   14.36    2.80
  -9  -4  -1   15.55    2.45
  -9  -4  -1   17.13    2.27
   9   4   1   16.42    2.89
   9   4   1   17.82    2.56
   9   4   1   13.18    2.56
 -10  -4  -1    4.66    2.30
 -10  -4  -1    3.22    1.53
 -10  -4  -1    1.53    1.97
 -10  -4  -1    1.68    2.18
  10   4   1    1.52    1.80
  10   4   1    2.36    2.21
   5  -5  -1   20.96    2.71
   5  -5  -1   14.46    2.27
   5  -5  -1   13.93    3.91
  -5   5   1   22.54    4.05
  -5   5   1   22.28    3.71
  -5   5   1   10.02    2.47
   4  -5  -1   46.31    3.60
   4  -5  -1   60.80    6.15
   4  -5  -1   50.19    3.71
  -4   5   1   42.60    5.05
  -4   5   1   50.95    5.41
  -4   5   1   47.56    3.98
   3  -5  -1   29.57    2.57
   3  -5  -1   29.10    4.43
   3  -5  -1   29.05    2.59
  -3   5   1   22.11    3.66
  -3   5   1   25.84    4.07
  -3   5   1   30.02    2.95
   2  -5  -1    7.96    1.39
   2  -5  -1    4.53    0.85
   2  -5  -1    3.80    0.91
   2  -5  -1    6.11    1.33
   2  -5  -1    4.48    2.50
   2  -5  -1    4.38    1.73
  -2   5   1    3.81    2.18
  -2   5   1    3.49    2.57
  -2   5   1    4.18    1.51
  -2   5   1    1.75    0.73
  -2   5   1    4.22    1.43
   1  -5  -1   14.43    1.83
   1  -5  -1   11.89    1.49
   1  -5  -1   16.40    1.42
   1  -5  -1    8.08    2.74
   1  -5  -1   12.85    1.24
   1  -5  -1   14.79    1.58
  -1   5   1   14.87    1.85
  -1   5   1   15.65    1.24
  -1   5   1   11.68    2.63
  -1   5   1   15.36    1.81
  -1   5   1    9.24    2.73
   0  -5  -1    4.62    0.85
   0  -5  -1    4.00    0.87
   0  -5  -1    3.15    2.46
   0  -5  -1    2.67    1.02
   0  -5  -1    6.68    1.08
   0  -5  -1    4.27    0.96
   0  -5  -1    4.78    0.88
   0   5   1    4.22    1.08
   0   5   1    2.80    0.99
   0   5   1    4.76    2.07
   0   5   1    2.76    2.19
  -1  -5  -1   42.85    1.94
  -1  -5  -1   42.21    4.44
  -1  -5  -1   43.25    2.18
  -1  -5  -1   38.60    1.78
  -1  -5  -1   42.44    2.28
  -1  -5  -1   40.87    2.59
  -1  -5  -1   37.88    2.67
  -1  -5  -1   45.21    2.34
  -1  -5  -1   45.52    2.19
   1   5   1   38.19    3.73
   1   5   1   42.67    2.50
   1   5   1   34.32    2.36
   1   5   1   30.02    3.43
  -2  -5  -1   15.88    0.84
  -2  -5  -1   13.06    0.77
  -2  -5  -1   16.13    1.34
  -2  -5  -1   12.52    2.47
  -2  -5  -1   16.88    1.60
  -2  -5  -1   13.06    1.25
  -2  -5  -1   13.88    1.33
  -2  -5  -1   13.65    1.32
  -2  -5  -1   16.19    1.56
   2   5   1   14.74    1.36
   2   5   1   14.98    2.10
   2   5   1   16.57    1.55
   2   5   1   13.23    2.19
  -3  -5  -1    2.14    0.49
  -3  -5  -1    1.76    0.66
  -3  -5  -1    2.50    0.91
  -3  -5  -1    3.60    0.92
  -3  -5  -1    2.91    0.77
  -3  -5  -1    2.85    0.88
  -3  -5  -1    2.98    0.51
  -3  -5  -1    1.72    0.71
  -3  -5  -1    3.57    0.84
  -3  -5  -1    1.91    0.72
  -3  -5  -1    2.93    0.47
  -3  -5  -1    2.63    1.30
   3   5   1    1.06    0.86
   3   5   1    1.25    0.44
   3   5   1    2.72    1.49
   3   5   1    2.47    0.78
   3   5   1    2.13    0.50
   3   5   1    1.44    0.74
  -4  -5  -1  269.58   11.06
  -4  -5  -1  253.48    9.72
  -4  -5  -1  256.55   10.49
  -4  -5  -1  260.42   10.77
  -4  -5  -1  253.61   11.83
  -4  -5  -1  251.66   10.30
  -4  -5  -1  254.98   10.76
  -4  -5  -1  236.20    9.67
  -4  -5  -1  269.95   10.45
  -4  -5  -1  256.68   10.09
  -4  -5  -1  265.42   10.66
  -4  -5  -1  261.05    9.86
   4   5   1  259.07    9.69
   4   5   1  254.03   11.85
   4   5   1  258.95   10.36
   4   5   1  259.90   10.78
   4   5   1  264.79   10.71
   4   5   1  254.33   10.75
  -5  -5  -1   23.49    1.72
  -5  -5  -1   18.29    1.81
  -5  -5  -1   22.37    1.78
  -5  -5  -1   26.04    2.04
  -5  -5  -1   18.71    1.68
  -5  -5  -1   23.30    2.21
  -5  -5  -1   21.75    1.71
  -5  -5  -1   22.08    1.83
  -5  -5  -1   22.75    1.81
  -5  -5  -1   17.95    2.33
  -5  -5  -1   24.77    2.32
  -5  -5  -1   22.90    1.70
  -5  -5  -1   24.50    2.38
   5   5   1   22.93    2.42
   5   5   1   22.46    1.69
   5   5   1   25.21    1.84
   5   5   1   23.36    1.78
  -6  -5  -1  214.45    9.18
  -6  -5  -1  210.03    9.79
  -6  -5  -1  219.54    9.76
  -6  -5  -1  209.32    8.72
  -6  -5  -1  211.01    8.17
  -6  -5  -1  208.84    9.12
  -6  -5  -1  222.31    9.18
  -6  -5  -1  203.83    8.43
  -6  -5  -1  201.28    9.20
  -6  -5  -1  203.65    9.06
   6   5   1  206.62    8.54
   6   5   1  205.20    8.17
   6   5   1  202.47    8.67
   6   5   1  203.44    9.73
   6   5   1  216.99    9.48
  -7  -5  -1   13.57    2.14
  -7  -5  -1    8.50    1.56
  -7  -5  -1   10.49    1.82
  -7  -5  -1    7.87    1.39
  -7  -5  -1   10.37    1.54
  -7  -5  -1    8.01    1.84
  -7  -5  -1    7.52    1.47
  -7  -5  -1    6.96    1.81
   7   5   1    9.84    1.81
   7   5   1   10.14    1.43
   7   5   1    7.43    1.69
   7   5   1    9.49    1.82
  -8  -5  -1    7.90    1.77
  -8  -5  -1    9.54    1.90
  -8  -5  -1    7.45    1.59
  -8  -5  -1    1.56    1.61
  -8  -5  -1    6.45    1.55
  -8  -5  -1    6.19    2.07
  -8  -5  -1    5.81    1.81
   8   5   1    6.98    1.85
   8   5   1    7.06    1.89
   8   5   1    8.72    1.98
   8   5   1    7.24    1.44
  -9  -5  -1   70.57    4.82
  -9  -5  -1   67.18    4.42
  -9  -5  -1   67.64    5.14
  -9  -5  -1   61.95    5.43
  -9  -5  -1   67.79    4.11
  -9  -5  -1   61.13    4.88
   9   5   1   67.87    5.00
   9   5   1   73.90    4.68
   9   5   1   61.27    4.80
 -10  -5  -1    1.02    1.64
 -10  -5  -1    1.04    2.13
 -10  -5  -1    2.89    2.06
 -10  -5  -1    3.38    1.70
 -10  -5  -1    0.46    1.84
  10   5   1    1.05    1.95
  10   5   1    1.32    2.03
  10   5   1   -0.14    2.20
   4  -6  -1   -2.11    2.83
   4  -6  -1    3.47    1.80
   4  -6  -1    2.59    1.65
  -4   6   1    0.04    1.76
  -4   6   1   -0.12    2.63
  -4   6   1   -1.71    2.50
   3  -6  -1    0.79    1.31
   3  -6  -1    1.60    1.47
   3  -6  -1    4.75    3.19
  -3   6   1   -2.49    2.19
  -3   6   1    2.28    1.73
  -3   6   1    0.43    2.68
   2  -6  -1   21.05    2.22
   2  -6  -1   24.55    2.04
   2  -6  -1   25.58    2.37
   2  -6  -1   19.03    4.12
  -2   6   1   22.21    2.62
  -2   6   1   17.50    3.79
  -2   6   1   23.98    3.68
  -2   6   1   18.64    2.71
   1  -6  -1    1.98    2.72
   1  -6  -1    2.81    0.87
   1  -6  -1    5.24    1.26
   1  -6  -1    3.25    0.97
   1  -6  -1    3.06    1.13
  -1   6   1    0.74    2.16
  -1   6   1    2.31    1.44
  -1   6   1    3.04    1.39
  -1   6   1    2.30    2.52
   0  -6  -1   21.00    1.88
   0  -6  -1   21.27    1.73
   0  -6  -1   23.66    1.98
   0  -6  -1   19.21    1.67
   0  -6  -1   19.45    2.21
   0  -6  -1   30.90    4.25
   0   6   1   21.36    2.21
   0   6   1   19.33    3.37
   0   6   1   17.91    1.96
   0   6   1   17.87    3.04
  -1  -6  -1    4.80    1.00
  -1  -6  -1    4.09    0.91
  -1  -6  -1    3.77    2.54
  -1  -6  -1    4.46    1.18
  -1  -6  -1    4.59    0.91
  -1  -6  -1    4.50    1.06
   1   6   1    4.10    1.16
   1   6   1    5.77    2.20
   1   6   1    2.48    2.18
   1   6   1    4.50    1.15
  -2  -6  -1   34.40    2.69
  -2  -6  -1   34.64    4.00
  -2  -6  -1   42.13    2.23
  -2  -6  -1   36.07    2.36
  -2  -6  -1   36.02    2.32
  -2  -6  -1   40.43    2.20
   2   6   1   32.92    2.35
   2   6   1   39.34    2.63
   2   6   1   37.27    3.72
   2   6   1   34.47    3.68
  -3  -6  -1  126.87    5.81
  -3  -6  -1  130.53    5.52
  -3  -6  -1  124.97    5.31
  -3  -6  -1  132.71    5.76
  -3  -6  -1  120.37    5.29
  -3  -6  -1  137.03    7.49
  -3  -6  -1  132.69    5.62
   3   6   1  130.48    5.41
   3   6   1  131.88    5.84
   3   6   1  123.45    6.35
   3   6   1  116.60    5.70
   3   6   1  126.15    7.17
  -4  -6  -1   39.30    2.07
  -4  -6  -1   39.17    2.63
  -4  -6  -1   37.81    2.30
  -4  -6  -1   38.23    2.31
  -4  -6  -1   39.08    1.92
  -4  -6  -1   39.09    2.68
  -4  -6  -1   42.72    2.53
  -4  -6  -1   39.07    2.48
  -4  -6  -1   38.67    2.10
  -4  -6  -1   43.05    2.57
  -4  -6  -1   37.02    2.99
  -4  -6  -1   36.45    2.20
   4   6   1   38.78    2.57
   4   6   1   36.56    2.45
   4   6   1   43.28    3.70
   4   6   1   40.04    2.14
   4   6   1   39.98    2.06
   4   6   1   39.49    2.55
  -5  -6  -1   23.85    2.46
  -5  -6  -1   28.39    2.41
  -5  -6  -1   25.59    1.76
  -5  -6  -1   20.64    1.97
  -5  -6  -1   27.23    1.99
  -5  -6  -1   20.59    1.92
  -5  -6  -1   18.72    1.75
  -5  -6  -1   25.03    1.88
  -5  -6  -1   22.96    1.89
  -5  -6  -1   25.18    2.22
  -5  -6  -1   22.93    2.04
   5   6   1   24.10    2.69
   5   6   1   24.44    1.88
   5   6   1   25.47    2.16
   5   6   1   25.66    1.79
   5   6   1   21.24    1.90
   5   6   1   22.29    1.80
  -6  -6  -1   13.85    2.18
  -6  -6  -1   17.00    1.66
  -6  -6  -1   16.69    1.69
  -6  -6  -1   14.77    1.69
  -6  -6  -1   14.06    1.76
  -6  -6  -1   16.04    2.40
  -6  -6  -1   17.98    1.68
  -6  -6  -1   17.75    1.72
  -6  -6  -1   12.91    1.54
  -6  -6  -1   19.81    1.96
  -6  -6  -1   18.06    2.20
   6   6   1   17.22    1.79
   6   6   1   14.41    1.62
   6   6   1   16.70    1.85
   6   6   1   16.88    2.35
   6   6   1   17.34    1.65
  -7  -6  -1   22.47    2.29
  -7  -6  -1   27.30    2.91
  -7  -6  -1   26.00    2.82
  -7  -6  -1   20.63    2.68
  -7  -6  -1   20.84    2.00
  -7  -6  -1   17.14    2.09
  -7  -6  -1   19.33    2.12
  -7  -6  -1   21.57    1.92
   7   6   1   22.24    2.33
   7   6   1   25.07    2.05
   7   6   1   21.94    2.36
   7   6   1   25.38    2.03
  -8  -6  -1   86.02    5.46
  -8  -6  -1   92.33    5.02
  -8  -6  -1   86.99    5.67
  -8  -6  -1   99.53    5.20
  -8  -6  -1  102.96    5.51
  -8  -6  -1   86.43    4.64
   8   6   1   90.34    5.45
   8   6   1   86.47    5.00
   8   6   1   95.74    5.45
   8   6   1   89.03    4.46
  -9  -6  -1    0.55    1.87
  -9  -6  -1    5.94    1.69
  -9  -6  -1    3.93    2.04
  -9  -6  -1    4.86    2.05
  -9  -6  -1    5.65    1.62
  -9  -6  -1    5.80    1.89
   9   6   1    6.54    2.13
   9   6   1    4.05    1.71
   9   6   1    2.50    1.91
 -10  -6  -1   13.90    3.15
 -10  -6  -1   15.11    2.52
 -10  -6  -1   14.67    2.32
 -10  -6  -1   15.01    2.71
 -10  -6  -1   11.92    2.76
 -10  -6  -1   15.13    2.81
  10   6   1   14.82    3.17
  10   6   1   17.86    2.95
  10   6   1   13.64    2.68
   3  -7  -1   24.78    2.77
   3  -7  -1   16.34    4.14
   3  -7  -1   16.25    2.35
  -3   7   1   19.45    2.85
  -3   7   1   16.33    3.77
  -3   7   1   24.68    4.47
   2  -7  -1   35.79    2.67
   2  -7  -1   45.75    5.72
   2  -7  -1   33.83    3.02
   2  -7  -1   36.49    3.10
  -2   7   1   27.17    4.24
  -2   7   1   32.43    3.41
  -2   7   1   33.44    5.14
   1  -7  -1    2.70    1.09
   1  -7  -1    2.51    1.29
   1  -7  -1    1.83    1.19
   1  -7  -1    3.78    3.09
   1  -7  -1    1.54    0.94
  -1   7   1    3.88    2.55
  -1   7   1    3.03    1.43
  -1   7   1    2.32    2.94
  -1   7   1    2.47    1.85
   0  -7  -1   19.98    2.15
   0  -7  -1   23.53    1.96
   0  -7  -1   21.53    4.13
   0  -7  -1   22.23    2.00
   0  -7  -1   26.96    2.24
   0   7   1   21.44    3.72
   0   7   1   23.41    2.65
   0   7   1   23.22    2.33
  -1  -7  -1    2.15    1.02
  -1  -7  -1    3.08    2.63
  -1  -7  -1    3.11    1.00
  -1  -7  -1    5.15    1.13
  -1  -7  -1    5.49    1.53
  -1  -7  -1    3.24    1.15
   1   7   1    4.80    2.45
   1   7   1    2.58    1.18
   1   7   1    2.53    1.33
   1   7   1    0.13    2.41
  -2  -7  -1   57.00    3.00
  -2  -7  -1   62.85    5.77
  -2  -7  -1   56.74    3.00
  -2  -7  -1   58.70    3.21
  -2  -7  -1   55.51    3.56
  -2  -7  -1   55.93    3.17
   2   7   1   49.24    4.84
   2   7   1   58.32    3.37
   2   7   1   59.55    3.59
   2   7   1   57.75    4.93
  -3  -7  -1    7.12    1.46
  -3  -7  -1    4.88    1.07
  -3  -7  -1    5.21    1.18
  -3  -7  -1    2.83    2.07
  -3  -7  -1    3.28    0.94
  -3  -7  -1    5.04    1.16
   3   7   1    3.48    1.13
   3   7   1    5.34    1.29
   3   7   1    5.03    2.16
   3   7   1    2.99    2.05
  -4  -7  -1   24.30    2.00
  -4  -7  -1   25.89    2.38
  -4  -7  -1   26.83    2.25
  -4  -7  -1   24.15    2.13
  -4  -7  -1   28.53    2.12
  -4  -7  -1   21.50    2.22
  -4  -7  -1   29.48    3.08
  -4  -7  -1   26.81    2.10
   4   7   1   25.12    2.29
   4   7   1   26.89    2.32
   4   7   1   25.67    2.48
   4   7   1   26.91    3.32
  -5  -7  -1  129.30    6.09
  -5  -7  -1  130.36    5.83
  -5  -7  -1  127.09    6.06
  -5  -7  -1  122.15    5.52
  -5  -7  -1  135.78    6.23
  -5  -7  -1  131.64    6.19
  -5  -7  -1  127.89    6.79
  -5  -7  -1  130.12    5.59
  -5  -7  -1  122.22    5.54
   5   7   1  140.26    6.20
   5   7   1  123.98    7.14
   5   7   1  134.20    5.59
   5   7   1  127.54    6.01
  -6  -7  -1   12.44    1.53
  -6  -7  -1   10.18    1.45
  -6  -7  -1   15.52    1.83
  -6  -7  -1   14.04    1.93
  -6  -7  -1   12.40    2.11
  -6  -7  -1   13.41    1.55
  -6  -7  -1   13.29    1.77
  -6  -7  -1   12.89    1.75
  -6  -7  -1   13.26    1.78
   6   7   1   12.62    2.27
   6   7   1   11.14    1.74
   6   7   1   12.65    1.65
   6   7   1   17.63    1.68
  -7  -7  -1  159.03    6.71
  -7  -7  -1  154.29    7.03
  -7  -7  -1  147.75    7.22
  -7  -7  -1  164.28    7.22
  -7  -7  -1  153.48    7.64
  -7  -7  -1  147.99    6.58
  -7  -7  -1  167.01    7.86
  -7  -7  -1  159.62    6.77
   7   7   1  146.47    7.00
   7   7   1  155.67    7.47
   7   7   1  154.73    6.93
   7   7   1  147.67    6.51
  -8  -7  -1    1.18    1.32
  -8  -7  -1    0.89    1.71
  -8  -7  -1    2.99    1.61
  -8  -7  -1    1.10    1.25
  -8  -7  -1    2.00    1.16
  -8  -7  -1    1.31    1.26
   8   7   1    1.97    1.51
   8   7   1    0.15    1.40
   8   7   1    1.73    1.12
   8   7   1    2.52    1.58
  -9  -7  -1   21.19    2.62
  -9  -7  -1   23.00    3.24
  -9  -7  -1   19.53    3.19
  -9  -7  -1   21.75    2.54
  -9  -7  -1   17.96    2.24
  -9  -7  -1   19.67    3.07
   9   7   1   12.70    2.48
   9   7   1   16.81    2.80
   9   7   1   21.67    2.89
 -10  -7  -1   27.99    3.13
 -10  -7  -1   26.87    3.61
 -10  -7  -1   24.44    3.18
 -10  -7  -1   32.02    3.05
 -10  -7  -1   26.27    3.91
 -10  -7  -1   30.50    3.79
  10   7   1   26.35    3.58
  10   7   1   22.38    3.18
  10   7   1   29.82    3.60
   2  -8  -1    0.20    2.83
   2  -8  -1    4.49    1.68
  -2   8   1    3.29    2.99
  -2   8   1    0.33    2.63
   1  -8  -1    3.38    2.83
   1  -8  -1    1.37    1.37
   1  -8  -1    0.87    1.13
   1  -8  -1    2.56    1.38
  -1   8   1    5.22    2.69
  -1   8   1   -3.01    2.73
  -1   8   1    0.58    1.54
  -1   8   1    0.43    1.86
   0  -8  -1    0.42    0.93
   0  -8  -1   -0.27    1.16
   0  -8  -1    0.62    2.70
   0  -8  -1    1.53    1.18
   0  -8  -1   -0.52    0.88
   0   8   1    0.27    2.40
   0   8   1   -1.12    1.52
   0   8   1    0.52    1.32
   0   8   1   -1.08    2.50
  -1  -8  -1    2.18    1.17
  -1  -8  -1    1.43    1.15
  -1  -8  -1    1.21    1.00
  -1  -8  -1   -2.55    2.33
  -1  -8  -1    0.89    0.98
   1   8   1    1.95    2.42
   1   8   1    0.18    2.19
   1   8   1    1.47    1.41
   1   8   1    2.40    1.25
  -2  -8  -1    0.24    1.07
  -2  -8  -1    2.89    1.07
  -2  -8  -1    3.98    1.54
  -2  -8  -1    0.09    0.97
  -2  -8  -1    2.22    2.54
  -2  -8  -1    1.25    1.10
   2   8   1    1.69    1.19
   2   8   1    1.58    2.33
   2   8   1   -0.88    2.35
   2   8   1    1.88    1.31
  -3  -8  -1   12.62    1.56
  -3  -8  -1   11.69    2.90
  -3  -8  -1   11.10    1.61
  -3  -8  -1    9.37    1.38
  -3  -8  -1   10.94    1.61
  -3  -8  -1   10.11    1.83
   3   8   1   11.32    2.80
   3   8   1   10.75    1.77
   3   8   1    8.85    2.60
   3   8   1    8.37    1.56
  -4  -8  -1   59.47    3.28
  -4  -8  -1   58.98    3.28
  -4  -8  -1   61.74    3.76
  -4  -8  -1   68.19    4.86
  -4  -8  -1   60.71    3.49
  -4  -8  -1   71.62    3.91
   4   8   1   58.23    3.60
   4   8   1   62.25    5.30
   4   8   1   55.93    3.61
  -5  -8  -1   55.39    3.93
  -5  -8  -1   57.65    3.72
  -5  -8  -1   57.82    3.42
  -5  -8  -1   49.69    3.42
  -5  -8  -1   48.97    3.02
  -5  -8  -1   49.07    2.96
  -5  -8  -1   44.98    3.13
   5   8   1   54.73    3.42
   5   8   1   48.65    3.32
   5   8   1   50.98    4.63
  -6  -8  -1   45.53    3.42
  -6  -8  -1   47.54    3.00
  -6  -8  -1   43.69    3.04
  -6  -8  -1   43.24    2.97
  -6  -8  -1   40.21    2.66
  -6  -8  -1   45.15    3.81
  -6  -8  -1   45.00    2.85
  -6  -8  -1   44.03    2.79
  -6  -8  -1   42.67    3.31
   6   8   1   43.26    3.09
   6   8   1   48.38    2.84
   6   8   1   43.50    4.14
   6   8   1   42.89    3.06
  -7  -8  -1    2.37    1.37
  -7  -8  -1   -0.55    1.09
  -7  -8  -1    0.16    0.94
  -7  -8  -1    0.40    1.01
  -7  -8  -1   -1.28    1.35
  -7  -8  -1    2.24    1.15
  -7  -8  -1   -1.42    0.93
   7   8   1    0.80    1.16
   7   8   1    0.34    1.00
   7   8   1    1.39    1.08
  -8  -8  -1    0.96    1.27
  -8  -8  -1    2.02    1.91
  -8  -8  -1    0.72    1.57
  -8  -8  -1    0.56    1.39
  -8  -8  -1    0.20    1.13
  -8  -8  -1   -1.32    1.08
   8   8   1    1.76    1.18
   8   8   1    1.12    1.25
   8   8   1    1.06    1.42
  -9  -8  -1   34.64    3.48
  -9  -8  -1   34.86    3.93
  -9  -8  -1   33.56    3.92
  -9  -8  -1   33.08    3.27
  -9  -8  -1   38.87    3.15
   9   8   1   36.48    3.52
   9   8   1   34.69    2.92
   9   8   1   37.36    3.84
 -10  -8  -1   -3.41    2.00
 -10  -8  -1    0.52    1.47
 -10  -8  -1   -1.45    1.99
 -10  -8  -1    3.15    1.69
  10   8   1   -2.66    1.61
  10   8   1   -2.59    1.84
   1  -9  -1   12.92    2.02
   1  -9  -1   10.60    2.09
   1  -9  -1   10.81    3.81
  -1   9   1   14.60    4.07
  -1   9   1   14.18    3.51
   0  -9  -1    0.93    1.14
   0  -9  -1   -2.98    2.62
   0  -9  -1   -0.01    1.14
   0  -9  -1    0.23    1.14
   0   9   1    3.67    2.59
   0   9   1    1.60    2.06
   0   9   1    3.91    1.70
   0   9   1   -3.67    2.94
  -1  -9  -1   29.69    4.81
  -1  -9  -1   25.34    2.43
  -1  -9  -1   25.01    2.55
  -1  -9  -1   23.39    2.46
  -1  -9  -1   23.57    2.30
   1   9   1   30.81    3.33
   1   9   1   22.24    3.78
   1   9   1   24.71    2.76
   1   9   1   18.34    3.90
  -2  -9  -1    1.06    1.03
  -2  -9  -1    1.77    1.15
  -2  -9  -1    0.05    1.07
  -2  -9  -1   -3.60    2.58
  -2  -9  -1    0.94    1.21
   2   9   1    0.54    1.44
   2   9   1    2.02    1.25
   2   9   1   -5.99    2.52
  -3  -9  -1   66.25    6.35
  -3  -9  -1   66.61    3.80
  -3  -9  -1   65.86    3.60
  -3  -9  -1   62.96    4.30
  -3  -9  -1   60.78    3.57
  -3  -9  -1   64.54    3.93
   3   9   1   70.49    4.08
   3   9   1   55.33    5.65
   3   9   1   60.62    4.12
  -4  -9  -1    0.19    1.88
  -4  -9  -1    3.22    1.50
  -4  -9  -1    3.27    1.11
  -4  -9  -1    2.10    1.24
  -4  -9  -1    2.15    1.07
  -4  -9  -1    3.21    1.48
   4   9   1    3.01    1.41
   4   9   1    1.85    1.30
   4   9   1    2.57    2.19
  -5  -9  -1   29.15    3.07
  -5  -9  -1   37.81    3.83
  -5  -9  -1   36.96    2.84
  -5  -9  -1   44.00    3.53
  -5  -9  -1   32.65    2.88
  -5  -9  -1   30.26    2.65
   5   9   1   39.41    3.26
   5   9   1   33.06    3.96
   5   9   1   34.96    3.01
  -6  -9  -1   40.01    3.35
  -6  -9  -1   39.67    3.46
  -6  -9  -1   45.74    3.02
  -6  -9  -1   43.20    3.01
  -6  -9  -1   43.13    2.86
  -6  -9  -1   50.88    4.12
  -6  -9  -1   44.75    3.66
   6   9   1   40.81    3.37
   6   9   1   46.28    4.47
   6   9   1   48.49    3.28
   6   9   1   41.80    2.78
  -7  -9  -1    2.82    1.26
  -7  -9  -1   -0.62    1.74
  -7  -9  -1    4.22    1.32
  -7  -9  -1    1.26    1.26
  -7  -9  -1    2.12    1.32
   7   9   1    3.06    1.24
   7   9   1    3.60    1.38
   7   9   1    3.19    1.44
  -8  -9  -1  105.91    6.40
  -8  -9  -1  101.29    5.16
  -8  -9  -1  108.46    5.42
  -8  -9  -1  107.40    5.17
  -8  -9  -1  101.64    5.58
  -8  -9  -1   85.13    5.50
   8   9   1  106.28    5.64
   8   9   1  105.88    5.56
   8   9   1  111.12    5.23
   8   9   1   96.47    5.55
  -9  -9  -1    4.39    2.38
  -9  -9  -1   -0.45    1.40
  -9  -9  -1   -0.20    1.17
  -9  -9  -1    0.16    1.76
  -9  -9  -1    2.07    1.62
   9   9   1    0.14    1.30
   9   9   1   -1.39    1.49
   9   9   1   -1.05    1.26
   9   9   1    1.43    1.87
  -1 -10  -1    0.82    1.41
  -1 -10  -1   -1.15    1.15
  -1 -10  -1    2.98    3.00
  -1 -10  -1   -0.59    1.18
   1  10   1    2.82    3.16
   1  10   1    4.49    2.21
  -2 -10  -1    9.07    3.37
  -2 -10  -1    5.33    1.45
  -2 -10  -1    5.25    1.45
  -2 -10  -1    7.72    1.77
   2  10   1    3.62    2.91
   2  10   1    5.02    1.70
   2  10   1    4.23    1.96
  -3 -10  -1    0.68    1.30
  -3 -10  -1    0.18    2.46
  -3 -10  -1    1.32    1.15
  -3 -10  -1   -1.01    1.01
   3  10   1   -0.11    1.36
   3  10   1   -0.92    1.38
   3  10   1   -0.02    2.77
  -4 -10  -1    1.76    2.20
  -4 -10  -1    1.71    1.32
  -4 -10  -1    3.12    1.25
  -4 -10  -1    2.19    1.27
   4  10   1    2.65    2.56
   4  10   1    2.44    1.44
   4  10   1    0.28    1.38
  -5 -10  -1   34.10    2.90
  -5 -10  -1   35.92    3.48
  -5 -10  -1   32.48    2.81
  -5 -10  -1   34.34    3.13
  -5 -10  -1   36.89    4.10
   5  10   1   29.83    4.06
   5  10   1   27.71    3.06
   5  10   1   35.57    3.26
  -6 -10  -1   38.75    3.14
  -6 -10  -1   47.09    3.45
  -6 -10  -1   36.22    3.31
  -6 -10  -1   50.11    4.30
   6  10   1   39.59    3.49
   6  10   1   38.69    3.07
   6  10   1   37.54    4.32
   6  10   1   43.91    3.65
  -7 -10  -1   58.02    3.55
  -7 -10  -1   47.54    3.86
  -7 -10  -1   47.76    3.58
  -7 -10  -1   52.78    4.69
   7  10   1   43.43    3.84
   7  10   1   52.35    3.35
   7  10   1   55.81    4.23
  -8 -10  -1   -1.11    1.31
  -8 -10  -1    0.36    1.42
  -8 -10  -1   -1.53    1.14
  -8 -10  -1    0.46    1.47
  -8 -10  -1   -2.00    1.88
   8  10   1   -0.65    1.43
   8  10   1    0.76    1.44
   8  10   1    0.40    1.26
   8  10   1    0.69    1.49
  -9 -10  -1   -0.11    1.37
  -9 -10  -1   -0.41    1.55
  -9 -10  -1    0.55    2.35
   9  10   1   -0.05    1.32
   9  10   1    2.63    1.81
  -3 -11  -1   -1.58    1.21
  -3 -11  -1   -0.10    1.24
  -3 -11  -1    0.57    2.59
  -3 -11  -1    1.83    1.40
   3  11   1   -2.85    2.65
   3  11   1   -0.32    1.67
  -4 -11  -1   58.43    6.04
  -4 -11  -1   53.80    3.93
  -4 -11  -1   48.76    3.72
  -4 -11  -1   51.42    4.04
   4  11   1   49.80    4.40
   4  11   1   50.87    6.08
  -5 -11  -1    4.14    1.61
  -5 -11  -1    3.73    1.56
  -5 -11  -1    2.02    1.42
  -5 -11  -1    4.00    2.24
   5  11   1    2.05    1.71
   5  11   1    3.79    2.75
  -6 -11  -1   42.53    3.43
  -6 -11  -1   44.66    3.71
  -6 -11  -1   39.00    3.41
   6  11   1   36.54    4.61
   6  11   1   45.55    3.44
   6  11   1   46.23    4.01
  -7 -11  -1   17.40    2.43
  -7 -11  -1   15.16    2.36
  -7 -11  -1   13.91    2.15
   7  11   1   17.41    2.70
   7  11   1   20.73    2.49
   6  11  -2   52.53    4.29
   6  11  -2   39.99    5.29
  -6 -11   2   53.28    3.89
  -6 -11   2   53.51    5.02
  -6 -11   2   50.08    3.90
  -6 -11   2   47.60    4.22
  -6 -11   2   48.96    3.82
   5  11  -2    7.37    2.97
   5  11  -2    5.34    1.83
  -5 -11   2    6.42    2.60
  -5 -11   2    4.47    1.53
  -5 -11   2    3.74    1.86
  -5 -11   2    4.88    1.47
  -5 -11   2    3.71    1.62
   4  11  -2    8.88    2.11
   4  11  -2    5.22    3.20
  -4 -11   2   14.93    3.61
  -4 -11   2   13.74    2.13
  -4 -11   2   14.63    2.24
  -4 -11   2   12.65    2.03
  -4 -11   2   11.15    2.35
   3  11  -2   59.99    4.80
   3  11  -2   57.67    6.43
  -3 -11   2   59.01    3.88
  -3 -11   2   63.13    4.05
  -3 -11   2   59.97    4.94
  -3 -11   2   56.60    6.49
   2  11  -2    0.57    1.76
   2  11  -2   -2.33    2.69
  -2 -11   2    1.55    1.37
  -2 -11   2    0.87    1.79
  -2 -11   2    0.82    2.76
  -2 -11   2   -1.16    1.38
   7  10  -2    6.73    2.83
   7  10  -2   11.32    1.78
   7  10  -2   11.77    2.14
  -7 -10   2   10.08    1.81
  -7 -10   2   12.75    2.11
  -7 -10   2   12.32    2.25
   6  10  -2    4.95    1.70
   6  10  -2    5.89    1.75
   6  10  -2   10.09    3.06
  -6 -10   2    9.17    2.29
  -6 -10   2    6.15    1.87
  -6 -10   2    8.14    1.73
  -6 -10   2    5.31    1.55
  -6 -10   2    8.94    1.77
   5  10  -2   -0.13    1.16
   5  10  -2    1.08    2.22
   5  10  -2    1.50    1.43
  -5 -10   2    1.13    1.22
  -5 -10   2    1.46    1.26
  -5 -10   2    1.92    1.60
  -5 -10   2    4.04    1.40
  -5 -10   2    1.55    1.90
   4  10  -2   55.65    3.80
   4  10  -2   53.32    5.87
   4  10  -2   50.38    4.14
  -4 -10   2   60.55    4.21
  -4 -10   2   66.12    6.06
  -4 -10   2   60.82    3.79
  -4 -10   2   60.24    3.66
  -4 -10   2   53.01    3.50
   3  10  -2   13.22    3.50
   3  10  -2   13.14    2.24
   3  10  -2   12.74    2.08
   3  10  -2   12.69    3.56
  -3 -10   2    4.20    2.89
  -3 -10   2   15.43    2.43
  -3 -10   2    8.69    1.63
  -3 -10   2   12.58    1.86
  -3 -10   2   14.71    1.95
   2  10  -2   38.08    5.23
   2  10  -2   35.58    3.55
   2  10  -2   35.68    4.86
   2  10  -2   32.95    3.26
  -2 -10   2   38.04    3.08
  -2 -10   2   37.50    3.23
  -2 -10   2   37.56    3.74
  -2 -10   2   36.11    5.23
   1  10  -2    5.67    2.10
   1  10  -2    1.28    3.10
   1  10  -2    4.10    2.85
  -1 -10   2    4.42    2.11
  -1 -10   2    6.60    1.79
  -1 -10   2    2.56    1.33
  -1 -10   2    2.64    2.84
   0  10  -2    2.59    3.08
   0  10  -2   -1.19    2.62
   0  10  -2    0.46    1.84
   0 -10   2    1.17    1.93
   0 -10   2    2.46    1.44
   0 -10   2    2.80    1.54
   0 -10   2   -1.92    2.30
   7   9  -2   44.06    5.02
   7   9  -2   49.75    3.14
   7   9  -2   44.44    3.53
   7   9  -2   55.54    3.68
  -7  -9   2   46.96    3.71
  -7  -9   2   50.73    5.67
  -7  -9   2   47.13    3.16
  -7  -9   2   53.78    3.46
   6   9  -2    0.65    1.21
   6   9  -2    3.81    2.41
   6   9  -2    0.65    1.25
  -6  -9   2    1.23    1.27
  -6  -9   2    1.07    1.02
  -6  -9   2    0.56    2.56
  -6  -9   2    1.91    1.29
  -6  -9   2   -0.23    1.23
  -6  -9   2   -1.25    1.34
   5   9  -2  131.92    8.62
   5   9  -2  141.93    7.41
   5   9  -2  147.67    6.96
   5   9  -2  145.91    6.90
  -5  -9   2  145.46    8.25
  -5  -9   2  131.18    6.87
  -5  -9   2  138.78    6.51
  -5  -9   2  143.96    9.38
  -5  -9   2  144.68    6.34
  -5  -9   2  141.60    6.44
   4   9  -2    3.14    2.29
   4   9  -2    0.79    1.20
   4   9  -2    1.29    1.29
   4   9  -2    0.08    1.62
  -4  -9   2    3.69    2.14
  -4  -9   2    1.13    1.39
  -4  -9   2    1.42    0.99
  -4  -9   2    0.95    1.12
  -4  -9   2    2.64    1.12
   3   9  -2   42.30    4.26
   3   9  -2   37.03    4.74
   3   9  -2   34.73    3.22
   3   9  -2   40.09    3.19
  -3  -9   2   41.39    3.56
  -3  -9   2   48.79    3.01
  -3  -9   2   36.01    2.86
  -3  -9   2   38.27    4.70
  -3  -9   2   41.71    3.11
   2   9  -2   81.67    4.83
   2   9  -2   80.72    4.67
   2   9  -2   85.14    6.57
   2   9  -2   78.98    6.70
  -2  -9   2   81.97    4.28
  -2  -9   2   89.51    5.07
  -2  -9   2   73.62    7.18
  -2  -9   2   87.77    4.53
  -2  -9   2   81.91    4.27
   1   9  -2   -0.81    1.39
   1   9  -2    2.18    1.41
   1   9  -2    0.32    2.23
   1   9  -2    1.51    2.84
  -1  -9   2   -0.30    2.45
  -1  -9   2    0.12    1.16
  -1  -9   2    0.43    1.01
  -1  -9   2   -1.33    1.37
   0   9  -2   86.61    5.41
   0   9  -2   81.00    5.26
   0   9  -2   89.84    7.39
   0   9  -2  100.13    7.52
   0  -9   2   99.71    7.48
   0  -9   2  105.42    5.79
   0  -9   2   83.72    4.65
   0  -9   2   81.96    4.84
  -1   9  -2    2.90    3.05
  -1   9  -2    5.61    2.10
  -1   9  -2   11.91    3.36
   1  -9   2    9.59    2.42
   1  -9   2    9.04    1.82
   1  -9   2    8.54    1.86
   1  -9   2    9.71    3.17
  -2   9  -2   36.07    4.86
  -2   9  -2   29.29    5.02
   2  -9   2   37.43    4.96
   2  -9   2   38.88    3.30
   2  -9   2   28.33    3.17
   9   8  -2   -0.65    1.42
   9   8  -2   -0.69    1.57
   9   8  -2    1.39    2.03
   9   8  -2    2.35    1.48
  -9  -8   2   -0.16    1.62
  -9  -8   2    0.83    1.86
  -9  -8   2   -1.81    1.59
   8   8  -2    8.80    1.84
   8   8  -2   11.98    2.10
   8   8  -2   11.54    2.11
   8   8  -2   18.15    2.78
  -8  -8   2   10.81    2.05
  -8  -8   2   11.29    2.58
  -8  -8   2   13.11    2.78
  -8  -8   2   11.17    2.09
   7   8  -2    1.25    1.15
   7   8  -2    0.36    1.03
   7   8  -2    2.16    1.25
   7   8  -2    1.86    1.31
   7   8  -2    1.01    1.25
   7   8  -2    1.47    1.73
   7   8  -2    2.41    2.27
   7   8  -2    0.77    1.11
   7   8  -2    1.18    1.16
   7   8  -2   -0.42    0.91
  -7  -8   2    0.60    1.01
  -7  -8   2    0.43    0.97
  -7  -8   2   -0.07    1.27
  -7  -8   2   -1.79    1.07
  -7  -8   2   -0.58    0.92
  -7  -8   2    2.21    1.48
  -7  -8   2   -0.12    1.16
  -7  -8   2    2.82    1.78
  -7  -8   2    2.02    1.87
  -7  -8   2   -0.30    1.11
  -7  -8   2   -1.00    1.20
  -7  -8   2   -0.33    2.22
   6   8  -2   33.74    2.85
   6   8  -2   32.47    3.17
   6   8  -2   33.26    2.83
   6   8  -2   29.00    3.98
   6   8  -2   35.89    2.88
   6   8  -2   34.48    2.79
   6   8  -2   34.47    3.09
  -6  -8   2   40.42    2.92
  -6  -8   2   32.96    2.83
  -6  -8   2   39.01    4.57
  -6  -8   2   34.34    2.79
  -6  -8   2   34.05    3.48
  -6  -8   2   38.06    2.43
  -6  -8   2   34.49    3.33
  -6  -8   2   32.54    2.54
  -6  -8   2   48.54    3.30
  -6  -8   2   34.43    2.96
   5   8  -2    6.34    1.60
   5   8  -2    5.11    1.38
   5   8  -2    8.17    2.57
   5   8  -2    5.33    1.28
  -5  -8   2    3.25    1.60
  -5  -8   2    7.03    1.31
  -5  -8   2    5.33    1.24
  -5  -8   2    5.05    1.45
  -5  -8   2    3.91    2.62
  -5  -8   2    6.07    1.33
   4   8  -2   -0.31    1.23
   4   8  -2    0.40    0.97
   4   8  -2   -0.22    2.13
   4   8  -2    0.45    1.00
  -4  -8   2    0.24    1.59
  -4  -8   2   -0.32    0.90
  -4  -8   2    0.80    1.04
  -4  -8   2    0.41    0.93
  -4  -8   2    0.17    0.86
  -4  -8   2   -0.92    2.47
   3   8  -2  109.49    7.17
   3   8  -2  105.47    5.37
   3   8  -2  111.85    6.12
  -3  -8   2  106.14    4.96
  -3  -8   2  111.21    7.20
  -3  -8   2  105.64    5.01
  -3  -8   2  101.52    5.50
  -3  -8   2  105.92    5.03
   2   8  -2   19.84    3.58
   2   8  -2   20.91    2.30
   2   8  -2   21.51    2.20
   2   8  -2   19.03    3.03
  -2  -8   2   20.98    2.04
  -2  -8   2   20.55    2.07
  -2  -8   2   21.54    2.01
  -2  -8   2   17.96    2.20
  -2  -8   2   19.07    3.43
   1   8  -2   69.82    6.36
   1   8  -2   70.25    4.30
   1   8  -2   74.38    4.31
   1   8  -2   78.74    6.40
  -1  -8   2   83.50    4.16
  -1  -8   2   76.25    3.90
  -1  -8   2   68.53    3.86
  -1  -8   2   79.40    4.52
  -1  -8   2   69.44    6.59
   0   8  -2    7.16    1.66
   0   8  -2    6.39    2.92
   0   8  -2    3.11    1.46
   0   8  -2    4.35    2.57
   0  -8   2    9.38    1.92
   0  -8   2    8.28    1.59
   0  -8   2    6.48    2.86
   0  -8   2    7.24    1.48
  -1   8  -2    1.76    1.48
  -1   8  -2   12.73    3.35
  -1   8  -2    3.48    2.73
  -1   8  -2   -0.15    1.45
   1  -8   2    3.36    1.30
   1  -8   2    2.87    1.63
   1  -8   2    3.19    1.32
   1  -8   2    4.60    2.68
  -2   8  -2   17.62    2.77
  -2   8  -2   12.03    3.56
  -2   8  -2   13.60    3.55
   2  -8   2   17.03    3.51
   2  -8   2   14.26    2.05
   2  -8   2   15.64    2.33
  -3   8  -2    7.57    3.20
  -3   8  -2    3.25    3.09
   3  -8   2    6.99    1.74
   3  -8   2   11.12    3.11
   3  -8   2    5.05    1.91
   9   7  -2    7.40    2.05
   9   7  -2    8.24    2.23
   9   7  -2    6.20    2.41
  -9  -7   2    5.80    2.12
  -9  -7   2    6.22    1.97
  -9  -7   2    6.65    2.40
   8   7  -2   32.76    3.44
   8   7  -2   28.16    2.98
   8   7  -2   26.66    2.91
  -8  -7   2   31.08    3.44
  -8  -7   2   21.94    2.80
  -8  -7   2   25.60    2.83
  -8  -7   2   40.98    3.49
  -8  -7   2   19.57    3.07
   7   7  -2   10.91    2.18
   7   7  -2   15.80    2.09
   7   7  -2   17.08    1.98
   7   7  -2   16.02    2.13
   7   7  -2   17.23    2.13
  -7  -7   2   15.58    2.09
  -7  -7   2   16.78    2.25
  -7  -7   2   16.36    1.89
  -7  -7   2   15.05    2.02
  -7  -7   2   16.09    2.11
  -7  -7   2   13.50    1.72
  -7  -7   2   19.11    2.67
  -7  -7   2   14.55    2.07
   6   7  -2   70.41    5.08
   6   7  -2   71.24    4.00
   6   7  -2   60.35    3.70
   6   7  -2   65.52    3.76
   6   7  -2   64.70    3.82
   6   7  -2   69.42    3.83
   6   7  -2   59.38    4.12
   6   7  -2   68.90    3.37
   6   7  -2   64.64    3.66
   6   7  -2   73.25    4.15
  -6  -7   2   76.04    4.55
  -6  -7   2   65.68    4.26
  -6  -7   2   70.29    4.24
  -6  -7   2   66.08    3.54
  -6  -7   2   68.14    3.92
  -6  -7   2   65.22    3.39
  -6  -7   2   66.50    3.88
  -6  -7   2   61.73    3.78
  -6  -7   2   68.08    3.75
  -6  -7   2   63.37    3.51
  -6  -7   2   64.59    5.43
  -6  -7   2   65.20    3.72
  -6  -7   2   67.06    3.75
  -6  -7   2   69.48    3.42
  -6  -7   2   64.56    4.29
   5   7  -2    2.05    1.86
   5   7  -2    0.73    0.82
   5   7  -2    0.76    0.93
   5   7  -2    0.46    1.14
   5   7  -2    0.83    0.97
   5   7  -2    0.62    0.96
  -5  -7   2    0.55    0.86
  -5  -7   2    1.82    1.02
  -5  -7   2   -1.49    0.87
  -5  -7   2    0.42    0.71
  -5  -7   2    1.13    1.36
  -5  -7   2    0.27    0.90
  -5  -7   2   -0.11    0.86
  -5  -7   2    0.19    1.92
  -5  -7   2    0.78    0.92
  -5  -7   2    1.70    1.49
  -5  -7   2   -0.37    0.73
  -5  -7   2   -1.35    0.77
  -5  -7   2    0.77    1.27
  -5  -7   2    3.11    1.23
   4   7  -2  245.89   12.90
   4   7  -2  264.31   10.95
   4   7  -2  265.08   11.53
   4   7  -2  262.51   10.91
  -4  -7   2  260.07   12.75
  -4  -7   2  270.17   11.22
  -4  -7   2  259.35   10.90
  -4  -7   2  250.75   10.28
  -4  -7   2  237.32   10.75
  -4  -7   2  266.06   11.58
  -4  -7   2  274.81   13.37
  -4  -7   2  260.92   10.05
  -4  -7   2  254.63   10.11
  -4  -7   2  255.45   10.33
   3   7  -2    0.45    1.91
   3   7  -2   -0.30    0.83
   3   7  -2   -0.70    0.81
   3   7  -2   -0.17    1.11
  -3  -7   2    0.51    0.64
  -3  -7   2    2.16    1.72
  -3  -7   2   -2.04    1.07
  -3  -7   2    1.58    0.86
  -3  -7   2    0.51    0.69
  -3  -7   2    0.34    0.94
  -3  -7   2    2.42    0.89
  -3  -7   2    1.08    2.09
  -3  -7   2    0.24    0.79
   2   7  -2  116.57    5.54
   2   7  -2  123.72    6.43
   2   7  -2  121.62    7.55
  -2  -7   2  105.35    7.37
  -2  -7   2  118.15    5.27
  -2  -7   2  116.37    5.16
  -2  -7   2  113.99    5.66
  -2  -7   2  119.10    4.99
  -2  -7   2  115.85    5.42
  -2  -7   2  116.62    5.20
   1   7  -2  119.25    7.66
   1   7  -2  129.93    7.16
   1   7  -2  110.88    5.61
  -1  -7   2  118.38    5.28
  -1  -7   2  115.00    5.80
  -1  -7   2  122.66    5.45
  -1  -7   2  115.76    5.15
  -1  -7   2  116.08    5.16
  -1  -7   2   98.16    7.37
   0   7  -2    4.60    2.68
   0   7  -2    5.72    1.51
   0   7  -2    4.79    1.44
   0   7  -2    8.53    2.91
   0  -7   2    8.58    2.92
   0  -7   2    4.90    1.21
   0  -7   2    6.40    1.51
  -1   7  -2  144.95    8.38
  -1   7  -2  122.87    6.42
  -1   7  -2  131.21    6.43
  -1   7  -2  145.49    8.35
   1  -7   2  120.24    5.90
   1  -7   2  127.51    5.74
   1  -7   2  124.50    8.28
   1  -7   2  119.19    6.42
  -2   7  -2   14.51    3.25
  -2   7  -2   10.22    2.04
  -2   7  -2   16.69    3.40
  -2   7  -2    9.88    2.20
   2  -7   2   17.24    3.40
   2  -7   2   14.20    2.22
   2  -7   2   11.45    1.72
   2  -7   2   12.25    1.89
  -3   7  -2   69.21    6.12
  -3   7  -2   46.63    4.32
  -3   7  -2   64.84    6.10
   3  -7   2   53.81    4.09
   3  -7   2   58.39    5.81
   3  -7   2   55.87    3.50
  -4   7  -2    3.79    2.71
  -4   7  -2    6.75    2.96
   4  -7   2    0.09    1.50
   4  -7   2    4.07    2.66
   9   6  -2   21.91    3.10
   9   6  -2   27.60    3.49
   9   6  -2   23.78    3.04
  -9  -6   2   16.36    2.93
  -9  -6   2   17.81    2.79
  -9  -6   2   24.12    3.13
  -9  -6   2   22.32    3.03
   8   6  -2    0.43    1.33
   8   6  -2    2.67    1.82
   8   6  -2    4.00    1.63
  -8  -6   2    1.67    1.51
  -8  -6   2    1.42    1.60
  -8  -6   2    1.79    1.70
  -8  -6   2    1.95    1.39
   7   6  -2   39.47    3.24
   7   6  -2   37.81    3.26
   7   6  -2   35.55    3.39
   7   6  -2   42.82    3.15
  -7  -6   2   41.82    2.65
  -7  -6   2   40.75    3.48
  -7  -6   2   41.33    3.06
  -7  -6   2   36.56    3.51
  -7  -6   2   42.51    3.13
  -7  -6   2   42.98    3.24
  -7  -6   2   39.15    3.35
   6   6  -2   12.87    1.35
   6   6  -2   11.66    1.94
   6   6  -2   10.96    1.64
   6   6  -2   10.81    1.59
   6   6  -2   10.85    1.62
   6   6  -2   10.28    1.45
  -6  -6   2    9.79    1.57
  -6  -6   2    9.99    1.56
  -6  -6   2    8.13    1.24
  -6  -6   2    7.80    1.44
  -6  -6   2    8.41    1.84
  -6  -6   2    9.64    1.25
  -6  -6   2    8.40    1.30
  -6  -6   2    8.19    1.60
  -6  -6   2    9.60    1.90
  -6  -6   2    7.25    1.26
  -6  -6   2   12.37    2.33
  -6  -6   2   12.13    1.56
  -6  -6   2   11.30    1.40
  -6  -6   2    7.41    1.47
   5   6  -2   92.37    4.54
   5   6  -2   88.08    4.61
   5   6  -2   87.81    4.34
   5   6  -2   93.25    4.49
   5   6  -2   91.31    4.74
  -5  -6   2   89.66    4.00
  -5  -6   2   83.36    4.02
  -5  -6   2   80.37    5.54
  -5  -6   2   89.75    4.56
  -5  -6   2   84.90    4.13
  -5  -6   2   88.31    3.95
  -5  -6   2   86.50    4.34
  -5  -6   2   87.64    4.74
  -5  -6   2   83.26    4.65
  -5  -6   2   90.77    4.48
  -5  -6   2   94.46    4.40
  -5  -6   2   91.03    4.24
  -5  -6   2   90.78    5.10
  -5  -6   2   82.53    4.45
  -5  -6   2   94.21    4.82
   4   6  -2    3.76    0.96
   4   6  -2    3.13    1.89
   4   6  -2    5.54    0.98
   4   6  -2    3.65    1.13
   4   6  -2    4.70    1.07
  -4  -6   2    4.72    0.96
  -4  -6   2    4.13    0.98
  -4  -6   2    3.84    0.97
  -4  -6   2    2.60    1.29
  -4  -6   2    5.71    1.39
  -4  -6   2    3.42    0.90
  -4  -6   2    5.57    1.99
  -4  -6   2    4.86    0.90
  -4  -6   2    4.74    1.02
  -4  -6   2    4.28    0.95
  -4  -6   2    6.54    1.46
  -4  -6   2    4.21    1.04
  -4  -6   2    3.41    1.16
  -4  -6   2    2.86    0.98
   3   6  -2    5.66    0.91
   3   6  -2    6.38    1.12
   3   6  -2    4.79    1.26
   3   6  -2    8.55    1.13
   3   6  -2    7.17    2.28
  -3  -6   2    5.86    2.34
  -3  -6   2    8.39    1.07
  -3  -6   2    6.61    0.93
  -3  -6   2    9.33    1.03
  -3  -6   2    5.00    1.70
  -3  -6   2    7.17    1.28
  -3  -6   2    7.62    1.06
  -3  -6   2    7.49    1.46
  -3  -6   2    8.03    1.49
  -3  -6   2    7.22    1.12
  -3  -6   2    6.02    1.04
   2   6  -2  153.82    7.41
   2   6  -2  156.48    6.83
   2   6  -2  158.29    6.70
   2   6  -2  149.25    8.72
  -2  -6   2  155.92    6.87
  -2  -6   2  161.04    6.34
  -2  -6   2  156.43    8.99
  -2  -6   2  147.07    6.54
  -2  -6   2  153.96    6.35
  -2  -6   2  152.05    6.42
  -2  -6   2  159.07    6.92
  -2  -6   2  144.72    8.55
  -2  -6   2  162.13    6.32
   1   6  -2   21.14    1.78
   1   6  -2   19.14    1.81
   1   6  -2   19.58    2.55
   1   6  -2   18.43    3.13
  -1  -6   2   19.31    1.46
  -1  -6   2   19.99    1.64
  -1  -6   2   17.64    1.65
  -1  -6   2   21.49    1.61
  -1  -6   2   21.45    2.03
  -1  -6   2   17.19    1.63
  -1  -6   2   16.68    3.05
  -1  -6   2   17.96    1.64
   0   6  -2  158.77    9.28
   0   6  -2  171.14    7.78
   0   6  -2  172.04    8.31
   0   6  -2  181.19    9.86
   0  -6   2  177.36    7.04
   0  -6   2  172.35   10.10
   0  -6   2  179.34    7.83
   0  -6   2  183.99    7.86
   0  -6   2  176.15    7.18
   0  -6   2  179.72    7.36
   0  -6   2  176.19    7.09
   0  -6   2  175.72    7.07
  -1   6  -2   -0.92    2.22
  -1   6  -2    0.44    1.18
  -1   6  -2    1.53    2.05
   1  -6   2    1.27    1.16
   1  -6   2    0.85    1.06
   1  -6   2   -0.44    0.78
   1  -6   2    1.49    2.02
   1  -6   2   -0.42    0.90
   1  -6   2    0.75    0.78
  -2   6  -2   31.92    4.15
  -2   6  -2   29.58    4.04
  -2   6  -2   27.28    2.76
  -2   6  -2   29.93    2.70
   2  -6   2   26.18    2.75
   2  -6   2   25.07    3.80
   2  -6   2   30.23    2.61
   2  -6   2   28.05    2.77
   2  -6   2   28.39    2.31
  -3   6  -2    7.13    2.56
  -3   6  -2    0.26    1.53
  -3   6  -2    3.75    2.52
   3  -6   2    5.39    1.29
   3  -6   2    6.19    1.54
   3  -6   2    2.60    1.73
   3  -6   2    6.21    2.67
  -4   6  -2   35.79    4.29
  -4   6  -2   24.37    3.04
  -4   6  -2   21.81    3.76
   4  -6   2   25.79    3.94
   4  -6   2   21.45    2.29
   4  -6   2   26.95    2.80
  -5   6  -2    6.74    2.84
   5  -6   2    5.72    2.03
   5  -6   2    5.44    2.92
   9   5  -2    5.43    2.14
   9   5  -2    6.98    2.41
   9   5  -2    7.70    2.16
  -9  -5   2    9.99    2.23
  -9  -5   2    4.38    2.01
  -9  -5   2    6.86    2.17
  -9  -5   2    4.03    1.79
   8   5  -2   48.95    4.05
   8   5  -2   46.54    3.98
   8   5  -2   44.81    3.99
  -8  -5   2   48.74    3.95
  -8  -5   2   49.82    4.13
  -8  -5   2   36.32    3.55
  -8  -5   2   50.34    4.07
   7   5  -2    9.19    1.87
   7   5  -2   17.25    2.19
   7   5  -2   15.19    2.12
   7   5  -2   11.62    2.15
  -7  -5   2   12.62    2.02
  -7  -5   2   18.20    2.23
  -7  -5   2   19.68    1.87
  -7  -5   2   13.86    1.98
  -7  -5   2   14.36    2.11
   6   5  -2   76.41    4.23
   6   5  -2   79.95    4.45
   6   5  -2   73.62    4.34
   6   5  -2   66.92    4.16
  -6  -5   2   80.03    3.99
  -6  -5   2   72.50    3.86
  -6  -5   2   85.77    4.46
  -6  -5   2   85.51    4.51
  -6  -5   2   76.07    3.69
  -6  -5   2   79.52    4.33
  -6  -5   2   84.46    4.59
  -6  -5   2   78.29    4.34
  -6  -5   2   78.30    4.84
  -6  -5   2   72.24    4.20
   5   5  -2   48.14    3.06
   5   5  -2   51.83    2.93
   5   5  -2   41.04    2.91
   5   5  -2   53.49    2.48
   5   5  -2   57.08    3.33
  -5  -5   2   50.82    2.86
  -5  -5   2   50.45    2.53
  -5  -5   2   48.41    2.84
  -5  -5   2   50.66    3.29
  -5  -5   2   47.17    2.99
  -5  -5   2   49.71    3.73
  -5  -5   2   50.01    3.29
  -5  -5   2   50.97    3.17
  -5  -5   2   49.36    2.74
  -5  -5   2   52.37    3.18
  -5  -5   2   55.89    3.07
  -5  -5   2   51.10    2.79
  -5  -5   2   45.36    2.97
  -5  -5   2   52.04    2.60
  -5  -5   2   48.78    2.55
   4   5  -2    3.37    0.97
   4   5  -2    7.43    1.07
   4   5  -2    8.14    1.14
  -4  -5   2    5.81    1.07
  -4  -5   2    5.13    1.64
  -4  -5   2    6.16    1.06
  -4  -5   2    5.55    0.88
  -4  -5   2    6.23    1.22
  -4  -5   2    6.20    0.90
  -4  -5   2    6.43    0.89
  -4  -5   2    9.47    1.15
  -4  -5   2    5.16    1.29
  -4  -5   2    5.25    0.98
  -4  -5   2    4.43    0.83
  -4  -5   2    6.24    1.08
  -4  -5   2    6.82    1.41
  -4  -5   2    6.94    1.03
  -4  -5   2    4.50    1.20
   3   5  -2  565.12   21.58
   3   5  -2  568.67   21.91
   3   5  -2  552.36   22.58
   3   5  -2  565.53   21.97
  -3  -5   2  556.05   21.90
  -3  -5   2  545.34   21.95
  -3  -5   2  569.00   22.64
  -3  -5   2  538.57   19.90
  -3  -5   2  531.78   22.52
  -3  -5   2  520.19   20.65
  -3  -5   2  561.85   24.62
  -3  -5   2  542.84   21.25
  -3  -5   2  514.18   23.93
  -3  -5   2  546.16   20.76
  -3  -5   2  563.48   20.43
  -3  -5   2  561.22   21.56
  -3  -5   2  537.59   19.79
  -3  -5   2  546.87   20.80
   2   5  -2   20.22    1.28
   2   5  -2   19.09    1.60
   2   5  -2   19.41    1.50
   2   5  -2   18.64    1.82
   2   5  -2   22.66    2.87
  -2  -5   2   19.06    1.65
  -2  -5   2   22.31    2.51
  -2  -5   2   20.81    1.48
  -2  -5   2   18.85    1.26
  -2  -5   2   18.10    1.68
  -2  -5   2   21.34    1.36
  -2  -5   2   21.10    1.52
  -2  -5   2   21.23    2.75
  -2  -5   2   19.30    1.55
  -2  -5   2   19.60    1.51
   1   5  -2  302.26   14.57
   1   5  -2  307.71   13.22
   1   5  -2  309.96   12.47
   1   5  -2  300.98   12.38
  -1  -5   2  311.60   12.35
  -1  -5   2  311.81   11.71
  -1  -5   2  331.01   11.62
  -1  -5   2  300.48   11.40
  -1  -5   2  264.66   14.71
  -1  -5   2  302.99   14.67
  -1  -5   2  308.89   12.79
  -1  -5   2  309.48   11.48
  -1  -5   2  308.77   11.78
   0   5  -2   66.98    4.52
   0   5  -2   64.91    3.62
   0   5  -2   59.65    4.68
   0   5  -2   58.68    3.32
   0  -5   2   61.97    3.45
   0  -5   2   62.54    3.23
   0  -5   2   65.68    2.99
   0  -5   2   59.77    4.94
   0  -5   2   63.05    3.14
   0  -5   2   62.95    2.99
   0  -5   2   65.83    2.87
   0  -5   2   59.01    2.96
  -1   5  -2   78.06    4.01
  -1   5  -2   87.61    4.80
  -1   5  -2   77.11    5.31
  -1   5  -2   69.53    5.62
   1  -5   2   69.81    3.58
   1  -5   2   73.01    4.00
   1  -5   2   64.15    5.15
   1  -5   2   72.01    3.88
   1  -5   2   69.71    3.44
   1  -5   2   69.91    3.31
  -2   5  -2  130.34    6.47
  -2   5  -2  134.66    7.98
  -2   5  -2  133.72    6.81
  -2   5  -2  142.97    7.93
   2  -5   2  136.42    6.21
   2  -5   2  139.65    8.21
   2  -5   2  127.35    5.62
   2  -5   2  126.89    5.96
   2  -5   2  134.88    5.66
   2  -5   2  128.63    6.74
  -3   5  -2   30.01    3.90
  -3   5  -2   27.56    3.59
  -3   5  -2   22.50    2.68
  -3   5  -2   25.41    2.39
  -3   5  -2   24.89    2.74
   3  -5   2   24.20    2.42
   3  -5   2   21.23    2.79
   3  -5   2   25.39    3.56
   3  -5   2   28.29    2.21
   3  -5   2   22.13    2.03
   3  -5   2   28.16    2.50
  -4   5  -2   51.66    4.34
  -4   5  -2   59.97    5.53
  -4   5  -2   61.59    4.27
  -4   5  -2   66.17    5.55
   4  -5   2   55.53    3.70
   4  -5   2   63.87    5.18
   4  -5   2   61.51    3.40
   4  -5   2   64.61    4.61
   4  -5   2   60.35    3.95
  -5   5  -2    1.29    2.14
  -5   5  -2    8.66    2.87
  -5   5  -2    5.91    2.05
   5  -5   2    5.22    2.52
   5  -5   2    4.64    1.85
   5  -5   2    6.78    2.40
  -6   5  -2   86.68    6.35
   6  -5   2   72.76    4.99
   6  -5   2   76.52    5.68
   9   4  -2    3.44    1.84
   9   4  -2    4.13    2.22
  -9  -4   2    1.63    1.83
  -9  -4   2    5.39    1.96
  -9  -4   2    2.45    1.74
  -9  -4   2    0.17    1.66
   8   4  -2   14.08    2.44
   8   4  -2   13.01    2.19
   8   4  -2   12.70    2.47
   8   4  -2   14.59    2.54
  -8  -4   2   14.45    2.38
  -8  -4   2   13.65    2.37
  -8  -4   2   12.47    2.26
  -8  -4   2   11.98    1.84
  -8  -4   2   12.40    2.15
   7   4  -2    5.61    1.62
   7   4  -2    5.03    1.66
   7   4  -2    6.46    1.87
   7   4  -2    7.45    1.77
  -7  -4   2    5.38    1.54
  -7  -4   2    8.41    1.41
  -7  -4   2    3.48    1.42
  -7  -4   2    5.83    1.62
  -7  -4   2    6.03    1.62
   6   4  -2   55.38    3.52
   6   4  -2   50.41    3.42
   6   4  -2   48.49    3.35
   6   4  -2   52.85    3.40
  -6  -4   2   45.54    3.21
  -6  -4   2   50.03    3.37
  -6  -4   2   49.88    2.82
  -6  -4   2   58.49    3.57
  -6  -4   2   46.72    3.24
  -6  -4   2   54.78    3.77
  -6  -4   2   55.58    3.01
  -6  -4   2   50.67    3.35
   5   4  -2   25.11    2.30
   5   4  -2   28.12    2.31
   5   4  -2   30.37    2.29
   5   4  -2   29.29    1.65
   5   4  -2   25.90    2.21
  -5  -4   2   22.08    2.13
  -5  -4   2   27.38    2.31
  -5  -4   2   25.11    1.82
  -5  -4   2   23.70    1.57
  -5  -4   2   24.87    1.71
  -5  -4   2   24.28    1.97
  -5  -4   2   27.57    2.29
  -5  -4   2   23.96    2.23
  -5  -4   2   24.23    1.90
  -5  -4   2   26.13    2.23
  -5  -4   2   25.96    1.63
  -5  -4   2   22.84    2.44
  -5  -4   2   22.77    2.10
   4   4  -2  313.90   13.24
   4   4  -2  311.93   11.89
   4   4  -2  307.93   12.17
   4   4  -2  319.13   12.92
  -4  -4   2  312.69   12.20
  -4  -4   2  302.55   11.55
  -4  -4   2  324.82   11.93
  -4  -4   2  316.93   11.46
  -4  -4   2  298.88   12.13
  -4  -4   2  313.19   12.21
  -4  -4   2  297.38   12.17
  -4  -4   2  305.31   13.16
  -4  -4   2  311.74   11.37
  -4  -4   2  341.33   12.50
  -4  -4   2  307.57   13.92
  -4  -4   2  303.30   13.19
  -4  -4   2  298.67   12.85
  -4  -4   2  313.16   14.21
  -4  -4   2  307.23   12.88
   3   4  -2   10.15    1.15
   3   4  -2   11.12    1.09
   3   4  -2   10.30    1.10
  -3  -4   2   10.59    1.47
  -3  -4   2   13.08    1.40
  -3  -4   2   11.49    1.16
  -3  -4   2   12.31    1.12
  -3  -4   2   11.56    1.24
  -3  -4   2   10.52    0.99
  -3  -4   2   10.21    1.02
  -3  -4   2   10.45    0.95
  -3  -4   2   11.77    1.25
  -3  -4   2    9.81    1.10
  -3  -4   2   12.27    1.07
  -3  -4   2    8.12    1.08
  -3  -4   2   10.06    1.14
  -3  -4   2   11.15    1.75
  -3  -4   2   10.50    0.94
   2   4  -2   93.89    3.96
   2   4  -2   89.71    4.32
   2   4  -2   93.08    4.02
   2   4  -2   92.86    4.07
  -2  -4   2   85.41    3.69
  -2  -4   2   93.25    4.11
  -2  -4   2   83.15    5.09
  -2  -4   2   92.26    3.92
  -2  -4   2   90.84    3.77
  -2  -4   2   91.93    4.08
  -2  -4   2   92.20    3.96
  -2  -4   2   92.64    4.18
  -2  -4   2   90.89    3.78
  -2  -4   2   90.93    3.96
  -2  -4   2   80.10    4.30
  -2  -4   2   93.40    3.85
  -2  -4   2   91.04    4.98
   1   4  -2  109.95    5.18
   1   4  -2  111.66    4.75
   1   4  -2  105.02    4.45
   1   4  -2  113.45    4.79
   1   4  -2  109.09    6.03
  -1  -4   2  112.08    4.48
  -1  -4   2  109.89    4.43
  -1  -4   2  110.55    4.39
  -1  -4   2  109.70    4.44
  -1  -4   2  112.24    4.84
  -1  -4   2  106.26    4.49
  -1  -4   2   96.76    6.05
  -1  -4   2  113.33    4.91
  -1  -4   2  110.85    6.07
   0   4  -2   34.54    2.05
   0   4  -2   35.58    2.17
   0   4  -2   32.78    2.66
   0   4  -2   33.61    3.31
   0  -4   2   34.13    1.67
   0  -4   2   34.54    2.08
   0  -4   2   33.78    3.40
   0  -4   2   38.10    1.87
   0  -4   2   32.85    1.84
   0  -4   2   30.22    1.89
   0  -4   2   27.10    3.04
   0  -4   2   34.12    1.85
   0  -4   2   35.53    2.02
  -1   4  -2  209.03    9.28
  -1   4  -2  189.99    8.46
  -1   4  -2  193.90    9.99
  -1   4  -2  210.43    9.88
   1  -4   2  203.24    7.97
   1  -4   2  200.18   10.46
   1  -4   2  198.52    7.68
   1  -4   2  195.39    7.63
   1  -4   2  204.71    8.88
   1  -4   2  198.57    8.30
  -2   4  -2   -0.40    1.94
  -2   4  -2   -0.46    1.54
  -2   4  -2    1.03    1.15
  -2   4  -2   -1.61    1.36
   2  -4   2   -0.47    1.31
   2  -4   2    0.97    0.70
   2  -4   2    0.26    0.71
   2  -4   2    0.78    0.85
   2  -4   2    0.07    1.79
   2  -4   2    1.46    0.94
  -3   4  -2   64.20    5.07
  -3   4  -2   54.76    3.67
  -3   4  -2   69.61    5.39
  -3   4  -2   47.76    4.06
  -3   4  -2   58.78    3.24
   3  -4   2   50.44    3.16
   3  -4   2   57.00    3.30
   3  -4   2   59.41    2.99
   3  -4   2   58.39    4.17
   3  -4   2   59.37    3.17
   3  -4   2   55.73    4.96
  -4   4  -2    2.25    1.44
  -4   4  -2    1.17    1.62
  -4   4  -2    1.43    2.18
  -4   4  -2    0.71    1.99
   4  -4   2    2.34    2.20
   4  -4   2    1.31    1.13
   4  -4   2    1.61    1.19
   4  -4   2    0.78    0.92
   4  -4   2    0.65    1.66
  -5   4  -2   63.51    4.99
  -5   4  -2   47.88    4.97
  -5   4  -2   46.53    4.28
  -5   4  -2   56.23    4.37
   5  -4   2   53.65    4.67
   5  -4   2   53.70    3.09
   5  -4   2   49.92    3.49
   5  -4   2   46.26    3.72
   5  -4   2   55.49    5.25
  -6   4  -2    0.44    1.86
  -6   4  -2   -0.69    2.28
  -6   4  -2   -1.57    1.44
   6  -4   2    1.43    1.72
   6  -4   2    1.32    2.47
   6  -4   2    1.77    1.68
   6  -4   2    0.25    2.03
  -7   4  -2    1.52    1.80
  -7   4  -2   10.30    2.99
   7  -4   2    5.21    2.08
   9   3  -2   37.82    4.07
   9   3  -2   39.24    4.16
  -9  -3   2   37.12    4.17
  -9  -3   2   37.66    4.12
  -9  -3   2   40.62    3.83
  -9  -3   2   39.62    4.15
   8   3  -2    5.55    2.08
   8   3  -2    5.02    2.09
   8   3  -2    2.21    1.86
   8   3  -2    5.42    1.85
  -8  -3   2    6.10    1.62
  -8  -3   2    5.62    1.99
  -8  -3   2    3.17    1.59
  -8  -3   2    7.11    1.90
  -8  -3   2    5.90    1.84
   7   3  -2   75.03    4.43
   7   3  -2   58.30    4.19
   7   3  -2   65.22    4.17
   7   3  -2   61.03    4.22
  -7  -3   2   67.69    3.98
  -7  -3   2   68.68    3.74
  -7  -3   2   61.78    4.09
  -7  -3   2   63.51    4.29
  -7  -3   2   72.76    4.51
   6   3  -2    4.52    1.39
   6   3  -2    1.31    1.33
   6   3  -2    1.42    1.26
  -6  -3   2    3.18    1.08
  -6  -3   2    2.05    1.06
  -6  -3   2    4.29    1.34
  -6  -3   2    2.85    1.32
  -6  -3   2    3.41    1.37
  -6  -3   2    2.17    1.11
  -6  -3   2    2.80    1.15
   5   3  -2  199.99    8.21
   5   3  -2  197.61    8.74
   5   3  -2  192.89    8.29
   5   3  -2  201.03    7.34
   5   3  -2  188.55    8.92
  -5  -3   2  194.44    7.77
  -5  -3   2  199.75    8.18
  -5  -3   2  201.47    8.92
  -5  -3   2  189.04    8.68
  -5  -3   2  195.92    8.93
  -5  -3   2  196.33    9.22
  -5  -3   2  199.87    8.27
  -5  -3   2  194.73    8.22
  -5  -3   2  198.11    8.76
   4   3  -2   79.63    3.85
   4   3  -2   78.32    3.67
   4   3  -2   79.92    4.02
   4   3  -2   73.60    3.88
   4   3  -2   79.96    3.15
  -4  -3   2   72.87    3.86
  -4  -3   2   70.49    4.19
  -4  -3   2   78.15    3.84
  -4  -3   2   79.57    3.88
  -4  -3   2   82.01    3.58
  -4  -3   2   74.03    3.91
  -4  -3   2   80.91    4.04
  -4  -3   2   75.51    3.39
  -4  -3   2   76.92    3.13
  -4  -3   2   73.68    3.36
  -4  -3   2   75.45    3.59
  -4  -3   2   83.74    3.76
   3   3  -2   84.18    3.49
   3   3  -2   78.73    3.67
   3   3  -2   79.57    3.77
  -3  -3   2   78.47    3.51
  -3  -3   2   79.30    3.78
  -3  -3   2   79.25    4.25
  -3  -3   2   74.96    3.19
  -3  -3   2   79.80    3.53
  -3  -3   2   78.80    3.88
  -3  -3   2   83.19    3.59
  -3  -3   2   81.71    3.28
  -3  -3   2   87.44    3.51
  -3  -3   2   81.40    3.67
  -3  -3   2   77.17    4.24
  -3  -3   2   87.34    3.84
  -3  -3   2   81.33    3.30
  -3  -3   2   77.80    3.56
  -3  -3   2   79.70    3.86
   2   3  -2  875.46   32.04
   2   3  -2  855.17   32.82
   2   3  -2  865.32   32.84
  -2  -3   2  831.83   31.05
  -2  -3   2  864.89   30.33
  -2  -3   2  833.50   31.46
  -2  -3   2  835.78   36.26
  -2  -3   2  865.30   33.58
  -2  -3   2  834.70   32.82
  -2  -3   2  831.42   29.43
  -2  -3   2  783.08   30.65
  -2  -3   2  809.97   32.82
  -2  -3   2  896.49   34.99
  -2  -3   2  850.46   33.68
  -2  -3   2  801.70   30.45
  -2  -3   2  770.27   32.00
  -2  -3   2  826.55   29.77
  -2  -3   2  798.70   29.55
   1   3  -2   28.12    1.58
   1   3  -2   29.91    1.46
   1   3  -2   31.61    1.68
   1   3  -2   29.72    1.89
  -1  -3   2   29.44    1.52
  -1  -3   2   28.84    2.48
  -1  -3   2   29.70    1.55
  -1  -3   2   28.02    1.47
  -1  -3   2   28.49    1.58
  -1  -3   2   27.49    1.70
  -1  -3   2   31.81    1.48
  -1  -3   2   30.28    2.32
  -1  -3   2   26.80    1.79
  -1  -3   2   29.22    1.71
  -1  -3   2   28.54    1.52
   0   3  -2  380.00   15.12
   0   3  -2  380.39   16.71
   0   3  -2  380.96   15.70
   0   3  -2  382.42   14.87
   0  -3   2  382.90   15.53
   0  -3   2  387.24   14.64
   0  -3   2  384.63   14.01
   0  -3   2  376.25   13.78
   0  -3   2  360.40   16.64
   0  -3   2  362.08   14.29
   0  -3   2  380.78   13.66
  -1   3  -2   28.41    2.35
  -1   3  -2   25.69    2.76
  -1   3  -2   21.61    1.18
  -1   3  -2   26.36    1.75
  -1   3  -2   25.38    2.55
   1  -3   2   24.52    1.49
   1  -3   2   23.56    1.71
   1  -3   2   21.50    2.68
   1  -3   2   28.02    2.04
   1  -3   2   31.43    1.38
  -2   3  -2  144.85    6.04
  -2   3  -2  149.05    7.89
  -2   3  -2  158.95    7.70
  -2   3  -2  155.63    6.60
  -2   3  -2  142.63    5.69
  -2   3  -2  144.34    7.22
   2  -3   2  141.09    6.15
   2  -3   2  153.73    8.03
   2  -3   2  146.58    6.12
   2  -3   2  143.93    7.20
   2  -3   2  148.44    5.83
   2  -3   2  144.57    5.83
  -3   3  -2  133.04    6.87
  -3   3  -2  112.23    5.71
  -3   3  -2  130.62    7.13
  -3   3  -2  102.44    6.19
  -3   3  -2  118.11    5.14
  -3   3  -2  116.54    4.86
   3  -3   2  115.20    5.27
   3  -3   2  114.48    6.94
   3  -3   2  124.32    4.96
   3  -3   2  117.85    6.45
   3  -3   2  115.88    5.18
   3  -3   2  119.83    5.11
  -4   3  -2   42.74    3.95
  -4   3  -2   57.82    2.97
  -4   3  -2   63.09    3.81
  -4   3  -2   64.08    4.50
  -4   3  -2   57.78    3.09
  -4   3  -2   60.43    5.06
   4  -3   2   56.62    3.08
   4  -3   2   52.04    2.95
   4  -3   2   58.62    3.25
   4  -3   2   60.45    3.58
   4  -3   2   59.63    4.44
   4  -3   2   55.45    4.54
  -5   3  -2   55.61    4.19
  -5   3  -2   47.49    4.52
  -5   3  -2   39.13    3.90
  -5   3  -2   48.22    2.91
  -5   3  -2   53.58    3.62
   5  -3   2   48.96    4.74
   5  -3   2   42.90    2.74
   5  -3   2   48.22    3.24
   5  -3   2   41.78    4.30
   5  -3   2   45.57    3.48
  -6   3  -2   11.97    2.32
  -6   3  -2   10.35    2.66
  -6   3  -2    6.35    2.23
   6  -3   2    9.78    1.97
   6  -3   2   11.14    2.68
   6  -3   2    6.35    1.81
   6  -3   2   10.91    2.90
  -7   3  -2   90.10    5.75
  -7   3  -2   99.35    6.81
  -7   3  -2   94.32    5.34
  -7   3  -2   82.87    6.17
   7  -3   2   85.96    5.36
   7  -3   2   94.08    5.53
   7  -3   2   91.72    6.40
   9   2  -2    0.74    1.99
   9   2  -2    4.16    2.24
  -9  -2   2    0.87    1.61
  -9  -2   2   -4.32    1.66
  -9  -2   2    2.49    2.15
  -9  -2   2    1.96    2.12
   8   2  -2    4.41    2.12
   8   2  -2    6.80    2.11
   8   2  -2    2.98    2.06
   8   2  -2    5.26    2.07
  -8  -2   2    6.22    1.65
  -8  -2   2    6.36    2.17
  -8  -2   2    6.78    2.07
  -8  -2   2    5.77    2.03
  -8  -2   2    5.99    1.81
   7   2  -2    6.01    1.73
   7   2  -2    6.83    1.93
   7   2  -2    7.29    1.90
   7   2  -2    2.49    1.67
  -7  -2   2    9.06    1.87
  -7  -2   2    3.57    1.43
  -7  -2   2    4.15    1.59
  -7  -2   2    4.46    1.76
  -7  -2   2    3.35    1.31
   6   2  -2   23.18    2.45
   6   2  -2   24.97    2.52
   6   2  -2   22.84    2.49
   6   2  -2   29.87    2.75
  -6  -2   2   24.11    2.49
  -6  -2   2   23.70    2.52
  -6  -2   2   24.82    2.47
  -6  -2   2   24.09    2.18
  -6  -2   2   26.39    2.29
  -6  -2   2   23.42    2.58
  -6  -2   2   24.97    2.37
   5   2  -2   49.55    3.14
   5   2  -2   57.29    3.18
   5   2  -2   47.27    3.04
   5   2  -2   49.38    3.15
  -5  -2   2   46.74    3.07
  -5  -2   2   49.51    2.86
  -5  -2   2   48.31    2.85
  -5  -2   2   49.60    3.31
  -5  -2   2   50.28    3.08
  -5  -2   2   53.91    3.18
  -5  -2   2   48.99    3.27
  -5  -2   2   46.68    2.76
   4   2  -2   11.82    1.47
   4   2  -2   18.54    1.66
   4   2  -2   16.76    1.08
   4   2  -2   14.40    1.57
   4   2  -2   15.22    1.58
  -4  -2   2   17.00    1.39
  -4  -2   2   12.42    1.43
  -4  -2   2   16.17    1.08
  -4  -2   2   16.65    1.47
  -4  -2   2   17.25    1.71
  -4  -2   2   17.38    1.41
  -4  -2   2   15.17    1.77
  -4  -2   2   16.54    1.69
  -4  -2   2   15.85    1.47
  -4  -2   2   13.80    1.50
   3   2  -2  418.34   15.81
   3   2  -2  426.87   14.92
   3   2  -2  435.64   17.47
   3   2  -2  423.56   17.02
   3   2  -2  417.97   15.71
  -3  -2   2  420.11   15.88
  -3  -2   2  410.79   14.93
  -3  -2   2  430.44   16.41
  -3  -2   2  430.01   16.01
  -3  -2   2  409.23   17.34
  -3  -2   2  422.04   17.01
  -3  -2   2  407.45   17.99
  -3  -2   2  425.49   17.45
  -3  -2   2  427.00   17.02
  -3  -2   2  415.28   15.32
   2   2  -2   12.10    0.98
   2   2  -2   11.47    0.85
   2   2  -2   11.73    1.01
  -2  -2   2   11.47    0.95
  -2  -2   2    8.53    0.82
  -2  -2   2   10.30    0.99
  -2  -2   2    9.20    0.87
  -2  -2   2    9.57    1.19
  -2  -2   2    9.37    0.99
  -2  -2   2   11.66    0.79
  -2  -2   2   10.16    0.69
  -2  -2   2    9.90    1.02
  -2  -2   2   11.47    0.97
  -2  -2   2   10.41    0.77
  -2  -2   2   11.28    1.03
  -2  -2   2   10.43    1.15
  -2  -2   2    9.37    0.80
   1   2  -2  243.22    9.08
   1   2  -2  235.40    9.34
   1   2  -2  236.57    8.62
   1   2  -2  233.88    9.40
  -1  -2   2  227.92    8.69
  -1  -2   2  222.93    9.06
  -1  -2   2  233.45    8.62
  -1  -2   2  231.77    9.66
  -1  -2   2  230.46    8.57
  -1  -2   2  236.12    9.41
  -1  -2   2  234.37    8.90
  -1  -2   2  231.56   10.51
  -1  -2   2  229.71    9.66
  -1  -2   2  232.91    8.39
   0   2  -2   61.01    2.52
   0   2  -2   63.20    2.65
   0   2  -2   57.71    2.91
   0   2  -2   55.98    2.71
   0  -2   2   60.06    2.46
   0  -2   2   57.72    3.25
   0  -2   2   57.82    2.43
   0  -2   2   57.02    2.67
   0  -2   2   58.45    3.27
   0  -2   2   59.84    2.80
   0  -2   2   60.43    2.56
  -1   2  -2    4.98    0.84
  -1   2  -2    4.42    1.11
  -1   2  -2    5.58    0.77
  -1   2  -2    3.60    1.32
  -1   2  -2    4.93    1.03
   1  -2   2    5.50    0.52
   1  -2   2    4.80    1.29
   1  -2   2    5.20    0.96
   1  -2   2    3.60    1.22
   1  -2   2    5.22    0.71
   1  -2   2    4.48    0.67
   1  -2   2    5.85    0.74
  -2   2  -2  207.30    9.26
  -2   2  -2  206.74    7.66
  -2   2  -2  199.71    8.22
  -2   2  -2  210.42    9.55
  -2   2  -2  194.15    9.41
   2  -2   2  208.65    7.58
   2  -2   2  201.26    7.64
   2  -2   2  198.88    9.86
   2  -2   2  192.99    7.88
   2  -2   2  180.29    9.10
   2  -2   2  205.23    7.96
  -3   2  -2    2.19    0.67
  -3   2  -2    1.32    1.04
  -3   2  -2    0.78    1.68
  -3   2  -2    2.57    0.72
  -3   2  -2    1.83    1.48
  -3   2  -2   -1.43    1.39
   3  -2   2    0.48    0.88
   3  -2   2    0.46    0.73
   3  -2   2    1.55    0.75
   3  -2   2    0.17    1.55
   3  -2   2    2.31    0.66
   3  -2   2    0.17    1.43
  -4   2  -2   44.35    4.02
  -4   2  -2   60.79    4.43
  -4   2  -2   54.76    2.96
  -4   2  -2   57.59    3.17
  -4   2  -2   61.77    3.96
  -4   2  -2   62.77    3.70
   4  -2   2   59.53    3.17
   4  -2   2   62.12    4.32
   4  -2   2   60.93    2.97
   4  -2   2   68.09    4.48
   4  -2   2   54.29    2.77
   4  -2   2   58.96    3.42
  -5   2  -2    1.97    1.33
  -5   2  -2    1.85    1.63
  -5   2  -2    1.36    1.41
  -5   2  -2    1.29    0.96
  -5   2  -2    2.06    1.76
  -5   2  -2    0.58    0.96
   5  -2   2   -0.57    1.81
   5  -2   2    0.32    0.92
   5  -2   2    0.64    1.23
   5  -2   2    0.95    2.00
   5  -2   2    1.92    1.19
  -6   2  -2   90.88    6.18
  -6   2  -2   94.98    6.50
  -6   2  -2  103.48    5.74
  -6   2  -2  115.37    5.36
  -6   2  -2  101.73    5.35
  -6   2  -2  104.08    5.12
   6  -2   2  108.06    4.76
   6  -2   2  100.51    5.30
   6  -2   2  113.07    5.68
   6  -2   2  101.04    6.63
   6  -2   2  101.65    5.37
   6  -2   2   95.15    6.63
  -7   2  -2    8.48    2.45
  -7   2  -2   11.51    2.83
  -7   2  -2   11.27    2.12
  -7   2  -2    6.59    1.78
  -7   2  -2    8.55    2.15
   7  -2   2    8.47    2.22
   7  -2   2    7.75    2.71
   7  -2   2   11.14    2.17
  -8   2  -2   18.86    3.49
  -8   2  -2   21.59    3.55
  -8   2  -2   24.96    2.95
   8  -2   2   21.82    3.05
   8  -2   2   17.63    2.72
   8   1  -2   29.86    3.46
   8   1  -2   39.16    4.22
   8   1  -2   37.34    3.58
   8   1  -2   34.94    3.67
  -8  -1   2   38.65    3.85
  -8  -1   2   44.05    4.44
  -8  -1   2   41.79    4.05
  -8  -1   2   44.22    3.47
  -8  -1   2   35.75    3.36
   7   1  -2   10.87    2.01
   7   1  -2   13.94    2.28
   7   1  -2    8.10    2.04
   7   1  -2   14.06    2.46
  -7  -1   2   12.85    1.92
  -7  -1   2    9.82    2.05
  -7  -1   2   12.76    1.91
  -7  -1   2   11.00    2.43
  -7  -1   2   12.53    2.10
   6   1  -2   99.00    5.21
   6   1  -2   93.79    5.08
   6   1  -2   85.00    5.39
   6   1  -2   89.95    5.01
  -6  -1   2   89.94    5.18
  -6  -1   2   96.93    4.79
  -6  -1   2  102.95    5.09
  -6  -1   2   96.73    5.51
  -6  -1   2   94.01    5.13
  -6  -1   2   97.68    5.51
  -6  -1   2   97.38    4.86
   5   1  -2    4.04    1.34
   5   1  -2    1.50    0.99
   5   1  -2    3.84    1.33
   5   1  -2    2.47    1.26
  -5  -1   2    2.17    1.11
  -5  -1   2    1.72    1.16
  -5  -1   2   -0.08    0.96
  -5  -1   2    3.42    1.17
  -5  -1   2    1.31    1.28
  -5  -1   2    3.15    1.14
  -5  -1   2    3.44    1.07
   4   1  -2  374.61   15.77
   4   1  -2  356.60   14.19
   4   1  -2  371.72   14.30
   4   1  -2  362.45   15.28
  -4  -1   2  367.72   14.87
  -4  -1   2  375.94   15.76
  -4  -1   2  378.21   16.21
  -4  -1   2  368.95   15.31
  -4  -1   2  374.11   13.98
  -4  -1   2  357.87   15.66
  -4  -1   2  377.61   15.31
  -4  -1   2  378.94   14.30
  -4  -1   2  375.26   13.96
   3   1  -2   10.86    0.69
   3   1  -2    9.73    1.16
   3   1  -2    9.86    1.15
   3   1  -2   10.68    1.21
   3   1  -2   11.07    1.20
  -3  -1   2   10.54    1.06
  -3  -1   2   10.90    1.19
  -3  -1   2   11.78    0.84
  -3  -1   2    9.81    1.38
  -3  -1   2   10.62    1.07
  -3  -1   2   10.22    1.14
  -3  -1   2   10.95    1.12
  -3  -1   2    9.60    1.23
  -3  -1   2   10.50    1.07
  -3  -1   2   10.61    1.25
   2   1  -2  143.77    5.51
   2   1  -2  142.34    5.61
   2   1  -2  137.65    6.00
   2   1  -2  138.39    5.04
  -2  -1   2  143.43    5.60
  -2  -1   2  139.37    5.36
  -2  -1   2  147.46    6.04
  -2  -1   2  121.15    5.63
  -2  -1   2  143.59    6.18
  -2  -1   2  145.17    6.02
  -2  -1   2  147.25    5.62
  -2  -1   2  145.94    5.66
  -2  -1   2  147.20    6.19
  -2  -1   2  140.52    6.47
  -2  -1   2  142.42    5.05
   1   1  -2  502.31   20.05
   1   1  -2  504.48   18.41
   1   1  -2  485.76   18.50
   1   1  -2  540.18   19.40
  -1  -1   2  510.73   20.05
  -1  -1   2  509.86   18.70
  -1  -1   2  507.30   20.48
  -1  -1   2  496.26   18.06
  -1  -1   2  466.52   19.18
  -1  -1   2  504.12   21.23
  -1  -1   2  512.00   18.96
  -1  -1   2  531.77   19.39
  -1  -1   2  528.98   20.58
  -1  -1   2  515.58   17.84
   0   1  -2    1.44    0.46
   0   1  -2    0.70    0.46
   0   1  -2    2.01    0.41
   0   1  -2    1.02    0.38
   0  -1   2    0.76    0.43
   0  -1   2    0.93    0.31
   0  -1   2    1.18    0.37
   0  -1   2    0.86    0.47
   0  -1   2    1.00    0.26
   0  -1   2    0.85    0.57
   0  -1   2    1.39    0.57
   0  -1   2   -0.05    0.51
   0  -1   2    0.17    0.36
  -1   1  -2  782.92   29.55
  -1   1  -2  766.26   30.15
  -1   1  -2  743.33   28.85
  -1   1  -2  788.54   29.49
  -1   1  -2  746.26   27.07
   1  -1   2  722.48   26.50
   1  -1   2  717.00   32.41
   1  -1   2  795.66   30.34
   1  -1   2  733.79   31.09
   1  -1   2  745.76   28.15
   1  -1   2  729.57   27.25
   1  -1   2  734.30   27.07
  -2   1  -2   60.85    3.72
  -2   1  -2   67.01    4.02
  -2   1  -2   69.79    2.99
  -2   1  -2   71.78    4.21
  -2   1  -2   68.08    3.32
  -2   1  -2   63.47    3.28
   2  -1   2   70.78    3.89
   2  -1   2   68.19    3.13
   2  -1   2   69.41    2.90
   2  -1   2   70.79    2.96
   2  -1   2   75.35    3.00
   2  -1   2   60.57    3.89
  -3   1  -2  328.22   14.68
  -3   1  -2  350.81   13.77
  -3   1  -2  345.89   13.83
  -3   1  -2  327.24   12.83
  -3   1  -2  323.28   14.62
  -3   1  -2  292.75   14.39
   3  -1   2  347.40   12.47
   3  -1   2  332.52   15.49
   3  -1   2  347.43   13.04
   3  -1   2  352.85   12.90
   3  -1   2  347.43   12.78
   3  -1   2  355.72   15.09
  -4   1  -2   30.58    1.98
  -4   1  -2   33.72    2.48
  -4   1  -2   28.13    2.91
  -4   1  -2   25.70    2.88
  -4   1  -2   28.45    2.23
  -4   1  -2   26.62    2.39
   4  -1   2   30.80    2.50
   4  -1   2   29.73    1.59
   4  -1   2   27.30    3.11
   4  -1   2   32.77    2.20
   4  -1   2   35.09    2.12
  -5   1  -2  127.77    7.13
  -5   1  -2  128.99    7.26
  -5   1  -2  136.64    6.66
  -5   1  -2  134.84    5.98
  -5   1  -2  135.44    6.58
  -5   1  -2  132.30    6.01
  -5   1  -2  139.92    6.44
   5  -1   2  133.94    6.37
   5  -1   2  142.42    6.11
   5  -1   2  144.93    5.75
   5  -1   2  131.64    7.63
  -6   1  -2    5.82    1.38
  -6   1  -2    4.81    2.14
  -6   1  -2    4.48    1.61
  -6   1  -2    3.57    1.79
  -6   1  -2    6.04    1.55
  -6   1  -2    6.24    1.49
   6  -1   2    9.93    2.07
   6  -1   2    0.89    2.30
   6  -1   2    6.60    1.28
   6  -1   2    4.83    1.44
  -7   1  -2   23.85    3.35
  -7   1  -2   20.55    3.18
  -7   1  -2   26.18    2.68
  -7   1  -2   27.65    3.09
  -7   1  -2   28.49    2.80
  -7   1  -2   22.67    2.62
   7  -1   2   29.25    2.88
   7  -1   2   22.63    3.78
   7  -1   2   26.56    3.03
  -8   1  -2   75.57    4.85
  -8   1  -2   75.71    4.60
  -8   1  -2   69.76    4.88
  -8   1  -2   69.45    5.82
  -8   1  -2   74.83    4.67
  -8   1  -2   58.79    5.71
   8  -1   2   65.38    5.01
   8  -1   2   70.27    4.66
   8  -1   2   75.45    4.81
   8  -1   2   71.07    6.53
   8   0  -2    1.54    1.75
   8   0  -2    0.28    1.74
   8   0  -2   -0.02    1.64
  -8   0   2    0.83    1.44
  -8   0   2   -0.08    1.30
  -8   0   2    0.77    1.66
  -8   0   2    3.49    2.30
   7   0  -2   24.87    2.87
   7   0  -2   27.09    3.40
   7   0  -2   27.79    2.88
   7   0  -2   24.78    2.92
  -7   0   2   25.48    3.47
  -7   0   2   21.45    2.50
  -7   0   2   25.12    2.62
  -7   0   2   21.87    2.82
  -7   0   2   26.22    3.07
   6   0  -2    0.48    1.36
   6   0  -2   -0.58    1.28
   6   0  -2    0.28    1.51
   6   0  -2    1.28    1.27
  -6   0   2    0.40    1.12
  -6   0   2   -0.81    1.17
  -6   0   2    0.17    1.36
  -6   0   2   -0.07    1.18
  -6   0   2    0.04    1.22
  -6   0   2    0.63    1.59
  -6   0   2   -1.31    0.92
   5   0  -2  107.32    5.26
   5   0  -2  115.07    5.84
   5   0  -2  103.83    5.42
   5   0  -2  109.51    5.20
  -5   0   2  104.10    5.41
  -5   0   2  114.05    6.02
  -5   0   2  110.52    5.46
  -5   0   2   98.95    5.32
  -5   0   2  109.14    5.00
  -5   0   2  100.36    5.00
  -5   0   2  106.44    5.88
   4   0  -2   17.64    1.75
   4   0  -2   19.95    1.86
   4   0  -2   18.43    1.79
   4   0  -2   19.27    1.94
  -4   0   2   13.02    1.61
  -4   0   2   16.04    1.99
  -4   0   2   15.99    1.67
  -4   0   2   14.93    1.48
  -4   0   2   19.62    1.77
  -4   0   2   18.25    2.09
  -4   0   2   17.24    1.83
   3   0  -2    4.76    0.89
   3   0  -2    5.49    1.00
   3   0  -2    4.94    0.93
   3   0  -2    5.36    0.98
  -3   0   2    3.03    0.72
  -3   0   2    2.76    0.55
  -3   0   2    2.66    0.82
  -3   0   2    2.32    0.89
  -3   0   2    3.31    1.04
  -3   0   2    2.58    1.09
  -3   0   2    3.26    0.85
  -3   0   2    1.96    0.82
   2   0  -2  202.07    8.42
   2   0  -2  207.16    8.21
   2   0  -2  196.21    7.53
   2   0  -2  192.38    7.61
  -2   0   2  193.90    8.80
  -2   0   2  204.67    8.42
  -2   0   2  198.84    8.16
  -2   0   2  196.38    8.19
  -2   0   2  191.40    7.71
  -2   0   2  188.24    8.39
  -2   0   2  190.73    7.60
  -2   0   2  194.60    7.67
  -2   0   2  194.59    7.95
   1   0  -2   71.86    3.00
   1   0  -2   69.39    3.21
   1   0  -2   71.80    2.87
  -1   0   2   76.71    3.24
  -1   0   2   69.83    3.35
  -1   0   2   69.59    3.63
  -1   0   2   74.61    3.31
  -1   0   2   70.82    3.18
  -1   0   2   74.00    3.01
  -1   0   2   73.40    3.02
   0   0  -2  481.45   17.44
   0   0  -2  508.39   18.30
   0   0  -2  485.45   18.93
   0   0  -2  482.21   18.87
   0   0   2  484.01   19.35
   0   0   2  470.45   17.85
   0   0   2  491.62   19.96
   0   0   2  485.30   18.31
   0   0   2  475.29   19.24
   0   0   2  465.79   18.18
   0   0   2  460.31   16.95
  -1   0  -2   30.70    1.51
  -1   0  -2   29.37    1.62
  -1   0  -2   29.77    1.37
  -1   0  -2   29.38    1.39
  -1   0  -2   33.57    1.57
  -1   0  -2   32.49    1.68
   1   0   2   30.16    1.44
   1   0   2   30.39    1.65
   1   0   2   31.34    1.57
   1   0   2   33.68    1.60
   1   0   2   30.70    1.59
   1   0   2   31.09    1.54
  -2   0  -2   43.46    2.78
  -2   0  -2   50.75    2.38
  -2   0  -2   41.85    2.12
  -2   0  -2   45.21    3.26
  -2   0  -2   37.48    2.27
  -2   0  -2   46.70    2.82
  -2   0  -2   40.69    2.32
  -2   0  -2   43.89    2.09
   2   0   2   44.32    2.17
   2   0   2   40.80    2.34
   2   0   2   36.66    2.29
   2   0   2   44.75    2.97
   2   0   2   41.39    2.12
   2   0   2   43.09    2.02
  -3   0  -2  125.80    5.10
  -3   0  -2  111.66    5.50
  -3   0  -2  119.35    4.97
  -3   0  -2  122.09    5.01
  -3   0  -2  122.67    5.38
  -3   0  -2  121.79    5.45
  -3   0  -2  105.47    5.92
  -3   0  -2  119.64    5.80
   3   0   2  132.29    5.06
   3   0   2  120.93    4.88
   3   0   2  124.02    4.80
   3   0   2  118.89    6.18
   3   0   2  124.56    5.89
   3   0   2  122.44    5.14
  -4   0  -2   36.98    2.51
  -4   0  -2   33.07    2.95
  -4   0  -2   38.94    2.24
  -4   0  -2   36.30    2.15
  -4   0  -2   36.56    2.12
  -4   0  -2   36.09    2.25
  -4   0  -2   36.13    2.48
  -4   0  -2   35.16    2.83
   4   0   2   34.53    1.61
   4   0   2   31.61    2.44
   4   0   2   38.25    2.34
   4   0   2   34.96    3.23
   4   0   2   35.56    2.19
  -5   0  -2   26.05    2.77
  -5   0  -2   26.25    2.39
  -5   0  -2   28.75    2.24
  -5   0  -2   24.76    2.43
  -5   0  -2   28.56    2.76
  -5   0  -2   25.08    1.91
  -5   0  -2   24.78    2.22
   5   0   2   25.67    2.16
   5   0   2   31.44    2.63
   5   0   2   22.00    2.95
   5   0   2   29.83    2.12
  -6   0  -2    1.46    1.54
  -6   0  -2    2.33    1.68
  -6   0  -2    1.13    1.34
  -6   0  -2    1.89    1.27
  -6   0  -2    1.51    1.25
  -6   0  -2    0.04    1.05
   6   0   2    2.42    1.13
   6   0   2    0.88    1.21
   6   0   2    2.68    1.44
   6   0   2    2.29    1.92
  -7   0  -2   93.85    6.20
  -7   0  -2  112.47    5.77
  -7   0  -2  100.15    5.26
  -7   0  -2   87.41    5.92
  -7   0  -2   97.51    5.16
  -7   0  -2  104.70    5.69
   7   0   2   93.17    6.62
   7   0   2   97.46    5.46
   7   0   2  105.33    5.48
  -8   0  -2   20.69    3.06
  -8   0  -2   14.76    2.38
  -8   0  -2   17.98    2.67
  -8   0  -2   17.72    2.44
  -8   0  -2   14.97    2.94
  -8   0  -2   19.19    2.43
   8   0   2   21.87    2.78
   8   0   2   23.17    2.97
   8   0   2   22.04    3.76
  -9   0  -2   24.73    3.72
  -9   0  -2   41.52    3.83
  -9   0  -2   31.35    3.18
  -9   0  -2   28.40    3.47
  -9   0  -2   33.26    4.45
  -9   0  -2   38.32    3.74
   9   0   2   29.15    3.49
   9   0   2   35.01    3.61
   9   0   2   32.17    3.64
   7  -1  -2   29.74    2.99
   7  -1  -2   23.02    2.93
   7  -1  -2   22.90    2.97
   7  -1  -2   24.14    3.62
  -7   1   2   31.00    3.38
  -7   1   2   29.29    2.80
  -7   1   2   34.37    4.13
  -7   1   2   29.11    2.92
   6  -1  -2   24.63    2.75
   6  -1  -2   27.03    3.33
   6  -1  -2   26.62    2.68
   6  -1  -2   27.36    2.71
  -6   1   2   21.61    3.33
  -6   1   2   26.92    2.51
  -6   1   2   30.07    2.95
  -6   1   2   26.36    2.61
  -6   1   2   28.77    2.91
  -6   1   2   29.15    2.83
  -6   1   2   25.99    3.14
   5  -1  -2  112.92    5.43
   5  -1  -2  120.01    5.29
   5  -1  -2   99.87    5.85
   5  -1  -2  109.73    5.29
  -5   1   2  104.44    5.05
  -5   1   2  106.45    6.24
  -5   1   2  101.25    6.07
  -5   1   2   97.55    5.39
  -5   1   2  104.80    4.97
  -5   1   2  108.22    5.42
  -5   1   2   90.38    5.31
   4  -1  -2    5.00    1.20
   4  -1  -2    4.39    1.22
   4  -1  -2    3.13    1.35
   4  -1  -2    7.94    1.37
  -4   1   2    5.64    1.52
  -4   1   2    8.26    1.79
  -4   1   2    5.42    1.33
  -4   1   2    3.64    1.08
  -4   1   2    4.10    1.02
  -4   1   2    5.52    1.21
   3  -1  -2  443.34   18.88
   3  -1  -2  448.85   18.25
   3  -1  -2  452.06   17.04
   3  -1  -2  457.93   16.94
   3  -1  -2  450.10   15.89
  -3   1   2  449.85   19.61
  -3   1   2  454.60   18.98
  -3   1   2  441.12   17.16
  -3   1   2  442.53   17.04
  -3   1   2  451.72   17.96
  -3   1   2  468.13   18.30
  -3   1   2  447.20   18.23
   2  -1  -2    1.41    0.28
   2  -1  -2    0.99    0.72
   2  -1  -2    2.49    0.72
   2  -1  -2    1.37    0.30
   2  -1  -2    1.29    0.65
   2  -1  -2    2.49    0.69
  -2   1   2    1.80    0.90
  -2   1   2    0.88    0.72
  -2   1   2    1.59    0.59
  -2   1   2    1.25    0.71
  -2   1   2   -0.04    0.92
  -2   1   2    0.74    0.59
   1  -1  -2  234.36    8.10
   1  -1  -2  231.61    8.18
   1  -1  -2  222.49    9.27
   1  -1  -2  227.92    8.66
   1  -1  -2  231.62    8.54
   1  -1  -2  229.56    9.51
  -1   1   2  238.07    9.23
  -1   1   2  236.31    9.51
  -1   1   2  222.78    8.95
  -1   1   2  226.72   10.06
  -1   1   2  222.42    8.67
  -1   1   2  231.78    9.02
  -1   1   2  211.31    8.72
   0  -1  -2  358.42   12.90
   0  -1  -2  354.27   13.00
   0  -1  -2  349.67   12.59
   0  -1  -2  360.34   14.05
   0  -1  -2  353.56   12.50
   0  -1  -2  348.57   13.91
   0   1   2  347.37   12.49
   0   1   2  358.07   13.17
   0   1   2  344.73   14.26
   0   1   2  342.36   14.92
   0   1   2  367.76   14.28
   0   1   2  360.09   13.93
   0   1   2  342.64   13.51
   0   1   2  364.12   13.63
  -1  -1  -2   17.98    0.98
  -1  -1  -2   16.85    0.98
  -1  -1  -2   15.79    0.94
  -1  -1  -2   16.15    0.88
  -1  -1  -2   17.65    1.03
  -1  -1  -2   16.72    1.01
  -1  -1  -2   18.83    1.21
   1   1   2   16.39    1.15
   1   1   2   18.75    1.02
   1   1   2   17.16    0.95
   1   1   2   18.10    1.23
  -2  -1  -2  594.88   23.63
  -2  -1  -2  536.07   23.64
  -2  -1  -2  611.30   22.85
  -2  -1  -2  606.45   21.60
  -2  -1  -2  614.44   21.64
  -2  -1  -2  586.07   23.81
   2   1   2  589.06   20.98
   2   1   2  607.31   22.26
   2   1   2  611.22   21.60
   2   1   2  549.75   24.25
  -3  -1  -2   70.08    3.39
  -3  -1  -2   63.49    3.70
  -3  -1  -2   73.05    3.13
  -3  -1  -2   69.31    3.81
  -3  -1  -2   68.40    3.26
  -3  -1  -2   76.72    3.42
  -3  -1  -2   57.67    3.28
   3   1   2   73.83    3.03
   3   1   2   69.70    3.23
   3   1   2   73.01    3.09
   3   1   2   72.86    3.92
  -4  -1  -2  231.42    8.86
  -4  -1  -2  226.60    9.48
  -4  -1  -2  226.72    9.17
  -4  -1  -2  223.00    9.06
  -4  -1  -2  220.29    9.94
  -4  -1  -2  227.37    9.79
  -4  -1  -2  236.37    9.61
  -4  -1  -2  220.69    9.94
   4   1   2  224.04    9.08
   4   1   2  233.32    8.69
   4   1   2  225.80    9.08
   4   1   2  232.61   10.32
   4   1   2  229.65    8.74
  -5  -1  -2   24.94    2.44
  -5  -1  -2   28.21    1.69
  -5  -1  -2   23.06    2.06
  -5  -1  -2   30.72    1.69
  -5  -1  -2   30.61    2.36
  -5  -1  -2   28.65    2.65
  -5  -1  -2   26.73    2.44
  -5  -1  -2   23.89    2.27
  -5  -1  -2   31.84    2.38
   5   1   2   26.27    2.03
   5   1   2   34.52    2.50
   5   1   2   29.35    2.26
   5   1   2   24.36    2.64
  -6  -1  -2  156.56    7.17
  -6  -1  -2  170.32    7.96
  -6  -1  -2  164.71    7.08
  -6  -1  -2  158.18    7.98
  -6  -1  -2  154.79    7.21
  -6  -1  -2  159.65    7.85
  -6  -1  -2  174.27    7.69
   6   1   2  153.57    7.27
   6   1   2  166.20    7.23
   6   1   2  164.20    8.45
   6   1   2  164.58    6.72
  -7  -1  -2    0.95    1.63
  -7  -1  -2   -1.16    1.11
  -7  -1  -2    0.53    1.33
  -7  -1  -2    2.03    1.37
  -7  -1  -2    1.18    1.44
  -7  -1  -2    0.92    1.19
   7   1   2   -2.50    1.81
   7   1   2    0.86    1.46
   7   1   2    0.83    1.41
   7   1   2    1.97    1.16
  -8  -1  -2   39.85    3.22
  -8  -1  -2   37.62    3.47
  -8  -1  -2   40.04    4.26
  -8  -1  -2   35.35    3.56
  -8  -1  -2   38.68    3.81
  -8  -1  -2   40.26    3.52
   8   1   2   37.95    3.58
   8   1   2   36.56    3.50
   8   1   2   32.02    4.34
  -9  -1  -2   38.74    4.68
  -9  -1  -2   50.87    4.27
  -9  -1  -2   51.76    4.70
  -9  -1  -2   46.23    4.11
  -9  -1  -2   50.00    3.90
  -9  -1  -2   42.33    4.27
   9   1   2   47.44    4.20
   9   1   2   46.28    4.32
   9   1   2   45.33    5.29
   7  -2  -2    1.20    1.68
   7  -2  -2   -0.14    1.87
   7  -2  -2    4.21    2.77
  -7   2   2    2.96    1.86
  -7   2   2    7.06    2.66
  -7   2   2    1.24    1.60
  -7   2   2    0.06    1.33
   6  -2  -2   42.04    3.47
   6  -2  -2   38.65    4.33
   6  -2  -2   39.34    3.40
   6  -2  -2   42.47    3.63
  -6   2   2   39.74    4.07
  -6   2   2   34.72    4.32
  -6   2   2   38.69    3.27
  -6   2   2   37.93    3.04
  -6   2   2   40.61    3.64
   5  -2  -2    2.51    1.38
   5  -2  -2    0.68    1.71
   5  -2  -2    2.51    1.38
   5  -2  -2    1.22    1.21
  -5   2   2    3.63    1.97
  -5   2   2    2.63    1.76
  -5   2   2    1.74    1.41
  -5   2   2    1.79    1.26
  -5   2   2    1.13    1.00
   4  -2  -2  127.10    5.78
   4  -2  -2  128.00    5.74
   4  -2  -2  116.13    6.32
   4  -2  -2  114.88    5.43
  -4   2   2  125.13    5.81
  -4   2   2  116.79    6.69
  -4   2   2  117.09    5.35
  -4   2   2  115.39    5.86
  -4   2   2  115.35    6.82
   3  -2  -2    8.39    0.74
   3  -2  -2    5.44    1.20
   3  -2  -2    6.07    1.11
   3  -2  -2    6.71    1.44
   3  -2  -2    6.03    1.10
  -3   2   2    6.75    1.71
  -3   2   2    7.66    1.21
  -3   2   2    6.40    1.02
  -3   2   2    6.45    1.34
  -3   2   2    3.00    1.69
  -3   2   2    5.72    1.04
   2  -2  -2    3.50    0.46
   2  -2  -2    5.08    0.87
   2  -2  -2    4.10    0.94
   2  -2  -2    2.99    0.50
   2  -2  -2    2.65    0.74
   2  -2  -2    3.44    0.99
  -2   2   2    4.25    0.76
  -2   2   2    1.91    1.12
  -2   2   2    4.53    0.78
  -2   2   2    4.42    0.97
  -2   2   2    3.40    1.37
  -2   2   2    3.45    0.97
   1  -2  -2  268.97   10.98
   1  -2  -2  271.84    9.75
   1  -2  -2  268.34   10.22
   1  -2  -2  276.47   11.31
   1  -2  -2  273.41    9.73
   1  -2  -2  267.60   10.30
  -1   2   2  267.58   12.14
  -1   2   2  276.43   10.68
  -1   2   2  269.67   10.89
  -1   2   2  270.60   10.80
  -1   2   2  269.80   10.29
  -1   2   2  268.44   11.49
   0  -2  -2   24.33    1.49
   0  -2  -2   26.93    1.45
   0  -2  -2   26.79    1.52
   0  -2  -2   25.47    1.39
   0  -2  -2   27.26    1.28
   0  -2  -2   24.54    1.32
   0   2   2   28.72    2.15
   0   2   2   27.23    1.50
   0   2   2   26.45    1.79
   0   2   2   26.21    1.69
   0   2   2   26.72    1.30
  -1  -2  -2  425.75   14.67
  -1  -2  -2  405.20   15.08
  -1  -2  -2  418.36   15.95
  -1  -2  -2  408.79   16.08
  -1  -2  -2  402.26   14.71
  -1  -2  -2  421.67   16.43
  -1  -2  -2  404.46   16.32
   1   2   2  420.20   15.96
   1   2   2  403.82   14.63
   1   2   2  398.80   15.71
   1   2   2  422.83   16.42
   1   2   2  400.94   16.48
   1   2   2  408.76   17.38
  -2  -2  -2    3.25    0.53
  -2  -2  -2    3.30    0.84
  -2  -2  -2    4.34    1.15
  -2  -2  -2    3.05    0.64
  -2  -2  -2    2.87    1.20
  -2  -2  -2    2.94    0.59
  -2  -2  -2    4.28    0.64
  -2  -2  -2    2.78    0.56
  -2  -2  -2    1.96    0.61
   2   2   2    3.41    0.58
   2   2   2    2.09    0.62
   2   2   2    4.15    0.76
   2   2   2    1.83    1.00
  -3  -2  -2   10.04    0.74
  -3  -2  -2    8.23    1.02
  -3  -2  -2    9.96    0.92
  -3  -2  -2   10.25    0.99
  -3  -2  -2    9.81    0.89
  -3  -2  -2    9.46    1.55
  -3  -2  -2   10.02    1.15
  -3  -2  -2    9.59    1.03
   3   2   2    7.98    1.23
   3   2   2    9.60    0.98
   3   2   2    9.53    0.77
   3   2   2    9.91    0.92
   3   2   2    9.56    0.91
  -4  -2  -2   36.46    2.30
  -4  -2  -2   36.33    2.09
  -4  -2  -2   38.71    1.88
  -4  -2  -2   36.30    2.09
  -4  -2  -2   38.01    2.52
  -4  -2  -2   38.57    2.33
  -4  -2  -2   37.31    2.38
  -4  -2  -2   35.75    2.65
  -4  -2  -2   39.66    2.62
   4   2   2   39.91    2.03
   4   2   2   39.93    2.39
   4   2   2   37.42    2.57
   4   2   2   38.03    1.93
  -5  -2  -2   49.21    3.17
  -5  -2  -2   49.54    2.40
  -5  -2  -2   49.32    2.82
  -5  -2  -2   51.63    2.93
  -5  -2  -2   53.86    3.03
  -5  -2  -2   47.16    3.40
  -5  -2  -2   51.12    2.99
  -5  -2  -2   52.26    3.05
  -5  -2  -2   52.10    2.40
   5   2   2   47.72    2.93
   5   2   2   51.26    2.72
   5   2   2   52.56    2.97
   5   2   2   49.81    3.35
   5   2   2   50.05    2.37
  -6  -2  -2   27.90    2.43
  -6  -2  -2   30.91    2.64
  -6  -2  -2   21.84    2.54
  -6  -2  -2   25.63    2.26
  -6  -2  -2   26.65    2.71
  -6  -2  -2   25.46    2.39
  -6  -2  -2   29.50    2.61
   6   2   2   26.80    2.50
   6   2   2   27.99    2.15
   6   2   2   32.30    3.02
   6   2   2   26.36    2.42
  -7  -2  -2    0.34    1.40
  -7  -2  -2    0.42    1.23
  -7  -2  -2    0.82    1.21
  -7  -2  -2    1.30    1.22
  -7  -2  -2    1.40    1.53
  -7  -2  -2    1.22    1.15
  -7  -2  -2    2.10    1.33
   7   2   2    2.03    1.62
   7   2   2   -0.95    1.17
   7   2   2    0.16    1.06
   7   2   2    0.60    1.31
  -8  -2  -2   80.33    4.70
  -8  -2  -2   66.99    5.20
  -8  -2  -2   72.18    5.10
  -8  -2  -2   75.98    4.86
  -8  -2  -2   71.47    4.23
  -8  -2  -2   71.49    4.53
   8   2   2   77.17    5.55
   8   2   2   86.19    4.89
   8   2   2   82.48    4.79
  -9  -2  -2   25.76    3.40
  -9  -2  -2   26.16    3.78
  -9  -2  -2   27.59    3.27
  -9  -2  -2   22.10    2.67
  -9  -2  -2   25.33    3.01
  -9  -2  -2   24.76    3.14
   9   2   2   27.25    3.32
   9   2   2   30.87    4.24
   9   2   2   25.61    3.12
 -10  -2  -2   37.35    4.83
 -10  -2  -2   45.02    3.76
 -10  -2  -2   42.05    4.20
 -10  -2  -2   38.57    4.33
 -10  -2  -2   37.68    4.09
  10   2   2   50.06    4.41
  10   2   2   39.17    4.07
  10   2   2   41.82    4.32
   6  -3  -2   11.09    3.33
   6  -3  -2   18.34    2.52
   6  -3  -2   10.23    2.37
  -6   3   2   12.64    1.98
  -6   3   2   10.54    3.07
  -6   3   2   17.34    2.53
   5  -3  -2   32.19    3.98
   5  -3  -2   30.55    3.05
   5  -3  -2   40.41    3.11
   5  -3  -2   35.42    3.08
  -5   3   2   34.76    3.09
  -5   3   2   34.90    3.29
  -5   3   2   38.17    2.85
  -5   3   2   35.40    4.02
  -5   3   2   36.84    4.28
   4  -3  -2   81.26    4.24
   4  -3  -2   84.19    4.33
   4  -3  -2   78.53    5.21
   4  -3  -2   77.95    4.41
  -4   3   2   71.37    4.47
  -4   3   2   82.18    4.00
  -4   3   2   75.50    5.68
  -4   3   2   85.40    4.43
  -4   3   2   78.34    5.55
   3  -3  -2    8.18    1.85
   3  -3  -2    7.30    1.38
   3  -3  -2    6.22    1.26
   3  -3  -2    7.28    1.23
  -3   3   2    6.55    1.15
  -3   3   2    9.60    2.01
  -3   3   2    6.83    1.46
  -3   3   2    5.43    1.03
  -3   3   2    8.42    2.34
   2  -3  -2  441.59   16.02
   2  -3  -2  444.56   18.06
   2  -3  -2  451.40   16.07
   2  -3  -2  449.51   18.95
   2  -3  -2  453.00   16.99
   2  -3  -2  462.84   16.97
  -2   3   2  446.97   16.91
  -2   3   2  434.57   20.12
  -2   3   2  446.35   18.00
  -2   3   2  436.23   17.56
  -2   3   2  446.33   17.97
  -2   3   2  463.47   19.24
   1  -3  -2   -0.02    0.63
   1  -3  -2    0.86    0.70
   1  -3  -2   -0.63    0.57
   1  -3  -2   -0.66    0.41
   1  -3  -2   -0.03    0.91
   1  -3  -2   -0.27    0.41
  -1   3   2   -1.31    0.65
  -1   3   2    0.35    0.54
  -1   3   2    0.83    1.03
  -1   3   2    0.00    1.35
  -1   3   2   -1.27    0.42
  -1   3   2    0.18    0.84
   0  -3  -2  374.96   14.23
   0  -3  -2  369.99   14.18
   0  -3  -2  378.84   13.66
   0  -3  -2  377.75   13.70
   0  -3  -2  387.94   15.63
   0  -3  -2  371.67   15.16
   0   3   2  386.88   14.83
   0   3   2  376.18   14.95
   0   3   2  389.96   16.80
   0   3   2  377.29   14.99
   0   3   2  395.68   15.87
  -1  -3  -2  298.24   11.24
  -1  -3  -2  292.84   10.89
  -1  -3  -2  298.31   11.21
  -1  -3  -2  294.12   12.03
  -1  -3  -2  310.14   10.89
   1   3   2  288.06   11.70
   1   3   2  312.05   12.42
   1   3   2  296.29   11.84
   1   3   2  304.23   13.21
  -2  -3  -2   12.31    0.77
  -2  -3  -2   12.54    0.98
  -2  -3  -2   12.44    1.03
  -2  -3  -2   13.67    1.93
  -2  -3  -2   15.32    1.18
  -2  -3  -2   11.98    1.02
  -2  -3  -2   13.27    1.11
  -2  -3  -2   16.60    1.74
  -2  -3  -2   14.99    1.07
   2   3   2   12.74    1.19
   2   3   2   12.81    0.99
   2   3   2   13.91    1.13
   2   3   2   12.12    0.87
   2   3   2   13.31    0.66
   2   3   2   14.68    1.57
   2   3   2   13.19    1.25
  -3  -3  -2  209.24    7.99
  -3  -3  -2  206.78    8.43
  -3  -3  -2  203.29    8.34
  -3  -3  -2  217.09    7.76
  -3  -3  -2  207.31    7.72
  -3  -3  -2  200.69    8.09
  -3  -3  -2  199.10    8.40
  -3  -3  -2  212.66    7.82
  -3  -3  -2  209.10    9.28
  -3  -3  -2  171.77    9.16
   3   3   2  199.46    8.99
   3   3   2  216.99    8.76
   3   3   2  211.85    7.73
   3   3   2  213.98    8.23
  -4  -3  -2   27.54    2.24
  -4  -3  -2   27.41    1.77
  -4  -3  -2   26.45    1.65
  -4  -3  -2   27.92    1.57
  -4  -3  -2   26.29    2.49
  -4  -3  -2   26.58    2.07
  -4  -3  -2   24.32    1.46
  -4  -3  -2   26.43    1.79
  -4  -3  -2   27.65    1.48
  -4  -3  -2   24.58    1.76
   4   3   2   27.84    1.62
   4   3   2   21.95    1.72
   4   3   2   25.59    1.78
   4   3   2   24.46    1.88
   4   3   2   26.06    1.62
  -5  -3  -2  141.75    6.17
  -5  -3  -2  137.37    6.27
  -5  -3  -2  137.97    6.34
  -5  -3  -2  137.19    6.09
  -5  -3  -2  132.23    5.96
  -5  -3  -2  141.92    6.41
  -5  -3  -2  128.69    6.76
  -5  -3  -2  140.65    6.18
  -5  -3  -2  138.26    5.77
  -5  -3  -2  143.42    5.51
   5   3   2  141.75    6.14
   5   3   2  141.57    5.60
   5   3   2  135.80    5.98
   5   3   2  134.49    6.57
   5   3   2  139.70    5.68
  -6  -3  -2   15.71    2.32
  -6  -3  -2   22.76    2.41
  -6  -3  -2   18.86    2.08
  -6  -3  -2   19.69    1.80
  -6  -3  -2   20.74    1.96
  -6  -3  -2   17.41    1.99
  -6  -3  -2   19.13    2.09
  -6  -3  -2   21.65    1.56
   6   3   2   17.67    1.97
   6   3   2   17.16    2.20
   6   3   2   19.70    1.79
   6   3   2   18.48    2.04
  -7  -3  -2  190.37    9.12
  -7  -3  -2  197.14    8.66
  -7  -3  -2  191.93    8.51
  -7  -3  -2  187.06    9.38
  -7  -3  -2  200.70    8.18
  -7  -3  -2  188.50    8.70
  -7  -3  -2  186.31    8.73
   7   3   2  196.17    7.79
   7   3   2  182.59    8.42
   7   3   2  189.50    8.46
   7   3   2  181.29    9.35
  -8  -3  -2    5.87    1.65
  -8  -3  -2    2.54    1.28
  -8  -3  -2    2.22    1.73
  -8  -3  -2    0.29    1.48
  -8  -3  -2    2.52    1.56
  -8  -3  -2    1.11    1.23
  -8  -3  -2    1.43    1.46
   8   3   2    2.34    1.53
   8   3   2    2.93    1.85
   8   3   2    3.28    1.55
  -9  -3  -2   67.17    4.43
  -9  -3  -2   57.61    5.17
  -9  -3  -2   59.38    4.43
  -9  -3  -2   60.22    3.97
  -9  -3  -2   54.48    4.51
  -9  -3  -2   59.87    5.22
   9   3   2   68.05    4.56
   9   3   2   59.94    4.62
   9   3   2   51.63    5.23
 -10  -3  -2   10.31    2.96
 -10  -3  -2   15.75    2.41
 -10  -3  -2   21.37    2.92
 -10  -3  -2   16.92    3.22
 -10  -3  -2   11.87    2.60
  10   3   2   12.66    2.56
  10   3   2   16.40    2.98
   6  -4  -2    1.32    1.92
   6  -4  -2    1.55    1.81
  -6   4   2   -0.46    2.17
   5  -4  -2   45.63    3.69
   5  -4  -2   42.18    3.72
  -5   4   2   48.71    3.07
  -5   4   2   40.22    3.80
  -5   4   2   39.97    4.91
  -5   4   2   40.79    4.71
   4  -4  -2    3.46    1.43
   4  -4  -2    2.69    1.46
   4  -4  -2    2.92    2.29
  -4   4   2    2.93    1.07
  -4   4   2    5.96    2.41
  -4   4   2    3.69    1.63
  -4   4   2    1.75    2.28
   3  -4  -2  132.05    5.89
   3  -4  -2  133.49    7.29
   3  -4  -2  128.21    6.00
  -3   4   2  130.86    5.96
  -3   4   2  107.77    7.76
  -3   4   2  122.57    6.31
  -3   4   2  134.02    7.54
  -3   4   2  127.32    5.57
   2  -4  -2    4.02    0.98
   2  -4  -2    2.59    1.16
   2  -4  -2    3.08    0.77
   2  -4  -2    3.84    1.83
   2  -4  -2    3.61    1.12
   2  -4  -2    3.39    0.70
  -2   4   2    2.58    0.80
  -2   4   2    2.83    2.33
  -2   4   2    1.06    1.31
  -2   4   2    2.80    0.85
  -2   4   2    3.14    1.78
  -2   4   2    3.23    1.26
   1  -4  -2   38.80    3.15
   1  -4  -2   39.15    2.03
   1  -4  -2   38.11    2.29
   1  -4  -2   40.94    2.07
   1  -4  -2   43.70    2.49
   1  -4  -2   41.19    2.48
  -1   4   2   41.90    2.18
  -1   4   2   40.75    2.12
  -1   4   2   40.59    2.51
  -1   4   2   39.94    3.43
  -1   4   2   45.38    2.98
  -1   4   2   40.41    4.04
   0  -4  -2  150.32    7.26
   0  -4  -2  168.57    6.32
   0  -4  -2  161.00    6.86
   0  -4  -2  163.97    6.31
   0  -4  -2  157.29    6.65
   0  -4  -2  171.60    6.67
   0   4   2  164.03    6.61
   0   4   2  167.14    8.60
   0   4   2  166.93    7.10
   0   4   2  168.13    7.02
   0   4   2  173.26    7.88
  -1  -4  -2    7.37    0.89
  -1  -4  -2    6.59    0.83
  -1  -4  -2    7.13    0.97
  -1  -4  -2    6.24    0.91
  -1  -4  -2    5.51    0.85
   1   4   2    8.91    1.86
   1   4   2    6.83    1.08
   1   4   2    8.83    1.50
   1   4   2    7.06    0.95
  -2  -4  -2  218.65   11.91
  -2  -4  -2  246.79    9.85
  -2  -4  -2  245.92    9.07
  -2  -4  -2  253.24    9.36
  -2  -4  -2  242.94    9.35
  -2  -4  -2  241.76   10.45
  -2  -4  -2  241.19    9.04
   2   4   2  261.29   11.22
   2   4   2  245.45    9.86
   2   4   2  242.29    9.73
   2   4   2  226.27   10.45
  -3  -4  -2   -0.68    0.52
  -3  -4  -2    0.56    0.39
  -3  -4  -2    0.06    0.60
  -3  -4  -2    0.02    0.51
  -3  -4  -2    2.42    1.10
  -3  -4  -2    0.27    0.68
  -3  -4  -2    0.64    0.53
  -3  -4  -2   -1.22    1.14
  -3  -4  -2    0.95    0.56
   3   4   2   -0.23    0.63
   3   4   2    0.56    0.50
   3   4   2   -0.13    0.55
   3   4   2    0.07    0.61
   3   4   2   -1.02    0.91
  -4  -4  -2   18.90    1.44
  -4  -4  -2   15.76    1.38
  -4  -4  -2   20.83    1.54
  -4  -4  -2   15.44    1.53
  -4  -4  -2   16.63    1.20
  -4  -4  -2   17.91    1.69
   4   4   2   17.80    1.77
  -5  -4  -2    1.43    0.88
  -5  -4  -2    0.55    0.77
  -5  -4  -2    1.58    0.80
  -5  -4  -2    2.48    0.74
  -5  -4  -2    1.30    0.61
  -5  -4  -2    1.45    1.20
  -5  -4  -2    1.04    1.19
  -5  -4  -2    1.58    0.64
  -5  -4  -2    1.43    0.81
  -5  -4  -2    3.93    1.11
   5   4   2    0.27    0.67
   5   4   2    2.16    0.93
   5   4   2    1.42    0.85
   5   4   2    0.07    0.93
   5   4   2    2.76    0.83
  -6  -4  -2   96.88    4.51
  -6  -4  -2   87.51    5.48
  -6  -4  -2   99.75    4.88
  -6  -4  -2   99.27    4.82
  -6  -4  -2   96.33    5.12
  -6  -4  -2   91.17    4.99
  -6  -4  -2  101.48    4.99
  -6  -4  -2   91.14    4.59
  -6  -4  -2  100.10    4.25
   6   4   2  103.37    5.21
   6   4   2  103.63    4.42
   6   4   2   98.70    4.82
   6   4   2   96.26    4.30
  -7  -4  -2    2.81    1.55
  -7  -4  -2   -0.52    1.24
  -7  -4  -2    0.05    0.91
  -7  -4  -2    0.71    0.93
  -7  -4  -2    0.29    1.25
  -7  -4  -2    0.98    1.03
  -7  -4  -2    1.23    1.24
   7   4   2    3.83    1.46
   7   4   2   -0.26    1.14
   7   4   2    1.34    1.30
   7   4   2    0.72    1.01
  -8  -4  -2    2.87    1.56
  -8  -4  -2    3.68    1.67
  -8  -4  -2    2.92    1.30
  -8  -4  -2    2.53    1.49
  -8  -4  -2    3.32    1.39
  -8  -4  -2    3.65    1.31
  -8  -4  -2    5.04    1.87
   8   4   2    1.42    1.59
   8   4   2    2.12    1.28
   8   4   2    4.13    1.93
   8   4   2    2.17    1.63
  -9  -4  -2   24.29    2.91
  -9  -4  -2   29.77    3.11
  -9  -4  -2   22.02    3.02
  -9  -4  -2   31.64    2.88
  -9  -4  -2   27.11    3.38
  -9  -4  -2   22.19    3.37
   9   4   2   28.80    3.12
   9   4   2   30.86    3.27
   9   4   2   26.90    3.58
 -10  -4  -2   22.32    2.68
 -10  -4  -2   22.64    3.04
 -10  -4  -2   21.18    3.52
 -10  -4  -2   22.80    3.24
 -10  -4  -2   17.56    3.24
  10   4   2   27.72    4.20
  10   4   2   18.84    2.96
  10   4   2   21.83    3.15
   5  -5  -2    1.76    1.84
   5  -5  -2    5.61    3.50
   5  -5  -2    4.95    1.88
  -5   5   2    3.74    2.69
  -5   5   2    3.28    2.67
   4  -5  -2   75.48    4.34
   4  -5  -2   70.71    4.26
  -4   5   2   60.29    4.43
  -4   5   2   58.81    5.79
  -4   5   2   67.08    6.40
   3  -5  -2   24.66    2.51
   3  -5  -2   24.46    2.57
  -3   5   2   33.35    4.54
  -3   5   2   28.90    2.20
  -3   5   2   28.08    2.90
  -3   5   2   23.17    3.58
   2  -5  -2   12.49    1.81
   2  -5  -2   18.10    1.98
   2  -5  -2   17.27    1.53
  -2   5   2   17.73    2.35
  -2   5   2   18.16    3.63
  -2   5   2   16.80    1.54
  -2   5   2   19.14    2.95
  -2   5   2   16.72    2.16
   1  -5  -2  299.16   11.72
   1  -5  -2  299.66   11.03
   1  -5  -2  297.37   11.08
   1  -5  -2  285.53   11.68
  -1   5   2  265.17   14.64
  -1   5   2  306.16   13.65
  -1   5   2  290.75   11.40
  -1   5   2  308.24   12.46
  -1   5   2  302.26   12.41
   0  -5  -2   10.90    1.15
   0  -5  -2   11.42    1.19
   0  -5  -2   10.38    1.30
   0  -5  -2   13.27    1.42
   0  -5  -2   11.52    1.28
   0  -5  -2   12.26    1.15
   0   5   2   13.36    1.75
   0   5   2    8.84    1.37
   0   5   2   11.27    2.13
   0   5   2   13.77    2.77
  -1  -5  -2  310.25   12.20
  -1  -5  -2  292.58   15.86
  -1  -5  -2  321.79   11.82
  -1  -5  -2  321.37   11.78
  -1  -5  -2  323.96   12.98
  -1  -5  -2  315.84   12.23
   1   5   2  326.96   14.93
   1   5   2  316.12   12.95
   1   5   2  313.17   13.93
   1   5   2  326.05   12.85
  -2  -5  -2   60.49    4.88
  -2  -5  -2   61.66    2.92
  -2  -5  -2   59.40    3.87
  -2  -5  -2   64.42    2.95
  -2  -5  -2   62.76    3.04
  -2  -5  -2   65.60    3.13
   2   5   2   62.93    4.01
   2   5   2   63.38    3.34
   2   5   2   62.46    3.25
   2   5   2   58.74    4.22
  -3  -5  -2  122.79    5.07
  -3  -5  -2  123.98    5.21
  -3  -5  -2  128.73    5.54
  -3  -5  -2  114.12    6.08
  -3  -5  -2  122.50    5.27
  -3  -5  -2  122.51    4.93
  -3  -5  -2  118.53    5.03
  -3  -5  -2  127.19    6.83
  -3  -5  -2  123.17    5.03
   3   5   2  113.66    6.31
   3   5   2  115.51    5.88
   3   5   2  121.86    5.02
   3   5   2  124.59    5.43
   3   5   2  123.89    5.52
   3   5   2  127.19    5.15
  -4  -5  -2  107.07    5.29
  -4  -5  -2  106.44    4.74
  -4  -5  -2  101.06    4.39
  -4  -5  -2   99.39    4.73
  -4  -5  -2  101.63    4.33
  -4  -5  -2   88.69    5.28
  -4  -5  -2  101.88    4.52
  -4  -5  -2  105.97    4.39
  -4  -5  -2   96.64    4.31
   4   5   2  101.50    4.30
   4   5   2   96.21    5.31
   4   5   2  100.79    4.56
   4   5   2  100.05    4.67
   4   5   2  106.13    4.62
  -5  -5  -2   87.67    4.08
  -5  -5  -2   76.85    3.75
  -5  -5  -2   83.21    3.95
  -5  -5  -2   84.03    3.84
  -5  -5  -2   78.80    4.17
  -5  -5  -2   88.80    3.85
  -5  -5  -2   83.78    4.29
  -5  -5  -2   79.98    4.22
  -5  -5  -2   83.24    4.87
  -5  -5  -2   80.57    3.85
   5   5   2   84.23    4.19
   5   5   2   84.12    4.52
   5   5   2   86.41    3.82
   5   5   2   83.38    3.84
   5   5   2   84.41    4.01
  -6  -5  -2   68.47    4.08
  -6  -5  -2   73.83    3.97
  -6  -5  -2   74.93    3.63
  -6  -5  -2   67.34    3.80
  -6  -5  -2   69.24    4.49
  -6  -5  -2   74.60    3.83
  -6  -5  -2   81.14    3.56
  -6  -5  -2   74.68    3.69
   6   5   2   69.91    3.46
   6   5   2   68.33    4.04
   6   5   2   72.91    3.59
   6   5   2   67.57    3.74
  -7  -5  -2    4.79    1.32
  -7  -5  -2    7.17    1.93
  -7  -5  -2    7.44    1.20
  -7  -5  -2    8.37    1.70
  -7  -5  -2    5.41    1.36
  -7  -5  -2    7.55    1.41
  -7  -5  -2    7.15    1.95
  -7  -5  -2    5.79    1.63
   7   5   2    4.73    1.20
   7   5   2    8.54    1.75
   7   5   2    7.16    1.62
  -8  -5  -2  112.66    5.44
  -8  -5  -2  110.17    5.98
  -8  -5  -2  106.28    6.01
  -8  -5  -2  112.49    5.88
  -8  -5  -2  112.02    5.90
  -8  -5  -2  108.09    6.54
   8   5   2  110.69    5.79
   8   5   2  114.95    6.37
   8   5   2  107.59    5.16
   8   5   2  111.84    5.91
  -9  -5  -2   10.65    2.10
  -9  -5  -2   14.20    2.47
  -9  -5  -2   12.28    2.38
  -9  -5  -2   10.10    2.17
  -9  -5  -2   11.96    2.65
  -9  -5  -2    9.69    1.90
   9   5   2   10.48    2.15
   9   5   2   10.98    2.54
   9   5   2   11.91    2.26
 -10  -5  -2   63.47    5.11
 -10  -5  -2   49.26    5.17
 -10  -5  -2   58.95    4.78
 -10  -5  -2   58.81    5.16
 -10  -5  -2   61.06    4.86
 -10  -5  -2   56.14    4.33
  10   5   2   64.10    4.87
  10   5   2   73.83    4.81
  10   5   2   56.05    5.56
   4  -6  -2   21.07    2.71
   4  -6  -2   23.29    4.76
   4  -6  -2   23.86    2.95
  -4   6   2   21.08    4.19
  -4   6   2   17.36    3.75
  -4   6   2   16.03    2.81
   3  -6  -2    5.26    1.59
   3  -6  -2    0.09    3.05
   3  -6  -2    4.01    1.74
  -3   6   2    1.06    1.73
  -3   6   2    7.24    2.79
  -3   6   2    6.04    3.25
   2  -6  -2  127.39    5.98
   2  -6  -2  123.40    5.95
   2  -6  -2  140.32    9.18
  -2   6   2  120.03    6.44
  -2   6   2  102.44    8.25
  -2   6   2  124.54    7.70
   1  -6  -2   17.17    1.99
   1  -6  -2   12.10    3.53
   1  -6  -2   15.35    1.82
   1  -6  -2   17.45    1.62
   1  -6  -2   17.01    1.53
  -1   6   2   13.92    2.32
  -1   6   2   14.96    1.99
  -1   6   2   10.62    3.37
  -1   6   2   13.40    2.74
   0  -6  -2   62.41    3.10
   0  -6  -2   59.86    3.35
   0  -6  -2   59.52    3.00
   0  -6  -2   61.31    3.31
   0  -6  -2   61.50    6.06
   0   6   2   59.19    3.50
   0   6   2   68.30    4.03
   0   6   2   60.37    2.93
   0   6   2   60.01    4.57
   0   6   2   51.68    5.39
  -1  -6  -2   40.31    4.70
  -1  -6  -2   37.67    2.40
  -1  -6  -2   37.57    2.16
  -1  -6  -2   36.95    2.35
  -1  -6  -2   36.28    2.14
   1   6   2   34.19    2.81
   1   6   2   34.42    3.99
   1   6   2   31.87    2.39
   1   6   2   37.43    3.41
  -2  -6  -2    6.88    1.05
  -2  -6  -2    6.04    1.07
  -2  -6  -2    5.39    1.08
  -2  -6  -2    6.16    2.48
  -2  -6  -2    6.32    1.66
  -2  -6  -2    4.23    0.90
   2   6   2    5.15    1.20
   2   6   2    4.66    1.86
   2   6   2    8.92    1.30
  -3  -6  -2  117.31    5.18
  -3  -6  -2  116.26    5.42
  -3  -6  -2  117.45    5.85
  -3  -6  -2  115.01    4.97
  -3  -6  -2  119.40    5.10
  -3  -6  -2  120.58    4.99
  -3  -6  -2  123.23    7.01
   3   6   2  115.35    6.54
   3   6   2  112.00    5.36
   3   6   2  102.00    6.16
   3   6   2  112.30    5.37
  -4  -6  -2    1.46    0.90
  -4  -6  -2   -0.36    1.21
  -4  -6  -2   -0.26    0.92
  -4  -6  -2   -0.88    1.21
  -4  -6  -2   -0.14    0.66
  -4  -6  -2    2.02    0.97
  -4  -6  -2    3.12    0.86
  -4  -6  -2   -0.72    0.67
   4   6   2    2.48    1.54
   4   6   2    0.67    0.71
   4   6   2    1.16    0.86
   4   6   2   -0.42    1.11
   4   6   2    1.35    0.88
  -5  -6  -2   57.15    3.41
  -5  -6  -2   49.78    2.87
  -5  -6  -2   57.66    2.83
  -5  -6  -2   59.28    3.12
  -5  -6  -2   50.19    3.66
  -5  -6  -2   56.36    3.20
  -5  -6  -2   57.32    2.92
  -5  -6  -2   56.73    2.93
  -5  -6  -2   54.40    3.41
   5   6   2   47.86    2.94
   5   6   2   58.74    3.23
   5   6   2   59.49    3.30
   5   6   2   56.56    3.85
   5   6   2   56.56    2.91
  -6  -6  -2    0.47    0.94
  -6  -6  -2    2.82    1.29
  -6  -6  -2    0.17    0.81
  -6  -6  -2    1.34    1.32
  -6  -6  -2    2.11    1.09
  -6  -6  -2    1.81    0.90
  -6  -6  -2    0.68    0.86
  -6  -6  -2   -0.44    0.87
   6   6   2    0.02    0.87
   6   6   2   -1.13    1.18
   6   6   2    1.03    0.88
   6   6   2    0.71    1.00
  -7  -6  -2   66.32    3.70
  -7  -6  -2   66.38    3.83
  -7  -6  -2   70.63    3.50
  -7  -6  -2   65.91    4.49
  -7  -6  -2   58.50    3.48
  -7  -6  -2   59.98    3.78
  -7  -6  -2   56.15    3.97
   7   6   2   65.62    3.97
   7   6   2   68.83    3.58
   7   6   2   63.96    3.45
   7   6   2   63.74    3.87
  -8  -6  -2    9.30    1.82
  -8  -6  -2   12.08    2.54
  -8  -6  -2   11.54    1.88
  -8  -6  -2    9.13    1.87
  -8  -6  -2   12.18    1.81
  -8  -6  -2   11.75    2.30
   8   6   2   10.60    1.60
   8   6   2   10.41    2.17
   8   6   2   10.78    1.96
  -9  -6  -2    6.90    1.92
  -9  -6  -2    4.77    1.95
  -9  -6  -2    0.29    1.78
  -9  -6  -2    5.06    1.60
  -9  -6  -2    2.98    1.57
  -9  -6  -2    4.12    2.05
   9   6   2    2.61    1.45
   9   6   2    5.74    2.05
   9   6   2    1.74    1.68
   9   6   2    6.99    2.16
 -10  -6  -2    8.58    2.37
 -10  -6  -2   14.29    2.66
 -10  -6  -2    7.62    2.11
 -10  -6  -2   12.00    2.55
 -10  -6  -2    6.44    2.73
 -10  -6  -2   12.24    2.18
  10   6   2    8.40    2.25
  10   6   2    7.65    2.34
  10   6   2   14.68    3.11
   3  -7  -2   74.39    4.69
   3  -7  -2   77.48    4.59
   3  -7  -2   78.48    7.96
  -3   7   2   72.25    7.33
  -3   7   2   49.39    5.84
  -3   7   2   68.82    5.05
   2  -7  -2    7.09    3.57
   2  -7  -2    4.87    1.67
   2  -7  -2    4.42    1.60
  -2   7   2    3.58    3.02
  -2   7   2    6.31    2.10
  -2   7   2    7.88    2.87
   1  -7  -2   24.95    4.64
   1  -7  -2   23.83    2.06
   1  -7  -2   22.54    2.39
   1  -7  -2   19.12    2.21
  -1   7   2   18.18    4.23
  -1   7   2   17.00    3.27
  -1   7   2   23.30    3.12
  -1   7   2   22.41    2.61
   0  -7  -2  176.39   11.10
   0  -7  -2  164.18    7.61
   0  -7  -2  168.69    7.16
   0  -7  -2  173.30    7.59
   0  -7  -2  187.47    7.20
   0   7   2  178.80    8.43
   0   7   2  178.75    8.12
   0   7   2  156.92   10.34
   0   7   2  177.55    9.27
  -1  -7  -2    5.12    1.23
  -1  -7  -2   10.02    3.23
  -1  -7  -2    7.62    1.23
  -1  -7  -2    7.78    1.21
  -1  -7  -2    4.19    1.15
   1   7   2    4.93    1.28
   1   7   2    3.46    2.37
   1   7   2    4.61    1.47
  -2  -7  -2  188.50    7.58
  -2  -7  -2  195.30    7.95
  -2  -7  -2  186.98    7.87
  -2  -7  -2  178.46   10.83
  -2  -7  -2  188.37    7.59
   2   7   2  175.06    8.29
   2   7   2  185.90    8.36
   2   7   2  200.95   10.39
   2   7   2  185.85    9.40
  -3  -7  -2   11.86    1.61
  -3  -7  -2   14.71    1.54
  -3  -7  -2   16.62    1.61
  -3  -7  -2   16.15    1.71
  -3  -7  -2   14.42    2.79
   3   7   2   12.79    1.64
   3   7   2   18.22    2.92
   3   7   2    8.19    2.30
   3   7   2   10.64    1.63
  -4  -7  -2  102.72    4.95
  -4  -7  -2  106.09    5.15
  -4  -7  -2   96.97    4.72
  -4  -7  -2   97.58    4.86
  -4  -7  -2   96.14    4.50
  -4  -7  -2   98.17    6.08
  -4  -7  -2   96.27    4.51
   4   7   2   99.92    4.95
   4   7   2  105.02    6.02
   4   7   2   95.48    4.94
  -5  -7  -2   38.13    2.79
  -5  -7  -2   42.83    3.00
  -5  -7  -2   36.78    2.35
  -5  -7  -2   25.82    2.45
  -5  -7  -2   34.09    2.49
  -5  -7  -2   32.04    2.75
  -5  -7  -2   36.66    2.98
  -5  -7  -2   30.69    2.41
   5   7   2   36.41    2.78
   5   7   2   40.18    2.62
   5   7   2   36.47    3.44
   5   7   2   35.17    2.27
  -6  -7  -2   60.20    3.58
  -6  -7  -2   62.51    4.06
  -6  -7  -2   55.46    3.25
  -6  -7  -2   57.63    3.25
  -6  -7  -2   63.70    4.00
  -6  -7  -2   60.98    3.48
  -6  -7  -2   59.60    3.29
   6   7   2   56.22    3.50
   6   7   2   63.47    4.16
   6   7   2   59.03    3.25
   6   7   2   56.75    3.59
  -7  -7  -2   19.47    1.95
  -7  -7  -2   19.84    2.03
  -7  -7  -2   17.40    2.13
  -7  -7  -2   17.77    2.16
  -7  -7  -2   19.16    1.99
  -7  -7  -2   18.27    2.65
  -7  -7  -2   21.42    2.64
   7   7   2   16.99    2.16
   7   7   2   19.48    1.97
   7   7   2   22.87    2.17
  -8  -7  -2   10.18    1.62
  -8  -7  -2    9.01    2.07
  -8  -7  -2    9.33    1.67
  -8  -7  -2    7.64    1.72
  -8  -7  -2    7.28    2.20
  -8  -7  -2   10.90    1.91
  -8  -7  -2   12.09    1.74
   8   7   2    9.06    1.90
   8   7   2    7.27    1.44
  -9  -7  -2   76.03    4.99
  -9  -7  -2   59.31    5.62
  -9  -7  -2   68.68    4.59
  -9  -7  -2   89.44    4.55
  -9  -7  -2   77.65    4.76
   9   7   2   70.55    4.81
   9   7   2   74.23    4.15
   9   7   2   77.30    4.86
 -10  -7  -2   13.15    2.36
 -10  -7  -2    7.86    2.85
 -10  -7  -2   11.39    2.12
 -10  -7  -2    9.69    2.40
 -10  -7  -2   16.38    2.59
  10   7   2    8.88    2.31
  10   7   2   14.45    2.63
   2  -8  -2   -1.08    3.04
   2  -8  -2   -1.43    1.19
   2  -8  -2   -1.43    1.53
  -2   8   2    0.52    2.53
  -2   8   2    2.86    3.30
   1  -8  -2   82.87    4.85
   1  -8  -2   91.33    4.92
   1  -8  -2  101.25    8.00
  -1   8   2   72.08    5.01
  -1   8   2   83.09    6.72
  -1   8   2   76.47    7.65
   0  -8  -2    9.68    3.62
   0  -8  -2   11.21    1.79
   0  -8  -2    7.78    1.71
   0  -8  -2   13.63    1.66
   0  -8  -2   12.14    1.72
   0   8   2    5.81    3.07
   0   8   2   15.35    3.02
   0   8   2   11.57    2.06
   0   8   2   12.51    2.53
  -1  -8  -2   67.31    3.71
  -1  -8  -2   61.43    3.39
  -1  -8  -2   54.17    3.60
  -1  -8  -2   62.16    3.43
  -1  -8  -2   67.28    6.63
   1   8   2   52.26    3.69
   1   8   2   56.35    5.94
   1   8   2   66.04    5.21
   1   8   2   75.04    4.58
  -2  -8  -2    7.53    1.36
  -2  -8  -2    9.87    1.58
  -2  -8  -2    6.49    1.33
  -2  -8  -2    5.17    1.37
  -2  -8  -2    7.87    3.04
   2   8   2    7.07    1.50
   2   8   2    4.28    1.54
   2   8   2    8.74    2.83
  -3  -8  -2    0.46    0.83
  -3  -8  -2    0.41    1.04
  -3  -8  -2    1.68    1.05
  -3  -8  -2    3.30    1.10
  -3  -8  -2    0.94    2.14
   3   8   2    0.19    0.97
   3   8   2    1.88    1.24
   3   8   2   -1.17    2.09
  -4  -8  -2   30.10    2.35
  -4  -8  -2   30.26    2.62
  -4  -8  -2   28.22    2.33
  -4  -8  -2   31.58    2.61
  -4  -8  -2   32.87    3.80
   4   8   2   28.33    2.66
   4   8   2   27.29    2.55
   4   8   2   23.35    3.28
  -5  -8  -2    1.33    1.46
  -5  -8  -2    1.30    1.29
  -5  -8  -2    0.27    0.90
  -5  -8  -2   -0.28    1.01
  -5  -8  -2   -0.06    0.89
  -5  -8  -2    0.55    0.95
   5   8   2   -0.43    1.61
   5   8   2    0.91    0.92
   5   8   2    1.53    1.18
   5   8   2    0.82    1.05
  -6  -8  -2   16.70    2.18
  -6  -8  -2   10.56    1.58
  -6  -8  -2   11.74    2.13
  -6  -8  -2   13.94    1.85
  -6  -8  -2    9.64    1.54
  -6  -8  -2    9.55    1.59
  -6  -8  -2   14.15    1.88
   6   8   2   12.84    1.63
   6   8   2   14.74    2.00
   6   8   2   16.32    2.54
   6   8   2   12.71    1.88
  -7  -8  -2    3.47    1.43
  -7  -8  -2    1.88    1.64
  -7  -8  -2    3.37    1.68
  -7  -8  -2    5.61    1.47
  -7  -8  -2    5.11    1.30
  -7  -8  -2    2.72    1.26
  -7  -8  -2    4.52    1.37
   7   8   2    4.40    1.45
   7   8   2    3.61    1.27
   7   8   2    3.84    1.41
  -8  -8  -2   60.07    4.68
  -8  -8  -2   59.48    3.88
  -8  -8  -2   56.21    3.75
  -8  -8  -2   60.09    4.81
  -8  -8  -2   57.57    3.54
  -8  -8  -2   59.78    3.52
   8   8   2   51.65    3.26
   8   8   2   55.43    3.83
   8   8   2   44.32    3.81
  -9  -8  -2   17.63    3.07
  -9  -8  -2   12.11    2.36
  -9  -8  -2   16.23    2.42
  -9  -8  -2   19.05    2.36
  -9  -8  -2   22.18    3.10
   9   8   2   27.20    3.08
   9   8   2   21.71    2.32
 -10  -8  -2   24.36    2.72
 -10  -8  -2   19.31    3.08
 -10  -8  -2   19.16    3.52
  10   8   2   16.21    2.90
  10   8   2   18.25    2.98
   1  -9  -2    3.03    1.70
   1  -9  -2   -1.28    2.91
  -1   9   2   -2.64    2.22
  -1   9   2    7.36    3.88
   0  -9  -2   33.25    2.69
   0  -9  -2   25.84    2.58
   0  -9  -2   37.04    5.51
   0  -9  -2   31.68    3.07
   0  -9  -2   31.45    3.04
   0   9   2   27.86    5.08
   0   9   2   30.40    3.37
   0   9   2   35.63    4.13
  -1  -9  -2   63.11    6.79
  -1  -9  -2   53.20    3.36
  -1  -9  -2   53.40    3.59
  -1  -9  -2   58.45    3.49
  -1  -9  -2   60.14    3.85
   1   9   2   52.36    3.85
   1   9   2   48.41    6.06
   1   9   2   61.34    4.88
  -2  -9  -2   -0.62    0.99
  -2  -9  -2   -0.06    1.01
  -2  -9  -2    1.38    1.15
  -2  -9  -2   -0.18    1.14
  -2  -9  -2   -3.73    2.24
   2   9   2    2.19    1.74
   2   9   2   -0.27    1.25
   2   9   2   -0.81    2.49
  -3  -9  -2   96.68    4.68
  -3  -9  -2   79.42    4.42
  -3  -9  -2   95.49    4.89
  -3  -9  -2   97.54    4.99
  -3  -9  -2  103.44    7.50
   3   9   2   81.03    4.94
   3   9   2   98.97    6.76
   3   9   2   89.07    5.31
  -4  -9  -2    6.36    1.36
  -4  -9  -2    7.13    2.54
  -4  -9  -2    5.09    1.38
  -4  -9  -2    7.89    1.57
  -4  -9  -2    5.42    1.56
   4   9   2    8.52    1.76
   4   9   2    6.10    1.60
   4   9   2    6.85    2.68
  -5  -9  -2   62.14    4.72
  -5  -9  -2   56.56    3.82
  -5  -9  -2   60.05    3.46
  -5  -9  -2   56.13    3.54
  -5  -9  -2   59.90    3.46
   5   9   2   53.54    3.74
   5   9   2   57.15    3.38
   5   9   2   58.00    5.11
   5   9   2   54.97    3.75
  -6  -9  -2    6.25    1.86
  -6  -9  -2    1.72    1.30
  -6  -9  -2    1.31    1.07
  -6  -9  -2    0.83    1.16
  -6  -9  -2    2.40    1.16
   6   9   2    0.08    1.68
   6   9   2    1.11    1.02
   6   9   2   -0.43    1.11
   6   9   2    0.77    1.24
  -7  -9  -2   62.86    3.56
  -7  -9  -2   61.64    3.97
  -7  -9  -2   52.58    3.59
  -7  -9  -2   64.75    4.86
  -7  -9  -2   61.74    3.81
   7   9   2   63.98    3.66
   7   9   2   56.21    3.98
   7   9   2   62.22    4.00
  -8  -9  -2    1.42    1.34
  -8  -9  -2   -0.01    1.75
  -8  -9  -2   -1.12    1.28
  -8  -9  -2   -1.17    1.25
  -8  -9  -2   -0.37    1.19
  -8  -9  -2    1.04    1.15
   8   9   2   -1.36    1.27
   8   9   2    2.76    1.44
   8   9   2   -0.17    1.13
   8   9   2   -0.22    1.37
  -9  -9  -2   29.84    3.68
  -9  -9  -2   26.66    3.07
  -9  -9  -2   28.90    2.82
  -9  -9  -2   26.36    3.54
  -9  -9  -2   28.90    3.16
   9   9   2   26.32    2.64
   9   9   2   23.20    2.91
   9   9   2   28.13    3.18
 -10  -9  -2   21.45    3.65
 -10  -9  -2   31.89    3.58
 -10  -9  -2   28.42    3.74
  -1 -10  -2    3.87    1.44
  -1 -10  -2    3.07    3.12
  -1 -10  -2    4.56    1.65
  -1 -10  -2    8.68    1.82
   1  10   2    6.02    3.23
   1  10   2    7.41    2.59
  -2 -10  -2   32.47    3.12
  -2 -10  -2   35.04    5.35
  -2 -10  -2   35.85    3.01
  -2 -10  -2   34.96    3.01
   2  10   2   39.33    5.33
   2  10   2   37.89    3.96
   2  10   2   35.47    3.48
  -3 -10  -2    0.58    1.19
  -3 -10  -2    0.63    1.37
  -3 -10  -2    0.08    2.56
  -3 -10  -2   -1.24    0.99
  -3 -10  -2   -0.36    1.14
   3  10   2   -1.19    1.31
   3  10   2   -0.08    1.63
   3  10   2    1.26    2.61
  -4 -10  -2    6.87    1.55
  -4 -10  -2    8.17    1.89
  -4 -10  -2    8.16    1.69
  -4 -10  -2    5.21    1.42
  -4 -10  -2    6.78    2.64
   4  10   2    4.29    2.76
   4  10   2    6.63    1.99
   4  10   2    6.63    1.80
  -5 -10  -2    3.87    2.12
  -5 -10  -2    1.90    1.59
  -5 -10  -2    3.09    1.27
  -5 -10  -2    2.81    1.23
  -5 -10  -2    4.29    1.57
   5  10   2    2.86    1.60
   5  10   2    3.21    1.26
   5  10   2    4.51    1.57
   5  10   2    4.06    2.54
  -6 -10  -2    6.99    1.51
  -6 -10  -2    3.89    1.35
  -6 -10  -2    8.40    2.11
  -6 -10  -2    6.13    1.69
   6  10   2    0.79    2.09
   6  10   2    6.40    1.92
   6  10   2    6.94    1.51
   6  10   2    5.17    1.70
  -7 -10  -2    0.84    1.17
  -7 -10  -2    1.49    1.29
  -7 -10  -2   -0.98    1.16
  -7 -10  -2    1.46    1.42
  -7 -10  -2    0.54    1.89
   7  10   2    3.17    1.51
   7  10   2    1.95    1.62
   7  10   2    2.67    1.37
  -8 -10  -2    1.04    1.52
  -8 -10  -2   -0.31    1.20
  -8 -10  -2    2.97    1.53
  -8 -10  -2   -0.86    1.86
  -8 -10  -2   -1.25    1.28
   8  10   2    0.33    1.29
   8  10   2    0.36    1.51
   8  10   2   -1.67    1.25
  -9 -10  -2   31.34    3.28
  -9 -10  -2   32.37    3.96
  -9 -10  -2   28.42    2.88
  -9 -10  -2   28.69    3.14
   9  10   2   24.61    2.78
   9  10   2   26.00    3.07
  -3 -11  -2    2.94    1.47
  -3 -11  -2    3.70    1.61
  -3 -11  -2    7.35    3.21
  -3 -11  -2    4.89    1.65
   3  11   2    2.70    2.10
   3  11   2   -2.70    2.86
  -4 -11  -2   34.78    3.17
  -4 -11  -2   45.05    3.70
  -4 -11  -2   31.56    4.72
  -4 -11  -2   40.26    3.34
   4  11   2   41.98    5.20
   4  11   2   32.78    3.67
  -5 -11  -2    5.75    1.85
  -5 -11  -2    5.34    1.62
  -5 -11  -2    4.02    2.32
  -5 -11  -2    7.18    1.71
   5  11   2    6.23    2.97
   5  11   2    2.99    1.34
   5  11   2    4.73    1.90
  -6 -11  -2   22.18    2.53
  -6 -11  -2   21.75    2.76
  -6 -11  -2   26.56    2.73
   6  11   2   22.02    2.99
   6  11   2   30.58    4.43
   6  11   2   26.03    2.66
  -7 -11  -2    0.45    2.09
  -7 -11  -2    2.57    1.60
  -7 -11  -2    1.33    1.48
  -7 -11  -2    3.24    1.47
   7  11   2    0.18    1.66
   7  11   2    2.80    1.47
   5  11  -3    1.64    1.65
   5  11  -3   -2.16    2.59
  -5 -11   3    2.13    1.77
  -5 -11   3    3.10    2.56
  -5 -11   3    3.62    1.55
   4  11  -3    8.16    2.00
   4  11  -3    9.19    3.52
  -4 -11   3   11.83    2.01
  -4 -11   3    8.56    3.21
  -4 -11   3    8.68    2.22
  -4 -11   3    9.98    1.96
   3  11  -3    2.85    2.93
   3  11  -3   -0.20    1.59
   3  11  -3   -1.41    2.95
  -3 -11   3   -1.94    1.52
  -3 -11   3    1.32    1.33
  -3 -11   3    0.28    2.56
  -3 -11   3   -0.09    1.26
   7  10  -3    5.67    2.91
   7  10  -3    6.79    1.85
  -7 -10   3    1.62    3.18
  -7 -10   3    7.76    1.95
  -7 -10   3    9.07    2.41
   6  10  -3    1.15    1.41
   6  10  -3   -0.21    2.53
  -6 -10   3   -1.22    1.07
  -6 -10   3    2.37    3.22
  -6 -10   3    0.49    1.76
  -6 -10   3   -1.03    1.41
   5  10  -3   -1.73    1.06
   5  10  -3   -0.07    1.32
   5  10  -3    0.61    2.59
   5  10  -3   -1.98    1.75
  -5 -10   3    1.01    2.02
  -5 -10   3   -0.14    1.15
  -5 -10   3   -0.69    1.40
   4  10  -3   -0.58    1.20
   4  10  -3   -1.71    2.36
   4  10  -3   -0.89    2.10
   4  10  -3    1.14    1.31
  -4 -10   3    0.37    2.14
  -4 -10   3    1.93    1.28
  -4 -10   3    2.77    1.54
  -4 -10   3    2.39    1.40
   3  10  -3   -5.51    2.04
   3  10  -3    0.03    1.32
   3  10  -3    0.91    2.43
   3  10  -3    1.93    1.53
  -3 -10   3    1.37    1.15
  -3 -10   3   -0.18    1.14
  -3 -10   3    2.77    2.59
  -3 -10   3   -0.11    1.49
   2  10  -3    1.08    2.70
   2  10  -3   -0.66    1.36
   2  10  -3    0.75    1.50
   2  10  -3    1.83    2.86
  -2 -10   3   -0.30    1.13
  -2 -10   3   -0.21    1.43
  -2 -10   3   -0.02    1.21
  -2 -10   3    1.44    2.63
   1  10  -3   28.55    4.63
   1  10  -3   28.89    3.27
   1  10  -3   22.62    4.40
   1  10  -3   24.10    2.96
  -1 -10   3   23.60    2.52
  -1 -10   3   24.77    4.34
  -1 -10   3   23.30    3.16
  -1 -10   3   26.99    2.82
   0  10  -3    9.73    3.55
   0  10  -3   10.31    2.44
   0  10  -3    7.30    3.44
   0 -10   3   12.26    3.48
   0 -10   3    7.29    1.78
   0 -10   3    3.47    2.15
   0 -10   3   17.03    2.43
   7   9  -3   37.76    3.21
   7   9  -3   37.92    4.76
  -7  -9   3   32.89    3.55
  -7  -9   3   30.00    4.63
  -7  -9   3   36.74    3.26
   6   9  -3    1.60    1.26
   6   9  -3    1.39    1.60
   6   9  -3   -2.27    2.08
  -6  -9   3    0.89    2.82
  -6  -9   3    0.23    1.30
  -6  -9   3    0.87    1.54
  -6  -9   3    0.19    1.03
  -6  -9   3   -0.47    1.47
   5   9  -3   41.33    3.50
   5   9  -3   43.67    3.89
   5   9  -3   46.05    5.17
   5   9  -3   50.77    3.36
  -5  -9   3   54.61    5.94
  -5  -9   3   47.57    3.10
  -5  -9   3   51.48    3.05
  -5  -9   3   40.94    4.30
  -5  -9   3   43.11    3.56
   4   9  -3    0.80    2.40
   4   9  -3   -1.64    1.51
   4   9  -3    0.49    1.20
  -4  -9   3    1.06    2.85
  -4  -9   3    1.49    1.88
  -4  -9   3    1.48    0.98
  -4  -9   3    0.73    1.22
  -4  -9   3   -0.11    1.02
   3   9  -3   26.97    2.63
   3   9  -3   20.69    3.99
   3   9  -3   25.50    3.27
  -3  -9   3   25.27    2.72
  -3  -9   3   25.43    3.96
  -3  -9   3   29.20    2.47
  -3  -9   3   22.16    2.27
   2   9  -3    4.50    2.45
   2   9  -3    3.08    1.46
   2   9  -3    3.45    1.51
   2   9  -3    5.73    2.90
  -2  -9   3    2.57    1.54
  -2  -9   3   -0.59    2.19
  -2  -9   3    3.05    1.17
  -2  -9   3    3.75    1.23
   1   9  -3   34.54    4.81
   1   9  -3   38.80    3.31
   1   9  -3   36.27    3.43
   1   9  -3   40.07    4.96
  -1  -9   3   45.38    3.87
  -1  -9   3   38.34    5.08
  -1  -9   3   33.66    2.86
  -1  -9   3   39.14    3.10
   0   9  -3    4.05    1.75
   0   9  -3    6.03    1.93
   0   9  -3    2.61    2.74
   0   9  -3   11.30    3.53
   0  -9   3    6.31    2.91
   0  -9   3    6.71    1.59
   0  -9   3    8.23    1.74
   0  -9   3    1.95    1.76
  -1   9  -3   -0.30    2.71
  -1   9  -3   -1.16    1.52
  -1   9  -3   -0.99    2.51
   1  -9   3    2.50    1.57
   1  -9   3    0.28    2.37
   1  -9   3   -3.19    1.50
   1  -9   3    1.01    1.32
  -2   9  -3   14.70    3.67
  -2   9  -3   11.41    3.59
   2  -9   3   13.33    2.18
   2  -9   3   12.42    2.34
   2  -9   3   17.37    3.69
   8   8  -3   44.86    3.91
   8   8  -3   41.68    3.68
   8   8  -3   44.35    3.88
   8   8  -3   40.41    3.63
  -8  -8   3   51.27    4.46
  -8  -8   3   41.79    3.74
  -8  -8   3   55.35    4.38
  -8  -8   3   43.57    3.78
  -8  -8   3   41.44    3.74
   7   8  -3   26.20    2.86
   7   8  -3   30.33    3.02
   7   8  -3   30.17    2.88
   7   8  -3   27.03    3.83
   7   8  -3   29.09    2.81
  -7  -8   3   26.79    2.84
  -7  -8   3   30.39    2.92
  -7  -8   3   30.81    3.17
  -7  -8   3   26.98    2.77
  -7  -8   3   31.26    4.21
  -7  -8   3   29.17    2.56
   6   8  -3   31.94    3.98
   6   8  -3   25.00    2.59
   6   8  -3   30.34    2.95
   6   8  -3   20.93    2.40
  -6  -8   3   27.26    3.07
  -6  -8   3   32.83    4.37
  -6  -8   3   24.71    2.51
  -6  -8   3   26.19    2.52
  -6  -8   3   26.45    2.54
  -6  -8   3   27.78    2.93
  -6  -8   3   24.30    2.20
  -6  -8   3   29.09    2.38
   5   8  -3    3.95    1.32
   5   8  -3    3.02    1.16
   5   8  -3    5.68    2.62
   5   8  -3    5.08    1.58
  -5  -8   3    6.84    1.93
  -5  -8   3    5.01    1.16
  -5  -8   3    3.56    1.24
  -5  -8   3    5.75    2.77
  -5  -8   3    3.71    1.28
  -5  -8   3    4.67    1.61
  -5  -8   3    4.00    1.15
  -5  -8   3    6.13    1.27
  -5  -8   3    5.47    1.25
   4   8  -3    3.93    2.47
   4   8  -3    0.47    1.12
   4   8  -3    1.85    1.47
  -4  -8   3    2.81    1.06
  -4  -8   3    1.01    1.20
  -4  -8   3    2.80    1.11
  -4  -8   3    0.98    1.61
  -4  -8   3    1.91    1.01
  -4  -8   3    2.17    2.63
  -4  -8   3    0.69    0.83
   3   8  -3    5.90    1.41
   3   8  -3   10.17    2.08
   3   8  -3    9.13    2.93
  -3  -8   3    5.67    2.41
  -3  -8   3    6.67    1.32
  -3  -8   3    4.38    1.16
  -3  -8   3   11.54    3.20
  -3  -8   3    8.11    1.57
  -3  -8   3    8.03    1.38
   2   8  -3    0.86    1.78
   2   8  -3    3.37    1.26
   2   8  -3   -1.08    2.17
  -2  -8   3    0.70    2.19
  -2  -8   3    1.07    1.00
  -2  -8   3   -0.34    1.11
  -2  -8   3    0.81    0.97
   1   8  -3   -1.86    2.27
   1   8  -3    3.26    2.38
   1   8  -3    0.85    1.25
  -1  -8   3   -0.67    2.24
  -1  -8   3    1.90    1.02
  -1  -8   3    1.58    1.08
  -1  -8   3    0.42    1.38
   0   8  -3   18.80    2.40
   0   8  -3   27.20    2.72
   0   8  -3   24.18    4.01
   0   8  -3   31.84    4.38
   0  -8   3   22.59    3.99
   0  -8   3   25.83    2.80
   0  -8   3   23.59    2.28
   0  -8   3   23.00    2.32
  -1   8  -3   18.21    2.51
  -1   8  -3   15.11    3.58
  -1   8  -3   21.03    3.57
  -1   8  -3   17.19    2.42
   1  -8   3   15.39    1.95
   1  -8   3   18.82    2.69
   1  -8   3   16.38    2.08
   1  -8   3   17.04    3.52
  -2   8  -3   68.44    4.62
  -2   8  -3   64.42    4.71
  -2   8  -3   69.56    6.55
  -2   8  -3   86.41    6.25
   2  -8   3   67.19    4.29
   2  -8   3   65.50    4.66
   2  -8   3   66.49    6.28
   2  -8   3   64.57    3.97
  -3   8  -3    1.31    2.72
  -3   8  -3    0.76    2.73
   3  -8   3    3.75    1.54
   3  -8   3    0.24    2.26
   3  -8   3    3.44    1.72
   9   7  -3   78.49    5.39
   9   7  -3   72.00    5.27
  -9  -7   3   82.05    5.41
  -9  -7   3   92.54    5.82
  -9  -7   3   88.01    5.81
  -9  -7   3   89.31    5.70
   8   7  -3    3.39    1.68
   8   7  -3    5.20    1.71
   8   7  -3    2.73    1.55
   8   7  -3    3.92    1.95
  -8  -7   3    3.29    1.81
  -8  -7   3    5.05    1.89
  -8  -7   3    2.17    1.63
  -8  -7   3    5.45    1.80
   7   7  -3   28.27    3.04
   7   7  -3   30.82    3.05
   7   7  -3   28.34    2.81
   7   7  -3   32.52    2.95
  -7  -7   3   34.02    3.03
  -7  -7   3   29.76    3.27
  -7  -7   3   32.45    3.91
  -7  -7   3   32.13    2.69
  -7  -7   3   33.57    3.09
  -7  -7   3   31.79    2.99
  -7  -7   3   31.96    3.29
  -7  -7   3   41.53    3.52
   6   7  -3   24.96    2.43
   6   7  -3   26.23    2.04
   6   7  -3   28.72    2.66
   6   7  -3   27.10    2.65
   6   7  -3   21.64    2.49
   6   7  -3   25.38    2.37
  -6  -7   3   28.30    2.89
  -6  -7   3   24.26    2.38
  -6  -7   3   25.20    2.35
  -6  -7   3   23.64    2.40
  -6  -7   3   27.84    2.86
  -6  -7   3   22.97    2.39
  -6  -7   3   27.92    3.64
  -6  -7   3   22.77    2.15
  -6  -7   3   27.32    2.75
  -6  -7   3   24.09    2.73
   5   7  -3    1.86    1.24
   5   7  -3    0.22    1.69
   5   7  -3    1.12    1.27
   5   7  -3    0.54    1.01
   5   7  -3    1.53    0.95
   5   7  -3    0.64    0.94
  -5  -7   3    1.96    1.11
  -5  -7   3    0.33    0.94
  -5  -7   3    1.81    0.96
  -5  -7   3    1.39    0.97
  -5  -7   3    1.01    0.86
  -5  -7   3    0.70    1.36
  -5  -7   3    3.18    1.46
  -5  -7   3    3.60    2.13
  -5  -7   3    1.43    1.03
  -5  -7   3    2.22    1.29
  -5  -7   3    1.52    1.05
   4   7  -3   28.73    3.80
   4   7  -3   35.36    2.36
   4   7  -3   30.86    2.81
   4   7  -3   31.27    2.34
  -4  -7   3   35.80    2.22
  -4  -7   3   29.65    3.24
  -4  -7   3   32.69    2.71
  -4  -7   3   30.57    2.83
  -4  -7   3   31.24    2.34
  -4  -7   3   30.44    3.98
  -4  -7   3   35.34    2.18
  -4  -7   3   32.79    2.25
  -4  -7   3   35.92    2.43
   3   7  -3   -0.25    0.89
   3   7  -3    0.24    1.16
   3   7  -3   -0.73    2.04
   3   7  -3    0.31    0.88
  -3  -7   3    0.14    0.79
  -3  -7   3   -2.65    1.97
  -3  -7   3   -0.32    0.78
  -3  -7   3    0.00    0.66
  -3  -7   3   -0.59    0.97
  -3  -7   3    0.69    0.82
  -3  -7   3   -0.19    0.76
  -3  -7   3   -1.53    1.44
   2   7  -3   24.35    2.63
   2   7  -3   23.12    2.02
   2   7  -3   27.65    3.89
   2   7  -3   21.00    2.03
  -2  -7   3   23.42    1.77
  -2  -7   3   23.02    1.97
  -2  -7   3   20.13    3.73
  -2  -7   3   21.49    3.36
  -2  -7   3   24.51    2.00
  -2  -7   3   25.45    2.00
  -2  -7   3   21.74    2.27
   1   7  -3    3.02    2.20
   1   7  -3    5.29    1.30
   1   7  -3    5.89    1.88
  -1  -7   3    4.40    1.09
  -1  -7   3   -0.93    1.85
  -1  -7   3    3.73    1.01
  -1  -7   3    1.75    1.20
  -1  -7   3    4.46    1.04
  -1  -7   3    5.11    0.98
   0   7  -3  111.50    7.22
   0   7  -3  108.95    6.93
   0   7  -3  103.64    5.38
   0  -7   3  108.62    4.89
   0  -7   3  114.17    5.11
   0  -7   3  115.38    7.47
   0  -7   3   97.29    4.83
   0  -7   3  106.09    5.30
   0  -7   3  104.78    5.51
  -1   7  -3   21.36    3.49
  -1   7  -3   17.14    2.26
  -1   7  -3   15.11    3.49
   1  -7   3   18.06    1.91
   1  -7   3   18.27    2.33
   1  -7   3   16.69    2.00
   1  -7   3   21.39    3.57
   1  -7   3   15.56    1.87
  -2   7  -3    3.97    2.44
  -2   7  -3    2.76    1.49
  -2   7  -3   -1.55    2.25
  -2   7  -3    1.98    1.48
   2  -7   3    6.20    2.38
   2  -7   3    1.81    1.40
   2  -7   3   -0.13    1.05
   2  -7   3    1.64    1.29
  -3   7  -3    3.41    2.73
  -3   7  -3    4.97    2.62
  -3   7  -3    5.06    1.90
   3  -7   3    4.65    1.45
   3  -7   3    3.62    1.58
   3  -7   3    3.46    2.39
  -4   7  -3   20.22    3.79
  -4   7  -3   21.97    3.82
   4  -7   3   19.16    3.54
   4  -7   3   19.92    2.73
   4  -7   3   24.76    2.56
   9   6  -3    0.44    1.59
   9   6  -3    0.64    2.08
  -9  -6   3    0.42    1.76
  -9  -6   3   -0.65    1.58
  -9  -6   3    0.98    1.67
  -9  -6   3    0.43    1.76
   8   6  -3   -0.55    1.26
   8   6  -3   -0.98    1.61
   8   6  -3   -0.63    1.29
  -8  -6   3   -2.13    1.48
  -8  -6   3    1.47    1.66
  -8  -6   3    2.89    1.59
  -8  -6   3    2.28    1.44
   7   6  -3   33.02    2.99
   7   6  -3   33.54    3.12
   7   6  -3   35.84    3.20
  -7  -6   3   32.43    3.17
  -7  -6   3   30.82    2.77
  -7  -6   3   29.67    3.50
  -7  -6   3   30.28    3.00
  -7  -6   3   29.50    2.93
  -7  -6   3   34.23    3.26
  -7  -6   3   35.15    3.11
   6   6  -3   30.55    2.68
   6   6  -3   29.29    2.80
   6   6  -3   32.05    2.75
   6   6  -3   32.21    2.66
   6   6  -3   33.32    2.90
  -6  -6   3   33.74    3.64
  -6  -6   3   35.87    2.89
  -6  -6   3   31.60    2.72
  -6  -6   3   31.84    2.46
  -6  -6   3   31.71    2.92
  -6  -6   3   29.23    2.88
  -6  -6   3   33.35    3.00
  -6  -6   3   34.72    2.34
  -6  -6   3   30.45    2.70
   5   6  -3   21.97    1.95
   5   6  -3   28.10    2.10
   5   6  -3   20.60    2.03
   5   6  -3   25.53    2.36
   5   6  -3   23.85    2.21
   5   6  -3   23.22    2.26
  -5  -6   3   24.30    1.80
  -5  -6   3   23.00    2.56
  -5  -6   3   25.40    2.18
  -5  -6   3   21.52    2.33
  -5  -6   3   27.85    3.24
  -5  -6   3   24.47    2.40
  -5  -6   3   19.85    2.02
  -5  -6   3   22.12    2.00
  -5  -6   3   21.23    1.74
  -5  -6   3   23.06    2.37
  -5  -6   3   26.39    2.29
  -5  -6   3   22.16    2.17
  -5  -6   3   22.35    1.92
  -5  -6   3   22.21    1.96
   4   6  -3   12.79    1.45
   4   6  -3   11.48    1.57
   4   6  -3   13.34    1.57
   4   6  -3   12.19    1.70
   4   6  -3   14.01    1.49
  -4  -6   3   14.69    2.63
  -4  -6   3    9.93    1.56
  -4  -6   3   10.30    1.33
  -4  -6   3   11.44    1.72
  -4  -6   3   13.43    1.41
  -4  -6   3   15.37    2.14
  -4  -6   3   15.29    1.52
  -4  -6   3   15.14    1.52
  -4  -6   3   14.44    1.68
  -4  -6   3   11.86    1.47
  -4  -6   3   11.59    1.49
  -4  -6   3   12.81    1.67
  -4  -6   3   10.47    1.19
   3   6  -3    2.75    0.89
   3   6  -3    4.45    1.07
   3   6  -3    2.05    1.05
   3   6  -3    0.09    1.62
   3   6  -3    1.22    0.75
  -3  -6   3    2.37    0.77
  -3  -6   3    0.90    1.11
  -3  -6   3    1.38    0.93
  -3  -6   3    5.55    2.09
  -3  -6   3    2.17    0.79
  -3  -6   3    0.28    0.76
  -3  -6   3    2.12    0.88
  -3  -6   3    3.29    1.55
  -3  -6   3    4.39    1.15
  -3  -6   3    3.39    1.06
  -3  -6   3    2.10    0.83
   2   6  -3   41.00    2.45
   2   6  -3   41.78    2.83
   2   6  -3   34.46    3.93
   2   6  -3   37.88    2.36
  -2  -6   3   33.10    4.00
  -2  -6   3   32.83    2.17
  -2  -6   3   39.40    3.84
  -2  -6   3   38.21    2.20
  -2  -6   3   39.13    2.27
  -2  -6   3   37.64    2.24
  -2  -6   3   36.04    2.53
  -2  -6   3   36.20    2.34
   1   6  -3   18.69    2.30
   1   6  -3   22.48    3.26
   1   6  -3   18.25    1.82
   1   6  -3   19.52    1.79
  -1  -6   3   21.87    1.81
  -1  -6   3   17.28    2.84
  -1  -6   3   22.22    1.74
  -1  -6   3   18.89    1.68
  -1  -6   3   21.86    2.10
  -1  -6   3   20.63    1.60
  -1  -6   3   18.67    3.29
   0   6  -3   15.28    1.77
   0   6  -3   18.19    2.16
   0   6  -3   17.49    3.04
   0   6  -3   20.25    2.85
   0  -6   3   18.95    2.09
   0  -6   3   16.21    1.59
   0  -6   3   19.26    1.77
   0  -6   3   17.64    1.55
   0  -6   3   16.29    3.03
   0  -6   3   18.11    1.72
  -1   6  -3   22.08    2.83
  -1   6  -3   22.40    3.39
  -1   6  -3   19.57    2.22
  -1   6  -3   22.82    3.50
   1  -6   3   18.85    2.00
   1  -6   3   21.01    2.28
   1  -6   3   18.46    1.86
   1  -6   3   22.78    3.40
   1  -6   3   18.09    1.75
  -2   6  -3   15.18    3.23
  -2   6  -3   16.56    2.20
  -2   6  -3   20.66    2.73
  -2   6  -3   11.73    2.79
   2  -6   3   17.38    2.17
   2  -6   3   14.17    2.13
   2  -6   3   18.02    2.07
   2  -6   3   16.82    3.08
   2  -6   3   17.60    1.84
  -3   6  -3  134.79    7.75
  -3   6  -3  104.99    7.29
  -3   6  -3  108.42    6.09
   3  -6   3  107.75    5.53
   3  -6   3  109.55    5.27
   3  -6   3  118.26    6.42
   3  -6   3  100.68    7.15
  -4   6  -3    9.97    2.33
  -4   6  -3   10.94    3.06
  -4   6  -3   10.82    3.07
   4  -6   3   12.05    1.81
   4  -6   3    7.16    2.24
   4  -6   3    7.88    2.68
   4  -6   3   11.11    2.05
  -5   6  -3   25.00    3.77
   5  -6   3   25.63    3.01
   5  -6   3   24.44    3.70
   9   5  -3   -1.92    1.93
   9   5  -3    1.36    1.85
  -9  -5   3   -0.89    1.62
  -9  -5   3   -0.52    1.81
  -9  -5   3    1.03    1.69
  -9  -5   3    0.51    1.88
   8   5  -3   81.93    5.04
   8   5  -3   80.75    5.19
   8   5  -3   86.51    5.27
  -8  -5   3   75.05    5.01
  -8  -5   3   88.21    5.42
  -8  -5   3   77.04    5.08
  -8  -5   3   83.69    5.09
   7   5  -3    6.16    1.82
   7   5  -3    6.49    1.71
   7   5  -3    8.04    1.67
  -7  -5   3    8.78    1.80
  -7  -5   3    9.03    1.83
  -7  -5   3    6.55    1.71
  -7  -5   3    8.11    1.66
  -7  -5   3    9.49    1.88
   6   5  -3   62.43    3.89
   6   5  -3   61.58    3.74
   6   5  -3   64.27    3.85
   6   5  -3   67.66    3.92
  -6  -5   3   66.49    3.94
  -6  -5   3   63.05    3.86
  -6  -5   3   65.22    3.91
  -6  -5   3   58.91    4.47
  -6  -5   3   56.19    3.79
  -6  -5   3   73.22    3.67
  -6  -5   3   67.70    4.13
  -6  -5   3   64.13    3.18
   5   5  -3    9.94    1.28
   5   5  -3    8.75    1.43
   5   5  -3   10.93    1.64
   5   5  -3   12.21    1.65
   5   5  -3   10.55    1.07
   5   5  -3    8.18    1.36
  -5  -5   3   10.75    1.33
  -5  -5   3    9.26    1.57
  -5  -5   3    7.64    1.35
  -5  -5   3   11.95    1.65
  -5  -5   3    9.97    1.47
  -5  -5   3    8.81    1.20
  -5  -5   3    9.47    1.47
  -5  -5   3    8.17    1.37
  -5  -5   3    5.83    1.11
  -5  -5   3   11.57    2.11
  -5  -5   3   10.19    1.14
  -5  -5   3    9.19    1.06
  -5  -5   3    7.54    1.51
   4   5  -3   11.49    1.41
   4   5  -3    9.91    1.18
   4   5  -3   12.95    1.59
   4   5  -3   10.34    1.43
  -4  -5   3   10.84    1.36
  -4  -5   3    9.35    1.23
  -4  -5   3    9.99    2.03
  -4  -5   3    9.94    1.09
  -4  -5   3   12.13    1.40
  -4  -5   3    8.73    1.64
  -4  -5   3   10.74    1.48
  -4  -5   3    9.70    1.23
  -4  -5   3    9.38    1.06
  -4  -5   3    9.97    1.53
  -4  -5   3   13.52    1.44
  -4  -5   3   14.37    1.32
  -4  -5   3   14.25    1.52
  -4  -5   3   13.07    1.52
   3   5  -3    8.54    1.13
   3   5  -3    9.44    1.12
   3   5  -3   10.38    1.28
   3   5  -3   11.34    1.31
   3   5  -3   10.17    1.44
  -3  -5   3   10.13    1.17
  -3  -5   3    8.55    1.22
  -3  -5   3   11.15    2.06
  -3  -5   3   11.89    1.34
  -3  -5   3    6.35    1.14
  -3  -5   3   10.27    1.35
  -3  -5   3   10.96    1.40
  -3  -5   3   12.80    1.19
  -3  -5   3   11.33    1.81
  -3  -5   3    7.79    1.06
  -3  -5   3   10.24    1.46
  -3  -5   3   12.58    1.19
   2   5  -3   13.54    1.63
   2   5  -3   14.73    1.16
   2   5  -3   15.39    1.43
   2   5  -3   14.60    1.39
  -2  -5   3   13.25    1.31
  -2  -5   3   15.36    1.26
  -2  -5   3   13.98    2.06
  -2  -5   3   16.06    1.35
  -2  -5   3   14.43    1.55
  -2  -5   3   14.53    1.38
  -2  -5   3   14.99    2.43
  -2  -5   3   15.30    1.32
  -2  -5   3   16.35    1.75
  -2  -5   3   15.37    1.47
   1   5  -3   20.79    2.06
   1   5  -3   19.11    1.64
   1   5  -3   17.85    2.67
   1   5  -3   20.96    1.67
   1   5  -3   20.38    1.15
  -1  -5   3   17.76    1.49
  -1  -5   3   17.47    2.71
  -1  -5   3   20.12    1.50
  -1  -5   3   15.26    1.38
  -1  -5   3   21.51    1.92
  -1  -5   3   20.37    1.49
  -1  -5   3   20.37    1.66
  -1  -5   3   18.95    2.53
   0   5  -3   29.45    3.57
   0   5  -3   27.80    2.25
   0   5  -3   34.20    2.25
   0   5  -3   32.82    2.88
   0  -5   3   34.64    1.99
   0  -5   3   26.96    3.64
   0  -5   3   31.46    1.77
   0  -5   3   26.87    3.37
   0  -5   3   27.70    2.28
   0  -5   3   32.01    1.94
   0  -5   3   32.99    2.03
   0  -5   3   31.30    2.11
  -1   5  -3  189.93    8.19
  -1   5  -3  180.85    8.81
  -1   5  -3  166.89    9.28
  -1   5  -3  204.08    9.90
   1  -5   3  182.88    7.33
   1  -5   3  183.06    7.57
   1  -5   3  185.04    8.02
   1  -5   3  181.46    7.11
   1  -5   3  186.54   10.08
   1  -5   3  180.99    8.39
  -2   5  -3  130.16    7.35
  -2   5  -3  111.76    5.84
  -2   5  -3  135.53    6.76
  -2   5  -3  116.72    7.36
   2  -5   3  109.70    5.34
   2  -5   3  121.37    7.38
   2  -5   3  114.33    5.16
   2  -5   3  120.67    5.68
   2  -5   3  111.85    6.10
  -3   5  -3   27.29    3.14
  -3   5  -3   22.75    2.59
  -3   5  -3   24.66    3.54
  -3   5  -3   31.46    3.95
   3  -5   3   30.27    3.62
   3  -5   3   27.00    2.52
   3  -5   3   24.94    2.42
   3  -5   3   25.02    2.98
   3  -5   3   25.60    2.22
  -4   5  -3    2.16    1.52
  -4   5  -3    1.72    2.17
  -4   5  -3   -1.17    1.96
  -4   5  -3   -0.02    1.59
   4  -5   3    2.77    1.15
   4  -5   3    0.76    1.31
   4  -5   3    1.13    1.92
   4  -5   3   -0.12    1.69
  -5   5  -3    4.51    2.52
  -5   5  -3    6.60    2.12
  -5   5  -3    8.32    2.33
   5  -5   3    3.84    1.37
   5  -5   3    8.87    2.61
   5  -5   3    4.15    2.20
   5  -5   3    9.61    2.02
  -6   5  -3    3.16    2.35
   6  -5   3    4.78    2.48
   6  -5   3    8.06    2.06
   9   4  -3   49.91    4.50
   9   4  -3   43.99    4.32
  -9  -4   3   49.91    4.64
  -9  -4   3   44.80    4.12
  -9  -4   3   43.77    4.28
  -9  -4   3   39.05    4.26
   8   4  -3   14.46    2.40
   8   4  -3   15.02    2.62
   8   4  -3   11.95    2.27
  -8  -4   3   10.16    2.20
  -8  -4   3   11.37    2.36
  -8  -4   3   16.32    2.71
  -8  -4   3   14.05    2.31
   7   4  -3    1.99    1.65
   7   4  -3    7.56    1.75
   7   4  -3    4.40    1.49
  -7  -4   3    6.46    1.55
  -7  -4   3    6.17    1.71
  -7  -4   3    4.75    1.50
  -7  -4   3    3.52    1.46
   6   4  -3   13.80    1.96
   6   4  -3    9.96    1.69
   6   4  -3   10.11    1.75
   6   4  -3   12.08    1.76
  -6  -4   3   10.69    1.81
  -6  -4   3   10.36    1.76
  -6  -4   3   14.28    1.90
  -6  -4   3   11.29    1.72
  -6  -4   3   13.06    2.22
  -6  -4   3   14.06    1.75
  -6  -4   3    9.72    1.49
  -6  -4   3   11.39    1.39
   5   4  -3   25.83    2.30
   5   4  -3   25.44    2.10
   5   4  -3   17.99    1.97
   5   4  -3   20.47    2.08
  -5  -4   3   22.62    1.97
  -5  -4   3   23.30    1.72
  -5  -4   3   19.83    2.04
  -5  -4   3   24.02    1.70
  -5  -4   3   21.30    2.14
  -5  -4   3   25.67    2.17
  -5  -4   3   21.19    2.24
  -5  -4   3   23.01    1.75
  -5  -4   3   25.56    2.72
  -5  -4   3   22.79    2.10
   4   4  -3   12.43    1.39
   4   4  -3   13.77    1.31
   4   4  -3   15.07    1.56
   4   4  -3   15.45    1.59
  -4  -4   3   14.49    1.46
  -4  -4   3   14.32    1.13
  -4  -4   3   13.18    1.26
  -4  -4   3   14.18    1.59
  -4  -4   3   13.81    1.45
  -4  -4   3   13.17    1.37
  -4  -4   3   14.63    1.55
  -4  -4   3   12.83    1.40
  -4  -4   3   12.16    1.50
  -4  -4   3   14.10    1.20
  -4  -4   3   13.67    2.05
  -4  -4   3   16.02    1.76
  -4  -4   3   14.92    1.57
   3   4  -3   18.68    1.30
   3   4  -3   14.39    1.36
   3   4  -3   15.47    1.51
   3   4  -3   15.15    1.45
  -3  -4   3   16.70    1.44
  -3  -4   3   16.42    1.20
  -3  -4   3   14.97    1.34
  -3  -4   3   16.82    1.29
  -3  -4   3   16.74    1.27
  -3  -4   3   20.22    2.02
  -3  -4   3   16.32    1.55
  -3  -4   3   17.09    1.64
  -3  -4   3   17.49    1.50
  -3  -4   3   14.97    1.42
  -3  -4   3   15.56    1.55
  -3  -4   3   17.72    2.11
  -3  -4   3   16.63    1.52
  -3  -4   3   19.78    1.19
   2   4  -3   22.57    1.48
   2   4  -3   20.98    1.66
   2   4  -3   25.34    1.82
   2   4  -3   23.41    1.54
   2   4  -3   24.65    1.55
  -2  -4   3   27.77    2.43
  -2  -4   3   24.64    1.46
  -2  -4   3   24.71    1.67
  -2  -4   3   26.33    2.04
  -2  -4   3   22.69    1.78
  -2  -4   3   26.51    2.52
  -2  -4   3   22.63    1.49
  -2  -4   3   24.40    1.56
  -2  -4   3   21.60    1.54
  -2  -4   3   24.23    1.72
  -2  -4   3   28.12    1.51
   1   4  -3  180.90    7.15
   1   4  -3  162.86    7.69
   1   4  -3  171.12    7.03
   1   4  -3  171.70    7.33
  -1  -4   3  174.35    8.70
  -1  -4   3  174.92    6.63
  -1  -4   3  175.21    6.95
  -1  -4   3  177.83    8.56
  -1  -4   3  174.39    6.64
  -1  -4   3  180.45    7.59
  -1  -4   3  162.89    7.68
  -1  -4   3  171.89    7.26
  -1  -4   3  170.24    6.61
  -1  -4   3  176.88    6.72
   0   4  -3   73.04    4.76
   0   4  -3   68.50    3.38
   0   4  -3   69.64    2.85
   0   4  -3   66.57    3.73
   0   4  -3   71.39    3.35
   0  -4   3   68.28    3.39
   0  -4   3   66.72    2.78
   0  -4   3   64.45    3.42
   0  -4   3   64.37    3.01
   0  -4   3   65.25    3.01
   0  -4   3   77.43    4.84
   0  -4   3   66.42    3.10
   0  -4   3   54.21    4.19
  -1   4  -3  198.76    9.23
  -1   4  -3  194.39    8.31
  -1   4  -3  186.81    8.62
  -1   4  -3  201.79    9.87
   1  -4   3  194.73    7.53
   1  -4   3  195.05    8.65
   1  -4   3  203.45   10.00
   1  -4   3  196.35    8.12
   1  -4   3  189.66    7.69
   1  -4   3  178.55    9.93
   1  -4   3  191.46    7.29
  -2   4  -3    7.64    2.32
  -2   4  -3   15.26    2.44
  -2   4  -3   10.14    1.61
  -2   4  -3   15.26    2.58
   2  -4   3   14.28    1.18
   2  -4   3   15.16    1.47
   2  -4   3   11.68    1.48
   2  -4   3    8.84    1.37
   2  -4   3   13.71    2.58
   2  -4   3   16.22    2.11
  -3   4  -3    2.47    1.73
  -3   4  -3   -0.90    1.07
  -3   4  -3    1.29    1.74
  -3   4  -3    0.06    1.84
   3  -4   3    0.55    0.86
   3  -4   3    1.02    1.04
   3  -4   3   -1.04    0.93
   3  -4   3    1.68    1.68
   3  -4   3    0.61    1.47
   3  -4   3    0.40    0.88
  -4   4  -3  123.86    6.32
  -4   4  -3  122.02    6.85
  -4   4  -3  135.82    7.36
  -4   4  -3  135.19    7.63
   4  -4   3  115.36    5.86
   4  -4   3  114.44    6.87
   4  -4   3  113.39    5.45
   4  -4   3  117.86    7.32
   4  -4   3  123.01    5.44
  -5   4  -3   18.14    2.83
  -5   4  -3   15.66    2.40
  -5   4  -3   14.53    3.06
   5  -4   3   17.78    2.11
   5  -4   3   14.46    1.82
   5  -4   3   15.26    2.79
   5  -4   3   14.30    2.81
   5  -4   3   15.08    2.23
  -6   4  -3   39.06    4.51
  -6   4  -3   43.68    4.12
  -6   4  -3   41.41    4.26
   6  -4   3   37.73    3.65
   6  -4   3   44.34    4.44
  -7   4  -3    4.83    1.91
  -7   4  -3    5.88    2.46
  -7   4  -3    2.70    2.43
   7  -4   3    1.61    1.72
   8   3  -3    2.91    1.85
   8   3  -3    0.70    1.70
   8   3  -3    0.79    1.63
  -8  -3   3    1.97    1.79
  -8  -3   3    0.02    1.39
  -8  -3   3   -0.10    1.45
  -8  -3   3    0.22    1.42
   7   3  -3   81.34    4.88
   7   3  -3   78.24    5.04
   7   3  -3   85.82    5.08
  -7  -3   3   85.05    4.66
  -7  -3   3   89.76    5.28
  -7  -3   3   77.95    4.95
  -7  -3   3   79.43    4.90
   6   3  -3    8.71    1.62
   6   3  -3    6.06    1.45
   6   3  -3    6.26    1.60
   6   3  -3    6.71    1.67
  -6  -3   3    9.30    1.86
  -6  -3   3    5.99    1.46
  -6  -3   3    8.39    1.74
  -6  -3   3   10.94    1.71
  -6  -3   3    7.74    1.60
  -6  -3   3    6.69    1.45
  -6  -3   3    9.10    1.33
   5   3  -3  105.13    5.61
   5   3  -3  116.03    5.35
   5   3  -3  114.13    5.22
   5   3  -3  106.01    5.47
  -5  -3   3  112.12    5.52
  -5  -3   3  102.75    4.96
  -5  -3   3  110.18    6.03
  -5  -3   3  110.22    5.66
  -5  -3   3  113.14    5.19
  -5  -3   3  117.43    5.20
  -5  -3   3  111.92    5.52
  -5  -3   3  127.43    4.85
  -5  -3   3  110.86    5.66
   4   3  -3    1.06    0.92
   4   3  -3    0.78    0.86
   4   3  -3    0.46    0.49
   4   3  -3    2.37    1.02
   4   3  -3    0.63    0.90
  -4  -3   3    0.70    0.92
  -4  -3   3    1.92    0.92
  -4  -3   3    0.60    0.79
  -4  -3   3    1.76    0.71
  -4  -3   3    0.97    0.50
  -4  -3   3    0.39    0.89
  -4  -3   3    0.26    0.98
  -4  -3   3    2.43    1.24
  -4  -3   3    1.59    0.66
  -4  -3   3    0.62    0.75
  -4  -3   3    0.60    0.59
   3   3  -3   35.35    1.99
   3   3  -3   36.25    1.92
   3   3  -3   32.51    2.11
  -3  -3   3   29.15    2.01
  -3  -3   3   32.64    1.57
  -3  -3   3   32.29    2.25
  -3  -3   3   32.30    2.67
  -3  -3   3   33.81    2.11
  -3  -3   3   30.36    1.88
  -3  -3   3   30.74    1.86
  -3  -3   3   33.44    1.89
  -3  -3   3   33.64    1.73
  -3  -3   3   31.02    1.60
  -3  -3   3   35.77    2.16
  -3  -3   3   30.76    1.82
   2   3  -3    6.95    0.93
   2   3  -3    5.73    0.65
   2   3  -3    4.97    0.80
   2   3  -3    6.84    0.78
  -2  -3   3    4.38    0.71
  -2  -3   3    4.54    0.62
  -2  -3   3    6.03    1.30
  -2  -3   3    4.89    0.76
  -2  -3   3    5.43    0.62
  -2  -3   3    4.75    0.85
  -2  -3   3    4.99    0.95
  -2  -3   3    5.35    0.88
  -2  -3   3    5.72    0.93
  -2  -3   3    4.33    1.10
  -2  -3   3    5.19    0.79
  -2  -3   3    5.39    0.74
  -2  -3   3    4.08    0.52
   1   3  -3   92.59    4.02
   1   3  -3   93.15    4.21
   1   3  -3   92.40    3.63
   1   3  -3   91.37    4.37
   1   3  -3   94.95    3.98
  -1  -3   3   94.34    4.93
  -1  -3   3   93.63    4.98
  -1  -3   3   92.93    3.96
  -1  -3   3  102.56    4.39
  -1  -3   3   89.49    4.43
  -1  -3   3   92.24    3.73
  -1  -3   3   92.23    3.71
  -1  -3   3   91.71    4.18
  -1  -3   3   94.63    3.63
  -1  -3   3   97.56    3.72
   0   3  -3    0.92    0.74
   0   3  -3    0.27    0.56
   0   3  -3   -0.11    0.40
   0   3  -3   -0.17    0.51
   0  -3   3    0.09    0.42
   0  -3   3    0.02    0.58
   0  -3   3    0.99    0.52
   0  -3   3   -1.00    0.48
   0  -3   3   -0.76    0.95
   0  -3   3    0.22    1.01
   0  -3   3    0.26    0.49
  -1   3  -3   35.07    3.08
  -1   3  -3   35.86    2.08
  -1   3  -3   28.41    1.87
  -1   3  -3   28.31    2.44
  -1   3  -3   31.79    2.25
   1  -3   3   28.24    2.81
   1  -3   3   32.91    2.21
   1  -3   3   31.98    1.84
   1  -3   3   34.48    1.98
   1  -3   3   36.54    3.18
   1  -3   3   30.96    1.75
   1  -3   3   30.73    1.42
  -2   3  -3  125.19    5.39
  -2   3  -3  123.78    5.83
  -2   3  -3  126.22    6.87
  -2   3  -3  139.94    6.98
  -2   3  -3  123.49    6.66
   2  -3   3  126.99    5.22
   2  -3   3  125.42    5.03
   2  -3   3  126.39    5.52
   2  -3   3  122.51    6.35
   2  -3   3  130.18    5.43
   2  -3   3  139.70    7.11
  -3   3  -3  155.27    7.00
  -3   3  -3  186.13    8.56
  -3   3  -3  175.52    8.35
  -3   3  -3  166.59    7.52
  -3   3  -3  182.49    8.86
  -3   3  -3  160.42    6.65
   3  -3   3  159.01    6.67
   3  -3   3  157.96    8.24
   3  -3   3  172.35    8.78
   3  -3   3  166.36    7.01
   3  -3   3  165.72    6.66
   3  -3   3  161.30    6.95
  -4   3  -3   36.70    3.43
  -4   3  -3   33.94    2.99
  -4   3  -3   39.25    3.74
  -4   3  -3   38.03    2.36
  -4   3  -3   36.45    2.34
  -4   3  -3   44.29    4.18
   4  -3   3   37.06    2.91
   4  -3   3   35.57    3.56
   4  -3   3   35.34    2.41
   4  -3   3   36.36    2.41
   4  -3   3   38.19    3.61
   4  -3   3   37.72    2.45
  -5   3  -3    8.66    2.02
  -5   3  -3    8.02    2.23
  -5   3  -3   14.28    2.81
  -5   3  -3   14.34    2.32
   5  -3   3   12.00    1.58
   5  -3   3   10.61    1.71
   5  -3   3   11.69    2.03
   5  -3   3   10.59    2.42
   5  -3   3   10.96    2.37
  -6   3  -3    0.17    1.60
  -6   3  -3    4.31    2.36
  -6   3  -3    0.25    1.86
   6  -3   3    1.90    2.08
   6  -3   3    2.93    1.27
   6  -3   3    3.26    1.74
   6  -3   3    2.45    1.58
  -7   3  -3    0.68    2.10
  -7   3  -3   -1.11    2.12
  -7   3  -3    0.73    1.55
  -7   3  -3   -0.20    1.62
   7  -3   3   -0.01    2.08
   7  -3   3   -1.15    1.54
   7  -3   3   -2.51    1.53
   8   2  -3   61.20    4.46
   8   2  -3   57.96    4.64
   8   2  -3   49.11    4.80
  -8  -2   3   64.53    4.60
  -8  -2   3   55.47    4.65
  -8  -2   3   51.77    4.16
  -8  -2   3   63.31    5.20
   7   2  -3   30.19    3.11
   7   2  -3   27.13    2.91
   7   2  -3   28.10    3.10
  -7  -2   3   34.32    2.96
  -7  -2   3   23.36    2.78
  -7  -2   3   28.15    3.23
  -7  -2   3   23.03    2.80
   6   2  -3   16.90    2.14
   6   2  -3   18.19    2.22
   6   2  -3   19.25    2.35
   6   2  -3   17.18    2.30
  -6  -2   3   17.50    2.41
  -6  -2   3   19.07    1.98
  -6  -2   3   15.28    1.90
  -6  -2   3   14.18    2.24
  -6  -2   3   17.47    2.21
  -6  -2   3   19.14    2.27
   5   2  -3    1.80    1.04
   5   2  -3    3.47    1.20
   5   2  -3    4.86    1.39
   5   2  -3    2.71    1.24
  -5  -2   3    2.86    1.13
  -5  -2   3    2.84    1.45
  -5  -2   3    3.83    1.12
  -5  -2   3    1.46    0.92
  -5  -2   3    2.63    1.00
  -5  -2   3    1.79    0.93
  -5  -2   3    0.79    1.02
  -5  -2   3    2.72    1.04
  -5  -2   3    0.69    1.15
   4   2  -3   10.54    1.44
   4   2  -3    9.88    1.37
   4   2  -3   12.35    1.53
   4   2  -3    9.84    1.39
  -4  -2   3    7.27    1.29
  -4  -2   3   10.17    0.98
  -4  -2   3   10.90    1.30
  -4  -2   3   11.10    1.52
  -4  -2   3    7.96    1.25
  -4  -2   3    8.58    1.30
  -4  -2   3   10.14    1.11
  -4  -2   3   10.82    1.08
  -4  -2   3   10.55    1.40
  -4  -2   3    9.36    1.61
   3   2  -3    0.84    0.82
  -3  -2   3    2.61    0.77
  -3  -2   3    0.15    0.72
  -3  -2   3    0.69    0.53
  -3  -2   3    0.55    0.60
  -3  -2   3    1.63    0.65
  -3  -2   3    0.97    0.57
  -3  -2   3    1.91    0.74
  -3  -2   3    0.17    0.54
  -3  -2   3    1.68    1.03
  -3  -2   3    2.48    0.83
   2   2  -3    2.32    0.69
   2   2  -3    0.90    0.60
   2   2  -3    0.23    0.54
   2   2  -3    0.35    0.39
   2   2  -3    2.88    0.61
  -2  -2   3    0.20    0.49
  -2  -2   3    0.18    0.49
  -2  -2   3    1.68    0.59
  -2  -2   3    1.32    0.61
  -2  -2   3    3.31    0.80
  -2  -2   3    3.00    0.97
  -2  -2   3    1.27    0.40
  -2  -2   3    1.71    0.66
  -2  -2   3    1.26    0.39
  -2  -2   3    0.89    0.36
   1   2  -3    1.08    0.36
   1   2  -3    1.06    0.40
   1   2  -3    0.65    0.48
   1   2  -3    0.86    0.49
  -1  -2   3    0.35    0.57
  -1  -2   3    0.69    0.38
  -1  -2   3    0.74    0.30
  -1  -2   3   -0.21    0.39
  -1  -2   3   -0.17    0.47
  -1  -2   3    0.68    0.69
  -1  -2   3    0.47    0.53
  -1  -2   3    0.43    0.37
  -1  -2   3    0.02    0.69
  -1  -2   3    0.50    0.49
   0   2  -3  193.82    8.16
   0   2  -3  200.04    7.97
   0   2  -3  193.46    7.80
   0   2  -3  195.84    7.68
   0  -2   3  195.04    7.12
   0  -2   3  201.27    8.19
   0  -2   3  186.29    8.93
   0  -2   3  182.90    8.62
   0  -2   3  186.50    7.16
   0  -2   3  186.77    7.50
   0  -2   3  187.59    7.72
   0  -2   3  204.07    8.20
   0  -2   3  192.09    7.15
  -1   2  -3   30.00    1.83
  -1   2  -3   28.24    2.06
  -1   2  -3   28.46    1.93
  -1   2  -3   29.34    1.65
   1  -2   3   28.82    1.22
   1  -2   3   30.34    2.36
   1  -2   3   29.55    1.75
   1  -2   3   29.28    2.31
   1  -2   3   31.57    1.64
   1  -2   3   30.72    2.00
   1  -2   3   31.17    1.59
  -2   2  -3  202.69    8.70
  -2   2  -3  212.49    8.68
  -2   2  -3  204.46    9.39
  -2   2  -3  215.17    9.70
  -2   2  -3  212.06    9.65
   2  -2   3  202.95    8.09
   2  -2   3  209.86    9.72
   2  -2   3  208.84    8.29
   2  -2   3  203.32    7.89
   2  -2   3  200.89    9.38
   2  -2   3  212.84    9.96
   2  -2   3  203.15    7.79
  -3   2  -3    0.74    1.46
  -3   2  -3    1.25    1.28
  -3   2  -3    0.98    0.75
  -3   2  -3    0.36    0.72
  -3   2  -3   -0.02    1.51
  -3   2  -3    1.34    0.97
   3  -2   3    0.22    0.71
   3  -2   3    1.31    1.21
   3  -2   3    2.64    0.99
   3  -2   3    1.14    1.42
   3  -2   3    0.37    0.63
   3  -2   3    2.42    0.75
  -4   2  -3    5.93    2.10
  -4   2  -3    9.38    1.77
  -4   2  -3    6.80    1.19
  -4   2  -3    5.01    1.08
  -4   2  -3    6.94    1.58
  -4   2  -3    2.31    1.71
   4  -2   3    6.63    2.02
   4  -2   3    6.72    1.77
   4  -2   3    7.51    1.26
   4  -2   3    5.79    0.98
   4  -2   3    7.51    1.56
   4  -2   3    6.31    1.16
  -5   2  -3  148.02    7.94
  -5   2  -3  140.73    7.03
  -5   2  -3  140.23    6.28
  -5   2  -3  128.78    7.58
  -5   2  -3  144.00    6.69
  -5   2  -3  146.65    7.26
   5  -2   3  145.63    6.36
   5  -2   3  150.07    7.99
   5  -2   3  146.67    6.79
   5  -2   3  135.74    7.70
   5  -2   3  149.61    6.15
  -6   2  -3    4.64    2.05
  -6   2  -3    1.90    1.52
  -6   2  -3    1.30    1.26
  -6   2  -3    2.55    1.80
  -6   2  -3    0.19    1.16
  -6   2  -3    1.45    1.13
   6  -2   3    0.75    1.26
   6  -2   3    0.67    1.07
   6  -2   3    1.87    1.51
   6  -2   3    0.60    1.81
  -7   2  -3   44.21    4.13
  -7   2  -3   61.33    3.81
  -7   2  -3   61.16    5.19
  -7   2  -3   47.60    4.82
   7  -2   3   58.47    3.93
   7  -2   3   50.02    4.13
   7  -2   3   50.09    4.90
  -8   2  -3    2.31    1.75
  -8   2  -3    3.41    2.27
  -8   2  -3    6.77    2.23
  -8   2  -3    3.46    2.49
   8  -2   3    1.08    1.85
   8  -2   3    1.45    1.85
   8   1  -3   -0.66    1.66
   8   1  -3   -0.76    1.84
  -8  -1   3    0.03    1.93
  -8  -1   3    1.15    1.79
  -8  -1   3    2.48    1.50
   7   1  -3    4.65    2.02
   7   1  -3    7.31    1.80
   7   1  -3    2.41    1.83
  -7  -1   3    7.85    2.17
  -7  -1   3    1.99    1.45
  -7  -1   3    4.98    1.69
  -7  -1   3    6.55    1.63
   6   1  -3   58.63    3.74
   6   1  -3   61.43    3.72
   6   1  -3   63.53    3.84
   6   1  -3   54.37    3.92
  -6  -1   3   58.77    4.20
  -6  -1   3   55.51    4.22
  -6  -1   3   53.05    3.41
  -6  -1   3   59.85    3.87
  -6  -1   3   59.00    3.92
  -6  -1   3   62.18    3.55
   5   1  -3    5.24    1.37
   5   1  -3    6.35    1.48
   5   1  -3    3.65    1.26
   5   1  -3    7.08    1.46
  -5  -1   3    4.71    1.12
  -5  -1   3    6.76    1.28
  -5  -1   3    4.20    1.17
  -5  -1   3    4.55    1.24
  -5  -1   3    5.49    1.55
  -5  -1   3    6.20    1.37
  -5  -1   3    4.05    1.56
   4   1  -3   58.36    3.24
   4   1  -3   56.94    3.32
   4   1  -3   57.34    3.45
   4   1  -3   58.65    3.21
  -4  -1   3   63.62    3.96
  -4  -1   3   62.71    3.10
  -4  -1   3   66.44    3.65
  -4  -1   3   52.71    3.14
  -4  -1   3   58.70    3.53
  -4  -1   3   61.97    3.12
  -4  -1   3   59.49    3.39
  -4  -1   3   60.11    3.09
  -4  -1   3   65.68    3.51
   3   1  -3    7.05    1.06
   3   1  -3    5.88    0.96
   3   1  -3    6.68    1.07
   3   1  -3    5.92    1.05
  -3  -1   3    5.88    0.91
  -3  -1   3    4.21    1.21
  -3  -1   3    4.99    0.97
  -3  -1   3    6.20    1.08
  -3  -1   3    8.02    0.89
  -3  -1   3    5.54    1.02
  -3  -1   3    7.31    1.07
  -3  -1   3    5.92    0.88
  -3  -1   3    6.67    0.82
  -3  -1   3    6.28    0.90
   2   1  -3   19.88    1.47
   2   1  -3   16.59    1.13
   2   1  -3   17.22    1.26
  -2  -1   3   17.45    1.11
  -2  -1   3   14.58    1.22
  -2  -1   3   16.11    1.24
  -2  -1   3   18.24    0.97
  -2  -1   3   16.07    1.42
  -2  -1   3   15.77    1.37
  -2  -1   3   14.83    1.60
  -2  -1   3   17.62    1.38
  -2  -1   3   18.91    1.33
   1   1  -3   12.85    1.07
   1   1  -3   15.58    0.99
   1   1  -3   13.91    1.08
  -1  -1   3   12.44    0.98
  -1  -1   3   11.29    0.91
  -1  -1   3   13.18    1.15
  -1  -1   3   11.72    1.06
  -1  -1   3   11.42    0.72
  -1  -1   3   12.53    1.31
  -1  -1   3   13.83    1.14
  -1  -1   3   13.11    1.06
   0   1  -3  106.74    4.20
   0   1  -3  106.83    4.49
   0   1  -3  103.04    3.92
   0   1  -3  102.09    4.45
   0  -1   3  102.55    4.23
   0  -1   3  105.28    3.99
   0  -1   3  105.42    4.14
   0  -1   3  105.40    4.63
  -1   1  -3    4.93    0.69
  -1   1  -3    2.45    0.70
  -1   1  -3    4.40    0.45
  -1   1  -3    5.41    0.79
  -1   1  -3    5.23    0.75
   1  -1   3    5.86    0.85
   1  -1   3    5.30    0.76
   1  -1   3    2.96    0.74
   1  -1   3    4.90    0.87
   1  -1   3    6.32    0.91
   1  -1   3    6.29    0.71
  -2   1  -3    1.58    1.10
  -2   1  -3    0.53    0.90
  -2   1  -3    1.29    0.90
  -2   1  -3    1.29    0.48
  -2   1  -3    3.33    1.23
  -2   1  -3    0.61    0.77
   2  -1   3    0.17    0.62
   2  -1   3    0.96    0.79
   2  -1   3    2.10    1.20
   2  -1   3    0.52    0.56
   2  -1   3    2.04    0.53
   2  -1   3    1.82    0.95
   2  -1   3    0.48    0.65
  -3   1  -3  124.34    5.57
  -3   1  -3  122.70    6.43
  -3   1  -3  113.93    4.95
  -3   1  -3  121.53    5.17
  -3   1  -3  128.88    5.93
  -3   1  -3  113.98    5.58
  -3   1  -3  119.79    6.17
   3  -1   3  122.26    5.26
   3  -1   3  124.21    5.03
   3  -1   3  125.91    6.08
   3  -1   3  120.46    5.02
   3  -1   3  114.77    4.92
   3  -1   3  124.84    6.43
  -4   1  -3  166.35    7.50
  -4   1  -3  169.87    7.69
  -4   1  -3  146.56    8.20
  -4   1  -3  189.94    8.29
  -4   1  -3  150.38    6.86
  -4   1  -3  157.49    7.43
   4  -1   3  171.80    8.20
   4  -1   3  174.59    7.19
   4  -1   3  170.44    6.83
   4  -1   3  166.56    6.74
   4  -1   3  162.59    6.63
   4  -1   3  166.67    8.48
  -5   1  -3   45.27    2.77
  -5   1  -3   39.65    2.95
  -5   1  -3   34.23    3.55
  -5   1  -3   36.11    3.50
  -5   1  -3   39.80    2.72
  -5   1  -3   41.96    3.29
  -5   1  -3   38.29    2.79
   5  -1   3   41.14    2.74
   5  -1   3   40.31    3.24
   5  -1   3   42.72    3.19
   5  -1   3   43.03    4.10
   5  -1   3   39.46    2.54
  -6   1  -3   42.80    4.34
  -6   1  -3   53.52    3.53
  -6   1  -3   55.93    3.83
  -6   1  -3   60.86    4.72
  -6   1  -3   57.21    3.41
  -6   1  -3   53.50    3.36
   6  -1   3   50.77    3.44
   6  -1   3   50.56    3.93
   6  -1   3   49.05    4.61
   6  -1   3   54.16    3.14
  -7   1  -3    0.06    1.56
  -7   1  -3   -0.23    1.36
  -7   1  -3    1.76    1.34
  -7   1  -3    1.26    1.35
  -7   1  -3   -0.78    1.45
  -7   1  -3    2.00    1.89
   7  -1   3    1.73    2.21
   7  -1   3    1.90    1.51
   7  -1   3    0.48    1.12
   7  -1   3    0.31    1.73
  -8   1  -3    6.85    2.06
  -8   1  -3    7.75    2.35
  -8   1  -3    8.18    2.08
  -8   1  -3    7.34    1.96
  -8   1  -3    7.49    1.93
  -8   1  -3    1.41    2.37
   8  -1   3    5.07    2.01
   8  -1   3    7.46    2.02
   8  -1   3   12.22    2.98
  -9   1  -3   -1.93    2.28
  -9   1  -3   -0.66    1.51
  -9   1  -3    5.34    2.34
   9  -1   3    1.43    1.91
   9  -1   3    3.90    2.17
  -8   0   3    3.16    2.22
  -8   0   3    1.33    1.87
   7   0  -3   61.48    4.17
   7   0  -3   54.25    5.02
   7   0  -3   59.09    4.25
  -7   0   3   68.33    4.54
  -7   0   3   58.47    5.25
  -7   0   3   59.24    3.93
   6   0  -3   38.02    3.31
   6   0  -3   36.52    3.28
   6   0  -3   41.60    3.81
   6   0  -3   39.97    3.14
  -6   0   3   42.05    3.18
  -6   0   3   38.02    3.30
  -6   0   3   40.83    3.94
  -6   0   3   46.20    3.98
  -6   0   3   41.99    3.22
   5   0  -3    7.03    1.51
   5   0  -3    9.41    1.64
   5   0  -3    7.03    1.66
   5   0  -3    9.77    1.59
  -5   0   3    5.80    1.80
  -5   0   3    5.56    1.40
  -5   0   3    7.58    1.82
  -5   0   3    7.92    1.44
  -5   0   3    7.20    1.31
  -5   0   3    7.95    1.53
   4   0  -3    7.35    1.38
   4   0  -3   10.93    1.40
   4   0  -3    7.76    1.38
   4   0  -3    9.49    1.43
  -4   0   3    8.51    1.28
  -4   0   3    6.36    1.24
  -4   0   3    7.29    1.53
  -4   0   3    8.27    1.37
  -4   0   3    6.10    1.68
  -4   0   3    8.21    1.23
  -4   0   3    6.90    1.35
   3   0  -3    2.48    0.89
   3   0  -3    2.06    0.81
   3   0  -3    2.84    0.83
   3   0  -3    2.57    0.93
  -3   0   3    2.28    1.21
  -3   0   3    2.16    0.76
  -3   0   3    0.70    0.66
  -3   0   3    1.75    0.91
  -3   0   3    1.86    0.84
  -3   0   3    1.39    0.99
  -3   0   3    1.93    0.65
  -3   0   3    1.36    0.82
   2   0  -3   20.36    1.24
   2   0  -3   16.05    1.41
   2   0  -3   15.91    1.32
   2   0  -3   14.75    1.38
  -2   0   3   11.42    1.59
  -2   0   3   17.04    1.33
  -2   0   3   15.83    1.44
  -2   0   3   13.09    1.36
  -2   0   3   15.31    1.36
  -2   0   3   16.01    1.32
  -2   0   3   15.02    1.22
  -2   0   3   14.17    1.20
   1   0  -3    1.82    0.57
   1   0  -3    1.66    0.28
   1   0  -3    1.50    0.59
   1   0  -3    2.02    0.40
  -1   0   3    1.46    0.55
  -1   0   3    2.65    0.55
  -1   0   3    2.04    0.55
  -1   0   3    3.80    0.79
  -1   0   3    2.37    0.62
  -1   0   3    1.06    0.43
  -1   0   3    0.99    0.82
  -1   0   3    1.28    0.41
   0   0  -3   14.97    0.68
   0   0  -3   14.41    1.05
   0   0  -3   14.91    1.12
   0   0  -3   15.35    0.97
   0   0   3   14.37    0.73
   0   0   3   14.23    1.06
   0   0   3   13.06    1.05
   0   0   3   15.02    1.26
   0   0   3   14.90    0.97
   0   0   3   13.91    1.27
   0   0   3   14.12    1.06
   0   0   3   12.42    0.93
   0   0   3   14.19    0.67
  -1   0  -3  234.51    9.70
  -1   0  -3  247.26    8.87
  -1   0  -3  242.24    9.80
  -1   0  -3  241.40    8.69
  -1   0  -3  246.80    9.44
  -1   0  -3  240.16    9.72
   1   0   3  241.31    9.82
   1   0   3  224.81    9.44
   1   0   3  240.26    8.90
   1   0   3  241.70    9.16
   1   0   3  237.41    8.87
   1   0   3  243.35    9.94
   1   0   3  242.86   10.21
  -2   0  -3   52.71    2.76
  -2   0  -3   54.41    2.33
  -2   0  -3   50.97    3.07
  -2   0  -3   53.75    2.86
  -2   0  -3   50.46    2.31
  -2   0  -3   54.85    2.65
   2   0   3   47.61    2.96
   2   0   3   48.35    2.53
   2   0   3   53.76    2.53
   2   0   3   52.42    2.49
   2   0   3   52.84    2.52
   2   0   3   47.53    2.48
  -3   0  -3  358.48   13.84
  -3   0  -3  378.88   15.57
  -3   0  -3  395.41   15.99
  -3   0  -3  363.44   15.74
  -3   0  -3  402.03   15.75
  -3   0  -3  373.82   15.03
  -3   0  -3  373.60   14.03
   3   0   3  360.41   13.76
   3   0   3  366.93   14.30
   3   0   3  368.99   14.16
   3   0   3  374.10   16.33
   3   0   3  371.94   16.24
  -4   0  -3   26.49    2.06
  -4   0  -3   22.89    1.80
  -4   0  -3   27.31    2.34
  -4   0  -3   25.89    1.92
  -4   0  -3   24.13    2.71
  -4   0  -3   21.81    2.07
  -4   0  -3   21.53    1.64
  -4   0  -3   29.53    2.33
   4   0   3   30.32    3.06
   4   0   3   22.50    1.49
   4   0   3   24.82    1.88
   4   0   3   24.34    1.88
   4   0   3   25.33    1.96
   4   0   3   21.73    1.96
  -5   0  -3   57.68    3.82
  -5   0  -3   61.49    3.20
  -5   0  -3   49.79    3.15
  -5   0  -3   58.00    3.24
  -5   0  -3   55.89    3.53
  -5   0  -3   45.24    4.01
  -5   0  -3   55.13    3.53
   5   0   3   57.40    3.12
   5   0   3   53.33    3.15
   5   0   3   45.27    4.18
   5   0   3   53.53    3.48
   5   0   3   52.04    3.43
  -6   0  -3  114.50    5.84
  -6   0  -3  114.86    5.41
  -6   0  -3  105.61    5.29
  -6   0  -3  112.29    6.11
  -6   0  -3   91.39    6.07
  -6   0  -3  113.64    5.82
   6   0   3  111.86    5.12
   6   0   3  109.71    5.35
   6   0   3  112.32    5.58
   6   0   3   96.59    6.46
  -7   0  -3    3.96    2.11
  -7   0  -3    2.99    1.40
  -7   0  -3    2.18    1.58
  -7   0  -3    2.97    1.54
  -7   0  -3    5.76    1.89
  -7   0  -3    2.69    1.50
   7   0   3    6.27    1.97
   7   0   3    6.23    1.64
   7   0   3    3.83    1.32
   7   0   3    4.44    2.39
  -8   0  -3   45.48    4.15
  -8   0  -3   49.68    3.65
  -8   0  -3   34.04    3.50
  -8   0  -3   39.06    3.73
  -8   0  -3   47.32    3.77
  -8   0  -3   28.36    4.07
   8   0   3   44.25    4.01
   8   0   3   36.74    4.47
   8   0   3   44.30    3.60
  -9   0  -3    3.11    1.71
  -9   0  -3    4.66    2.06
  -9   0  -3    6.17    2.15
  -9   0  -3    5.80    2.17
  -9   0  -3    4.42    1.99
  -9   0  -3    4.37    2.61
   9   0   3    4.21    2.08
   9   0   3    1.17    2.16
   7  -1  -3    2.42    1.72
   7  -1  -3    5.18    2.47
   7  -1  -3    2.62    1.99
  -7   1   3    4.07    1.92
  -7   1   3    1.40    1.45
  -7   1   3    4.57    2.45
   6  -1  -3   18.54    2.40
   6  -1  -3   18.15    2.47
   6  -1  -3   15.64    2.16
   6  -1  -3   17.88    2.74
  -6   1   3   17.90    2.22
  -6   1   3   19.06    2.20
  -6   1   3   15.81    2.29
  -6   1   3   19.32    2.87
  -6   1   3   21.28    3.19
   5  -1  -3   16.59    2.08
   5  -1  -3   14.21    2.00
   5  -1  -3   14.13    1.84
   5  -1  -3   14.81    2.34
  -5   1   3   14.73    2.50
  -5   1   3   16.84    1.87
  -5   1   3   13.43    1.90
  -5   1   3   15.40    1.96
  -5   1   3   17.10    2.49
   4  -1  -3    2.71    1.33
   4  -1  -3    4.61    1.14
   4  -1  -3    4.41    1.24
   4  -1  -3    2.73    1.03
  -4   1   3    3.36    0.99
  -4   1   3    3.23    1.06
  -4   1   3    6.58    1.40
  -4   1   3    3.69    1.73
  -4   1   3    2.55    1.36
   3  -1  -3   28.15    2.28
   3  -1  -3   26.31    2.09
   3  -1  -3   28.57    2.15
   3  -1  -3   25.03    1.87
  -3   1   3   26.47    2.72
  -3   1   3   26.22    1.83
  -3   1   3   22.87    1.84
  -3   1   3   26.31    2.43
  -3   1   3   26.03    2.05
  -3   1   3   26.87    1.98
   2  -1  -3    1.55    0.77
   2  -1  -3    0.17    0.58
   2  -1  -3    0.79    0.34
   2  -1  -3    0.20    0.70
   2  -1  -3    1.42    0.70
  -2   1   3   -0.04    0.72
  -2   1   3    0.27    0.73
  -2   1   3    0.89    0.64
  -2   1   3    1.14    0.84
  -2   1   3    0.58    0.59
  -2   1   3    0.03    0.59
  -2   1   3    0.23    0.71
  -2   1   3    3.39    1.25
   1  -1  -3   68.25    2.69
   1  -1  -3   67.32    3.23
   1  -1  -3   68.20    2.82
   1  -1  -3   62.47    2.52
   1  -1  -3   63.38    2.99
   1  -1  -3   67.27    3.21
  -1   1   3   68.71    3.11
  -1   1   3   67.69    3.31
  -1   1   3   65.10    2.94
  -1   1   3   68.36    3.77
  -1   1   3   71.51    2.97
  -1   1   3   67.01    3.28
  -1   1   3   63.89    3.20
  -1   1   3   70.07    2.54
  -1   1   3   70.10    3.01
   0  -1  -3   82.03    3.17
   0  -1  -3   82.97    3.36
   0  -1  -3   78.20    3.47
   0  -1  -3   79.35    3.62
   0   1   3   78.64    3.73
   0   1   3   79.78    3.63
   0   1   3   82.16    3.32
   0   1   3   80.56    3.57
   0   1   3   80.50    3.10
   0   1   3   83.45    3.51
   0   1   3   82.59    3.28
  -1  -1  -3  254.83    8.98
  -1  -1  -3  237.88    9.91
  -1  -1  -3  246.11    9.23
  -1  -1  -3  238.63   10.04
  -1  -1  -3  243.81    9.14
  -1  -1  -3  258.86    9.68
   1   1   3  254.94    9.78
   1   1   3  245.79    9.32
   1   1   3  245.87   10.55
   1   1   3  250.12    9.00
   1   1   3  245.37   10.00
   1   1   3  251.32   10.13
  -2  -1  -3  126.35    5.12
  -2  -1  -3  122.62    4.83
  -2  -1  -3  125.65    5.16
  -2  -1  -3  117.49    4.81
  -2  -1  -3  120.66    4.70
  -2  -1  -3  121.00    5.44
  -2  -1  -3  127.09    5.50
   2   1   3  121.94    5.16
   2   1   3  124.08    5.29
   2   1   3  119.52    4.81
   2   1   3  117.12    4.79
   2   1   3  127.75    5.52
  -3  -1  -3    5.99    1.03
  -3  -1  -3    5.61    0.88
  -3  -1  -3    4.72    1.45
  -3  -1  -3    3.65    1.38
  -3  -1  -3    6.24    0.96
  -3  -1  -3    4.88    0.80
   3   1   3    6.24    0.88
   3   1   3    4.43    0.87
   3   1   3    4.40    1.50
   3   1   3    5.51    0.95
  -4  -1  -3   26.55    2.16
  -4  -1  -3   18.94    2.34
  -4  -1  -3   24.37    1.87
  -4  -1  -3   24.01    1.83
  -4  -1  -3   22.11    1.90
  -4  -1  -3   22.80    2.01
  -4  -1  -3   24.17    2.38
   4   1   3   22.20    1.80
   4   1   3   25.11    1.52
   4   1   3   25.64    1.99
   4   1   3   22.11    2.58
  -5  -1  -3  139.78    7.68
  -5  -1  -3  160.30    7.49
  -5  -1  -3  161.49    7.36
  -5  -1  -3  179.43    7.15
  -5  -1  -3  150.83    7.65
  -5  -1  -3  166.56    6.79
  -5  -1  -3  158.14    6.87
   5   1   3  164.40    6.92
   5   1   3  158.57    6.38
   5   1   3  165.94    6.99
   5   1   3  167.85    6.71
   5   1   3  155.27    8.17
   5   1   3  163.60    7.45
  -6  -1  -3   40.48    3.11
  -6  -1  -3   50.52    3.46
   6   1   3   49.79    2.98
  -7  -1  -3   39.99    3.36
  -7  -1  -3   34.10    3.45
  -7  -1  -3   40.92    3.14
  -7  -1  -3   33.00    3.69
  -7  -1  -3   43.71    3.40
  -7  -1  -3   40.14    3.46
   7   1   3   44.67    3.31
   7   1   3   45.35    3.53
   7   1   3   37.05    4.11
   7   1   3   43.10    2.86
  -8  -1  -3    3.92    2.10
  -8  -1  -3    0.58    1.31
  -8  -1  -3   -0.57    1.45
  -8  -1  -3   -0.89    1.47
  -8  -1  -3   -0.48    1.29
  -8  -1  -3   -0.23    1.33
   8   1   3    1.58    1.77
   8   1   3   -2.47    1.97
   8   1   3    0.11    1.37
  -9  -1  -3   11.07    2.40
  -9  -1  -3   16.23    2.61
  -9  -1  -3   11.80    2.42
  -9  -1  -3   13.08    2.15
  -9  -1  -3   17.67    2.83
  -9  -1  -3   11.66    2.99
   9   1   3   12.06    3.36
   9   1   3   15.70    2.70
   9   1   3   11.16    2.45
  -7   2   3    2.55    1.93
  -7   2   3   -1.09    2.23
   6  -2  -3   33.09    3.13
   6  -2  -3   32.97    3.25
   6  -2  -3   35.04    3.25
   6  -2  -3   28.19    3.76
  -6   2   3   36.88    3.04
  -6   2   3   29.85    4.02
  -6   2   3   32.61    3.21
  -6   2   3   31.49    3.02
  -6   2   3   37.72    4.08
   5  -2  -3   48.26    3.30
   5  -2  -3   47.05    3.21
   5  -2  -3   42.98    3.54
   5  -2  -3   45.67    4.12
  -5   2   3   45.51    4.44
  -5   2   3   45.69    4.52
  -5   2   3   50.29    3.36
  -5   2   3   45.63    3.02
   4  -2  -3   11.62    1.68
   4  -2  -3   13.70    2.09
   4  -2  -3   11.65    1.83
   4  -2  -3   12.02    1.63
  -4   2   3   13.06    1.68
  -4   2   3   12.97    1.81
  -4   2   3   14.03    2.58
  -4   2   3   11.00    1.50
  -4   2   3    9.26    2.03
   3  -2  -3   31.67    2.26
   3  -2  -3   32.15    2.68
   3  -2  -3   31.87    2.27
   3  -2  -3   28.74    2.38
  -3   2   3   32.47    3.32
  -3   2   3   29.56    2.10
  -3   2   3   32.81    2.20
  -3   2   3   28.37    2.77
  -3   2   3   32.81    2.35
   2  -2  -3   12.16    0.82
   2  -2  -3   11.60    1.41
   2  -2  -3   11.79    1.38
   2  -2  -3   11.96    0.81
   2  -2  -3   13.30    1.29
   2  -2  -3   11.51    1.32
  -2   2   3   11.23    1.37
  -2   2   3   11.71    1.50
  -2   2   3   11.43    1.63
  -2   2   3   10.35    2.03
  -2   2   3    8.81    1.13
  -2   2   3   13.77    1.32
   1  -2  -3   86.25    3.35
   1  -2  -3   86.63    3.86
   1  -2  -3   88.90    4.02
   1  -2  -3   85.29    4.06
   1  -2  -3   86.30    3.42
   1  -2  -3   86.69    3.70
  -1   2   3   86.27    4.28
  -1   2   3   82.44    4.88
  -1   2   3   92.31    3.92
  -1   2   3   89.83    4.14
  -1   2   3   90.78    3.89
  -1   2   3   82.25    3.75
  -1   2   3   85.61    4.06
   0  -2  -3    1.42    0.43
   0  -2  -3    1.38    0.45
   0  -2  -3    0.61    0.61
   0  -2  -3    1.73    0.49
   0  -2  -3    2.02    0.52
   0  -2  -3    1.42    0.48
   0  -2  -3    1.39    0.63
   0   2   3    2.76    1.01
   0   2   3    1.74    0.85
   0   2   3    1.46    0.42
   0   2   3    1.47    0.52
   0   2   3    1.46    0.41
   0   2   3    0.95    0.43
   0   2   3    1.53    0.60
   0   2   3    2.47    0.52
  -1  -2  -3  104.44    4.40
  -1  -2  -3  105.58    4.22
  -1  -2  -3  108.63    4.67
  -1  -2  -3  109.45    4.36
  -1  -2  -3  106.10    4.14
  -1  -2  -3  104.95    4.21
  -1  -2  -3  108.63    4.46
   1   2   3  106.74    4.51
   1   2   3  106.55    4.46
   1   2   3  105.45    4.10
   1   2   3  113.57    4.71
   1   2   3  104.80    4.12
   1   2   3  107.15    5.13
   1   2   3  107.98    4.45
  -2  -2  -3  142.48    5.67
  -2  -2  -3  143.54    6.24
  -2  -2  -3  137.55    5.51
  -2  -2  -3  143.77    5.47
  -2  -2  -3  150.84    6.31
  -2  -2  -3  145.91    5.61
  -2  -2  -3  143.23    5.90
   2   2   3  146.34    5.48
   2   2   3  133.32    5.91
   2   2   3  143.70    6.35
   2   2   3  147.67    6.05
  -3  -2  -3   24.48    1.57
  -3  -2  -3   24.51    2.42
  -3  -2  -3   24.53    1.58
  -3  -2  -3   23.79    1.55
  -3  -2  -3   20.91    1.42
  -3  -2  -3   21.79    2.00
  -3  -2  -3   23.31    1.48
  -3  -2  -3   23.50    1.15
   3   2   3   23.19    1.55
   3   2   3   24.91    1.32
   3   2   3   23.35    1.56
   3   2   3   22.25    2.18
   3   2   3   21.27    1.48
  -4  -2  -3  426.47   17.54
  -4  -2  -3  431.83   16.90
  -4  -2  -3  399.40   17.74
  -4  -2  -3  426.02   17.15
  -4  -2  -3  411.53   15.37
  -4  -2  -3  413.09   15.65
  -4  -2  -3  427.55   16.06
  -4  -2  -3  442.25   16.02
   4   2   3  426.09   16.23
   4   2   3  427.62   18.16
   4   2   3  419.46   15.44
   4   2   3  424.39   15.99
  -5  -2  -3    4.20    1.25
  -5  -2  -3    1.95    1.37
  -5  -2  -3    4.85    0.90
  -5  -2  -3    3.28    1.44
  -5  -2  -3    2.80    1.09
  -5  -2  -3    4.39    1.06
  -5  -2  -3    5.51    1.24
  -5  -2  -3    4.28    0.96
   5   2   3    6.60    1.81
   5   2   3    5.20    1.19
   5   2   3    3.76    0.83
   5   2   3    2.40    1.01
  -6  -2  -3   62.11    3.04
  -6  -2  -3   67.46    3.81
  -6  -2  -3   68.66    3.68
  -6  -2  -3   60.13    4.26
  -6  -2  -3   67.29    3.97
  -6  -2  -3   60.53    3.67
  -6  -2  -3   68.08    3.60
  -6  -2  -3   57.48    4.06
   6   2   3   63.80    3.69
   6   2   3   68.80    3.88
   6   2   3   63.95    4.40
   6   2   3   64.64    3.37
  -7  -2  -3   66.36    3.91
  -7  -2  -3   68.22    4.09
  -7  -2  -3   60.54    4.39
  -7  -2  -3   68.70    4.02
  -7  -2  -3   66.46    3.69
  -7  -2  -3   61.56    3.91
  -7  -2  -3   48.88    4.34
   7   2   3   57.49    3.82
   7   2   3   57.14    4.94
   7   2   3   63.07    3.55
   7   2   3   67.36    3.96
  -8  -2  -3    9.37    1.86
  -8  -2  -3    5.93    2.24
  -8  -2  -3    8.94    2.08
  -8  -2  -3    5.26    1.79
  -8  -2  -3    9.56    1.96
  -8  -2  -3   10.17    2.20
  -8  -2  -3    8.34    1.74
   8   2   3    6.02    2.51
   8   2   3   11.33    1.76
   8   2   3    8.37    1.91
   8   2   3    7.45    2.09
  -9  -2  -3   24.06    2.68
  -9  -2  -3   25.48    2.97
  -9  -2  -3   21.26    2.97
  -9  -2  -3   27.27    3.36
  -9  -2  -3   20.07    3.40
  -9  -2  -3   29.09    3.16
   9   2   3   24.65    3.03
   9   2   3   23.23    3.90
   9   2   3   20.55    3.01
 -10  -2  -3   15.45    2.98
 -10  -2  -3   11.97    3.17
 -10  -2  -3    9.20    2.05
 -10  -2  -3   11.30    2.44
  10   2   3    9.10    2.58
  10   2   3   16.12    2.79
   6  -3  -3   10.62    2.26
   6  -3  -3   12.44    2.23
  -6   3   3    5.98    2.78
  -6   3   3    9.47    1.84
  -6   3   3    7.66    1.99
   5  -3  -3   31.44    3.78
   5  -3  -3   28.59    2.84
   5  -3  -3   28.27    2.78
   5  -3  -3   30.19    3.02
  -5   3   3   22.18    3.55
  -5   3   3   31.63    2.68
  -5   3   3   28.03    2.79
  -5   3   3   30.18    3.92
   4  -3  -3    2.05    1.42
   4  -3  -3    4.15    1.87
   4  -3  -3    4.56    1.35
   4  -3  -3    5.04    1.41
  -4   3   3    7.16    2.04
  -4   3   3    5.64    1.37
  -4   3   3    1.72    2.16
  -4   3   3    5.21    1.25
  -4   3   3    5.03    1.56
   3  -3  -3    2.98    1.10
   3  -3  -3    3.37    1.11
   3  -3  -3    0.47    1.32
   3  -3  -3    0.68    1.18
  -3   3   3    2.38    1.60
  -3   3   3    0.06    0.72
  -3   3   3    2.36    2.00
  -3   3   3   -0.91    1.04
  -3   3   3    1.92    0.89
   2  -3  -3    9.29    1.39
   2  -3  -3    8.34    1.26
   2  -3  -3    9.86    0.90
   2  -3  -3   10.59    1.61
   2  -3  -3    9.63    1.31
   2  -3  -3    8.73    0.82
  -2   3   3   12.02    1.52
  -2   3   3    8.82    1.73
  -2   3   3    9.17    1.15
  -2   3   3    6.35    2.19
  -2   3   3   11.58    1.28
  -2   3   3    8.78    1.68
   1  -3  -3    1.61    0.75
   1  -3  -3   -0.29    0.45
   1  -3  -3    0.31    0.80
   1  -3  -3   -0.12    0.65
   1  -3  -3   -1.18    0.76
   1  -3  -3   -0.08    0.44
  -1   3   3    0.77    1.08
  -1   3   3    0.90    0.63
  -1   3   3   -1.90    0.93
  -1   3   3    1.06    0.77
  -1   3   3    0.06    0.52
  -1   3   3   -1.30    1.60
   0  -3  -3    6.88    0.75
   0  -3  -3    6.98    0.95
   0  -3  -3    5.69    0.62
   0  -3  -3    5.52    0.74
   0  -3  -3    5.30    0.77
   0  -3  -3    7.12    0.98
   0  -3  -3    5.53    0.82
   0   3   3    6.62    0.66
   0   3   3    4.42    1.44
   0   3   3    5.54    1.14
   0   3   3    5.50    0.99
   0   3   3    7.14    0.93
  -1  -3  -3   90.91    4.20
  -1  -3  -3   95.81    3.82
  -1  -3  -3   95.41    3.79
  -1  -3  -3   92.50    3.90
  -1  -3  -3   91.90    4.01
  -1  -3  -3   96.59    3.89
  -1  -3  -3   93.92    3.82
  -1  -3  -3   95.15    3.88
   1   3   3   91.80    4.25
   1   3   3   93.19    4.10
   1   3   3   88.55    4.17
   1   3   3   95.69    4.93
   1   3   3   93.93    3.74
  -2  -3  -3  164.17    6.10
  -2  -3  -3  154.49    6.13
  -2  -3  -3  148.14    6.88
  -2  -3  -3  164.39    6.12
  -2  -3  -3  166.69    6.63
  -2  -3  -3  154.04    6.24
  -2  -3  -3  162.08    6.54
  -2  -3  -3  144.47    6.65
   2   3   3  160.12    6.47
   2   3   3  157.58    6.62
   2   3   3  164.74    6.10
   2   3   3  160.71    6.64
   2   3   3  162.10    6.44
   2   3   3  161.96    7.31
  -3  -3  -3  143.32    6.94
  -3  -3  -3  150.78    6.24
  -3  -3  -3  150.98    5.79
  -3  -3  -3  150.17    6.13
  -3  -3  -3  148.62    7.00
  -3  -3  -3  137.27    5.83
  -3  -3  -3  140.59    5.62
  -3  -3  -3  140.50    5.62
   3   3   3  148.10    6.04
   3   3   3  139.20    5.58
   3   3   3  144.73    6.45
   3   3   3  126.47    6.39
  -4  -3  -3    5.36    0.51
  -4  -3  -3    3.97    0.84
  -4  -3  -3    4.46    0.51
  -4  -3  -3    3.19    0.81
  -4  -3  -3    4.82    1.04
  -4  -3  -3    3.05    0.93
  -4  -3  -3    4.47    0.80
  -4  -3  -3    3.26    0.89
  -4  -3  -3    1.83    1.36
   4   3   3    4.02    0.81
   4   3   3    2.71    0.70
   4   3   3    5.10    0.88
   4   3   3    4.26    1.42
   4   3   3    4.50    0.86
  -5  -3  -3    3.56    0.97
  -5  -3  -3    1.42    1.38
  -5  -3  -3    1.49    0.95
  -5  -3  -3    1.63    0.76
  -5  -3  -3   -0.32    0.93
  -5  -3  -3   -0.92    0.92
  -5  -3  -3    0.34    0.59
  -5  -3  -3    1.54    0.77
   5   3   3    1.47    1.00
   5   3   3    4.07    0.85
   5   3   3    4.43    1.49
   5   3   3    3.39    0.97
  -6  -3  -3  106.05    4.76
  -6  -3  -3   98.33    5.23
  -6  -3  -3   96.24    5.04
  -6  -3  -3  102.19    4.97
  -6  -3  -3   97.42    4.72
  -6  -3  -3  101.36    4.30
  -6  -3  -3   97.58    5.32
  -6  -3  -3   87.73    5.68
   6   3   3   94.69    4.91
   6   3   3   95.02    5.56
   6   3   3  102.86    4.60
   6   3   3  101.10    4.35
  -7  -3  -3   16.85    2.33
  -7  -3  -3   14.86    2.03
  -7  -3  -3   15.21    1.82
  -7  -3  -3   14.46    2.46
  -7  -3  -3   15.95    2.04
  -7  -3  -3   16.62    2.30
  -7  -3  -3   15.16    1.88
   7   3   3   15.08    2.05
   7   3   3   18.75    2.21
   7   3   3   16.42    2.55
   7   3   3   17.04    1.88
  -8  -3  -3   30.08    3.49
  -8  -3  -3   36.81    3.03
  -8  -3  -3   37.60    3.33
  -8  -3  -3   37.62    3.48
  -8  -3  -3   28.74    2.81
  -8  -3  -3   31.87    3.63
  -8  -3  -3   34.70    3.18
   8   3   3   36.35    3.20
   8   3   3   26.00    3.58
   8   3   3   37.82    2.94
   8   3   3   36.36    3.22
  -9  -3  -3    1.11    1.59
  -9  -3  -3    0.41    1.82
  -9  -3  -3    1.77    1.36
  -9  -3  -3   -1.01    1.23
  -9  -3  -3   -1.36    1.82
  -9  -3  -3   -0.42    1.56
   9   3   3   -1.04    1.51
   9   3   3    0.59    2.37
   9   3   3    1.59    1.70
 -10  -3  -3   27.46    2.98
 -10  -3  -3   20.23    3.28
 -10  -3  -3   20.12    2.88
 -10  -3  -3   19.33    3.56
 -10  -3  -3   28.93    3.51
  10   3   3   21.39    3.08
  10   3   3   24.16    3.23
   5  -4  -3   13.22    2.39
   5  -4  -3    9.66    1.96
  -5   4   3    6.14    2.86
  -5   4   3   10.31    3.07
  -5   4   3    6.62    1.58
   4  -4  -3   20.66    2.55
   4  -4  -3   22.45    2.43
  -4   4   3   23.07    3.32
  -4   4   3   16.97    3.52
  -4   4   3   19.51    2.52
  -4   4   3   22.05    2.16
   3  -4  -3    6.48    1.51
   3  -4  -3   10.99    1.60
   3  -4  -3    7.12    1.38
   3  -4  -3    8.35    2.13
  -3   4   3    8.48    2.65
  -3   4   3    7.92    2.21
  -3   4   3    8.64    1.74
  -3   4   3    6.12    1.21
   2  -4  -3   17.03    1.91
   2  -4  -3   20.59    1.99
   2  -4  -3   19.61    1.83
   2  -4  -3   23.35    2.53
  -2   4   3   18.85    2.41
  -2   4   3   18.05    1.68
  -2   4   3   20.65    3.33
  -2   4   3   20.25    2.51
  -2   4   3   18.46    2.07
   1  -4  -3    5.36    0.80
   1  -4  -3    6.79    1.28
   1  -4  -3    4.68    1.05
   1  -4  -3    4.96    0.84
   1  -4  -3    6.78    1.48
   1  -4  -3    4.71    1.05
  -1   4   3    6.15    1.22
  -1   4   3    7.77    1.05
  -1   4   3    5.74    0.84
  -1   4   3    6.96    2.16
  -1   4   3    2.41    1.36
  -1   4   3    5.44    1.47
   0  -4  -3  127.08    5.27
   0  -4  -3  127.61    4.98
   0  -4  -3  123.11    5.51
   0  -4  -3  118.17    5.74
   0  -4  -3  122.36    5.34
   0  -4  -3  129.44    4.98
   0   4   3  124.82    5.54
   0   4   3  125.07    6.04
   0   4   3  124.33    7.07
   0   4   3  124.99    5.79
   0   4   3  123.35    5.14
  -1  -4  -3    2.48    0.74
  -1  -4  -3    1.39    0.69
  -1  -4  -3    1.94    0.63
  -1  -4  -3    2.43    0.67
  -1  -4  -3    3.20    0.78
   1   4   3    0.94    0.70
   1   4   3   -0.08    0.81
   1   4   3    1.08    0.81
   1   4   3    2.27    1.52
  -2  -4  -3  187.81    7.43
  -2  -4  -3  194.06    8.05
  -2  -4  -3  200.01    8.38
  -2  -4  -3  190.64    7.62
  -2  -4  -3  192.98    7.41
   2   4   3  195.77    7.36
   2   4   3  190.85    8.05
   2   4   3  220.50    9.27
   2   4   3  192.20    8.11
   2   4   3  181.93    8.02
  -3  -4  -3   46.58    2.58
  -3  -4  -3   46.66    2.43
  -3  -4  -3   48.82    2.22
  -3  -4  -3   51.17    2.63
  -3  -4  -3   47.38    2.52
  -3  -4  -3   47.17    2.40
  -3  -4  -3   52.01    3.58
  -3  -4  -3   44.99    2.43
  -3  -4  -3   56.71    3.68
   3   4   3   46.25    2.97
   3   4   3   46.72    2.19
   3   4   3   45.06    2.71
   3   4   3   48.95    2.39
   3   4   3   50.58    2.31
  -4  -4  -3    7.20    1.15
  -4  -4  -3   11.24    1.18
  -4  -4  -3    9.39    1.04
  -4  -4  -3    9.70    1.16
  -4  -4  -3    8.91    1.27
  -4  -4  -3    8.81    2.07
  -4  -4  -3    8.63    1.05
  -4  -4  -3    8.85    1.15
  -4  -4  -3    8.84    1.11
   4   4   3   10.00    0.72
   4   4   3   11.37    1.65
   4   4   3    9.28    1.26
   4   4   3   11.57    1.17
   4   4   3    9.40    1.18
  -5  -4  -3  291.08   12.61
  -5  -4  -3  329.46   12.43
  -5  -4  -3  319.53   12.18
  -5  -4  -3  336.90   12.96
  -5  -4  -3  335.44   14.21
  -5  -4  -3  328.31   13.25
  -5  -4  -3  347.58   13.55
  -5  -4  -3  287.06   14.30
  -5  -4  -3  351.81   13.49
   5   4   3  346.54   14.18
   5   4   3  336.46   12.71
   5   4   3  326.40   12.86
   5   4   3  309.93   12.19
   5   4   3  319.17   13.81
  -6  -4  -3    3.63    1.35
  -6  -4  -3    7.75    1.42
  -6  -4  -3    3.56    1.25
  -6  -4  -3    2.92    0.99
  -6  -4  -3    5.52    1.15
  -6  -4  -3    5.98    0.94
  -6  -4  -3    5.11    1.21
  -6  -4  -3    4.32    1.76
   6   4   3    3.80    0.98
   6   4   3    5.70    1.60
   6   4   3    2.92    1.23
   6   4   3    5.06    1.14
  -7  -4  -3  108.41    5.67
  -7  -4  -3  110.36    5.89
  -7  -4  -3  118.18    5.92
  -7  -4  -3  108.04    5.61
  -7  -4  -3   90.93    6.14
  -7  -4  -3  118.72    5.33
  -7  -4  -3  118.98    4.94
   7   4   3  113.83    5.16
   7   4   3  108.60    6.21
   7   4   3  117.71    5.61
  -8  -4  -3   24.42    2.63
  -8  -4  -3   23.92    2.66
  -8  -4  -3   18.57    2.65
  -8  -4  -3   21.45    2.33
  -8  -4  -3   21.71    2.79
  -8  -4  -3   22.45    3.17
   8   4   3   22.21    2.58
   8   4   3   22.13    2.26
   8   4   3   23.05    2.61
   8   4   3   24.55    3.10
  -9  -4  -3   37.98    3.56
  -9  -4  -3   40.44    3.25
  -9  -4  -3   34.50    3.60
  -9  -4  -3   35.40    3.78
  -9  -4  -3   33.83    3.96
  -9  -4  -3   33.80    3.40
   9   4   3   38.89    3.58
   9   4   3   36.01    3.46
   9   4   3   35.28    4.24
 -10  -4  -3   10.26    2.39
 -10  -4  -3   12.87    2.23
 -10  -4  -3    8.31    2.41
 -10  -4  -3    8.76    2.28
 -10  -4  -3   13.46    2.98
 -10  -4  -3    8.63    2.51
  10   4   3    6.04    3.03
  10   4   3    7.94    2.38
  10   4   3    8.08    2.31
   4  -5  -3   31.20    3.22
   4  -5  -3   28.52    2.91
  -4   5   3   29.41    4.16
  -4   5   3   29.71    4.65
   3  -5  -3    2.01    1.37
   3  -5  -3    1.94    1.33
  -3   5   3    0.19    0.94
  -3   5   3    1.72    2.01
  -3   5   3    0.35    2.54
  -3   5   3    1.02    1.49
   2  -5  -3    4.45    1.35
   2  -5  -3    6.09    1.55
  -2   5   3    4.96    1.58
  -2   5   3    8.79    3.06
  -2   5   3    8.56    1.25
  -2   5   3    7.21    2.11
   1  -5  -3    3.29    1.15
   1  -5  -3    2.88    0.83
   1  -5  -3    3.17    0.80
   1  -5  -3    3.71    1.06
  -1   5   3    5.21    1.67
  -1   5   3    4.17    2.35
  -1   5   3    1.59    1.55
  -1   5   3    3.90    1.26
  -1   5   3    3.68    0.91
   0  -5  -3   10.66    1.27
   0  -5  -3    7.10    1.32
   0  -5  -3   11.11    1.19
   0  -5  -3   12.57    1.38
   0  -5  -3   11.82    1.19
   0   5   3    6.89    2.50
   0   5   3   14.47    1.94
   0   5   3   11.89    1.89
   0   5   3    8.79    1.38
  -1  -5  -3    0.55    0.85
  -1  -5  -3    0.87    0.79
  -1  -5  -3    0.74    0.74
  -1  -5  -3    2.85    0.77
  -1  -5  -3    0.20    0.65
   1   5   3   -0.07    0.77
   1   5   3    0.59    0.99
   1   5   3    2.33    1.11
   1   5   3    2.91    1.78
  -2  -5  -3   49.99    2.54
  -2  -5  -3   52.27    2.53
  -2  -5  -3   47.96    2.58
  -2  -5  -3   38.19    4.24
  -2  -5  -3   48.31    2.99
   2   5   3   50.31    3.88
   2   5   3   43.61    2.72
   2   5   3   40.91    2.87
   2   5   3   42.80    2.59
  -3  -5  -3  154.40    5.98
  -3  -5  -3  144.17    6.17
  -3  -5  -3  146.12    7.45
  -3  -5  -3  147.76    6.48
  -3  -5  -3  143.84    5.95
  -3  -5  -3  145.92    6.11
  -3  -5  -3  144.88    8.08
   3   5   3  139.71    6.44
   3   5   3  152.97    6.47
   3   5   3  145.74    5.88
   3   5   3  145.68    6.50
   3   5   3  154.44    7.39
  -4  -5  -3  235.67    9.27
  -4  -5  -3  234.69    9.26
  -4  -5  -3  235.19   10.07
  -4  -5  -3  238.99   11.14
  -4  -5  -3  240.78    9.32
  -4  -5  -3  239.59    9.73
  -4  -5  -3  239.91    9.68
  -4  -5  -3  244.66    9.58
  -4  -5  -3  247.74   11.37
   4   5   3  253.61   11.01
   4   5   3  244.98   10.36
   4   5   3  238.06    9.91
   4   5   3  240.79    9.25
  -5  -5  -3   40.38    2.42
  -5  -5  -3   35.24    2.27
  -5  -5  -3   33.87    3.41
  -5  -5  -3   35.45    2.68
  -5  -5  -3   33.62    2.26
  -5  -5  -3   38.68    2.24
  -5  -5  -3   42.51    2.34
  -5  -5  -3   36.35    2.31
  -5  -5  -3   33.18    2.39
   5   5   3   41.79    2.46
   5   5   3   38.89    2.64
   5   5   3   39.41    2.28
   5   5   3   40.17    2.76
  -6  -5  -3   23.18    2.00
  -6  -5  -3   21.31    1.91
  -6  -5  -3   24.87    2.46
  -6  -5  -3   25.98    2.26
  -6  -5  -3   24.44    2.97
  -6  -5  -3   23.40    2.17
  -6  -5  -3   25.58    2.13
   6   5   3   27.85    2.10
   6   5   3   26.25    2.06
   6   5   3   25.64    2.48
   6   5   3   24.45    2.22
  -7  -5  -3   20.77    2.15
  -7  -5  -3   16.21    1.93
  -7  -5  -3   16.65    2.02
  -7  -5  -3   17.98    2.25
  -7  -5  -3   17.71    2.16
  -7  -5  -3   19.42    1.83
  -7  -5  -3   10.00    2.25
   7   5   3   15.62    2.09
   7   5   3   16.32    1.66
   7   5   3   19.71    2.41
   7   5   3   15.60    1.79
  -8  -5  -3   -1.76    1.11
  -8  -5  -3    0.29    1.46
  -8  -5  -3   -0.16    1.75
  -8  -5  -3   -0.52    1.01
  -8  -5  -3    1.22    1.35
   8   5   3    0.94    1.68
   8   5   3    1.01    1.21
   8   5   3   -1.48    1.29
   8   5   3    0.01    1.27
  -9  -5  -3   25.25    2.99
  -9  -5  -3   27.22    3.19
  -9  -5  -3   21.60    3.29
  -9  -5  -3   17.95    2.62
  -9  -5  -3   25.13    2.60
  -9  -5  -3   20.53    2.88
   9   5   3   22.86    2.46
   9   5   3   32.86    3.24
   9   5   3   25.77    2.95
   9   5   3   26.16    3.56
 -10  -5  -3   -1.79    1.52
 -10  -5  -3    0.71    1.83
 -10  -5  -3    3.89    2.11
 -10  -5  -3    2.32    2.01
 -10  -5  -3    1.16    2.18
 -10  -5  -3    1.75    1.57
  10   5   3    1.78    2.57
  10   5   3    1.21    1.73
  10   5   3    0.49    1.81
   4  -6  -3    0.57    1.79
   4  -6  -3    0.77    1.49
   4  -6  -3    3.34    3.66
  -4   6   3    2.92    3.01
  -4   6   3    1.33    2.55
   3  -6  -3    6.18    1.75
   3  -6  -3    6.91    1.97
  -3   6   3    5.46    2.04
  -3   6   3    5.31    3.24
  -3   6   3    6.69    2.58
   2  -6  -3    1.69    1.29
   2  -6  -3    1.72    1.25
  -2   6   3    2.86    2.03
  -2   6   3    0.79    1.49
  -2   6   3    2.04    2.91
   1  -6  -3   17.48    1.65
   1  -6  -3   14.60    1.94
   1  -6  -3   16.66    1.90
  -1   6   3   19.24    2.71
  -1   6   3   15.79    3.49
  -1   6   3   16.74    2.18
  -1   6   3   18.13    1.68
  -1   6   3   22.37    2.92
   0  -6  -3    2.18    0.88
   0  -6  -3    1.94    0.86
   0  -6  -3    2.84    1.15
   0  -6  -3    1.81    1.09
   0   6   3    4.25    2.58
   0   6   3    1.79    1.55
   0   6   3   -0.39    1.02
   0   6   3    1.11    1.50
  -1  -6  -3   86.06    7.23
  -1  -6  -3  107.00    4.94
  -1  -6  -3  100.96    4.63
  -1  -6  -3  108.12    4.64
  -1  -6  -3  110.67    4.99
   1   6   3  101.83    5.43
   1   6   3  108.10    5.20
   1   6   3  110.86    6.84
   1   6   3  113.87    5.76
  -2  -6  -3   51.18    2.68
  -2  -6  -3   44.40    4.98
  -2  -6  -3   51.68    2.83
  -2  -6  -3   47.34    2.81
  -2  -6  -3   52.26    2.68
  -2  -6  -3   46.96    3.41
   2   6   3   49.78    3.29
   2   6   3   50.95    4.36
   2   6   3   45.38    2.87
   2   6   3   55.27    3.35
  -3  -6  -3  236.49   11.02
  -3  -6  -3  237.56   10.15
  -3  -6  -3  240.97    9.60
  -3  -6  -3  242.68    9.69
  -3  -6  -3  239.51    9.33
  -3  -6  -3  230.55   12.39
  -3  -6  -3  246.71    9.33
   3   6   3  240.15   10.16
   3   6   3  247.83   10.43
   3   6   3  236.48   11.48
   3   6   3  235.77   10.11
  -4  -6  -3    3.88    1.00
  -4  -6  -3    3.88    1.02
  -4  -6  -3    4.40    1.09
  -4  -6  -3    2.23    0.96
  -4  -6  -3    3.18    0.93
  -4  -6  -3    2.65    1.56
  -4  -6  -3    3.68    1.00
  -4  -6  -3    3.37    1.81
   4   6   3    2.58    0.88
   4   6   3    2.84    1.10
   4   6   3    2.55    0.96
   4   6   3    5.25    1.80
  -5  -6  -3   10.81    1.40
  -5  -6  -3    9.22    1.42
  -5  -6  -3    7.79    1.50
  -5  -6  -3   11.17    1.40
  -5  -6  -3    7.96    1.40
  -5  -6  -3   13.42    2.31
  -5  -6  -3   11.29    1.44
  -5  -6  -3    8.95    1.26
   5   6   3    8.50    1.25
   5   6   3    8.31    1.44
   5   6   3   10.66    1.55
   5   6   3   10.96    1.75
  -6  -6  -3  170.97    7.07
  -6  -6  -3  164.66    7.62
  -6  -6  -3  172.63    7.42
  -6  -6  -3  148.10    8.45
  -6  -6  -3  187.04    7.18
  -6  -6  -3  165.87    7.72
  -6  -6  -3  166.18    7.34
  -6  -6  -3  168.30    7.11
   6   6   3  168.81    7.96
   6   6   3  184.38    7.54
   6   6   3  169.46    7.03
  -7  -6  -3   -0.28    1.57
  -7  -6  -3    0.30    1.35
  -7  -6  -3   -0.47    0.91
  -7  -6  -3    0.12    1.02
  -7  -6  -3    1.75    1.05
  -7  -6  -3    0.51    0.98
  -7  -6  -3    0.59    0.90
   7   6   3    1.19    0.96
   7   6   3    0.89    1.37
   7   6   3   -0.73    0.98
   7   6   3    0.64    1.09
  -8  -6  -3   97.06    4.82
  -8  -6  -3   92.73    5.12
  -8  -6  -3   64.09    5.91
  -8  -6  -3   92.11    4.55
  -8  -6  -3   93.99    5.07
  -8  -6  -3   92.87    5.04
  -8  -6  -3   91.78    5.22
   8   6   3   87.66    5.47
   8   6   3   98.00    5.11
   8   6   3   93.13    4.53
  -9  -6  -3    7.78    2.47
  -9  -6  -3   11.10    2.13
  -9  -6  -3   12.05    2.16
  -9  -6  -3    9.40    1.81
  -9  -6  -3   12.14    2.33
   9   6   3   13.62    2.37
   9   6   3   10.69    1.90
   9   6   3   11.49    2.67
   9   6   3   10.55    2.20
 -10  -6  -3   40.93    3.58
 -10  -6  -3   40.94    3.88
 -10  -6  -3   37.53    3.77
 -10  -6  -3   44.07    4.17
 -10  -6  -3   30.87    4.33
  10   6   3   43.65    4.75
  10   6   3   42.04    3.95
   3  -7  -3   10.72    4.38
   3  -7  -3   14.53    2.58
   3  -7  -3   13.49    2.28
  -3   7   3   16.50    3.57
  -3   7   3   13.63    4.06
   2  -7  -3   10.20    3.95
   2  -7  -3    4.14    1.62
   2  -7  -3    7.67    1.86
  -2   7   3    0.40    1.78
  -2   7   3    4.57    2.55
  -2   7   3    5.96    3.49
   1  -7  -3    3.58    1.43
   1  -7  -3    6.66    1.67
   1  -7  -3    3.23    3.36
  -1   7   3    4.19    2.16
  -1   7   3    5.26    2.25
  -1   7   3    4.02    1.68
  -1   7   3    5.00    3.27
   0  -7  -3   19.53    2.16
   0  -7  -3   22.10    2.29
   0  -7  -3   22.48    2.00
   0  -7  -3   20.29    1.83
   0  -7  -3   21.84    4.43
   0   7   3   19.96    2.29
   0   7   3   21.46    2.91
   0   7   3   19.10    2.74
   0   7   3   16.74    3.70
  -1  -7  -3   37.32    2.38
  -1  -7  -3   35.30    5.04
  -1  -7  -3   35.98    2.76
  -1  -7  -3   35.51    2.75
  -1  -7  -3   37.65    2.45
   1   7   3   38.77    3.40
   1   7   3   35.51    2.89
   1   7   3   34.48    4.32
   1   7   3   36.37    3.29
  -2  -7  -3    6.44    1.22
  -2  -7  -3    5.09    1.08
  -2  -7  -3    6.78    1.33
  -2  -7  -3    8.03    2.92
  -2  -7  -3    4.76    1.27
   2   7   3    9.62    1.80
   2   7   3    5.42    1.50
   2   7   3    5.94    1.41
   2   7   3    5.10    2.33
  -3  -7  -3    8.65    1.38
  -3  -7  -3    9.88    1.47
  -3  -7  -3   10.54    2.75
  -3  -7  -3   10.19    1.40
  -3  -7  -3   11.50    1.52
   3   7   3    8.63    1.47
   3   7   3    9.05    1.62
   3   7   3   11.49    2.49
  -4  -7  -3   39.63    2.54
  -4  -7  -3   47.03    2.62
  -4  -7  -3   38.47    2.66
  -4  -7  -3   41.17    2.75
  -4  -7  -3   42.47    3.94
  -4  -7  -3   42.01    3.56
  -4  -7  -3   40.74    2.83
   4   7   3   44.39    2.85
   4   7   3   44.29    3.08
   4   7   3   50.55    4.13
   4   7   3   42.41    2.54
  -5  -7  -3  129.89    5.93
  -5  -7  -3  143.79    6.02
  -5  -7  -3  135.41    7.06
  -5  -7  -3  143.41    7.28
  -5  -7  -3  133.06    6.18
  -5  -7  -3  138.39    5.98
  -5  -7  -3  146.74    6.41
  -5  -7  -3  143.61    6.56
   5   7   3  132.22    7.20
   5   7   3  134.58    6.50
   5   7   3  131.63    6.38
   5   7   3  137.02    5.96
  -6  -7  -3   20.38    2.02
  -6  -7  -3   20.65    2.19
  -6  -7  -3   24.93    2.91
  -6  -7  -3   24.21    2.08
  -6  -7  -3   21.22    1.98
  -6  -7  -3   21.11    2.35
  -6  -7  -3   23.43    2.20
   6   7   3   20.32    2.36
   6   7   3   17.21    1.86
   6   7   3   15.61    2.02
   6   7   3   21.42    2.23
  -7  -7  -3   29.03    2.62
  -7  -7  -3   22.36    3.08
  -7  -7  -3   28.96    2.44
  -7  -7  -3   22.91    2.46
  -7  -7  -3   30.00    2.45
  -7  -7  -3   21.78    2.68
   7   7   3   29.23    2.36
   7   7   3   25.37    2.57
   7   7   3   27.68    2.51
  -8  -7  -3    2.65    1.28
  -8  -7  -3    4.37    1.52
  -8  -7  -3    3.18    1.30
  -8  -7  -3    2.94    2.03
  -8  -7  -3    2.72    1.74
  -8  -7  -3    4.87    1.39
   8   7   3    4.89    1.36
   8   7   3    5.35    1.72
  -9  -7  -3    4.49    1.49
  -9  -7  -3    3.63    1.80
  -9  -7  -3    3.84    1.61
  -9  -7  -3    2.39    1.87
  -9  -7  -3    2.94    1.52
  -9  -7  -3    2.31    2.27
   9   7   3    2.74    1.82
   9   7   3    4.92    1.54
 -10  -7  -3    3.75    2.41
 -10  -7  -3    6.85    2.08
 -10  -7  -3    8.61    2.30
 -10  -7  -3    8.37    2.14
 -10  -7  -3    6.99    1.89
  10   7   3    8.78    2.28
  10   7   3   10.92    2.29
   1  -8  -3    7.11    1.90
   1  -8  -3    7.16    1.81
   1  -8  -3   10.10    4.07
  -1   8   3    5.22    2.05
  -1   8   3    8.33    3.61
  -1   8   3    7.98    2.66
   0  -8  -3    3.49    1.34
   0  -8  -3    4.40    1.19
   0  -8  -3    3.28    1.34
   0  -8  -3    0.82    2.96
   0  -8  -3    2.08    1.44
   0   8   3    6.19    1.80
   0   8   3    4.14    2.12
   0   8   3    1.03    1.98
   0   8   3    5.46    3.06
  -1  -8  -3    4.09    1.38
  -1  -8  -3    6.41    1.54
  -1  -8  -3    5.34    3.29
  -1  -8  -3    4.40    1.14
  -1  -8  -3    4.14    1.16
   1   8   3    1.67    2.55
   1   8   3    7.37    1.69
   1   8   3    5.78    2.00
  -2  -8  -3   57.26    3.65
  -2  -8  -3   61.80    3.41
  -2  -8  -3   66.53    6.47
  -2  -8  -3   69.74    3.48
  -2  -8  -3   60.90    3.61
   2   8   3   64.34    4.19
   2   8   3   61.67    3.83
   2   8   3   59.45    5.72
  -3  -8  -3    8.43    2.93
  -3  -8  -3    8.48    1.58
  -3  -8  -3   12.41    1.60
  -3  -8  -3   12.84    1.67
  -3  -8  -3   13.01    1.81
   3   8   3   10.79    2.59
   3   8   3   10.09    1.70
   3   8   3    8.94    1.83
  -4  -8  -3  162.26    7.14
  -4  -8  -3  166.40    6.87
  -4  -8  -3  168.89    6.91
  -4  -8  -3  188.94    9.64
  -4  -8  -3  161.44    7.15
   4   8   3  140.19    7.32
   4   8   3  151.63    7.44
   4   8   3  145.14    8.65
   4   8   3  153.11    6.74
  -5  -8  -3    1.04    0.93
  -5  -8  -3    2.51    1.05
  -5  -8  -3    2.00    1.18
  -5  -8  -3    2.17    1.57
  -5  -8  -3   -1.03    1.07
  -5  -8  -3    0.92    0.99
   5   8   3    1.20    1.08
   5   8   3    2.89    1.39
   5   8   3   -1.32    1.62
   5   8   3    1.98    1.05
  -6  -8  -3   13.33    1.73
  -6  -8  -3   12.03    1.83
  -6  -8  -3   11.13    1.89
  -6  -8  -3   18.37    2.56
  -6  -8  -3   15.69    1.83
  -6  -8  -3   19.85    2.16
  -6  -8  -3   13.07    1.71
   6   8   3   14.36    2.02
   6   8   3   17.13    2.21
   6   8   3   21.03    2.06
   6   8   3   22.56    2.76
  -7  -8  -3   70.33    3.91
  -7  -8  -3   71.37    4.53
  -7  -8  -3   73.10    3.93
  -7  -8  -3   67.94    4.01
  -7  -8  -3   70.05    4.84
  -7  -8  -3   69.19    4.22
  -7  -8  -3   69.96    3.82
   7   8   3   68.28    4.24
   7   8   3   65.06    4.10
   7   8   3   65.77    3.71
  -8  -8  -3    2.11    1.42
  -8  -8  -3    1.07    1.94
  -8  -8  -3    2.55    1.34
  -8  -8  -3    4.06    1.40
  -8  -8  -3    6.00    1.68
  -8  -8  -3    5.01    1.93
   8   8   3    2.47    1.57
   8   8   3    3.88    1.56
   8   8   3    2.52    1.42
   8   8   3    2.37    1.31
  -9  -8  -3   47.37    3.83
  -9  -8  -3   39.21    4.52
  -9  -8  -3   48.31    3.62
  -9  -8  -3   43.99    3.83
  -9  -8  -3   54.37    4.48
   9   8   3   41.89    3.36
   9   8   3   45.95    3.89
 -10  -8  -3    8.54    2.82
 -10  -8  -3   11.70    2.12
 -10  -8  -3    6.84    2.39
  10   8   3    8.30    1.91
  10   8   3   10.16    2.49
  10   8   3    8.23    2.35
   0  -9  -3   -0.09    1.47
   0  -9  -3    2.05    1.51
   0  -9  -3   -0.15    3.19
   0   9   3    4.03    2.45
   0   9   3    1.43    3.22
  -1  -9  -3   15.07    2.15
  -1  -9  -3   20.26    2.20
  -1  -9  -3   15.35    2.22
  -1  -9  -3   15.84    4.18
  -1  -9  -3   18.86    2.10
   1   9   3   13.05    2.22
   1   9   3   18.83    3.08
   1   9   3    8.62    3.61
  -2  -9  -3   17.88    2.31
  -2  -9  -3   18.33    2.27
  -2  -9  -3   19.57    2.16
  -2  -9  -3   16.88    3.98
  -2  -9  -3   22.04    2.15
   2   9   3   18.08    2.33
   2   9   3   16.11    2.60
   2   9   3   18.39    3.82
  -3  -9  -3   15.56    3.62
  -3  -9  -3   25.86    2.48
  -3  -9  -3   17.78    2.08
  -3  -9  -3   22.43    2.30
  -3  -9  -3   17.51    2.02
   3   9   3   21.94    2.72
   3   9   3   16.37    3.56
   3   9   3   18.20    2.38
  -4  -9  -3    6.75    1.38
  -4  -9  -3    4.59    1.34
  -4  -9  -3    4.65    1.48
  -4  -9  -3    5.02    1.40
  -4  -9  -3    0.76    2.13
   4   9   3    6.95    1.60
   4   9   3    4.71    2.34
   4   9   3    6.67    1.78
  -5  -9  -3    6.08    1.36
  -5  -9  -3    6.71    2.14
  -5  -9  -3    4.42    1.47
  -5  -9  -3    4.55    1.34
  -5  -9  -3    7.31    1.67
   5   9   3    5.26    1.32
   5   9   3    4.07    1.64
   5   9   3    7.95    1.64
   5   9   3    5.29    2.32
  -6  -9  -3   48.39    3.17
  -6  -9  -3   46.14    3.43
  -6  -9  -3   51.67    3.45
  -6  -9  -3   55.23    4.08
  -6  -9  -3   48.21    3.20
   6   9   3   52.61    3.27
   6   9   3   46.55    3.84
   6   9   3   50.06    3.51
   6   9   3   60.45    4.89
  -7  -9  -3   17.93    2.23
  -7  -9  -3   16.43    2.11
  -7  -9  -3   15.85    2.14
  -7  -9  -3   16.19    2.60
  -7  -9  -3   18.03    2.17
   7   9   3   18.90    2.42
   7   9   3   13.23    2.07
   7   9   3   14.87    2.02
  -8  -9  -3   21.47    3.00
  -8  -9  -3   25.05    2.62
  -8  -9  -3   27.18    2.62
  -8  -9  -3   25.85    2.59
  -8  -9  -3   18.92    2.47
  -8  -9  -3   25.57    2.74
   8   9   3   24.74    2.77
   8   9   3   22.74    2.64
   8   9   3   25.92    2.82
   8   9   3   26.28    2.57
  -9  -9  -3    0.02    1.42
  -9  -9  -3   -1.04    1.43
  -9  -9  -3   -0.62    1.25
  -9  -9  -3    3.05    2.03
  -9  -9  -3    0.27    1.22
  -9  -9  -3   -1.21    1.98
   9   9   3    0.92    1.47
   9   9   3   -0.09    1.59
   9   9   3    1.47    1.43
 -10  -9  -3   12.74    2.83
 -10  -9  -3    9.28    2.85
 -10  -9  -3    9.85    2.44
 -10  -9  -3   11.01    2.17
  10   9   3    9.86    2.11
  10   9   3    8.82    2.37
  -1 -10  -3    3.22    1.49
  -1 -10  -3   -0.62    3.16
  -1 -10  -3    0.21    1.40
  -1 -10  -3   -0.08    1.52
  -1 -10  -3   -0.63    1.16
   1  10   3    4.67    3.43
   1  10   3   -3.09    2.01
  -2 -10  -3   10.64    1.83
  -2 -10  -3   12.11    2.02
  -2 -10  -3   15.20    3.92
  -2 -10  -3   11.93    2.15
  -2 -10  -3   15.27    2.27
   2  10   3   10.90    3.55
   2  10   3    7.45    2.46
  -3 -10  -3   31.97    3.05
  -3 -10  -3   33.95    2.95
  -3 -10  -3   29.91    3.07
  -3 -10  -3   34.06    2.89
  -3 -10  -3   38.74    5.21
   3  10   3   30.47    4.61
   3  10   3   34.99    3.31
   3  10   3   33.67    3.64
  -4 -10  -3    1.83    1.26
  -4 -10  -3    1.55    1.39
  -4 -10  -3   -2.54    2.02
  -4 -10  -3    4.03    1.32
  -4 -10  -3   -0.23    1.40
   4  10   3   -0.59    1.05
   4  10   3   -0.84    2.44
   4  10   3    1.94    1.46
   4  10   3    3.08    1.66
  -5 -10  -3  115.76    7.03
  -5 -10  -3   97.74    5.56
  -5 -10  -3  102.71    5.26
  -5 -10  -3  103.64    5.18
  -5 -10  -3   93.03    5.39
   5  10   3   97.81    5.75
   5  10   3  100.93    5.74
   5  10   3  103.37    5.19
   5  10   3  106.44    6.94
  -6 -10  -3    0.57    1.30
  -6 -10  -3   -0.44    1.17
  -6 -10  -3    1.15    1.20
  -6 -10  -3   -0.92    1.41
   6  10   3    2.41    1.63
   6  10   3   -1.52    1.26
   6  10   3    1.20    1.27
   6  10   3    1.02    2.07
  -7 -10  -3   22.43    2.70
  -7 -10  -3   23.29    3.08
  -7 -10  -3   16.61    2.23
  -7 -10  -3   33.77    3.12
  -7 -10  -3   29.54    2.81
   7  10   3   29.41    2.71
   7  10   3   27.81    3.07
   7  10   3   27.44    2.94
  -8 -10  -3   21.79    2.72
  -8 -10  -3   22.55    3.21
  -8 -10  -3   20.15    2.49
  -8 -10  -3   23.85    2.68
   8  10   3   24.77    2.95
   8  10   3   22.42    2.56
  -9 -10  -3    8.45    2.51
  -9 -10  -3   11.96    2.21
  -9 -10  -3    8.67    1.89
  -9 -10  -3   10.47    2.27
   9  10   3   12.21    2.35
   9  10   3   10.37    2.05
  -4 -11  -3   25.00    2.84
  -4 -11  -3   21.78    2.58
  -4 -11  -3   23.44    2.96
  -4 -11  -3   21.54    2.52
  -4 -11  -3   30.05    4.52
   4  11   3   28.32    2.72
   4  11   3   19.94    4.16
   4  11   3   28.39    3.47
  -5 -11  -3   -1.27    1.88
  -5 -11  -3   -0.01    1.34
  -5 -11  -3    0.99    1.71
  -5 -11  -3    0.35    1.42
  -5 -11  -3   -1.16    1.17
   5  11   3   -0.56    1.53
   5  11   3    1.15    2.61
   5  11   3   -0.25    1.22
  -6 -11  -3    0.51    1.16
  -6 -11  -3   -0.49    1.34
  -6 -11  -3    0.94    1.67
  -6 -11  -3    4.16    1.42
   6  11   3    0.94    1.63
   6  11   3   -0.05    1.26
   6  11   3    2.15    2.46
  -7 -11  -3   17.78    2.45
  -7 -11  -3   16.94    2.55
  -7 -11  -3   22.55    3.21
  -7 -11  -3   23.93    2.64
   7  11   3   22.18    2.60
   7  11   3   23.89    3.03
   4  11  -4    6.44    1.92
   4  11  -4    4.77    2.85
   4  11  -4    8.37    3.48
  -4 -11   4    3.79    1.99
  -4 -11   4    5.37    2.93
  -4 -11   4    5.38    1.72
   6  10  -4   61.16    6.61
   6  10  -4   69.49    5.08
   6  10  -4   66.79    4.44
  -6 -10   4   72.68    5.55
  -6 -10   4   78.57    7.74
  -6 -10   4   73.37    4.10
  -6 -10   4   66.08    4.55
   5  10  -4    4.32    2.06
   5  10  -4    1.48    2.83
   5  10  -4    1.06    1.47
  -5 -10   4    2.03    3.23
  -5 -10   4    2.25    1.64
  -5 -10   4    0.69    2.03
  -5 -10   4    0.88    1.24
   4  10  -4   98.80    5.22
   4  10  -4   80.61    7.53
   4  10  -4   78.70    5.06
   4  10  -4   90.72    6.22
  -4 -10   4   92.78    4.72
  -4 -10   4   92.33    6.99
  -4 -10   4   90.22    5.33
   3  10  -4   12.16    2.14
   3  10  -4    7.90    1.90
   3  10  -4    9.23    3.25
   3  10  -4    8.28    2.75
  -3 -10   4    9.29    1.76
  -3 -10   4    9.53    3.24
  -3 -10   4   11.36    2.29
   2  10  -4   18.94    4.03
   2  10  -4   14.37    2.47
   2  10  -4   26.99    4.29
   2  10  -4   19.56    2.62
  -2 -10   4   24.05    2.94
  -2 -10   4   19.08    2.36
  -2 -10   4   16.81    3.93
  -2 -10   4   13.73    2.08
   1  10  -4   40.89    3.85
   1  10  -4   47.26    5.67
   1  10  -4   42.59    5.53
   1  10  -4   42.62    3.89
  -1 -10   4   35.87    3.23
  -1 -10   4   39.79    3.31
  -1 -10   4   30.50    4.84
  -1 -10   4   35.51    3.77
   0  10  -4    9.68    3.45
   0  10  -4    7.61    2.27
   0  10  -4    7.40    3.40
   0 -10   4   10.12    2.58
   0 -10   4    7.31    1.96
   0 -10   4   10.39    1.91
   0 -10   4   12.57    3.49
   7   9  -4   32.36    4.55
   7   9  -4   34.97    3.65
  -7  -9   4   38.63    3.85
  -7  -9   4   40.86    5.34
   6   9  -4   14.28    3.50
   6   9  -4   10.68    2.24
  -6  -9   4   11.04    2.51
  -6  -9   4   12.10    2.07
  -6  -9   4    7.57    3.39
  -6  -9   4   14.23    2.48
   5   9  -4   30.49    4.53
   5   9  -4   34.56    3.55
  -5  -9   4   32.60    3.17
  -5  -9   4   33.71    3.94
  -5  -9   4   34.01    2.74
  -5  -9   4   34.36    5.19
   4   9  -4   20.27    3.95
   4   9  -4   14.91    2.54
   4   9  -4   14.35    1.93
  -4  -9   4   15.71    2.99
  -4  -9   4   13.84    3.94
  -4  -9   4   12.50    1.74
  -4  -9   4   13.37    2.17
   3   9  -4    1.77    1.83
   3   9  -4    1.86    1.27
   3   9  -4    2.05    2.49
  -3  -9   4   -0.14    2.68
  -3  -9   4    0.48    1.07
  -3  -9   4    2.75    2.26
  -3  -9   4    2.21    1.47
  -3  -9   4    2.44    1.13
   2   9  -4   60.94    6.17
   2   9  -4   63.60    3.98
   2   9  -4   69.57    5.54
  -2  -9   4   59.52    3.53
  -2  -9   4   56.47    4.10
  -2  -9   4   49.11    5.81
  -2  -9   4   62.70    3.60
   1   9  -4    1.57    2.57
   1   9  -4    3.04    2.70
   1   9  -4    1.88    1.52
  -1  -9   4    1.24    1.20
  -1  -9   4    0.12    2.48
  -1  -9   4    1.25    1.22
  -1  -9   4    4.43    1.73
   0   9  -4   17.90    3.83
   0   9  -4   27.75    3.05
   0   9  -4   20.65    2.83
   0   9  -4   28.98    4.51
   0  -9   4   28.50    2.64
   0  -9   4   23.37    2.93
   0  -9   4   23.47    4.15
   0  -9   4   27.51    2.63
  -1   9  -4    0.93    2.80
  -1   9  -4    0.99    1.63
  -1   9  -4    2.07    2.65
   1  -9   4    0.92    2.40
   1  -9   4    0.32    1.46
   1  -9   4   -0.40    1.21
   1  -9   4    0.30    1.78
  -2   9  -4   23.17    4.47
  -2   9  -4   25.71    4.27
   2  -9   4   21.25    2.60
   2  -9   4   24.88    2.92
   2  -9   4   17.45    3.71
   8   8  -4   40.02    3.85
   8   8  -4   39.45    3.65
   8   8  -4   41.93    3.62
  -8  -8   4   38.05    3.93
  -8  -8   4   38.17    3.65
  -8  -8   4   36.97    3.66
   7   8  -4    1.86    1.41
   7   8  -4    2.07    1.49
   7   8  -4    2.18    1.53
   7   8  -4    1.42    1.42
  -7  -8   4    4.21    1.61
  -7  -8   4    0.65    1.19
  -7  -8   4    4.07    1.90
  -7  -8   4    3.56    1.45
  -7  -8   4   -0.67    2.28
   6   8  -4   21.37    2.44
   6   8  -4   19.39    3.56
   6   8  -4   23.42    2.74
   6   8  -4   24.29    2.64
  -6  -8   4   24.92    2.54
  -6  -8   4   17.20    3.50
  -6  -8   4   23.12    2.95
  -6  -8   4   21.85    2.20
  -6  -8   4   23.31    2.83
  -6  -8   4   21.51    2.47
  -6  -8   4   25.94    2.55
   5   8  -4  106.36    7.65
   5   8  -4  114.71    6.46
   5   8  -4  119.91    6.03
  -5  -8   4  118.58    5.39
  -5  -8   4  120.67    7.18
  -5  -8   4  116.86    6.55
  -5  -8   4  128.67    5.70
  -5  -8   4  123.63    8.19
  -5  -8   4  119.93    6.12
  -5  -8   4  122.41    6.10
   4   8  -4   10.66    2.98
   4   8  -4    5.50    1.43
   4   8  -4    5.09    1.40
   4   8  -4    6.82    1.80
  -4  -8   4    7.72    2.18
  -4  -8   4    5.70    1.59
  -4  -8   4    4.47    1.21
  -4  -8   4    7.71    3.05
  -4  -8   4    7.49    1.45
  -4  -8   4    8.98    1.32
   3   8  -4  193.99    9.63
   3   8  -4  190.26   11.19
   3   8  -4  198.49    8.79
  -3  -8   4  206.16    9.11
  -3  -8   4  202.68    8.31
  -3  -8   4  210.14    8.24
  -3  -8   4  185.93    8.19
  -3  -8   4  192.03   11.51
  -3  -8   4  197.93    9.06
  -3  -8   4  197.60   11.07
   2   8  -4    3.61    1.67
   2   8  -4    3.91    1.32
   2   8  -4    1.12    2.39
  -2  -8   4    3.68    1.15
  -2  -8   4    1.19    2.78
  -2  -8   4    4.23    1.13
  -2  -8   4    3.61    0.99
  -2  -8   4    1.93    2.31
  -2  -8   4    1.68    1.31
   1   8  -4   60.68    6.05
   1   8  -4   75.08    5.25
   1   8  -4   71.19    4.21
  -1  -8   4   70.37    3.81
  -1  -8   4   81.68    3.97
  -1  -8   4   70.28    4.40
  -1  -8   4   62.30    6.19
   0   8  -4   23.73    4.00
   0   8  -4   37.09    4.62
   0   8  -4   32.94    3.08
   0  -8   4   36.64    3.40
   0  -8   4   37.70    2.89
   0  -8   4   35.08    4.65
   0  -8   4   35.51    2.80
  -1   8  -4   26.28    4.22
  -1   8  -4   34.68    4.51
  -1   8  -4   22.31    2.89
   1  -8   4   28.83    4.16
   1  -8   4   22.21    2.88
   1  -8   4   24.29    2.44
   1  -8   4   29.12    2.65
  -2   8  -4   21.15    3.94
  -2   8  -4   27.83    3.11
  -2   8  -4   19.14    2.92
  -2   8  -4   27.27    4.09
   2  -8   4   26.79    4.02
   2  -8   4   23.67    2.70
   2  -8   4   24.83    2.53
   2  -8   4   25.81    3.06
  -3   8  -4   19.40    3.79
  -3   8  -4   19.33    3.75
   3  -8   4   12.80    2.41
   3  -8   4   11.94    2.07
   3  -8   4   13.70    3.20
   8   7  -4    6.16    1.82
   8   7  -4    1.48    1.66
   8   7  -4    3.07    1.68
  -8  -7   4    4.98    1.96
  -8  -7   4    4.91    1.76
  -8  -7   4    4.75    1.86
  -8  -7   4    3.94    1.70
  -8  -7   4    4.76    2.07
   7   7  -4    3.74    1.54
   7   7  -4    0.72    1.44
   7   7  -4    1.80    1.34
  -7  -7   4    1.33    1.67
  -7  -7   4    3.42    1.61
  -7  -7   4    1.08    1.16
  -7  -7   4    1.82    1.62
  -7  -7   4    2.21    1.39
  -7  -7   4    3.12    2.44
  -7  -7   4   -0.70    1.29
   6   7  -4  103.31    5.65
   6   7  -4  101.67    5.44
   6   7  -4  102.27    5.88
   6   7  -4  113.19    5.93
  -6  -7   4  107.76    5.25
  -6  -7   4  120.94    7.29
  -6  -7   4  102.58    5.49
  -6  -7   4  101.53    5.96
  -6  -7   4  109.51    5.41
  -6  -7   4  116.36    5.80
  -6  -7   4  103.29    5.69
  -6  -7   4  102.16    5.64
   5   7  -4   27.89    2.72
   5   7  -4   27.86    2.32
   5   7  -4   31.34    2.66
  -5  -7   4   24.88    2.22
  -5  -7   4   26.26    3.05
  -5  -7   4   27.21    2.49
  -5  -7   4   27.39    2.77
  -5  -7   4   22.96    1.99
  -5  -7   4   22.71    2.36
  -5  -7   4   27.52    2.51
  -5  -7   4   25.29    3.69
   4   7  -4   95.49    5.03
   4   7  -4   97.52    5.32
   4   7  -4   98.18    4.77
  -4  -7   4   99.32    4.42
  -4  -7   4   96.28    5.06
  -4  -7   4  105.30    4.66
  -4  -7   4  100.09    5.46
  -4  -7   4  104.46    6.82
  -4  -7   4   94.91    6.03
  -4  -7   4   84.66    4.93
   3   7  -4    0.80    0.98
   3   7  -4   -0.15    1.80
   3   7  -4    1.66    1.28
   3   7  -4    1.59    0.96
  -3  -7   4    0.56    0.80
  -3  -7   4    1.89    1.09
  -3  -7   4    2.86    2.13
  -3  -7   4    0.35    0.78
  -3  -7   4    0.45    1.56
  -3  -7   4   -0.80    0.68
  -3  -7   4    0.76    0.87
   2   7  -4    1.24    0.95
   2   7  -4    0.57    1.23
   2   7  -4    0.39    2.04
   2   7  -4    1.51    1.11
  -2  -7   4    1.02    1.08
  -2  -7   4    2.08    0.88
  -2  -7   4   -0.74    0.77
  -2  -7   4    0.31    0.75
  -2  -7   4    0.68    2.28
  -2  -7   4    3.07    2.07
  -2  -7   4    0.61    0.82
   1   7  -4   73.29    4.04
   1   7  -4   57.06    5.76
   1   7  -4   71.38    3.93
   1   7  -4   69.94    4.80
  -1  -7   4   72.15    6.41
  -1  -7   4   71.90    3.66
  -1  -7   4   66.95    5.52
  -1  -7   4   80.87    4.40
  -1  -7   4   77.38    3.67
  -1  -7   4   71.28    3.66
  -1  -7   4   71.70    3.94
   0   7  -4    3.39    2.11
   0   7  -4   -2.00    1.05
   0   7  -4   -0.91    1.88
   0  -7   4    0.29    0.94
   0  -7   4    0.29    0.91
   0  -7   4   -0.54    1.08
   0  -7   4   -0.77    0.92
   0  -7   4   -0.33    2.08
   0  -7   4    0.79    0.82
  -1   7  -4   36.73    4.43
  -1   7  -4   34.03    3.14
  -1   7  -4   35.24    4.38
   1  -7   4   33.68    2.67
   1  -7   4   33.03    2.75
   1  -7   4   39.61    3.37
   1  -7   4   36.04    4.24
   1  -7   4   35.74    2.75
   1  -7   4   36.24    2.55
  -2   7  -4   -0.80    1.43
  -2   7  -4   -2.47    2.21
  -2   7  -4    0.39    2.21
   2  -7   4    2.87    1.43
   2  -7   4    2.39    2.16
   2  -7   4    0.49    1.40
   2  -7   4    1.00    1.20
   2  -7   4    0.91    1.12
   2  -7   4    1.91    1.31
  -3   7  -4   43.13    4.07
  -3   7  -4   45.35    5.04
  -3   7  -4   48.30    5.14
   3  -7   4   49.55    3.17
   3  -7   4   44.03    3.66
   3  -7   4   42.85    4.76
  -4   7  -4    4.27    2.66
  -4   7  -4    5.41    2.46
   4  -7   4    3.27    1.51
   4  -7   4    3.99    1.75
   4  -7   4    4.30    2.32
   8   6  -4    2.03    1.51
   8   6  -4    0.69    1.79
   8   6  -4    0.79    1.65
   8   6  -4   -2.38    1.31
  -8  -6   4    0.90    1.63
  -8  -6   4   -0.20    1.41
  -8  -6   4    3.91    1.82
  -8  -6   4    0.81    1.54
   7   6  -4  110.62    6.11
   7   6  -4  113.31    6.20
   7   6  -4  121.96    6.54
   7   6  -4  110.15    5.92
  -7  -6   4  116.20    5.72
  -7  -6   4  123.71    6.27
  -7  -6   4  117.87    6.32
  -7  -6   4  109.68    6.25
  -7  -6   4  127.22    7.35
  -7  -6   4  123.51    6.56
  -7  -6   4  107.59    6.14
   6   6  -4   -0.76    1.29
   6   6  -4    0.75    1.18
   6   6  -4    0.38    1.12
   6   6  -4    1.07    1.16
  -6  -6   4    1.13    1.82
  -6  -6   4    1.00    1.09
  -6  -6   4    0.33    1.29
  -6  -6   4    2.30    1.12
  -6  -6   4    0.86    1.31
  -6  -6   4    1.67    1.22
  -6  -6   4    0.37    1.20
   5   6  -4   98.19    5.07
   5   6  -4   97.93    4.71
   5   6  -4   91.51    4.83
  -5  -6   4  103.81    5.73
  -5  -6   4   87.89    4.99
  -5  -6   4   91.41    4.86
  -5  -6   4   91.09    4.71
  -5  -6   4   92.00    4.60
  -5  -6   4  100.64    4.94
  -5  -6   4   98.90    6.28
  -5  -6   4   99.52    5.28
  -5  -6   4   97.63    5.06
   4   6  -4  106.84    5.30
   4   6  -4   94.49    4.72
   4   6  -4  100.13    4.98
   4   6  -4   98.71    4.60
  -4  -6   4  100.94    4.27
  -4  -6   4   96.30    5.78
  -4  -6   4   99.23    4.62
  -4  -6   4   93.82    4.71
  -4  -6   4  104.85    5.01
  -4  -6   4   97.46    6.32
  -4  -6   4   94.09    5.00
  -4  -6   4   87.29    5.19
  -4  -6   4   97.54    4.84
   3   6  -4    0.79    0.92
   3   6  -4    0.37    0.79
   3   6  -4    0.29    1.06
   3   6  -4    0.92    0.74
  -3  -6   4    2.20    1.86
  -3  -6   4    0.20    0.64
  -3  -6   4   -1.30    0.78
  -3  -6   4    0.61    1.39
  -3  -6   4    1.63    0.87
  -3  -6   4    1.09    0.75
  -3  -6   4    1.05    0.74
  -3  -6   4    0.42    1.00
   2   6  -4  246.92   10.20
   2   6  -4  234.45    9.91
   2   6  -4  230.23   12.10
   2   6  -4  243.57   10.79
  -2  -6   4  246.69   12.21
  -2  -6   4  239.88    9.34
  -2  -6   4  245.00   10.49
  -2  -6   4  231.29   10.07
  -2  -6   4  233.70    9.59
  -2  -6   4  231.60   12.06
  -2  -6   4  238.03    9.24
   1   6  -4    7.82    2.46
   1   6  -4    5.29    1.62
   1   6  -4    5.72    1.31
   1   6  -4    5.19    1.21
  -1  -6   4    9.79    1.33
  -1  -6   4    3.25    1.94
  -1  -6   4    8.25    1.14
  -1  -6   4    8.84    1.51
  -1  -6   4    8.72    1.25
  -1  -6   4    8.63    2.62
  -1  -6   4    9.31    1.16
   0   6  -4  141.01    8.00
   0   6  -4  135.63    6.29
   0   6  -4  124.57    6.07
   0   6  -4  124.41    7.01
   0  -6   4  126.48    6.20
   0  -6   4  132.16    5.60
   0  -6   4  126.40    5.68
   0  -6   4  131.83    5.62
   0  -6   4  125.77    7.99
   0  -6   4  137.68    6.24
   0  -6   4  130.26    8.02
  -1   6  -4   36.69    3.09
  -1   6  -4   38.60    4.28
  -1   6  -4   38.63    4.15
  -1   6  -4   40.34    3.68
   1  -6   4   39.57    2.59
   1  -6   4   40.38    2.52
   1  -6   4   38.64    3.13
   1  -6   4   34.33    2.70
   1  -6   4   42.08    4.39
   1  -6   4   39.33    2.60
  -2   6  -4   94.77    6.23
  -2   6  -4   84.10    4.82
  -2   6  -4   87.22    5.62
  -2   6  -4   89.43    6.41
   2  -6   4   80.23    4.18
   2  -6   4   84.23    4.44
   2  -6   4   83.23    6.04
   2  -6   4   82.18    4.98
   2  -6   4   79.38    4.70
  -3   6  -4   12.71    2.56
  -3   6  -4   17.70    3.30
  -3   6  -4   10.13    2.73
  -3   6  -4    7.85    2.00
   3  -6   4    8.42    1.85
   3  -6   4   13.26    2.39
   3  -6   4   12.39    1.99
   3  -6   4   11.58    1.73
   3  -6   4   16.84    2.97
  -4   6  -4   43.49    3.95
  -4   6  -4   51.94    4.83
  -4   6  -4   51.12    5.01
   4  -6   4   42.04    3.63
   4  -6   4   39.49    4.42
   4  -6   4   37.65    4.02
   4  -6   4   42.30    3.26
  -5   6  -4   41.02    4.71
   5  -6   4   39.45    4.30
   5  -6   4   47.25    4.76
   5  -6   4   46.81    4.06
   5  -6   4   40.72    3.41
   8   5  -4   28.32    3.38
   8   5  -4   23.41    2.97
   8   5  -4   25.22    3.03
  -8  -5   4   26.74    3.15
  -8  -5   4   27.74    3.33
  -8  -5   4   21.23    2.79
  -8  -5   4   23.61    2.97
   7   5  -4   -1.65    1.40
   7   5  -4    1.34    1.40
   7   5  -4   -0.31    1.23
  -7  -5   4    0.46    1.12
  -7  -5   4    1.01    1.54
  -7  -5   4    0.67    1.26
  -7  -5   4    0.57    1.33
  -7  -5   4    2.50    1.81
  -7  -5   4    0.41    1.33
  -7  -5   4    0.46    1.26
   6   5  -4    3.22    1.43
   6   5  -4    4.23    1.42
   6   5  -4    5.75    1.49
  -6  -5   4    3.15    1.40
  -6  -5   4    6.69    1.55
  -6  -5   4    5.75    1.33
  -6  -5   4    1.50    1.29
  -6  -5   4    4.05    1.93
  -6  -5   4    3.93    1.30
  -6  -5   4    3.03    1.20
   5   5  -4   95.29    4.73
   5   5  -4   88.57    4.73
   5   5  -4   92.64    4.90
   5   5  -4   86.66    4.43
  -5  -5   4   92.88    5.68
  -5  -5   4   94.95    4.87
  -5  -5   4   81.89    4.56
  -5  -5   4   91.92    4.55
  -5  -5   4   79.52    4.83
  -5  -5   4   84.64    4.39
  -5  -5   4   93.33    4.38
  -5  -5   4   88.36    4.81
   4   5  -4   16.44    1.73
   4   5  -4   18.61    1.48
   4   5  -4   20.31    1.74
   4   5  -4   14.60    1.77
   4   5  -4   18.20    1.58
  -4  -5   4   19.08    1.80
  -4  -5   4   16.39    1.96
  -4  -5   4   14.43    1.79
  -4  -5   4   14.68    1.46
  -4  -5   4   17.16    1.73
  -4  -5   4   16.35    1.32
  -4  -5   4   16.10    2.51
  -4  -5   4   14.47    1.69
  -4  -5   4   13.85    2.04
  -4  -5   4   16.95    1.70
  -4  -5   4   14.75    1.63
   3   5  -4  165.83    6.61
   3   5  -4  165.26    7.62
   3   5  -4  170.85    6.93
   3   5  -4  168.08    7.18
   3   5  -4  169.51    7.37
  -3  -5   4  164.03    6.44
  -3  -5   4  173.04    8.54
  -3  -5   4  166.27    7.35
  -3  -5   4  151.96    8.49
  -3  -5   4  167.35    7.56
  -3  -5   4  156.16    6.85
  -3  -5   4  165.95    7.65
  -3  -5   4  159.11    6.54
  -3  -5   4  162.96    6.81
  -3  -5   4  167.61    6.62
  -3  -5   4  156.57    7.15
   2   5  -4    2.16    0.71
   2   5  -4    2.01    0.78
   2   5  -4   -0.27    0.95
   2   5  -4    2.07    0.93
   2   5  -4    2.15    0.64
  -2  -5   4    1.99    0.75
  -2  -5   4    0.58    0.70
  -2  -5   4    1.63    0.66
  -2  -5   4    2.30    0.87
  -2  -5   4    1.94    0.93
  -2  -5   4    0.24    1.25
  -2  -5   4    0.95    0.64
  -2  -5   4    2.20    1.53
  -2  -5   4    1.80    0.97
   1   5  -4   13.69    2.47
   1   5  -4   15.89    1.52
   1   5  -4   16.56    1.63
   1   5  -4   22.36    1.33
  -1  -5   4   15.96    1.58
  -1  -5   4   15.90    1.31
  -1  -5   4   13.78    1.37
  -1  -5   4   13.55    1.35
  -1  -5   4   13.71    2.40
  -1  -5   4   13.84    1.69
  -1  -5   4   15.27    2.50
   0   5  -4   65.00    5.02
   0   5  -4   61.04    3.38
   0   5  -4   62.84    3.56
   0   5  -4   61.79    3.99
   0  -5   4   64.33    5.23
   0  -5   4   64.89    3.19
   0  -5   4   65.07    3.08
   0  -5   4   63.86    3.54
   0  -5   4   54.80    4.62
   0  -5   4   59.45    3.06
   0  -5   4   64.76    3.46
  -1   5  -4    8.24    2.15
  -1   5  -4   12.31    1.91
  -1   5  -4   13.70    2.71
  -1   5  -4   14.46    1.84
   1  -5   4   13.72    1.69
   1  -5   4   10.73    2.56
   1  -5   4   11.90    1.43
   1  -5   4   11.52    1.63
   1  -5   4   10.59    1.36
   1  -5   4   12.44    1.50
   1  -5   4   10.34    2.41
  -2   5  -4   21.71    3.01
  -2   5  -4   20.66    3.12
  -2   5  -4   19.61    2.23
  -2   5  -4   20.25    3.30
   2  -5   4   27.45    2.16
   2  -5   4   19.08    1.86
   2  -5   4   25.02    2.60
   2  -5   4   20.08    2.14
   2  -5   4   24.24    3.21
  -3   5  -4    1.09    1.90
  -3   5  -4    3.11    2.27
  -3   5  -4    1.25    1.85
  -3   5  -4    2.12    1.37
   3  -5   4    1.61    1.49
   3  -5   4    3.36    1.32
   3  -5   4    1.76    1.83
   3  -5   4    3.00    1.15
   3  -5   4    1.96    1.29
  -4   5  -4   73.06    5.42
  -4   5  -4   81.30    5.17
  -4   5  -4   63.02    4.40
  -4   5  -4   73.59    5.33
   4  -5   4   62.44    5.01
   4  -5   4   66.74    4.89
   4  -5   4   71.14    3.86
   4  -5   4   67.13    4.22
  -5   5  -4   14.40    2.95
  -5   5  -4   16.69    2.84
  -5   5  -4   14.46    2.57
   5  -5   4   14.01    1.94
   5  -5   4   15.66    2.83
   5  -5   4   13.59    2.25
   5  -5   4   14.32    2.75
  -6   5  -4   56.07    4.96
  -6   5  -4   48.18    5.03
   6  -5   4   58.47    4.55
   6  -5   4   57.92    3.68
   6  -5   4   56.33    5.07
   8   4  -4   28.47    3.23
   8   4  -4   26.33    3.21
  -8  -4   4   25.66    3.15
  -8  -4   4   25.78    3.39
  -8  -4   4   26.68    3.13
  -8  -4   4   28.38    3.11
   7   4  -4    5.42    1.73
   7   4  -4    8.52    1.88
   7   4  -4    6.25    1.87
  -7  -4   4    8.73    2.19
  -7  -4   4    5.88    1.84
  -7  -4   4    8.08    1.68
  -7  -4   4    5.48    1.72
  -7  -4   4    7.04    1.71
   6   4  -4  146.02    7.54
   6   4  -4  156.35    7.02
   6   4  -4  148.08    7.34
  -6  -4   4  139.90    7.23
  -6  -4   4  154.07    8.13
  -6  -4   4  154.68    7.58
  -6  -4   4  153.21    6.99
  -6  -4   4  158.70    6.92
  -6  -4   4  157.69    7.70
  -6  -4   4  140.06    7.29
   5   4  -4    2.88    1.16
   5   4  -4    4.18    1.31
   5   4  -4    2.78    1.15
  -5  -4   4    2.98    1.19
  -5  -4   4    1.85    1.18
  -5  -4   4    3.14    1.12
  -5  -4   4    1.42    1.40
  -5  -4   4    3.13    1.08
  -5  -4   4    2.38    1.02
  -5  -4   4    1.48    0.95
  -5  -4   4    2.02    0.84
   4   4  -4  198.77    7.77
   4   4  -4  198.99    8.45
   4   4  -4  197.88    7.73
   4   4  -4  190.72    7.61
   4   4  -4  193.23    8.36
  -4  -4   4  176.56    8.61
  -4  -4   4  189.55    8.43
  -4  -4   4  186.02    8.33
  -4  -4   4  195.53    7.89
  -4  -4   4  175.81    9.19
  -4  -4   4  175.35    7.68
  -4  -4   4  191.70    8.59
  -4  -4   4  186.09    7.84
  -4  -4   4  180.22    7.79
  -4  -4   4  188.95    7.07
   3   4  -4   96.50    4.29
   3   4  -4  101.31    4.29
   3   4  -4  100.70    4.80
   3   4  -4   99.59    4.15
   3   4  -4   99.27    4.69
  -3  -4   4   95.77    5.60
  -3  -4   4   96.75    4.57
  -3  -4   4   91.65    4.77
  -3  -4   4   94.60    4.16
  -3  -4   4  102.78    5.59
  -3  -4   4  103.02    3.94
  -3  -4   4  101.21    4.40
  -3  -4   4   95.01    4.46
  -3  -4   4  124.39    5.17
  -3  -4   4   97.68    4.93
  -3  -4   4   95.12    3.99
   2   4  -4   24.51    1.54
   2   4  -4   23.53    2.06
   2   4  -4   24.99    1.44
   2   4  -4   27.73    1.85
   2   4  -4   24.88    1.64
  -2  -4   4   26.06    1.75
  -2  -4   4   25.49    1.97
  -2  -4   4   24.31    1.44
  -2  -4   4   26.53    2.54
  -2  -4   4   26.58    1.53
  -2  -4   4   24.12    1.56
  -2  -4   4   22.92    1.78
  -2  -4   4   23.52    2.51
  -2  -4   4   24.34    2.10
   1   4  -4  416.78   16.89
   1   4  -4  412.14   15.14
   1   4  -4  404.23   16.61
   1   4  -4  430.98   16.42
   1   4  -4  419.77   17.43
  -1  -4   4  416.76   15.42
  -1  -4   4  410.07   17.42
  -1  -4   4  404.21   16.35
  -1  -4   4  415.98   15.46
  -1  -4   4  422.60   18.54
  -1  -4   4  427.15   16.01
  -1  -4   4  410.75   19.07
  -1  -4   4  432.82   17.40
  -1  -4   4  418.40   15.19
   0   4  -4   19.63    2.57
   0   4  -4   22.37    1.82
   0   4  -4   22.70    1.78
   0   4  -4   22.89    2.06
   0   4  -4   21.54    1.37
   0  -4   4   24.02    1.79
   0  -4   4   21.91    1.92
   0  -4   4   21.23    2.56
   0  -4   4   22.34    1.48
   0  -4   4   19.04    1.56
   0  -4   4   25.85    2.72
   0  -4   4   21.69    1.64
  -1   4  -4  195.84    8.12
  -1   4  -4  195.75    9.54
  -1   4  -4  186.76    8.32
  -1   4  -4  186.92    8.78
  -1   4  -4  166.92    7.77
   1  -4   4  181.24    9.59
   1  -4   4  185.89    7.38
   1  -4   4  199.41    9.66
   1  -4   4  187.41    7.45
   1  -4   4  190.00    7.77
   1  -4   4  192.05    8.02
   1  -4   4  192.83    8.49
  -2   4  -4   15.72    2.67
  -2   4  -4   11.96    2.43
  -2   4  -4   16.97    1.91
  -2   4  -4   10.79    2.14
   2  -4   4   15.57    1.67
   2  -4   4   14.87    2.44
   2  -4   4   13.96    2.01
   2  -4   4   16.06    1.57
   2  -4   4   15.83    1.57
  -3   4  -4  159.53    7.69
  -3   4  -4  188.33    8.71
  -3   4  -4  175.58    8.81
  -3   4  -4  169.18    9.03
   3  -4   4  154.80    6.85
   3  -4   4  159.28    7.17
   3  -4   4  165.79    7.27
   3  -4   4  177.97    9.05
   3  -4   4  153.46    8.38
  -4   4  -4    3.45    2.04
  -4   4  -4    3.65    2.01
  -4   4  -4    1.97    1.40
  -4   4  -4    1.03    1.98
   4  -4   4   -0.73    1.14
   4  -4   4    0.20    1.61
   4  -4   4    2.77    1.88
   4  -4   4    2.71    1.17
  -5   4  -4  103.03    6.52
  -5   4  -4   94.54    5.53
  -5   4  -4   99.09    6.11
   5  -4   4   90.90    5.08
   5  -4   4   91.18    4.72
   5  -4   4   88.94    5.90
   5  -4   4   92.73    5.93
  -6   4  -4   26.18    3.50
  -6   4  -4   23.59    3.20
  -6   4  -4   32.03    3.89
   6  -4   4   24.62    2.90
   6  -4   4   28.71    3.65
   6  -4   4   25.20    2.55
  -7   4  -4   -2.24    1.90
  -7   4  -4    0.96    2.08
  -7   4  -4   -1.58    1.43
   7  -4   4   -0.54    1.67
   8   3  -4    0.27    1.84
   8   3  -4    0.60    1.68
  -8  -3   4    2.35    1.53
  -8  -3   4   -0.56    1.45
  -8  -3   4   -0.04    1.76
   7   3  -4   61.47    4.00
   7   3  -4   58.97    4.21
   7   3  -4   56.78    4.09
  -7  -3   4   54.19    3.76
  -7  -3   4   62.17    4.31
  -7  -3   4   57.02    4.12
  -7  -3   4   56.43    4.03
   6   3  -4    2.08    1.23
   6   3  -4    4.81    1.45
   6   3  -4    4.01    1.46
  -6  -3   4    1.65    1.29
  -6  -3   4    3.27    1.22
  -6  -3   4    4.25    1.61
  -6  -3   4    2.79    1.65
  -6  -3   4    3.05    1.38
  -6  -3   4    3.17    1.22
  -6  -3   4    3.00    1.32
   5   3  -4   10.31    1.65
   5   3  -4   13.32    1.78
   5   3  -4   10.55    1.63
  -5  -3   4    8.63    1.54
  -5  -3   4   13.94    1.81
  -5  -3   4   13.32    1.61
  -5  -3   4   11.50    1.65
  -5  -3   4    9.95    1.48
  -5  -3   4   13.41    1.94
  -5  -3   4   11.55    2.06
   4   3  -4   74.13    3.79
   4   3  -4   78.47    3.67
   4   3  -4   76.48    4.01
   4   3  -4   75.09    4.14
  -4  -3   4   76.79    3.79
  -4  -3   4   75.17    4.07
  -4  -3   4   76.62    4.03
  -4  -3   4   80.32    4.32
  -4  -3   4   76.61    3.60
  -4  -3   4   77.15    4.69
  -4  -3   4   72.18    4.11
  -4  -3   4   82.08    3.29
  -4  -3   4   70.94    3.76
   3   3  -4   22.76    1.56
   3   3  -4   23.24    1.29
   3   3  -4   24.02    1.77
   3   3  -4   22.58    1.92
   3   3  -4   20.94    1.64
  -3  -3   4   22.90    1.28
  -3  -3   4   21.80    1.21
  -3  -3   4   21.29    1.95
  -3  -3   4   19.81    1.86
  -3  -3   4   22.45    1.68
  -3  -3   4   19.06    2.25
  -3  -3   4   19.16    1.65
  -3  -3   4   22.27    1.24
  -3  -3   4   20.22    1.82
  -3  -3   4   17.49    1.59
   2   3  -4  419.33   16.43
   2   3  -4  413.79   16.49
   2   3  -4  411.04   15.05
   2   3  -4  420.42   15.73
   2   3  -4  411.06   14.90
  -2  -3   4  390.57   17.73
  -2  -3   4  408.51   14.57
  -2  -3   4  403.05   15.83
  -2  -3   4  364.72   18.27
  -2  -3   4  412.17   16.51
  -2  -3   4  407.77   14.92
  -2  -3   4  397.11   15.28
  -2  -3   4  405.01   16.90
  -2  -3   4  415.09   15.60
   1   3  -4    2.20    0.57
   1   3  -4    1.87    0.75
   1   3  -4    1.85    0.76
   1   3  -4    2.89    0.65
   1   3  -4    1.45    0.39
  -1  -3   4    1.62    0.62
  -1  -3   4    2.20    0.57
  -1  -3   4    1.00    0.99
  -1  -3   4    1.42    0.83
  -1  -3   4    1.48    0.47
  -1  -3   4    0.70    0.67
  -1  -3   4    0.85    0.78
  -1  -3   4    1.07    0.99
  -1  -3   4    1.96    0.43
   0   3  -4   64.05    3.38
   0   3  -4   62.84    2.90
   0   3  -4   60.84    2.96
   0   3  -4   67.14    3.23
   0  -3   4   62.10    3.87
   0  -3   4   62.47    3.22
   0  -3   4   58.12    3.28
   0  -3   4   62.82    3.89
   0  -3   4   63.60    2.84
   0  -3   4   61.10    2.96
   0  -3   4   60.66    3.19
   0  -3   4   61.41    2.50
   0  -3   4   62.45    2.66
  -1   3  -4   46.56    2.60
  -1   3  -4   46.66    3.32
  -1   3  -4   47.42    2.32
  -1   3  -4   45.78    2.75
  -1   3  -4   45.87    2.93
   1  -3   4   43.63    2.27
   1  -3   4   44.33    3.20
   1  -3   4   43.10    2.64
   1  -3   4   38.24    3.19
   1  -3   4   41.23    2.18
   1  -3   4   44.55    2.53
  -2   3  -4   45.36    2.61
  -2   3  -4   40.61    3.46
  -2   3  -4   44.98    2.73
  -2   3  -4   47.66    3.78
  -2   3  -4   39.88    3.23
   2  -3   4   43.38    2.47
   2  -3   4   40.68    1.98
   2  -3   4   47.18    2.61
   2  -3   4   45.04    3.77
   2  -3   4   43.62    3.12
   2  -3   4   46.89    2.44
   2  -3   4   41.59    3.35
  -3   3  -4    8.99    1.99
  -3   3  -4    7.87    2.33
  -3   3  -4    6.71    1.16
  -3   3  -4    4.35    1.94
  -3   3  -4    9.99    1.62
   3  -3   4   10.30    1.34
   3  -3   4    5.29    1.18
   3  -3   4    9.52    1.04
   3  -3   4   10.38    1.51
   3  -3   4    6.73    2.09
   3  -3   4   10.54    1.93
  -4   3  -4    8.24    2.20
  -4   3  -4    4.54    1.05
  -4   3  -4    4.72    1.56
  -4   3  -4    5.86    2.08
  -4   3  -4    6.02    1.80
   4  -3   4    5.86    1.17
   4  -3   4    2.47    1.06
   4  -3   4    5.21    2.10
   4  -3   4    6.21    1.22
   4  -3   4    6.78    1.80
   4  -3   4    2.41    1.26
  -5   3  -4   69.79    4.83
  -5   3  -4   71.02    4.35
  -5   3  -4   74.07    5.17
   5  -3   4   66.52    3.63
   5  -3   4   68.15    4.93
   5  -3   4   60.00    3.56
   5  -3   4   62.06    3.96
   5  -3   4   60.73    4.36
  -6   3  -4   16.94    2.96
  -6   3  -4   16.66    2.58
  -6   3  -4   16.80    2.28
  -6   3  -4   15.19    2.93
   6  -3   4   22.82    2.62
   6  -3   4   17.32    3.00
   6  -3   4   16.34    2.08
   6  -3   4   17.14    2.06
  -7   3  -4   87.85    5.71
  -7   3  -4   92.86    6.30
  -7   3  -4   92.97    5.24
  -7   3  -4   83.76    6.08
   7  -3   4   80.11    5.20
   7  -3   4   83.47    6.05
  -8   3  -4    2.73    2.20
  -8   3  -4    7.70    2.74
   8  -3   4    4.79    2.06
   8   2  -4   27.62    3.29
   8   2  -4   27.51    3.35
  -8  -2   4   26.68    3.22
  -8  -2   4   23.51    3.51
  -8  -2   4   19.43    2.66
   7   2  -4   29.54    3.26
   7   2  -4   26.29    3.05
   7   2  -4   27.73    3.01
  -7  -2   4   20.68    2.68
  -7  -2   4   29.09    3.36
  -7  -2   4   29.82    2.87
   6   2  -4    8.73    1.87
   6   2  -4   12.39    1.90
   6   2  -4    7.57    1.76
  -6  -2   4    7.28    1.78
  -6  -2   4   10.74    1.71
  -6  -2   4    9.69    1.80
  -6  -2   4   13.61    2.32
  -6  -2   4    7.53    1.68
   5   2  -4  189.47    9.12
   5   2  -4  190.62    9.38
   5   2  -4  205.83    8.61
  -5  -2   4  204.19    9.18
  -5  -2   4  199.86    9.44
  -5  -2   4  207.35    8.65
  -5  -2   4  211.80    9.22
  -5  -2   4  194.78    9.43
  -5  -2   4  212.85   10.03
  -5  -2   4  207.16    8.59
   4   2  -4   23.39    2.02
   4   2  -4   22.75    1.83
   4   2  -4   23.39    2.06
   4   2  -4   18.40    1.99
  -4  -2   4   18.72    2.00
  -4  -2   4   17.86    1.90
  -4  -2   4   24.32    1.63
  -4  -2   4   25.10    1.67
  -4  -2   4   25.15    2.00
  -4  -2   4   20.98    1.84
  -4  -2   4   22.89    2.55
  -4  -2   4   22.58    2.20
  -4  -2   4   22.50    2.08
   3   2  -4  383.83   14.53
   3   2  -4  379.32   15.76
   3   2  -4  366.67   14.26
  -3  -2   4  388.16   13.93
  -3  -2   4  382.83   16.16
  -3  -2   4  416.73   15.81
  -3  -2   4  402.73   14.84
  -3  -2   4  362.28   16.09
  -3  -2   4  382.03   14.89
  -3  -2   4  369.83   16.84
  -3  -2   4  386.42   14.88
  -3  -2   4  378.78   14.68
   2   2  -4  100.74    4.65
   2   2  -4   98.37    4.12
   2   2  -4  101.66    3.91
   2   2  -4  101.55    3.96
   2   2  -4   98.96    4.57
  -2  -2   4  102.05    5.18
  -2  -2   4  100.81    4.62
  -2  -2   4  100.48    3.75
  -2  -2   4  101.17    4.46
  -2  -2   4   92.44    4.28
  -2  -2   4  100.21    3.73
  -2  -2   4   97.85    4.78
  -2  -2   4  100.67    4.24
  -2  -2   4  100.69    4.77
   1   2  -4   76.65    3.70
   1   2  -4   79.11    3.64
   1   2  -4   78.45    3.17
   1   2  -4   79.66    3.21
  -1  -2   4   78.39    3.72
  -1  -2   4   76.86    3.10
  -1  -2   4   78.35    4.27
  -1  -2   4   81.97    3.83
  -1  -2   4   80.70    3.86
  -1  -2   4   80.23    4.24
  -1  -2   4   73.33    3.29
  -1  -2   4   82.66    3.76
   0   2  -4  351.24   14.91
   0   2  -4  376.28   14.65
   0   2  -4  366.21   14.13
   0   2  -4  353.64   14.48
   0  -2   4  366.92   13.84
   0  -2   4  347.82   16.22
   0  -2   4  360.55   13.41
   0  -2   4  368.22   15.02
   0  -2   4  370.41   14.18
   0  -2   4  352.84   13.06
   0  -2   4  363.42   13.19
   0  -2   4  371.22   15.67
   0  -2   4  360.86   14.98
  -1   2  -4   58.36    2.85
  -1   2  -4   56.92    2.76
  -1   2  -4   57.85    3.05
  -1   2  -4   54.49    2.94
   1  -2   4   55.27    3.40
   1  -2   4   62.19    2.54
   1  -2   4   57.02    3.40
   1  -2   4   57.42    2.66
   1  -2   4   57.60    2.92
   1  -2   4   55.98    2.75
   1  -2   4   58.44    3.05
  -2   2  -4  210.50    9.41
  -2   2  -4  205.57    8.88
  -2   2  -4  201.40    9.04
  -2   2  -4  189.60    8.64
  -2   2  -4  199.06    8.48
   2  -2   4  200.58    8.23
   2  -2   4  201.36    9.36
   2  -2   4  207.94    9.16
   2  -2   4  190.58    7.77
   2  -2   4  202.43    9.59
   2  -2   4  211.94    7.93
   2  -2   4  198.25    7.53
  -3   2  -4   42.04    2.89
  -3   2  -4   49.71    3.33
  -3   2  -4   40.03    3.77
  -3   2  -4   45.89    3.83
  -3   2  -4   42.61    2.78
   3  -2   4   43.70    3.68
   3  -2   4   45.46    2.30
   3  -2   4   47.99    2.73
   3  -2   4   46.36    3.24
   3  -2   4   48.99    2.72
   3  -2   4   47.26    2.54
  -4   2  -4  225.10    9.91
  -4   2  -4  197.47    9.12
  -4   2  -4  209.17    8.56
  -4   2  -4  220.61   10.35
  -4   2  -4  203.35    9.31
  -4   2  -4  242.93   10.36
   4  -2   4  198.16    8.53
   4  -2   4  210.90    8.84
   4  -2   4  208.32    8.39
   4  -2   4  198.23    8.41
   4  -2   4  216.34   10.39
   4  -2   4  213.62   10.24
  -5   2  -4    0.76    1.31
  -5   2  -4    1.13    1.79
  -5   2  -4   -0.81    0.95
  -5   2  -4   -1.27    1.67
  -5   2  -4   -0.12    1.00
   5  -2   4   -1.60    1.67
   5  -2   4   -0.97    1.39
   5  -2   4   -0.54    0.95
   5  -2   4   -1.20    0.95
   5  -2   4   -0.49    1.18
  -6   2  -4  146.35    7.15
  -6   2  -4  160.10    8.39
  -6   2  -4  153.82    8.27
  -6   2  -4  139.91    6.81
  -6   2  -4  153.29    7.66
   6  -2   4  148.48    6.78
   6  -2   4  144.55    6.56
   6  -2   4  160.53    8.37
   6  -2   4  152.89    7.22
  -7   2  -4    9.91    2.17
  -7   2  -4   16.01    2.90
  -7   2  -4   10.52    1.97
  -7   2  -4   14.06    2.85
   7  -2   4   13.87    2.86
   7  -2   4   17.17    2.58
   7  -2   4   11.87    1.84
   7  -2   4   10.61    1.99
  -8   2  -4   -0.81    1.99
  -8   2  -4    5.83    1.99
  -8   2  -4    0.25    2.00
  -8   2  -4    1.78    1.55
   8  -2   4    5.71    2.05
   8  -2   4    6.29    1.93
   8  -2   4   11.05    2.80
   7   1  -4   -0.53    1.54
   7   1  -4    4.04    1.79
   7   1  -4    4.81    2.01
  -7  -1   4    6.68    1.76
  -7  -1   4    4.82    1.57
  -7  -1   4    7.05    2.03
   6   1  -4  102.14    5.57
   6   1  -4  108.89    5.92
   6   1  -4  102.64    5.40
  -6  -1   4   98.49    5.14
  -6  -1   4   95.47    5.47
  -6  -1   4   96.50    5.92
  -6  -1   4   92.70    6.02
   5   1  -4    8.97    1.63
   5   1  -4   11.39    1.56
   5   1  -4   10.80    1.75
   5   1  -4   11.49    1.75
  -5  -1   4   11.73    1.55
  -5  -1   4   10.27    1.64
  -5  -1   4   10.33    1.85
  -5  -1   4   13.22    2.25
   4   1  -4   65.59    4.10
   4   1  -4   75.48    3.60
   4   1  -4   72.26    4.06
   4   1  -4   77.18    3.85
  -4  -1   4   73.48    3.55
  -4  -1   4   75.21    4.15
  -4  -1   4   79.00    3.82
  -4  -1   4   73.07    3.75
  -4  -1   4   79.16    4.05
  -4  -1   4   73.50    4.14
  -4  -1   4   81.36    4.78
   3   1  -4   65.72    3.61
   3   1  -4   65.14    3.53
   3   1  -4   69.32    3.36
   3   1  -4   62.03    2.99
  -3  -1   4   69.12    3.32
  -3  -1   4   67.08    2.92
  -3  -1   4   65.46    3.46
  -3  -1   4   69.54    3.74
  -3  -1   4   67.74    4.15
  -3  -1   4   60.72    3.51
  -3  -1   4   70.51    3.26
  -3  -1   4   65.48    3.18
  -3  -1   4   61.54    2.97
   2   1  -4    5.26    0.88
   2   1  -4    5.92    0.97
   2   1  -4    6.30    0.47
   2   1  -4    5.43    0.63
   2   1  -4    6.10    0.99
  -2  -1   4    6.13    0.86
  -2  -1   4    6.45    0.92
  -2  -1   4    6.19    1.25
  -2  -1   4    6.57    0.64
  -2  -1   4    4.95    0.94
  -2  -1   4    6.13    0.99
  -2  -1   4    5.99    0.44
  -2  -1   4    4.17    0.93
  -2  -1   4    7.72    1.12
   1   1  -4  249.26   10.12
   1   1  -4  246.16    9.22
   1   1  -4  243.90   10.09
  -1  -1   4  235.23    9.53
  -1  -1   4  244.36   10.38
  -1  -1   4  247.25    8.78
  -1  -1   4  248.58   10.87
  -1  -1   4  233.91    9.37
  -1  -1   4  242.19   10.09
  -1  -1   4  248.93   10.33
  -1  -1   4  259.89    9.85
   0   1  -4    7.99    0.67
   0   1  -4    8.02    0.64
   0   1  -4    7.77    0.93
   0   1  -4    8.07    0.90
   0  -1   4    7.21    1.08
   0  -1   4    8.28    0.95
   0  -1   4    6.87    0.81
   0  -1   4    7.75    0.92
   0  -1   4    9.71    1.24
   0  -1   4    7.21    0.76
   0  -1   4    5.95    0.99
   0  -1   4    7.39    0.55
  -1   1  -4   21.86    1.37
  -1   1  -4   19.95    1.38
  -1   1  -4   20.04    1.51
  -1   1  -4   18.04    1.14
  -1   1  -4   18.35    0.98
  -1   1  -4   20.03    1.42
   1  -1   4   18.51    1.40
   1  -1   4   16.91    1.51
   1  -1   4   19.62    1.20
   1  -1   4   19.54    1.47
   1  -1   4   19.50    1.63
   1  -1   4   18.84    1.28
   1  -1   4   20.61    1.45
   1  -1   4   16.50    1.56
  -2   1  -4   67.30    3.25
  -2   1  -4   61.13    3.25
  -2   1  -4   65.29    2.81
  -2   1  -4   61.25    3.19
  -2   1  -4   60.48    2.65
  -2   1  -4   62.74    3.44
   2  -1   4   60.05    3.00
   2  -1   4   60.49    3.35
   2  -1   4   65.69    3.13
   2  -1   4   65.48    2.99
   2  -1   4   60.72    3.36
   2  -1   4   63.22    3.51
  -3   1  -4  148.38    7.21
  -3   1  -4  145.49    7.37
  -3   1  -4  147.71    6.91
  -3   1  -4  154.16    6.87
  -3   1  -4  150.61    6.52
  -3   1  -4  142.24    5.77
  -3   1  -4  144.46    5.87
   3  -1   4  146.08    5.79
   3  -1   4  144.18    6.90
   3  -1   4  148.73    6.13
   3  -1   4  131.49    7.26
   3  -1   4  144.94    6.07
   3  -1   4  143.90    5.97
   3  -1   4  142.13    6.92
  -4   1  -4    3.16    0.95
  -4   1  -4    3.29    1.26
  -4   1  -4    3.82    1.21
  -4   1  -4    6.91    1.85
  -4   1  -4    4.38    1.13
  -4   1  -4    2.96    1.20
  -4   1  -4    4.17    1.79
   4  -1   4    4.16    1.26
   4  -1   4    5.69    0.94
   4  -1   4    6.71    1.26
   4  -1   4    4.57    1.02
   4  -1   4    5.75    1.20
   4  -1   4    3.28    1.77
  -5   1  -4   30.63    3.10
  -5   1  -4   25.89    2.48
  -5   1  -4   30.27    2.48
  -5   1  -4   30.91    3.34
  -5   1  -4   28.59    2.65
  -5   1  -4   26.85    2.35
   5  -1   4   26.97    2.20
   5  -1   4   26.65    2.41
   5  -1   4   30.41    2.72
   5  -1   4   27.79    3.16
   5  -1   4   27.21    2.35
  -6   1  -4   29.80    2.97
  -6   1  -4   29.62    2.58
  -6   1  -4   32.60    2.68
  -6   1  -4   21.82    2.89
  -6   1  -4   28.58    3.40
  -6   1  -4   32.14    2.85
   6  -1   4   27.55    2.85
   6  -1   4   26.80    2.41
   6  -1   4   32.17    3.64
   6  -1   4   27.28    2.47
  -7   1  -4   11.94    2.00
  -7   1  -4    8.70    1.85
  -7   1  -4   10.44    2.05
  -7   1  -4   11.23    2.53
  -7   1  -4   11.94    1.98
  -7   1  -4    9.32    2.32
   7  -1   4   15.42    1.94
   7  -1   4   13.71    2.34
   7  -1   4    7.72    2.42
   7  -1   4   11.94    2.01
  -8   1  -4   86.01    5.85
  -8   1  -4   82.56    5.31
  -8   1  -4   82.69    6.14
  -8   1  -4   86.01    5.13
  -8   1  -4   81.67    5.41
  -8   1  -4   84.69    4.98
   8  -1   4   98.98    6.40
   8  -1   4   84.44    5.35
   8  -1   4   89.00    5.16
  -9   1  -4    9.00    2.75
  -9   1  -4    8.66    2.06
  -9   1  -4   13.52    2.90
   9  -1   4   10.40    2.50
   9  -1   4    7.75    2.22
   7   0  -4   47.57    4.17
   7   0  -4   49.70    4.16
   7   0  -4   42.97    4.48
  -7   0   4   54.89    3.69
  -7   0   4   50.10    4.28
  -7   0   4   40.31    4.46
   6   0  -4    9.53    2.03
   6   0  -4   10.64    2.24
   6   0  -4   10.97    1.95
  -6   0   4   14.19    2.06
  -6   0   4   11.30    1.84
  -6   0   4   12.23    2.46
  -6   0   4   14.80    2.70
   5   0  -4   38.02    3.32
   5   0  -4   39.98    2.77
   5   0  -4   36.83    3.10
   5   0  -4   39.45    3.12
  -5   0   4   44.23    2.82
  -5   0   4   39.67    3.17
  -5   0   4   37.60    3.49
  -5   0   4   38.02    3.75
  -5   0   4   39.67    2.93
   4   0  -4  211.22    8.75
   4   0  -4  200.76    9.60
   4   0  -4  214.83    8.41
   4   0  -4  207.96    9.35
  -4   0   4  221.28    9.80
  -4   0   4  214.07    8.73
  -4   0   4  206.86   10.27
  -4   0   4  203.50    9.27
  -4   0   4  212.63    9.65
  -4   0   4  208.57    8.46
   3   0  -4    7.06    1.26
   3   0  -4    5.92    0.93
   3   0  -4    4.27    1.14
   3   0  -4    4.60    1.05
  -3   0   4    5.54    0.94
  -3   0   4    4.72    1.00
  -3   0   4    4.73    0.98
  -3   0   4    6.11    1.07
  -3   0   4    5.26    1.05
  -3   0   4    4.77    1.45
  -3   0   4    5.38    1.11
  -3   0   4    4.98    1.20
   2   0  -4  454.42   18.82
   2   0  -4  433.13   16.95
   2   0  -4  453.00   18.40
   2   0  -4  461.99   16.68
  -2   0   4  446.66   17.54
  -2   0   4  464.46   17.18
  -2   0   4  443.80   19.63
  -2   0   4  452.13   17.62
  -2   0   4  454.96   18.80
  -2   0   4  461.20   17.35
  -2   0   4  459.76   18.83
  -2   0   4  459.77   18.32
   1   0  -4   70.68    2.93
   1   0  -4   57.88    3.02
   1   0  -4   64.83    2.56
   1   0  -4   61.44    3.14
  -1   0   4   61.14    3.15
  -1   0   4   65.44    3.14
  -1   0   4   63.98    3.25
  -1   0   4   64.48    2.55
  -1   0   4   65.14    2.93
  -1   0   4   72.44    3.32
  -1   0   4   62.82    3.60
  -1   0   4   63.41    2.44
  -1   0   4   65.45    2.91
   0   0  -4   70.42    2.76
   0   0  -4   71.32    3.24
   0   0  -4   70.17    2.94
   0   0  -4   70.79    2.65
   0   0  -4   69.85    3.30
   0   0   4   63.87    3.00
   0   0   4   68.42    3.28
   0   0   4   70.89    2.75
   0   0   4   70.52    3.32
   0   0   4   71.02    3.49
   0   0   4   72.01    2.82
   0   0   4   67.61    2.87
   0   0   4   68.67    3.67
  -1   0  -4  115.65    5.09
  -1   0  -4  119.31    5.11
  -1   0  -4  119.62    4.83
  -1   0  -4  117.96    4.39
  -1   0  -4  117.56    4.58
  -1   0  -4  116.45    5.14
   1   0   4  123.00    5.44
   1   0   4  122.28    4.76
   1   0   4  126.81    5.14
   1   0   4  120.51    4.55
   1   0   4  117.35    5.20
   1   0   4  108.15    4.75
  -2   0  -4   96.82    4.52
  -2   0  -4   98.58    4.45
  -2   0  -4   98.09    3.99
  -2   0  -4  103.20    4.65
  -2   0  -4  100.53    3.99
  -2   0  -4  102.33    4.43
   2   0   4   95.92    4.70
   2   0   4   99.18    4.14
   2   0   4  107.76    4.78
   2   0   4  100.14    4.25
   2   0   4   99.47    4.56
   2   0   4  100.26    4.47
  -3   0  -4  209.27    9.75
  -3   0  -4  216.83    9.09
  -3   0  -4  228.05    8.39
  -3   0  -4  217.41    8.33
  -3   0  -4  210.04    9.60
  -3   0  -4  221.89    9.63
   3   0   4  218.88    8.52
   3   0   4  228.89    9.34
   3   0   4  180.69    9.80
   3   0   4  227.70    8.70
   3   0   4  210.88    9.59
   3   0   4  215.08    8.43
  -4   0  -4  100.51    4.59
  -4   0  -4  103.94    4.58
  -4   0  -4  110.08    5.45
  -4   0  -4  110.55    5.50
  -4   0  -4  103.30    4.81
  -4   0  -4  121.44    5.91
  -4   0  -4  102.36    5.15
   4   0   4  104.06    4.66
   4   0   4   96.73    4.54
   4   0   4  103.77    5.80
   4   0   4  105.59    4.95
   4   0   4   98.29    4.76
   4   0   4  100.70    4.55
  -5   0  -4  243.11    9.53
  -5   0  -4  224.19    9.96
  -5   0  -4  221.00    9.12
  -5   0  -4  224.65   10.17
  -5   0  -4  226.49   10.39
  -5   0  -4  253.66   10.90
  -5   0  -4  217.31    9.15
   5   0   4  212.07    9.02
   5   0   4  221.24    9.14
   5   0   4  223.51    9.44
   5   0   4  227.69   10.31
   5   0   4  224.87    8.98
   5   0   4  237.71   11.00
  -6   0  -4    4.84    1.94
  -6   0  -4    3.05    1.32
  -6   0  -4    4.16    1.63
  -6   0  -4    3.48    1.24
  -6   0  -4    6.17    1.62
  -6   0  -4    2.53    1.40
  -6   0  -4    4.10    1.31
   6   0   4    4.17    1.28
   6   0   4    3.91    1.63
   6   0   4    4.80    2.10
   6   0   4    4.20    1.40
  -7   0  -4  179.83    9.03
  -7   0  -4  189.16    9.39
  -7   0  -4  197.12    8.38
  -7   0  -4  180.34    9.67
  -7   0  -4  196.24    9.09
  -7   0  -4  190.51    8.52
   7   0   4  210.87    8.14
   7   0   4  182.93    8.64
   7   0   4  182.09    9.96
   7   0   4  185.28    8.39
  -8   0  -4   -2.24    1.34
  -8   0  -4    1.00    1.38
  -8   0  -4   -1.79    1.68
  -8   0  -4   -0.22    1.45
  -8   0  -4   -1.54    1.46
  -8   0  -4    0.18    1.51
   8   0   4    0.56    1.28
   8   0   4   -1.19    1.92
   8   0   4    0.28    1.50
   8   0   4    0.58    1.69
  -9   0  -4    7.81    2.23
  -9   0  -4    7.31    2.25
  -9   0  -4    4.90    2.00
  -9   0  -4    3.09    2.37
  -9   0  -4    5.63    1.73
  -9   0  -4    5.38    2.06
   9   0   4    7.13    2.37
   9   0   4    5.87    2.08
   7  -1  -4    8.13    2.38
   7  -1  -4   13.32    2.49
  -7   1   4   11.17    2.39
  -7   1   4    5.09    2.72
  -7   1   4    8.55    1.97
   6  -1  -4    0.38    1.36
   6  -1  -4    1.93    1.57
   6  -1  -4    1.13    1.86
  -6   1   4    0.20    1.32
  -6   1   4    0.10    1.08
  -6   1   4   -0.79    1.75
  -6   1   4    0.40    1.78
   5  -1  -4  121.45    5.35
   5  -1  -4  103.70    5.62
   5  -1  -4  110.14    6.28
   5  -1  -4  108.21    5.83
  -5   1   4  121.57    6.64
  -5   1   4  110.52    6.82
  -5   1   4  108.80    5.39
  -5   1   4  105.22    5.74
  -5   1   4  109.75    5.41
   4  -1  -4   22.21    2.35
   4  -1  -4   16.37    1.96
   4  -1  -4   17.33    1.77
   4  -1  -4   20.60    2.19
  -4   1   4   16.65    1.82
  -4   1   4   21.01    2.42
  -4   1   4   17.90    2.73
  -4   1   4   19.03    2.03
   3  -1  -4  160.27    6.90
   3  -1  -4  159.70    7.35
   3  -1  -4  167.74    7.60
   3  -1  -4  162.22    6.59
  -3   1   4  173.35    6.91
  -3   1   4  157.95    7.21
  -3   1   4  162.46    7.75
  -3   1   4  164.04    8.41
  -3   1   4  164.61    6.88
  -3   1   4  160.89    7.55
  -3   1   4  153.72    7.04
   2  -1  -4   31.39    2.11
   2  -1  -4   29.78    1.48
   2  -1  -4   28.36    1.80
   2  -1  -4   32.91    2.15
   2  -1  -4   30.39    2.05
  -2   1   4   29.10    2.79
  -2   1   4   31.86    2.13
  -2   1   4   30.50    2.02
  -2   1   4   32.85    2.48
  -2   1   4   30.79    2.24
  -2   1   4   30.89    2.06
  -2   1   4   31.19    1.94
  -2   1   4   34.64    1.98
   1  -1  -4    1.04    0.50
   1  -1  -4    0.23    0.71
   1  -1  -4    2.34    0.55
   1  -1  -4    1.64    0.69
   1  -1  -4    0.16    0.55
  -1   1   4    0.36    0.60
  -1   1   4    1.17    0.46
  -1   1   4    0.81    0.96
  -1   1   4    0.88    0.61
  -1   1   4    1.07    0.97
  -1   1   4    0.12    0.53
  -1   1   4   -0.51    0.48
  -1   1   4    0.86    0.70
  -1   1   4    0.26    0.50
   0  -1  -4  185.50    7.61
   0  -1  -4  177.87    7.76
   0  -1  -4  192.51    7.17
   0  -1  -4  177.14    6.90
   0   1   4  188.09    7.65
   0   1   4  188.82    7.27
   0   1   4  186.14    7.19
   0   1   4  184.63    6.83
   0   1   4  175.39    7.72
   0   1   4  191.19    7.83
   0   1   4  184.00    7.81
  -1  -1  -4   13.82    0.93
  -1  -1  -4   15.73    0.95
  -1  -1  -4   12.69    1.01
  -1  -1  -4   16.60    1.30
  -1  -1  -4   15.52    1.15
  -1  -1  -4   14.80    0.86
   1   1   4   16.05    1.41
   1   1   4   14.96    0.98
   1   1   4   15.16    1.15
   1   1   4   13.19    1.07
   1   1   4   13.65    1.02
   1   1   4   14.80    1.45
  -2  -1  -4   96.41    4.27
  -2  -1  -4  101.49    3.95
  -2  -1  -4   98.43    4.09
  -2  -1  -4  102.21    4.06
  -2  -1  -4  103.75    4.33
  -2  -1  -4  101.51    4.53
  -2  -1  -4   99.12    4.61
   2   1   4  100.44    4.56
   2   1   4  100.66    4.56
   2   1   4  103.94    4.59
   2   1   4   95.72    4.15
   2   1   4  101.04    4.05
  -3  -1  -4    4.97    0.92
  -3  -1  -4    2.20    0.71
  -3  -1  -4    3.94    1.23
  -3  -1  -4    3.91    1.05
  -3  -1  -4    2.34    0.84
  -3  -1  -4    3.02    1.43
  -3  -1  -4    2.70    0.69
   3   1   4    4.44    0.58
   3   1   4    4.74    0.95
   3   1   4    3.50    0.86
   3   1   4    2.33    0.86
   3   1   4    0.73    1.28
  -4  -1  -4  196.20    8.68
  -4  -1  -4  203.04    7.97
  -4  -1  -4  200.61    9.19
  -4  -1  -4  203.04    9.26
  -4  -1  -4  198.31    8.52
  -4  -1  -4  193.78    7.81
   4   1   4  194.77    7.99
   4   1   4  216.42    9.53
   4   1   4  182.82    7.76
   4   1   4  195.26    8.00
  -5  -1  -4   18.09    1.98
  -5  -1  -4   21.74    2.03
  -5  -1  -4   15.50    2.48
  -5  -1  -4   16.80    1.78
  -5  -1  -4   20.22    1.86
  -5  -1  -4   21.41    2.39
   5   1   4   20.19    2.04
   5   1   4   19.39    1.89
   5   1   4   19.65    2.75
   5   1   4   17.73    1.46
   5   1   4   16.33    1.73
  -6  -1  -4   54.41    3.35
  -6  -1  -4   49.46    3.43
  -6  -1  -4   63.53    3.85
  -6  -1  -4   55.75    4.02
  -6  -1  -4   56.46    4.17
  -6  -1  -4   61.52    3.69
  -6  -1  -4   60.02    3.35
   6   1   4   54.11    4.69
   6   1   4   56.18    3.56
   6   1   4   59.57    3.38
   6   1   4   57.09    3.41
  -7  -1  -4    8.61    1.65
  -7  -1  -4    9.80    2.01
  -7  -1  -4    5.05    2.16
  -7  -1  -4    9.84    1.87
  -7  -1  -4    9.57    1.79
  -7  -1  -4    8.94    1.80
  -7  -1  -4    8.71    1.60
   7   1   4   12.97    1.83
   7   1   4   12.75    1.84
   7   1   4    9.26    2.05
   7   1   4    4.41    2.32
  -8  -1  -4    6.33    2.20
  -8  -1  -4    7.82    2.01
  -8  -1  -4    8.44    1.81
  -8  -1  -4    9.95    2.18
  -8  -1  -4    8.46    1.91
  -8  -1  -4    8.15    1.85
   8   1   4    3.82    2.01
   8   1   4    3.89    1.67
   8   1   4    8.88    1.73
   8   1   4    7.37    2.66
  -9  -1  -4   77.09    5.69
  -9  -1  -4   84.52    5.03
  -9  -1  -4   74.97    4.95
  -9  -1  -4   82.83    5.18
  -9  -1  -4   73.45    5.25
  -9  -1  -4   70.39    4.56
   9   1   4   70.99    6.37
   9   1   4   79.25    4.95
   9   1   4   62.99    5.11
 -10  -1  -4   18.56    2.73
 -10  -1  -4   11.58    3.14
 -10  -1  -4   19.64    3.14
 -10  -1  -4   21.29    3.13
  10   1   4   17.67    3.21
  10   1   4   19.44    3.03
   6  -2  -4   78.60    5.03
   6  -2  -4   78.09    5.73
   6  -2  -4   76.56    4.93
  -6   2   4   81.48    5.99
  -6   2   4   70.74    4.79
  -6   2   4   74.53    4.48
  -6   2   4   81.30    5.92
   5  -2  -4    0.70    1.20
   5  -2  -4    0.20    1.49
   5  -2  -4    0.92    1.41
   5  -2  -4    3.66    1.89
  -5   2   4    2.07    1.41
  -5   2   4    0.09    1.80
  -5   2   4    2.58    2.13
  -5   2   4   -0.02    0.98
   4  -2  -4   68.52    4.38
   4  -2  -4   65.41    3.86
   4  -2  -4   62.35    3.67
   4  -2  -4   63.81    3.99
  -4   2   4   69.02    3.65
  -4   2   4   71.61    4.71
  -4   2   4   70.80    5.27
  -4   2   4   67.05    3.86
   3  -2  -4  162.37    6.78
   3  -2  -4  157.47    7.41
   3  -2  -4  159.16    7.07
   3  -2  -4  165.16    7.76
  -3   2   4  162.95    7.93
  -3   2   4  166.67    6.92
  -3   2   4  163.86    8.73
  -3   2   4  162.40    7.22
  -3   2   4  160.10    7.27
   2  -2  -4    7.66    1.23
   2  -2  -4    8.36    1.28
   2  -2  -4    7.85    1.27
   2  -2  -4    7.87    1.06
  -2   2   4    9.12    1.51
  -2   2   4    8.06    2.00
  -2   2   4    6.26    1.08
  -2   2   4    4.69    1.41
  -2   2   4    6.26    1.08
  -2   2   4    6.60    1.20
   1  -2  -4  520.82   21.35
   1  -2  -4  529.28   18.60
   1  -2  -4  527.91   19.22
   1  -2  -4  520.73   20.95
   1  -2  -4  493.12   18.43
   1  -2  -4  521.66   19.48
  -1   2   4  512.93   20.34
  -1   2   4  511.32   18.44
  -1   2   4  530.44   20.75
  -1   2   4  519.09   21.35
  -1   2   4  538.68   19.61
  -1   2   4  512.22   19.66
  -1   2   4  522.50   21.42
  -1   2   4  519.27   20.30
  -1   2   4  534.92   22.62
   0  -2  -4   15.55    1.15
   0  -2  -4   17.08    1.19
   0  -2  -4   15.87    1.43
   0  -2  -4   16.18    1.34
   0  -2  -4   14.35    1.03
   0  -2  -4   15.44    1.13
   0   2   4   12.95    1.73
   0   2   4   15.41    1.09
   0   2   4   14.89    1.12
   0   2   4   14.56    1.30
   0   2   4   16.76    1.21
   0   2   4   12.56    1.51
   0   2   4   15.86    1.13
   0   2   4   17.01    1.06
  -1  -2  -4  410.77   14.80
  -1  -2  -4  408.52   15.19
  -1  -2  -4  422.23   15.89
  -1  -2  -4  404.28   15.03
  -1  -2  -4  398.10   16.42
  -1  -2  -4  405.69   16.16
   1   2   4  409.20   15.24
   1   2   4  419.52   16.54
   1   2   4  405.24   16.47
   1   2   4  391.10   15.93
   1   2   4  413.47   17.45
   1   2   4  402.38   14.66
   1   2   4  408.36   15.87
  -2  -2  -4   51.12    2.42
  -2  -2  -4   47.90    2.27
  -2  -2  -4   47.47    2.46
  -2  -2  -4   49.81    2.20
  -2  -2  -4   44.79    2.61
  -2  -2  -4   48.12    2.39
  -2  -2  -4   50.73    2.38
   2   2   4   49.83    2.14
   2   2   4   49.67    2.37
   2   2   4   50.08    2.80
   2   2   4   48.18    2.30
   2   2   4   49.43    2.74
   2   2   4   49.94    2.15
  -3  -2  -4  167.76    6.58
  -3  -2  -4  179.74    6.77
  -3  -2  -4  160.00    6.78
  -3  -2  -4  170.45    7.01
  -3  -2  -4  161.68    7.77
  -3  -2  -4  177.94    7.17
  -3  -2  -4  174.56    7.80
   3   2   4  167.18    7.61
   3   2   4  174.34    7.14
   3   2   4  168.39    6.72
   3   2   4  177.32    6.68
   3   2   4  174.81    7.37
  -4  -2  -4   48.24    2.61
  -4  -2  -4   45.59    3.36
  -4  -2  -4   47.97    2.45
  -4  -2  -4   46.52    2.75
  -4  -2  -4   50.70    3.73
  -4  -2  -4   51.20    2.74
  -4  -2  -4   48.88    2.51
   4   2   4   49.93    2.72
   4   2   4   49.80    2.72
   4   2   4   53.37    2.74
   4   2   4   54.41    3.56
  -5  -2  -4   67.39    3.77
  -5  -2  -4   63.53    4.26
  -5  -2  -4   69.03    3.43
  -5  -2  -4   74.50    3.51
  -5  -2  -4   60.88    3.23
  -5  -2  -4   70.21    3.67
  -5  -2  -4   64.33    4.18
   5   2   4   66.75    3.45
   5   2   4   73.21    3.41
   5   2   4   74.54    3.66
   5   2   4   72.50    4.63
  -6  -2  -4  135.04    6.36
  -6  -2  -4  119.82    6.83
  -6  -2  -4  133.23    6.19
  -6  -2  -4  132.31    5.50
  -6  -2  -4  137.16    5.85
  -6  -2  -4  128.15    6.87
  -6  -2  -4  132.56    6.01
   6   2   4  127.40    5.53
   6   2   4  140.39    5.88
   6   2   4  125.71    7.12
   6   2   4  122.68    5.99
  -7  -2  -4   14.30    2.05
  -7  -2  -4   10.35    1.80
  -7  -2  -4    9.55    2.08
  -7  -2  -4   11.72    1.87
  -7  -2  -4    8.42    2.09
  -7  -2  -4   10.37    1.66
   7   2   4    9.18    1.88
   7   2   4   12.33    1.87
   7   2   4   10.99    1.79
   7   2   4    9.68    2.38
  -8  -2  -4  214.12    9.09
  -8  -2  -4  213.43    9.34
  -8  -2  -4  191.33    9.71
  -8  -2  -4  226.53    9.93
  -8  -2  -4  225.09    9.65
  -8  -2  -4  210.80   10.36
  -8  -2  -4  193.88   10.39
   8   2   4  210.36    9.48
   8   2   4  187.82   10.79
   8   2   4  207.79    9.32
   8   2   4  215.96    8.80
  -9  -2  -4    2.54    1.45
  -9  -2  -4    0.17    1.73
  -9  -2  -4    1.52    1.58
  -9  -2  -4    1.53    1.70
  -9  -2  -4   -1.88    1.75
   9   2   4    4.23    2.57
   9   2   4   -1.20    1.70
   9   2   4    2.54    1.74
 -10  -2  -4    9.87    2.91
 -10  -2  -4   10.72    2.17
 -10  -2  -4   16.79    2.86
 -10  -2  -4   13.34    2.88
  10   2   4   17.30    2.99
  10   2   4   14.78    2.69
   5  -3  -4   -1.54    1.35
   5  -3  -4    1.16    1.42
   5  -3  -4   -1.27    1.37
  -5   3   4    2.14    2.40
  -5   3   4    0.28    2.04
  -5   3   4    2.77    1.20
   4  -3  -4  117.97    5.98
   4  -3  -4  110.06    5.73
   4  -3  -4  117.71    5.54
   4  -3  -4  116.45    6.57
  -4   3   4  115.56    5.77
  -4   3   4  111.81    6.76
  -4   3   4  120.80    5.57
  -4   3   4  109.10    7.30
   3  -3  -4   33.55    2.44
   3  -3  -4   36.37    3.10
   3  -3  -4   23.59    2.42
   3  -3  -4   31.67    2.65
  -3   3   4   33.40    3.25
  -3   3   4   27.25    3.64
  -3   3   4   28.21    2.53
  -3   3   4   31.62    2.42
  -3   3   4   32.51    2.31
   2  -3  -4  195.29    8.38
   2  -3  -4  177.57    7.89
   2  -3  -4  198.55    7.76
   2  -3  -4  187.49    8.64
  -2   3   4  200.96    8.94
  -2   3   4  185.24    8.12
  -2   3   4  195.18    7.86
  -2   3   4  195.81   10.00
  -2   3   4  177.23    8.39
  -2   3   4  179.38    8.18
   1  -3  -4    1.33    0.84
   1  -3  -4    0.96    0.78
   1  -3  -4    1.46    0.57
   1  -3  -4    1.16    1.01
   1  -3  -4    1.05    0.89
   1  -3  -4    1.43    0.54
  -1   3   4    1.02    0.62
  -1   3   4    1.50    0.53
  -1   3   4    1.65    0.83
  -1   3   4   -0.34    0.74
  -1   3   4    0.56    0.94
  -1   3   4    1.91    1.52
  -1   3   4    1.35    1.26
   0  -3  -4   33.62    1.85
   0  -3  -4   33.23    1.70
   0  -3  -4   29.26    2.07
   0  -3  -4   27.83    2.07
   0  -3  -4   29.31    1.63
   0  -3  -4   32.14    1.83
   0  -3  -4   31.16    1.76
   0   3   4   31.68    1.64
   0   3   4   32.13    2.52
   0   3   4   32.20    2.92
   0   3   4   28.68    1.78
   0   3   4   30.13    2.05
   0   3   4   34.29    1.88
   0   3   4   32.00    1.76
  -1  -3  -4  134.71    5.40
  -1  -3  -4  134.87    5.74
  -1  -3  -4  133.36    5.46
  -1  -3  -4  136.02    6.01
  -1  -3  -4  145.43    5.66
  -1  -3  -4  132.91    5.62
  -1  -3  -4  140.73    5.34
   1   3   4  135.45    5.29
   1   3   4  139.19    5.92
   1   3   4  134.14    6.07
   1   3   4  138.62    5.75
   1   3   4  136.59    5.77
   1   3   4  146.14    6.84
   1   3   4  134.76    5.32
  -2  -3  -4   19.34    1.38
  -2  -3  -4   18.58    1.44
  -2  -3  -4   19.98    1.40
  -2  -3  -4   19.68    1.23
  -2  -3  -4   19.40    1.43
  -2  -3  -4   17.16    1.31
  -2  -3  -4   16.47    1.56
  -2  -3  -4   18.80    1.33
   2   3   4   17.07    1.36
   2   3   4   17.15    1.73
   2   3   4   16.85    0.92
   2   3   4   17.07    0.99
   2   3   4   16.09    1.00
   2   3   4   17.74    1.64
   2   3   4   16.42    1.30
  -3  -3  -4   68.41    3.21
  -3  -3  -4   73.65    3.24
  -3  -3  -4   75.21    3.43
  -3  -3  -4   68.90    3.90
  -3  -3  -4   68.94    3.28
  -3  -3  -4   69.82    3.10
  -3  -3  -4   75.97    3.83
   3   3   4   71.09    3.61
   3   3   4   73.57    3.36
   3   3   4   62.83    3.46
   3   3   4   72.14    3.25
  -4  -3  -4   -0.05    0.64
  -4  -3  -4    0.70    1.11
  -4  -3  -4    1.21    0.80
  -4  -3  -4   -0.81    0.70
  -4  -3  -4    0.76    1.43
  -4  -3  -4    0.53    0.73
  -4  -3  -4   -0.39    0.65
  -4  -3  -4    0.34    0.52
   4   3   4    0.16    0.79
   4   3   4   -0.77    0.64
   4   3   4   -0.84    1.18
   4   3   4   -0.59    0.68
   4   3   4    0.22    0.57
  -5  -3  -4   96.89    4.42
  -5  -3  -4   89.90    4.93
  -5  -3  -4   99.25    4.34
  -5  -3  -4   95.17    4.54
  -5  -3  -4   93.07    4.66
  -5  -3  -4   99.98    5.52
  -5  -3  -4   94.02    4.17
  -5  -3  -4   89.02    4.15
   5   3   4  100.95    5.49
   5   3   4   96.24    4.36
   5   3   4   96.49    4.41
   5   3   4   98.85    4.49
  -6  -3  -4   52.54    3.80
  -6  -3  -4   58.39    4.38
  -6  -3  -4   61.74    3.16
  -6  -3  -4   63.72    3.55
  -6  -3  -4   57.02    3.52
  -6  -3  -4   59.77    3.08
  -6  -3  -4   63.65    3.31
   6   3   4   55.06    4.35
   6   3   4   61.37    3.53
   6   3   4   62.22    3.20
   6   3   4   60.27    3.29
  -7  -3  -4   96.83    5.69
  -7  -3  -4   85.38    4.87
  -7  -3  -4   89.74    4.61
  -7  -3  -4   96.48    5.08
  -7  -3  -4   90.87    4.27
  -7  -3  -4   85.77    5.43
  -7  -3  -4   93.86    4.68
   7   3   4  105.47    5.06
   7   3   4   84.91    5.67
   7   3   4  101.18    4.97
   7   3   4   85.86    4.54
  -8  -3  -4    0.35    1.42
  -8  -3  -4   -0.08    1.29
  -8  -3  -4    1.37    1.29
  -8  -3  -4    0.38    1.63
  -8  -3  -4    1.43    1.31
  -8  -3  -4    2.41    1.83
   8   3   4    0.78    1.36
   8   3   4   -0.44    1.28
   8   3   4   -0.26    1.97
   8   3   4    0.30    1.52
  -9  -3  -4   -1.53    1.73
  -9  -3  -4   -0.04    1.51
  -9  -3  -4   -0.96    1.74
  -9  -3  -4    1.78    1.60
  -9  -3  -4   -1.54    1.41
  -9  -3  -4    1.13    1.41
   9   3   4    1.23    1.70
   9   3   4    3.94    1.59
   9   3   4   -2.14    1.93
   9   3   4   -0.36    1.42
 -10  -3  -4   35.91    4.05
 -10  -3  -4   33.90    3.33
 -10  -3  -4   31.94    4.25
 -10  -3  -4   32.94    3.59
 -10  -3  -4   35.51    3.77
  10   3   4   34.63    3.57
  10   3   4   35.47    4.72
  10   3   4   35.19    3.66
   5  -4  -4   79.30    4.91
   5  -4  -4   85.45    5.28
  -5   4   4   85.02    7.09
  -5   4   4   96.86    7.18
  -5   4   4   87.90    4.80
   4  -4  -4    2.18    1.62
   4  -4  -4    1.23    1.28
  -4   4   4    2.33    1.21
  -4   4   4    0.72    2.38
  -4   4   4    0.44    1.94
   3  -4  -4   97.33    5.13
   3  -4  -4  101.10    5.18
   3  -4  -4   98.77    4.87
  -3   4   4   94.48    5.18
  -3   4   4   99.01    6.02
  -3   4   4   97.91    4.76
  -3   4   4   94.30    7.06
   2  -4  -4   72.08    3.61
   2  -4  -4   69.37    3.86
   2  -4  -4   57.24    3.61
  -2   4   4   67.00    5.80
  -2   4   4   70.18    4.44
  -2   4   4   62.25    4.26
  -2   4   4   70.13    3.54
  -2   4   4   60.61    3.77
   1  -4  -4    2.73    1.08
   1  -4  -4    1.33    0.88
   1  -4  -4    3.88    0.74
   1  -4  -4    2.96    0.73
   1  -4  -4    2.78    1.18
   1  -4  -4    1.54    1.08
  -1   4   4    0.96    1.14
  -1   4   4    2.41    1.04
  -1   4   4    4.09    2.16
  -1   4   4    2.89    0.89
  -1   4   4    2.53    1.49
   0  -4  -4  275.71   10.68
   0  -4  -4  266.46   11.57
   0  -4  -4  269.91   10.82
   0  -4  -4  271.67   10.18
   0  -4  -4  275.36   11.48
   0  -4  -4  266.16   10.22
   0   4   4  281.87   11.83
   0   4   4  285.06   13.12
   0   4   4  275.87   11.06
   0   4   4  283.29   11.52
   0   4   4  276.88   11.25
  -1  -4  -4   24.04    1.64
  -1  -4  -4   22.44    1.42
  -1  -4  -4   23.97    1.69
  -1  -4  -4   21.39    1.77
  -1  -4  -4   18.12    1.68
  -1  -4  -4   24.04    1.27
  -1  -4  -4   22.21    1.56
   1   4   4   24.35    1.53
   1   4   4   23.98    1.72
   1   4   4   23.64    2.18
   1   4   4   26.00    2.69
   1   4   4   24.36    1.75
  -2  -4  -4  256.67   10.71
  -2  -4  -4  249.35    9.78
  -2  -4  -4  267.10    9.96
  -2  -4  -4  269.71    9.61
  -2  -4  -4  264.30   10.38
  -2  -4  -4  246.42    9.58
  -2  -4  -4  217.12   10.24
   2   4   4  258.40    9.55
   2   4   4  254.16   10.42
   2   4   4  255.26   10.45
   2   4   4  261.60   10.40
   2   4   4  261.34   11.60
  -3  -4  -4   37.25    2.14
  -3  -4  -4   43.11    2.28
  -3  -4  -4   39.23    2.27
  -3  -4  -4   39.72    2.34
  -3  -4  -4   36.14    2.13
  -3  -4  -4   37.22    2.05
  -3  -4  -4   41.26    2.20
  -3  -4  -4   40.32    2.95
   3   4   4   38.24    2.13
   3   4   4   37.75    1.75
   3   4   4   37.02    1.60
   3   4   4   39.92    2.53
   3   4   4   41.59    2.73
   3   4   4   39.92    2.34
  -4  -4  -4  182.76    7.74
  -4  -4  -4  186.71    8.90
  -4  -4  -4  187.46    8.53
  -4  -4  -4  178.67    7.13
  -4  -4  -4  188.04    7.72
  -4  -4  -4  177.82    7.39
  -4  -4  -4  185.47    7.33
  -4  -4  -4  179.01    7.13
   4   4   4  169.56    7.94
   4   4   4  174.96    8.04
   4   4   4  165.63    7.52
   4   4   4  186.60    7.15
  -5  -4  -4    3.88    1.83
  -5  -4  -4    2.18    0.90
  -5  -4  -4    3.67    1.05
  -5  -4  -4    3.81    1.06
  -5  -4  -4    4.35    1.12
  -5  -4  -4    2.96    0.97
  -5  -4  -4    4.81    1.12
   5   4   4    4.91    0.85
   5   4   4    2.13    1.02
   5   4   4    4.17    1.64
   5   4   4    4.20    1.01
   5   4   4    4.41    1.11
  -6  -4  -4  151.74    6.60
  -6  -4  -4  169.87    6.92
  -6  -4  -4  152.84    6.95
  -6  -4  -4  159.65    7.21
  -6  -4  -4  149.43    8.11
  -6  -4  -4  155.14    7.33
  -6  -4  -4  157.54    6.46
   6   4   4  145.36    7.84
   6   4   4  165.26    6.81
   6   4   4  156.68    6.60
   6   4   4  152.31    6.87
  -7  -4  -4   53.67    2.97
  -7  -4  -4   48.41    4.42
  -7  -4  -4   56.20    3.76
  -7  -4  -4   55.03    3.21
  -7  -4  -4   49.96    3.35
  -7  -4  -4   53.13    3.43
   7   4   4   53.38    3.25
   7   4   4   46.51    3.63
   7   4   4   48.14    4.31
  -8  -4  -4    8.93    1.89
  -8  -4  -4   11.59    2.23
  -8  -4  -4    8.76    2.34
  -8  -4  -4    7.22    1.65
  -8  -4  -4    8.19    1.58
   8   4   4    9.63    1.93
   8   4   4    9.22    1.74
   8   4   4    7.57    1.90
   8   4   4    7.64    2.35
  -9  -4  -4  133.59    6.84
  -9  -4  -4  122.31    6.39
  -9  -4  -4  123.70    6.12
  -9  -4  -4  115.03    7.29
  -9  -4  -4  115.13    7.04
   9   4   4  116.41    7.63
   9   4   4  118.83    6.43
   9   4   4  132.01    6.03
   9   4   4  116.78    6.33
 -10  -4  -4    3.24    1.66
 -10  -4  -4    3.31    2.13
 -10  -4  -4    2.07    2.18
 -10  -4  -4    2.59    1.76
 -10  -4  -4    5.82    2.04
  10   4   4    3.96    1.99
  10   4   4    7.65    2.85
  10   4   4    2.83    1.92
   4  -5  -4    8.33    1.89
   4  -5  -4   10.11    2.26
  -4   5   4    8.11    3.33
  -4   5   4    6.56    2.73
   3  -5  -4   59.13    3.72
   3  -5  -4   58.85    4.04
  -3   5   4   59.96    3.43
  -3   5   4   49.41    5.84
  -3   5   4   60.31    5.15
   2  -5  -4    7.61    1.71
   2  -5  -4    8.23    1.53
  -2   5   4    6.31    1.65
  -2   5   4    7.62    2.07
  -2   5   4    6.16    1.24
  -2   5   4    2.79    2.78
   1  -5  -4  119.89    5.64
   1  -5  -4  118.39    5.73
   1  -5  -4  112.46    5.44
  -1   5   4  119.31    5.83
  -1   5   4  129.11    6.53
  -1   5   4  125.31    6.54
  -1   5   4  118.03    7.85
  -1   5   4  121.55    5.38
   0  -5  -4    1.33    0.95
   0  -5  -4    2.51    0.81
   0  -5  -4    2.32    0.97
   0  -5  -4    2.49    1.11
   0  -5  -4    1.35    0.74
   0   5   4    2.66    1.06
   0   5   4    2.95    2.16
   0   5   4    0.93    1.11
   0   5   4    3.39    1.55
  -1  -5  -4   27.80    1.83
  -1  -5  -4   30.39    2.26
  -1  -5  -4   29.81    2.23
  -1  -5  -4   30.18    2.08
  -1  -5  -4   28.61    1.87
   1   5   4   27.76    2.06
   1   5   4   29.44    2.24
   1   5   4   27.19    2.60
   1   5   4   29.88    3.36
  -2  -5  -4   29.79    1.98
  -2  -5  -4   29.65    2.04
  -2  -5  -4   30.74    2.30
  -2  -5  -4   32.27    2.19
  -2  -5  -4   28.68    1.90
   2   5   4   28.08    2.44
   2   5   4   30.00    2.12
   2   5   4   30.76    2.01
   2   5   4   35.16    3.27
   2   5   4   31.65    1.95
  -3  -5  -4   23.15    2.40
  -3  -5  -4   24.84    3.17
  -3  -5  -4   24.06    1.79
  -3  -5  -4   20.58    1.72
  -3  -5  -4   22.50    1.91
  -3  -5  -4   22.25    1.76
  -3  -5  -4   18.94    1.75
   3   5   4   20.66    1.68
   3   5   4   21.66    2.36
   3   5   4   17.50    1.72
   3   5   4   24.82    2.10
  -4  -5  -4    2.43    0.92
  -4  -5  -4    3.25    0.65
  -4  -5  -4    2.59    0.87
  -4  -5  -4    3.99    0.90
  -4  -5  -4    3.06    1.04
  -4  -5  -4    1.04    0.84
  -4  -5  -4    3.11    1.78
  -4  -5  -4    4.34    1.46
  -4  -5  -4    2.43    0.96
   4   5   4    4.14    0.97
   4   5   4    3.38    1.05
   4   5   4    3.17    1.25
   4   5   4    1.58    0.98
  -5  -5  -4   13.00    1.68
  -5  -5  -4    9.80    1.41
  -5  -5  -4   12.83    2.39
  -5  -5  -4   12.98    1.48
  -5  -5  -4   11.36    1.33
  -5  -5  -4   11.27    1.44
   5   5   4   14.41    1.91
   5   5   4   10.55    1.45
   5   5   4   10.85    1.49
   5   5   4   14.20    1.52
  -6  -5  -4   95.30    4.67
  -6  -5  -4   93.06    4.81
  -6  -5  -4   89.51    5.86
  -6  -5  -4   91.81    4.67
  -6  -5  -4   98.59    4.46
  -6  -5  -4   95.61    4.88
  -6  -5  -4  100.16    4.51
   6   5   4   89.63    4.56
   6   5   4   91.75    4.64
   6   5   4   88.03    5.35
   6   5   4  101.64    4.51
  -7  -5  -4   39.49    2.97
  -7  -5  -4   42.31    3.33
  -7  -5  -4   41.98    2.67
  -7  -5  -4   37.11    3.09
  -7  -5  -4   37.55    2.87
  -7  -5  -4   45.05    3.05
  -7  -5  -4   39.80    3.96
   7   5   4   38.90    2.66
   7   5   4   47.05    3.35
   7   5   4   33.54    3.50
   7   5   4   42.03    2.68
  -8  -5  -4  110.42    5.04
  -8  -5  -4   99.86    5.59
  -8  -5  -4  102.06    5.76
  -8  -5  -4   93.82    6.42
  -8  -5  -4  111.03    5.23
  -8  -5  -4   97.49    5.55
   8   5   4  107.18    6.39
   8   5   4  113.20    5.72
   8   5   4   98.53    5.10
  -9  -5  -4   11.50    2.68
  -9  -5  -4   13.22    2.10
  -9  -5  -4   11.60    2.23
  -9  -5  -4   11.57    2.12
  -9  -5  -4   14.20    2.43
   9   5   4   14.55    3.02
   9   5   4   11.94    2.22
   9   5   4   11.87    2.31
   9   5   4   12.52    2.06
 -10  -5  -4    0.76    1.55
 -10  -5  -4   -0.80    1.36
 -10  -5  -4   -0.46    1.94
 -10  -5  -4    2.52    1.69
 -10  -5  -4    5.45    2.26
  10   5   4    3.86    2.78
  10   5   4    4.09    1.82
  10   5   4    1.21    1.77
   3  -6  -4   -1.64    1.53
   3  -6  -4    2.43    1.48
  -3   6   4   -0.74    2.57
  -3   6   4   -0.31    2.02
   2  -6  -4   97.19    5.06
   2  -6  -4   95.12    5.27
  -2   6   4   71.65    7.45
  -2   6   4   98.98    4.76
  -2   6   4   92.43    5.47
  -2   6   4  117.37    6.62
   1  -6  -4   25.44    2.41
   1  -6  -4   27.82    2.67
  -1   6   4   31.34    3.15
  -1   6   4   22.83    3.21
  -1   6   4   20.45    3.99
  -1   6   4   26.26    2.63
  -1   6   4   25.41    2.15
   0  -6  -4   18.93    1.68
   0  -6  -4   18.29    1.71
   0  -6  -4   22.55    2.16
   0  -6  -4   18.89    1.98
   0   6   4   18.74    2.58
   0   6   4   15.31    3.40
   0   6   4   21.89    2.20
   0   6   4   20.62    2.40
  -1  -6  -4  135.21    5.73
  -1  -6  -4  132.78    5.99
  -1  -6  -4  132.00    5.70
  -1  -6  -4  137.01    6.17
   1   6   4  141.33    6.62
   1   6   4  147.81    6.87
   1   6   4  139.10    8.01
   1   6   4  131.37    6.32
  -2  -6  -4   13.76    1.51
  -2  -6  -4    8.82    2.88
  -2  -6  -4   14.98    1.63
  -2  -6  -4   15.93    1.84
  -2  -6  -4   12.31    1.42
  -2  -6  -4   15.46    1.64
   2   6   4   11.39    2.36
   2   6   4   12.99    1.51
   2   6   4    9.21    1.50
   2   6   4   14.98    2.00
  -3  -6  -4   97.63    4.38
  -3  -6  -4   89.62    6.53
  -3  -6  -4   88.46    4.54
  -3  -6  -4   99.74    4.50
  -3  -6  -4  100.74    5.60
  -3  -6  -4   98.79    4.35
   3   6   4  102.39    5.70
   3   6   4   94.16    4.27
   3   6   4   92.59    4.84
   3   6   4   89.87    4.69
  -4  -6  -4    3.48    2.03
  -4  -6  -4    4.46    1.16
  -4  -6  -4    6.89    1.20
  -4  -6  -4    7.69    1.28
  -4  -6  -4    8.57    1.34
  -4  -6  -4    7.06    1.93
  -4  -6  -4    7.78    1.03
   4   6   4    8.23    1.47
   4   6   4    7.59    1.76
   4   6   4    6.92    1.26
   4   6   4    6.30    1.18
  -5  -6  -4  178.34    7.98
  -5  -6  -4  183.32    9.09
  -5  -6  -4  185.75    7.40
  -5  -6  -4  187.69    8.75
  -5  -6  -4  185.60    7.43
  -5  -6  -4  174.39    7.56
  -5  -6  -4  173.78    7.72
  -5  -6  -4  180.49    7.38
   5   6   4  173.85    8.02
   5   6   4  179.04    7.86
   5   6   4  178.64    7.32
   5   6   4  172.03    8.47
  -6  -6  -4    2.24    0.97
  -6  -6  -4    1.94    1.06
  -6  -6  -4    1.31    1.08
  -6  -6  -4    1.59    0.99
  -6  -6  -4   -0.30    1.16
  -6  -6  -4    4.74    1.95
   6   6   4    1.29    1.09
   6   6   4    0.03    0.86
  -7  -6  -4  180.48    7.87
  -7  -6  -4  194.81    7.85
  -7  -6  -4  181.98    8.16
  -7  -6  -4  181.02    8.53
  -7  -6  -4  185.83    8.45
  -7  -6  -4  196.00    8.40
  -7  -6  -4  170.79    9.38
   7   6   4  193.81    8.16
   7   6   4  187.64    8.19
   7   6   4  184.77    7.79
  -8  -6  -4   10.12    1.88
  -8  -6  -4    9.56    1.68
  -8  -6  -4   12.44    2.14
  -8  -6  -4   12.62    1.80
  -8  -6  -4   11.38    1.96
  -8  -6  -4   11.59    1.86
  -8  -6  -4    6.57    2.22
   8   6   4   12.16    1.81
   8   6   4   12.57    2.55
   8   6   4    9.43    1.85
  -9  -6  -4    0.16    1.51
  -9  -6  -4    2.49    1.54
  -9  -6  -4   -1.50    1.69
  -9  -6  -4    0.48    1.54
  -9  -6  -4   -0.19    1.30
   9   6   4    2.17    1.46
   9   6   4   -0.52    1.47
   9   6   4    2.72    2.11
 -10  -6  -4   60.56    5.02
 -10  -6  -4   60.35    5.77
 -10  -6  -4   65.60    4.97
 -10  -6  -4   62.46    4.22
 -10  -6  -4   56.23    4.72
  10   6   4   67.90    4.57
  10   6   4   63.65    4.14
  10   6   4   66.40    5.86
  10   6   4   62.20    4.85
   2  -7  -4   22.97    5.02
   2  -7  -4   14.24    2.18
   2  -7  -4   20.98    2.69
  -2   7   4   23.33    4.70
  -2   7   4   21.39    3.40
  -2   7   4   18.72    2.79
   1  -7  -4    3.73    1.61
   1  -7  -4    1.70    3.21
   1  -7  -4    2.46    1.42
  -1   7   4    5.65    2.11
  -1   7   4    3.79    1.66
  -1   7   4    5.39    3.35
   0  -7  -4   79.36    7.77
   0  -7  -4   83.87    4.56
   0  -7  -4   80.86    3.99
   0  -7  -4   79.43    4.31
   0  -7  -4   85.11    3.97
   0   7   4   85.26    5.44
   0   7   4   80.31    7.18
   0   7   4   78.72    4.63
   0   7   4   76.93    5.11
  -1  -7  -4    4.24    1.21
  -1  -7  -4    3.46    1.20
  -1  -7  -4    3.61    1.08
  -1  -7  -4    2.92    1.02
  -1  -7  -4    0.94    2.82
   1   7   4    3.01    2.37
   1   7   4    4.68    1.72
   1   7   4    3.98    1.34
  -2  -7  -4   37.47    2.38
  -2  -7  -4   29.40    2.62
  -2  -7  -4   38.23    2.47
  -2  -7  -4   41.81    5.13
  -2  -7  -4   33.36    2.69
   2   7   4   39.02    4.18
   2   7   4   44.03    3.49
   2   7   4   37.20    2.97
  -3  -7  -4    3.43    1.01
  -3  -7  -4    4.03    1.26
  -3  -7  -4    1.66    2.45
  -3  -7  -4    4.70    1.12
  -3  -7  -4    2.74    1.06
   3   7   4    2.69    1.11
   3   7   4    2.39    1.94
   3   7   4    3.15    1.01
   3   7   4    4.63    1.52
  -4  -7  -4   31.81    2.44
  -4  -7  -4   30.84    2.49
  -4  -7  -4   28.36    2.52
  -4  -7  -4   36.73    3.79
  -4  -7  -4   35.00    3.46
  -4  -7  -4   30.51    2.59
  -4  -7  -4   34.10    2.51
   4   7   4   33.00    2.69
   4   7   4   29.09    2.30
   4   7   4   35.96    3.42
   4   7   4   26.22    2.66
  -5  -7  -4    5.65    1.68
  -5  -7  -4    5.74    1.20
  -5  -7  -4    2.96    1.23
  -5  -7  -4    4.14    1.18
  -5  -7  -4    3.14    1.14
  -5  -7  -4    4.42    1.15
  -5  -7  -4    1.06    1.67
  -5  -7  -4    2.63    1.08
   5   7   4    4.78    1.70
   5   7   4    4.74    1.45
   5   7   4    4.47    1.20
   5   7   4    4.24    1.09
  -6  -7  -4   13.97    1.75
  -6  -7  -4   12.85    1.75
  -6  -7  -4   13.25    1.91
  -6  -7  -4   11.72    1.75
  -6  -7  -4   12.25    1.70
  -6  -7  -4   13.78    2.53
  -6  -7  -4   10.51    1.53
   6   7   4   13.08    1.90
   6   7   4   14.53    1.77
   6   7   4   11.09    1.81
  -7  -7  -4   27.96    2.48
  -7  -7  -4   33.11    3.10
  -7  -7  -4   29.47    2.61
  -7  -7  -4   23.04    3.23
  -7  -7  -4   33.24    2.68
  -7  -7  -4   24.78    2.55
   7   7   4   26.07    2.37
   7   7   4   33.64    2.76
   7   7   4   29.84    2.69
  -8  -7  -4   33.06    3.83
  -8  -7  -4   28.76    3.02
  -8  -7  -4   27.10    2.61
  -8  -7  -4   28.90    2.63
  -8  -7  -4   30.83    2.93
  -8  -7  -4   26.91    2.71
   8   7   4   28.55    2.53
   8   7   4   28.95    2.64
   8   7   4   25.57    2.74
  -9  -7  -4   68.04    4.05
  -9  -7  -4   63.37    4.41
  -9  -7  -4   64.82    4.38
  -9  -7  -4   60.81    5.59
  -9  -7  -4   57.82    4.61
   9   7   4   68.71    4.03
   9   7   4   68.65    4.52
 -10  -7  -4   19.77    2.92
 -10  -7  -4   16.10    2.70
 -10  -7  -4   23.10    2.69
 -10  -7  -4   19.11    3.51
  10   7   4   16.19    2.77
  10   7   4   21.26    2.61
  10   7   4   15.02    2.56
   1  -8  -4   78.21    8.37
   1  -8  -4   80.31    4.66
   1  -8  -4   79.07    4.73
  -1   8   4   68.77    7.40
  -1   8   4   71.33    5.04
   0  -8  -4    6.24    1.76
   0  -8  -4    6.02    3.59
   0  -8  -4    4.25    1.53
   0   8   4    1.58    2.75
   0   8   4    2.98    1.68
   0   8   4    6.03    2.53
  -1  -8  -4   27.92    2.42
  -1  -8  -4   24.32    2.56
  -1  -8  -4   28.88    2.34
  -1  -8  -4   23.37    2.52
  -1  -8  -4   28.37    5.05
   1   8   4   23.11    4.18
   1   8   4   28.49    2.85
   1   8   4   28.24    3.41
  -2  -8  -4   57.11    3.45
  -2  -8  -4   51.10    3.48
  -2  -8  -4   51.31    6.05
  -2  -8  -4   60.00    3.33
  -2  -8  -4   55.08    3.25
   2   8   4   57.75    5.74
   2   8   4   56.09    4.38
   2   8   4   54.21    3.63
  -3  -8  -4   22.56    2.37
  -3  -8  -4   22.76    2.31
  -3  -8  -4   20.97    2.11
  -3  -8  -4   25.37    2.21
  -3  -8  -4   27.44    4.07
   3   8   4   24.25    3.60
   3   8   4   22.64    2.06
   3   8   4   22.46    2.70
   3   8   4   25.55    2.49
  -4  -8  -4   40.33    2.98
  -4  -8  -4   38.84    4.23
  -4  -8  -4   35.68    2.71
  -4  -8  -4   30.99    2.58
  -4  -8  -4   31.34    2.82
   4   8   4   34.89    3.84
   4   8   4   36.17    3.22
   4   8   4   35.29    2.69
   4   8   4   38.69    3.05
  -5  -8  -4   13.39    1.67
  -5  -8  -4   12.82    1.69
  -5  -8  -4   13.59    1.85
  -5  -8  -4   12.25    1.81
  -5  -8  -4   18.44    2.67
  -5  -8  -4   10.56    1.66
   5   8   4   15.24    2.07
   5   8   4   11.60    1.84
   5   8   4    7.49    1.45
   5   8   4   12.06    2.35
  -6  -8  -4   82.59    4.63
  -6  -8  -4   84.76    4.61
  -6  -8  -4   78.92    4.19
  -6  -8  -4   79.48    4.20
  -6  -8  -4   80.57    5.33
  -6  -8  -4   77.41    4.31
  -6  -8  -4   79.74    4.22
   6   8   4   77.60    4.66
   6   8   4   87.34    4.73
   6   8   4   86.48    4.25
  -7  -8  -4    7.40    1.50
  -7  -8  -4    2.60    1.34
  -7  -8  -4   11.56    2.48
  -7  -8  -4    6.91    1.48
  -7  -8  -4    6.35    1.76
  -7  -8  -4    4.67    1.40
  -7  -8  -4    4.56    1.50
   7   8   4    2.79    1.22
   7   8   4    5.38    1.56
   7   8   4    6.49    1.56
  -8  -8  -4  107.18    5.16
  -8  -8  -4   87.42    5.32
  -8  -8  -4   94.97    5.04
  -8  -8  -4   92.40    6.27
  -8  -8  -4   90.33    5.54
  -8  -8  -4  101.88    5.38
   8   8   4  101.31    5.38
   8   8   4   93.29    5.48
   8   8   4  105.66    5.30
   8   8   4   94.88    4.90
  -9  -8  -4   -0.24    1.19
  -9  -8  -4   -0.12    1.63
  -9  -8  -4    0.59    1.45
  -9  -8  -4    0.64    2.07
  -9  -8  -4   -0.08    1.31
  -9  -8  -4    0.96    1.36
   9   8   4   -0.05    1.34
   9   8   4   -2.09    1.46
 -10  -8  -4    3.21    1.88
 -10  -8  -4    1.85    1.52
 -10  -8  -4    3.94    2.06
 -10  -8  -4    2.48    2.48
  10   8   4    1.46    1.95
  10   8   4   -0.95    1.44
   0  -9  -4    1.69    1.53
   0  -9  -4   -0.08    1.52
   0  -9  -4    1.54    3.54
   0   9   4    0.55    3.18
  -1  -9  -4   30.37    3.05
  -1  -9  -4   42.57    5.89
  -1  -9  -4   32.26    3.19
  -1  -9  -4   38.26    3.03
  -1  -9  -4   37.25    2.88
   1   9   4   37.07    3.54
   1   9   4   41.62    4.32
   1   9   4   30.64    4.88
  -2  -9  -4    1.49    1.42
  -2  -9  -4    2.05    2.94
  -2  -9  -4    1.10    1.12
  -2  -9  -4    0.33    1.15
  -2  -9  -4    1.01    1.18
   2   9   4    2.27    1.90
   2   9   4    1.59    1.43
   2   9   4   -0.05    2.63
  -3  -9  -4   12.53    1.98
  -3  -9  -4   12.69    1.73
  -3  -9  -4   10.42    1.79
  -3  -9  -4   10.04    3.16
  -3  -9  -4    9.95    1.68
   3   9   4   11.41    2.35
   3   9   4   16.28    2.18
   3   9   4   10.35    3.01
   3   9   4   14.01    1.78
  -4  -9  -4    0.61    1.19
  -4  -9  -4    2.73    1.42
  -4  -9  -4    2.18    1.21
  -4  -9  -4    0.14    2.15
  -4  -9  -4    2.85    1.36
   4   9   4    2.29    1.39
   4   9   4    3.02    2.35
   4   9   4    2.92    1.20
   4   9   4    3.23    1.67
  -5  -9  -4   23.90    2.43
  -5  -9  -4   26.58    2.43
  -5  -9  -4   22.83    2.47
  -5  -9  -4   24.54    2.63
  -5  -9  -4   33.79    3.68
   5   9   4   26.77    2.67
   5   9   4   24.98    3.37
   5   9   4   21.56    2.63
   5   9   4   21.33    2.30
  -6  -9  -4    6.43    1.59
  -6  -9  -4    7.05    1.81
  -6  -9  -4    6.00    1.42
  -6  -9  -4    6.79    1.55
  -6  -9  -4    7.14    1.62
   6   9   4    8.55    2.20
   6   9   4    5.09    1.78
   6   9   4    9.24    1.58
   6   9   4    6.64    1.64
  -7  -9  -4   10.02    1.77
  -7  -9  -4    7.34    1.76
  -7  -9  -4    7.75    1.70
  -7  -9  -4   13.08    1.90
  -7  -9  -4   11.06    2.12
   7   9   4    7.02    1.61
   7   9   4   10.89    1.94
   7   9   4   12.52    2.07
  -8  -9  -4    0.91    1.42
  -8  -9  -4    2.81    1.47
  -8  -9  -4    1.46    1.41
  -8  -9  -4    3.41    2.12
  -8  -9  -4    1.58    1.75
  -8  -9  -4    3.93    1.53
   8   9   4    4.65    1.52
   8   9   4    4.92    1.75
   8   9   4    0.56    1.27
   8   9   4    7.86    1.88
  -9  -9  -4   10.56    2.16
  -9  -9  -4   11.66    2.12
  -9  -9  -4   11.63    2.51
  -9  -9  -4    9.24    2.04
  -9  -9  -4    6.40    2.51
  -9  -9  -4   12.07    2.00
   9   9   4    6.63    1.91
   9   9   4    7.77    2.04
   9   9   4    9.79    1.94
 -10  -9  -4   22.71    3.08
 -10  -9  -4   24.46    3.47
 -10  -9  -4   22.42    2.82
 -10  -9  -4   27.97    4.08
  10   9   4   32.94    3.14
  10   9   4   36.53    3.69
  -2 -10  -4   20.62    4.71
  -2 -10  -4   16.45    2.51
  -2 -10  -4   18.40    2.49
  -2 -10  -4   18.97    2.34
  -2 -10  -4   24.97    2.52
   2  10   4   18.99    3.17
   2  10   4   19.43    2.28
   2  10   4   21.20    4.32
  -3 -10  -4   15.38    2.32
  -3 -10  -4   15.79    2.22
  -3 -10  -4   23.69    4.36
  -3 -10  -4   17.18    2.13
  -3 -10  -4   17.63    2.47
   3  10   4   18.79    2.17
   3  10   4   18.03    2.88
   3  10   4   15.12    3.65
  -4 -10  -4   18.56    2.41
  -4 -10  -4   22.57    2.46
  -4 -10  -4   31.67    4.49
  -4 -10  -4   21.84    2.37
  -4 -10  -4   21.76    2.57
   4  10   4   19.16    2.27
   4  10   4   28.29    3.21
   4  10   4   22.34    3.87
   4  10   4   24.69    2.90
  -5 -10  -4    9.02    1.70
  -5 -10  -4    8.04    1.85
  -5 -10  -4   10.92    1.93
  -5 -10  -4   11.72    2.13
   5  10   4   14.26    2.02
   5  10   4   14.53    2.46
   5  10   4   10.18    2.00
   5  10   4   16.11    3.16
  -6 -10  -4   12.36    2.13
  -6 -10  -4   14.16    2.05
  -6 -10  -4   14.13    2.35
  -6 -10  -4   15.02    2.12
   6  10   4   12.33    2.40
   6  10   4   13.28    2.24
   6  10   4   10.54    1.94
  -7 -10  -4   51.77    4.18
  -7 -10  -4   47.72    3.87
  -7 -10  -4   51.77    3.37
  -7 -10  -4   42.90    3.60
   7  10   4   43.73    3.44
   7  10   4   39.52    3.76
   7  10   4   36.56    3.60
  -8 -10  -4    6.65    1.72
  -8 -10  -4    3.27    1.59
  -8 -10  -4    6.85    1.88
  -8 -10  -4    5.04    2.04
   8  10   4    5.36    1.56
   8  10   4    3.59    1.91
  -9 -10  -4   57.38    4.61
  -9 -10  -4   65.03    5.18
  -9 -10  -4   61.51    4.11
  -9 -10  -4   64.76    4.29
   9  10   4   61.94    4.75
   9  10   4   60.33    4.06
  -5 -11  -4   -2.01    1.13
  -5 -11  -4   -1.39    1.15
  -5 -11  -4   -1.05    1.23
  -5 -11  -4   -0.47    1.51
   5  11   4    2.38    1.95
   5  11   4    1.19    1.30
   5  11   4   -0.23    2.41
  -6 -11  -4   17.87    2.48
  -6 -11  -4   15.29    2.62
  -6 -11  -4   20.57    2.44
  -6 -11  -4   18.54    2.41
   6  11   4   16.86    2.71
   6  11   4   19.65    2.46
  -7 -11  -4   12.19    2.20
  -7 -11  -4    6.69    2.23
  -7 -11  -4    7.81    2.02
  -7 -11  -4   12.31    2.10
   7  11   4   10.69    2.03
   7  11   4    6.92    2.17
   6  10  -5    4.78    2.26
   6  10  -5    7.11    3.26
  -6 -10   5    2.97    2.19
  -6 -10   5    7.35    1.96
  -6 -10   5   -0.24    3.37
   5  10  -5    9.10    3.51
   5  10  -5    6.42    2.34
  -5 -10   5    8.68    3.95
  -5 -10   5    2.98    2.36
  -5 -10   5    5.72    1.96
  -5 -10   5    4.42    1.46
   4  10  -5    7.52    3.32
   4  10  -5    4.91    2.30
  -4 -10   5    7.85    1.58
  -4 -10   5    4.80    3.59
  -4 -10   5    4.72    1.91
  -4 -10   5    4.12    2.62
   3  10  -5   -1.36    2.54
   3  10  -5   -3.19    2.00
  -3 -10   5   -0.98    1.47
  -3 -10   5    1.20    1.19
  -3 -10   5   -1.33    2.40
   2  10  -5   45.26    3.77
   2  10  -5   26.84    4.64
   2  10  -5   35.54    4.70
  -2 -10   5   32.39    5.05
  -2 -10   5   37.41    3.78
  -2 -10   5   39.04    3.26
   1  10  -5   21.29    4.25
   1  10  -5   23.45    4.39
  -1 -10   5   25.15    2.75
  -1 -10   5   22.35    4.46
  -1 -10   5   28.34    3.41
   7   9  -5    7.48    2.21
   7   9  -5    7.28    3.00
  -7  -9   5    4.76    1.56
  -7  -9   5    0.61    2.89
  -7  -9   5    4.90    2.22
   6   9  -5    3.11    1.78
   6   9  -5    4.00    2.74
  -6  -9   5   -0.36    1.66
  -6  -9   5    2.72    1.31
  -6  -9   5    4.98    3.18
  -6  -9   5   -0.79    1.37
  -6  -9   5    0.76    1.80
   5   9  -5    3.09    2.76
   5   9  -5   -0.49    1.58
  -5  -9   5    0.35    1.43
  -5  -9   5   -0.53    2.80
  -5  -9   5    2.76    2.02
  -5  -9   5    1.68    1.17
   4   9  -5   14.51    2.59
   4   9  -5   10.07    3.30
  -4  -9   5   14.76    2.22
  -4  -9   5   10.89    2.90
  -4  -9   5   10.16    3.65
  -4  -9   5   13.03    1.81
   3   9  -5   23.68    2.47
   3   9  -5   20.32    4.10
   3   9  -5   26.18    3.32
  -3  -9   5   25.30    2.85
  -3  -9   5   19.09    2.19
  -3  -9   5   17.52    3.60
  -3  -9   5   19.79    4.30
   2   9  -5   40.52    5.00
   2   9  -5   34.72    4.03
   2   9  -5   40.48    3.32
  -2  -9   5   36.81    3.46
  -2  -9   5   26.38    4.40
  -2  -9   5   35.70    5.20
  -2  -9   5   35.27    2.87
   1   9  -5    1.38    2.29
   1   9  -5    4.05    1.72
   1   9  -5    2.42    2.80
  -1  -9   5    0.82    2.50
  -1  -9   5    2.10    1.18
  -1  -9   5    4.05    1.36
  -1  -9   5    0.36    1.48
   0   9  -5    2.27    1.82
   0   9  -5    2.31    2.84
   0   9  -5    3.76    2.91
   0  -9   5    2.16    1.38
   0  -9   5    2.72    1.29
   0  -9   5   -0.04    1.65
   0  -9   5   -2.85    2.26
  -1   9  -5   33.15    4.87
  -1   9  -5   30.68    4.51
   1  -9   5   29.31    3.47
   1  -9   5   30.39    4.43
   1  -9   5   29.81    3.00
   1  -9   5   33.79    3.01
   7   8  -5   -0.34    1.39
   7   8  -5    1.20    1.59
   7   8  -5   -0.61    1.44
  -7  -8   5   -0.71    1.19
  -7  -8   5   -1.32    1.59
  -7  -8   5   -0.92    1.46
  -7  -8   5   -0.23    1.15
  -7  -8   5   -2.28    2.38
   6   8  -5   10.95    2.06
   6   8  -5   14.74    2.36
   6   8  -5   10.44    2.03
  -6  -8   5   14.70    1.94
  -6  -8   5    9.13    2.21
  -6  -8   5   10.49    1.93
  -6  -8   5   11.33    3.25
  -6  -8   5   13.52    2.10
  -6  -8   5   12.89    2.15
   5   8  -5    1.39    1.31
   5   8  -5    2.50    2.11
   5   8  -5    0.12    1.41
  -5  -8   5   -1.64    1.56
  -5  -8   5    2.55    1.44
  -5  -8   5   -0.07    0.97
  -5  -8   5    0.93    1.18
  -5  -8   5    2.00    1.62
  -5  -8   5    2.54    2.42
   4   8  -5   30.44    4.34
   4   8  -5   29.47    2.77
   4   8  -5   27.70    3.09
  -4  -8   5   28.10    2.90
  -4  -8   5   27.51    3.61
  -4  -8   5   36.06    2.63
  -4  -8   5   32.18    2.83
  -4  -8   5   33.33    2.56
  -4  -8   5   30.80    4.56
   3   8  -5   -1.31    0.98
   3   8  -5   -0.33    1.40
   3   8  -5    2.13    2.25
   3   8  -5    0.17    1.11
  -3  -8   5    1.75    1.04
  -3  -8   5    0.88    1.03
  -3  -8   5   -0.72    1.77
  -3  -8   5   -0.22    1.12
  -3  -8   5    0.04    2.35
  -3  -8   5   -0.48    0.81
   2   8  -5    1.04    1.70
   2   8  -5    0.57    1.15
   2   8  -5    1.61    2.28
  -2  -8   5    2.99    2.65
  -2  -8   5    0.58    1.03
  -2  -8   5    1.64    1.36
  -2  -8   5    0.77    0.87
  -2  -8   5   -0.40    0.98
  -2  -8   5    3.66    2.31
   1   8  -5   35.79    4.75
   1   8  -5   39.20    3.22
   1   8  -5   48.04    4.38
  -1  -8   5   32.25    2.69
  -1  -8   5   29.83    4.48
  -1  -8   5   43.77    2.70
  -1  -8   5   36.03    3.45
  -1  -8   5   41.50    2.84
  -1  -8   5   44.96    5.46
  -1  -8   5   37.00    2.88
   0   8  -5   35.35    4.67
   0   8  -5   38.89    3.50
   0   8  -5   44.24    4.78
   0  -8   5   43.32    2.84
   0  -8   5   49.41    5.20
   0  -8   5   42.38    2.92
   0  -8   5   39.93    3.60
   0  -8   5   42.44    3.17
  -1   8  -5   47.06    3.98
  -1   8  -5   52.14    5.50
  -1   8  -5   51.11    5.55
   1  -8   5   56.53    5.57
   1  -8   5   46.77    3.52
   1  -8   5   46.50    3.48
   1  -8   5   48.76    4.20
  -2   8  -5    7.54    3.14
  -2   8  -5    6.11    2.17
  -2   8  -5    9.21    2.82
   2  -8   5   11.99    2.96
   2  -8   5   11.30    2.01
   2  -8   5    5.24    1.58
   2  -8   5    8.42    2.22
  -3   8  -5   -0.29    2.24
  -3   8  -5    1.28    2.51
   3  -8   5   -1.47    1.91
   3  -8   5    0.75    1.31
   3  -8   5   -0.68    1.46
   8   7  -5   -1.20    1.39
   8   7  -5   -0.34    1.36
  -8  -7   5   -0.38    1.70
  -8  -7   5    0.36    1.66
  -8  -7   5   -0.07    1.82
   7   7  -5    2.24    1.59
   7   7  -5    0.39    1.31
   7   7  -5    2.16    1.58
  -7  -7   5   -0.10    1.28
  -7  -7   5   -1.05    2.24
  -7  -7   5    2.21    1.33
  -7  -7   5   -0.65    1.57
  -7  -7   5    1.03    1.60
  -7  -7   5    0.09    1.62
   6   7  -5    3.30    1.32
   6   7  -5    1.55    1.42
   6   7  -5    3.82    1.53
   6   7  -5    0.69    1.46
  -6  -7   5    2.83    1.42
  -6  -7   5    0.28    2.19
  -6  -7   5    1.49    1.48
  -6  -7   5    3.48    1.74
  -6  -7   5    1.11    1.03
   5   7  -5    0.76    1.06
   5   7  -5    0.01    1.15
   5   7  -5    1.29    1.36
  -5  -7   5   -0.02    1.06
  -5  -7   5   -0.72    1.85
  -5  -7   5    0.33    1.42
  -5  -7   5    1.57    1.05
  -5  -7   5   -1.20    1.25
  -5  -7   5   -1.17    1.11
  -5  -7   5   -0.95    0.98
   4   7  -5    2.49    1.27
   4   7  -5    1.47    1.17
  -4  -7   5    1.18    0.90
  -4  -7   5    0.36    2.20
  -4  -7   5   -0.57    0.95
  -4  -7   5   -0.12    1.01
  -4  -7   5    1.75    0.93
  -4  -7   5    0.01    1.33
  -4  -7   5    0.72    1.47
   3   7  -5   34.76    4.28
   3   7  -5   34.15    3.14
   3   7  -5   39.64    2.80
   3   7  -5   35.64    2.49
  -3  -7   5   34.25    3.25
  -3  -7   5   30.72    4.03
  -3  -7   5   32.19    2.91
  -3  -7   5   38.87    2.51
  -3  -7   5   41.91    2.48
  -3  -7   5   41.08    4.10
  -3  -7   5   36.32    2.69
   2   7  -5   21.69    2.05
   2   7  -5   22.81    3.58
   2   7  -5   19.95    2.56
   2   7  -5   25.26    2.31
  -2  -7   5   22.90    3.32
  -2  -7   5   13.92    3.37
  -2  -7   5   18.07    1.71
  -2  -7   5   21.56    2.33
  -2  -7   5   20.77    1.89
  -2  -7   5   19.91    1.90
  -2  -7   5   22.43    2.14
   1   7  -5   96.29    5.06
   1   7  -5   98.36    5.73
   1   7  -5   89.96    4.81
   1   7  -5  100.33    6.83
  -1  -7   5   87.92    6.66
  -1  -7   5   93.95    4.46
  -1  -7   5   91.11    4.91
  -1  -7   5   95.73    4.54
  -1  -7   5   94.03    4.40
  -1  -7   5   96.32    7.00
  -1  -7   5   95.68    5.14
   0   7  -5   11.20    1.98
   0   7  -5    9.27    2.96
   0   7  -5    4.31    2.17
   0   7  -5    7.60    1.70
   0  -7   5    7.27    1.31
   0  -7   5   10.73    1.93
   0  -7   5    8.69    2.72
   0  -7   5    9.95    1.47
   0  -7   5    8.87    1.59
   0  -7   5   11.25    3.26
   0  -7   5   11.54    1.62
  -1   7  -5    6.18    1.69
  -1   7  -5    9.43    2.54
  -1   7  -5    5.28    2.59
  -1   7  -5    5.32    2.57
   1  -7   5    9.05    1.68
   1  -7   5    8.42    2.63
   1  -7   5    7.58    1.46
   1  -7   5    7.90    1.50
   1  -7   5   11.28    2.07
   1  -7   5    9.67    1.58
  -2   7  -5   29.17    3.94
  -2   7  -5   26.93    3.11
  -2   7  -5   31.34    4.37
   2  -7   5   33.89    3.25
   2  -7   5   37.94    4.27
   2  -7   5   28.81    2.73
   2  -7   5   28.85    3.00
   2  -7   5   32.30    2.77
   2  -7   5   32.58    2.88
  -3   7  -5    6.01    1.98
  -3   7  -5   11.48    2.87
  -3   7  -5    7.10    2.71
   3  -7   5    4.19    1.95
   3  -7   5    8.08    1.92
   3  -7   5    6.45    1.63
   3  -7   5    8.58    2.53
  -4   7  -5   42.19    4.73
  -4   7  -5   31.63    4.40
   4  -7   5   39.03    3.72
   4  -7   5   37.57    3.28
   4  -7   5   35.48    4.27
   8   6  -5    2.01    1.64
   8   6  -5    2.33    1.57
  -8  -6   5    0.17    1.66
  -8  -6   5    0.08    1.76
  -8  -6   5    2.38    1.72
   7   6  -5   45.33    3.98
   7   6  -5   44.68    3.80
   7   6  -5   40.03    3.56
  -7  -6   5   48.23    4.15
  -7  -6   5   48.56    3.95
  -7  -6   5   48.55    3.61
  -7  -6   5   42.75    3.84
  -7  -6   5   44.86    4.72
  -7  -6   5   46.10    3.93
   6   6  -5   -0.70    1.24
   6   6  -5   -0.37    1.21
   6   6  -5    0.63    1.21
  -6  -6   5   -2.64    1.74
  -6  -6   5    0.03    1.04
  -6  -6   5   -0.35    1.21
  -6  -6   5    2.89    1.44
  -6  -6   5    1.29    1.46
  -6  -6   5    1.02    1.03
   5   6  -5   21.22    2.43
   5   6  -5   26.14    2.35
  -5  -6   5   21.90    2.55
  -5  -6   5   19.04    2.04
  -5  -6   5   27.08    2.50
  -5  -6   5   24.99    3.35
  -5  -6   5   23.56    2.24
  -5  -6   5   21.69    2.35
  -5  -6   5   22.68    2.39
   4   6  -5    2.20    1.03
   4   6  -5    0.50    1.09
   4   6  -5    0.83    1.10
  -4  -6   5    1.01    1.02
  -4  -6   5    0.37    1.38
  -4  -6   5    0.29    0.70
  -4  -6   5    1.45    1.05
  -4  -6   5   -0.22    0.98
  -4  -6   5   -0.25    1.18
  -4  -6   5    0.55    0.88
  -4  -6   5    0.92    1.03
  -4  -6   5    2.51    1.77
   3   6  -5   54.90    2.92
   3   6  -5   50.15    3.46
   3   6  -5   53.63    3.04
   3   6  -5   57.47    3.36
  -3  -6   5   55.32    4.99
  -3  -6   5   54.44    3.28
  -3  -6   5   49.41    2.76
  -3  -6   5   52.17    4.18
  -3  -6   5   56.52    3.08
  -3  -6   5   56.15    3.46
  -3  -6   5   51.39    3.60
   2   6  -5   11.14    1.37
   2   6  -5   12.50    1.90
   2   6  -5    9.78    1.49
  -2  -6   5   13.63    2.41
  -2  -6   5   10.33    1.67
  -2  -6   5   10.75    1.18
  -2  -6   5   10.39    1.32
  -2  -6   5   10.50    2.54
  -2  -6   5    9.12    1.45
  -2  -6   5    7.42    1.63
  -2  -6   5    8.15    1.24
   1   6  -5    6.00    1.52
   1   6  -5    4.60    1.19
   1   6  -5    8.84    2.51
   1   6  -5    4.85    1.31
  -1  -6   5    4.98    1.39
  -1  -6   5    6.41    2.04
  -1  -6   5    4.30    0.91
  -1  -6   5    4.96    2.32
  -1  -6   5    5.63    1.11
  -1  -6   5    5.43    1.16
  -1  -6   5    3.76    1.04
   0   6  -5   27.61    2.51
   0   6  -5   18.48    2.52
   0   6  -5   23.34    3.50
   0   6  -5   26.06    2.27
   0  -6   5   25.08    2.52
   0  -6   5   21.52    1.97
   0  -6   5   28.96    3.92
   0  -6   5   23.63    1.88
   0  -6   5   24.95    2.07
   0  -6   5   22.86    2.14
   0  -6   5   18.79    3.07
  -1   6  -5   53.81    3.43
  -1   6  -5   47.81    4.49
  -1   6  -5   45.08    4.81
  -1   6  -5   52.45    4.10
   1  -6   5   56.10    3.47
   1  -6   5   56.60    5.40
   1  -6   5   54.18    3.16
   1  -6   5   47.81    3.47
   1  -6   5   53.45    3.04
   1  -6   5   53.94    3.12
   1  -6   5   44.97    4.71
  -2   6  -5   65.97    5.28
  -2   6  -5   67.56    5.71
  -2   6  -5   61.61    4.18
  -2   6  -5   62.97    5.66
   2  -6   5   68.19    5.18
   2  -6   5   68.42    3.64
   2  -6   5   63.75    4.22
   2  -6   5   67.41    3.96
   2  -6   5   68.68    4.15
   2  -6   5   63.30    3.74
  -3   6  -5   26.82    3.73
  -3   6  -5   23.30    2.75
  -3   6  -5   22.85    3.46
  -3   6  -5   28.49    3.32
   3  -6   5   27.48    3.46
   3  -6   5   18.83    2.85
   3  -6   5   24.83    2.69
   3  -6   5   23.98    2.57
   3  -6   5   24.81    2.44
  -4   6  -5    3.84    2.33
  -4   6  -5    4.12    2.57
  -4   6  -5   -1.76    1.46
  -4   6  -5    1.42    2.05
   4  -6   5    3.11    2.01
   4  -6   5    0.35    1.59
   4  -6   5    3.73    1.49
   4  -6   5    5.83    2.24
  -5   6  -5    4.12    2.45
   5  -6   5    1.85    1.46
   5  -6   5    2.90    2.21
   5  -6   5    2.42    1.98
   5  -6   5    0.60    1.86
   8   5  -5   25.18    3.16
   8   5  -5   20.15    2.80
   8   5  -5   20.91    2.81
  -8  -5   5   25.42    3.07
  -8  -5   5   24.77    3.30
  -8  -5   5   23.88    3.14
   7   5  -5   -0.39    1.39
   7   5  -5    1.25    1.63
   7   5  -5    1.40    1.36
   7   5  -5    1.71    1.39
  -7  -5   5    1.18    1.50
  -7  -5   5    1.75    1.71
  -7  -5   5    1.96    1.39
  -7  -5   5    2.16    1.50
  -7  -5   5    1.35    2.06
  -7  -5   5    3.12    1.35
   6   5  -5    4.20    1.49
   6   5  -5    4.43    1.45
   6   5  -5   -0.49    1.15
   6   5  -5   -0.39    1.28
  -6  -5   5    0.34    1.30
  -6  -5   5    4.44    2.01
  -6  -5   5   -0.38    1.18
  -6  -5   5    2.06    1.24
  -6  -5   5   -0.15    1.07
  -6  -5   5    0.68    1.37
   5   5  -5    0.93    1.07
   5   5  -5    0.67    1.18
   5   5  -5    1.75    1.12
   5   5  -5    2.77    1.16
  -5  -5   5    1.25    1.21
  -5  -5   5    2.00    0.99
  -5  -5   5    2.01    1.21
  -5  -5   5    1.92    1.15
  -5  -5   5    0.91    1.27
  -5  -5   5    0.32    0.93
  -5  -5   5   -2.16    1.47
   4   5  -5   -0.93    0.86
   4   5  -5    2.09    1.13
   4   5  -5    1.07    0.93
  -4  -5   5    1.35    0.95
  -4  -5   5    1.25    0.96
  -4  -5   5    1.01    1.01
  -4  -5   5    2.41    1.67
  -4  -5   5    2.64    1.00
  -4  -5   5   -0.26    1.05
  -4  -5   5    1.01    1.18
   3   5  -5    7.30    1.21
   3   5  -5    8.03    1.40
   3   5  -5    7.99    1.47
  -3  -5   5    7.95    1.22
  -3  -5   5    8.12    1.20
  -3  -5   5    7.24    1.37
  -3  -5   5   10.84    2.15
  -3  -5   5   11.35    1.53
  -3  -5   5    8.38    1.78
  -3  -5   5    4.89    1.19
  -3  -5   5    7.15    1.50
  -3  -5   5    7.41    1.00
   2   5  -5   27.48    1.78
   2   5  -5   25.12    1.88
   2   5  -5   29.01    2.26
   2   5  -5   27.36    2.41
  -2  -5   5   24.50    3.02
  -2  -5   5   29.13    1.74
  -2  -5   5   24.59    2.86
  -2  -5   5   30.70    2.14
  -2  -5   5   25.38    2.00
  -2  -5   5   25.14    2.42
  -2  -5   5   21.82    1.61
  -2  -5   5   28.97    2.39
  -2  -5   5   25.99    1.75
   1   5  -5   17.81    1.97
   1   5  -5   18.14    1.38
   1   5  -5   16.97    1.76
   1   5  -5   15.51    1.54
  -1  -5   5   16.39    1.32
  -1  -5   5   19.58    2.61
  -1  -5   5   17.98    1.59
  -1  -5   5   15.27    1.51
  -1  -5   5   14.86    1.83
  -1  -5   5   16.60    2.58
  -1  -5   5   20.39    1.87
   0   5  -5  148.29    6.59
   0   5  -5  140.44    6.34
   0   5  -5  145.29    7.93
   0   5  -5  138.63    6.94
   0  -5   5  138.80    7.84
   0  -5   5  137.48    6.49
   0  -5   5  125.94    7.86
   0  -5   5  143.35    5.75
   0  -5   5  140.88    5.86
   0  -5   5  139.52    6.09
   0  -5   5  139.41    6.61
  -1   5  -5   32.94    2.84
  -1   5  -5   29.92    3.70
  -1   5  -5   28.56    2.99
  -1   5  -5   32.18    2.65
   1  -5   5   35.03    2.57
   1  -5   5   32.12    2.14
   1  -5   5   33.32    3.97
   1  -5   5   31.60    2.22
   1  -5   5   30.89    2.64
   1  -5   5   29.43    2.33
   1  -5   5   30.63    3.52
  -2   5  -5   64.93    4.85
  -2   5  -5   67.87    4.96
  -2   5  -5   68.02    5.09
  -2   5  -5   69.39    4.07
   2  -5   5   69.57    5.03
   2  -5   5   66.43    3.63
   2  -5   5   64.30    3.96
   2  -5   5   75.27    4.40
   2  -5   5   73.42    3.68
  -3   5  -5   32.34    3.18
  -3   5  -5   43.10    4.18
  -3   5  -5   35.08    3.89
  -3   5  -5   36.42    4.18
   3  -5   5   40.42    3.15
   3  -5   5   36.60    3.58
   3  -5   5   44.13    4.10
   3  -5   5   41.78    2.97
   3  -5   5   39.29    3.05
  -4   5  -5    2.69    1.73
  -4   5  -5    1.05    2.10
  -4   5  -5    2.69    1.91
  -4   5  -5    1.12    1.97
   4  -5   5    1.34    1.32
   4  -5   5    0.70    1.72
   4  -5   5   -0.31    1.04
   4  -5   5   -0.69    1.73
  -5   5  -5   29.03    3.76
  -5   5  -5   26.78    3.22
  -5   5  -5   31.51    3.66
   5  -5   5   24.11    2.56
   5  -5   5   30.20    3.55
   5  -5   5   28.19    3.65
   5  -5   5   30.60    3.07
  -6   5  -5    3.40    2.33
  -6   5  -5    4.85    2.35
   6  -5   5    4.62    1.64
   6  -5   5    4.76    2.10
   6  -5   5   -0.52    2.12
   8   4  -5    6.32    1.92
   8   4  -5    5.09    2.26
  -8  -4   5    4.45    1.95
  -8  -4   5    6.49    2.28
  -8  -4   5    3.51    1.81
   7   4  -5    0.34    1.47
   7   4  -5   -0.70    1.53
   7   4  -5    1.17    1.49
  -7  -4   5    3.87    2.04
  -7  -4   5    0.78    1.25
  -7  -4   5    0.59    1.45
  -7  -4   5   -0.59    1.27
  -7  -4   5    1.23    1.38
   6   4  -5   23.08    2.54
   6   4  -5   19.44    2.48
   6   4  -5   19.87    2.35
   6   4  -5   20.42    2.37
  -6  -4   5   19.98    2.14
  -6  -4   5   24.78    3.18
  -6  -4   5   24.29    2.79
  -6  -4   5   20.72    2.46
  -6  -4   5   23.98    2.43
  -6  -4   5   22.07    2.48
   5   4  -5    2.99    1.32
   5   4  -5    1.32    1.17
   5   4  -5    3.77    1.25
   5   4  -5    3.07    1.32
  -5  -4   5    2.80    1.18
  -5  -4   5    1.44    1.04
  -5  -4   5    5.27    1.50
  -5  -4   5    5.04    1.47
  -5  -4   5    1.98    1.16
  -5  -4   5    1.08    1.64
   4   4  -5   20.51    1.80
   4   4  -5   20.22    2.03
   4   4  -5   20.50    2.11
  -4  -4   5   19.82    2.06
  -4  -4   5   17.17    2.02
  -4  -4   5   18.37    1.86
  -4  -4   5   21.62    2.14
  -4  -4   5   19.98    1.85
  -4  -4   5   16.03    2.53
  -4  -4   5   20.66    1.84
   3   4  -5    1.17    0.97
   3   4  -5    4.33    1.05
   3   4  -5    1.29    0.78
  -3  -4   5    0.67    1.02
  -3  -4   5    1.71    0.84
  -3  -4   5    1.93    0.95
  -3  -4   5    1.88    0.62
  -3  -4   5    2.58    0.84
  -3  -4   5   -0.17    1.27
  -3  -4   5    1.13    0.73
  -3  -4   5    1.73    0.98
   2   4  -5   96.17    4.71
   2   4  -5   96.19    4.12
   2   4  -5   97.99    3.91
   2   4  -5   95.03    4.48
   2   4  -5   96.62    4.89
  -2  -4   5   93.44    5.50
  -2  -4   5   96.06    3.95
  -2  -4   5   89.14    4.81
  -2  -4   5   89.85    5.53
  -2  -4   5   96.78    4.14
  -2  -4   5   97.86    4.81
  -2  -4   5   96.26    4.41
  -2  -4   5   95.29    4.59
   1   4  -5   44.53    2.86
   1   4  -5   44.57    2.40
   1   4  -5   44.07    2.47
   1   4  -5   51.12    2.84
  -1  -4   5   50.61    3.60
  -1  -4   5   46.39    3.50
  -1  -4   5   41.84    2.87
  -1  -4   5   44.51    2.13
  -1  -4   5   48.99    2.83
  -1  -4   5   41.81    2.26
  -1  -4   5   46.30    2.17
  -1  -4   5   45.67    2.50
  -1  -4   5   52.14    2.88
   0   4  -5   59.58    3.13
   0   4  -5   57.68    2.85
   0   4  -5   61.13    3.57
   0   4  -5   59.47    3.24
   0  -4   5   58.01    4.25
   0  -4   5   55.02    2.79
   0  -4   5   55.03    2.61
   0  -4   5   60.01    3.27
   0  -4   5   53.93    3.92
   0  -4   5   61.39    3.27
   0  -4   5   57.42    3.02
  -1   4  -5    2.65    1.59
  -1   4  -5    5.42    0.95
  -1   4  -5    3.40    1.20
  -1   4  -5    1.62    1.08
  -1   4  -5    4.36    1.44
   1  -4   5    5.26    1.19
   1  -4   5    4.76    1.07
   1  -4   5    4.77    1.07
   1  -4   5    4.17    1.12
   1  -4   5    4.64    0.88
   1  -4   5    3.42    1.67
   1  -4   5    5.12    1.69
  -2   4  -5   60.48    4.29
  -2   4  -5   66.66    3.71
  -2   4  -5   60.55    4.70
  -2   4  -5   66.60    4.59
   2  -4   5   64.78    4.95
   2  -4   5   65.17    3.31
   2  -4   5   64.79    3.62
   2  -4   5   68.29    4.58
   2  -4   5   58.74    3.24
   2  -4   5   63.76    3.98
  -3   4  -5   42.88    3.88
  -3   4  -5   35.24    3.78
  -3   4  -5   38.05    3.11
  -3   4  -5   33.31    3.90
   3  -4   5   38.68    2.53
   3  -4   5   39.54    3.59
   3  -4   5   32.12    3.33
   3  -4   5   34.86    2.75
   3  -4   5   36.38    2.76
  -4   4  -5   55.01    4.36
  -4   4  -5   58.20    4.67
  -4   4  -5   52.78    4.93
  -4   4  -5   51.43    3.74
   4  -4   5   55.60    3.44
   4  -4   5   59.41    4.82
   4  -4   5   60.75    4.38
   4  -4   5   57.99    3.40
   4  -4   5   53.31    3.45
  -5   4  -5    1.33    1.70
  -5   4  -5    2.95    1.64
  -5   4  -5    4.78    2.25
   5  -4   5    2.44    1.59
   5  -4   5    3.68    1.30
   5  -4   5    2.66    1.74
   5  -4   5    2.39    1.99
  -6   4  -5    8.85    2.22
  -6   4  -5   13.47    2.69
  -6   4  -5   10.17    2.70
   6  -4   5    6.11    2.40
   6  -4   5    8.72    1.87
   6  -4   5   14.47    2.41
  -7   4  -5    2.70    2.17
  -7   4  -5   -0.13    1.89
  -7   4  -5    0.87    1.72
   7  -4   5    0.49    1.42
   7  -4   5    1.59    1.86
   8   3  -5   17.07    2.71
   8   3  -5   17.59    2.88
  -8  -3   5   15.26    2.36
  -8  -3   5   15.89    3.03
  -8  -3   5   15.05    2.63
   7   3  -5   19.57    2.53
   7   3  -5   14.96    2.45
   7   3  -5   13.34    2.50
  -7  -3   5   15.48    2.65
  -7  -3   5   21.60    3.14
  -7  -3   5   17.82    2.43
  -7  -3   5   13.69    2.29
   6   3  -5    6.88    1.77
   6   3  -5    5.48    1.59
   6   3  -5    7.82    1.84
  -6  -3   5    5.79    1.87
  -6  -3   5    8.08    1.70
  -6  -3   5    6.74    2.11
  -6  -3   5    6.58    1.46
  -6  -3   5    5.69    1.63
  -6  -3   5    7.69    1.48
   5   3  -5    5.26    1.41
   5   3  -5    9.16    1.63
   5   3  -5    8.12    1.50
  -5  -3   5    4.44    1.43
  -5  -3   5    7.77    2.01
  -5  -3   5    7.95    1.51
  -5  -3   5    5.97    1.64
  -5  -3   5    7.26    1.40
  -5  -3   5    7.49    1.44
   4   3  -5   12.58    1.64
   4   3  -5   14.86    1.80
   4   3  -5   13.80    1.58
  -4  -3   5   11.60    1.64
  -4  -3   5   14.31    1.78
  -4  -3   5   14.82    2.34
  -4  -3   5   17.06    1.57
  -4  -3   5   12.08    1.53
  -4  -3   5   14.36    1.84
  -4  -3   5   13.23    1.57
   3   3  -5    7.97    1.10
   3   3  -5    6.35    1.24
   3   3  -5    7.01    1.32
  -3  -3   5    7.57    1.29
  -3  -3   5    6.53    1.16
  -3  -3   5    7.74    1.80
  -3  -3   5    9.84    1.25
  -3  -3   5    8.78    1.30
  -3  -3   5    8.55    1.15
  -3  -3   5    8.50    1.45
   2   3  -5   50.45    2.82
   2   3  -5   51.88    2.81
   2   3  -5   47.85    2.32
   2   3  -5   51.85    2.17
  -2  -3   5   51.12    2.50
  -2  -3   5   46.01    2.72
  -2  -3   5   47.57    2.85
  -2  -3   5   42.89    3.41
  -2  -3   5   47.54    2.79
  -2  -3   5   44.73    2.16
  -2  -3   5   47.98    2.65
  -2  -3   5   50.56    3.04
   1   3  -5   10.87    1.28
   1   3  -5   11.02    0.79
   1   3  -5   10.17    1.16
   1   3  -5   12.62    1.45
   1   3  -5   11.33    0.98
  -1  -3   5   12.31    1.38
  -1  -3   5   13.01    1.79
  -1  -3   5   11.09    1.79
  -1  -3   5   13.25    1.08
  -1  -3   5   10.77    1.34
  -1  -3   5   11.55    0.78
  -1  -3   5    8.85    1.42
  -1  -3   5   11.05    1.18
  -1  -3   5   10.50    0.97
   0   3  -5   15.11    1.40
   0   3  -5   19.97    1.45
   0   3  -5   18.42    1.75
   0   3  -5   20.15    1.68
   0  -3   5   17.29    1.74
   0  -3   5   17.29    1.97
   0  -3   5   17.67    1.75
   0  -3   5   18.54    2.08
   0  -3   5   18.07    1.68
   0  -3   5   17.05    1.06
   0  -3   5   17.01    1.44
   0  -3   5   16.59    1.09
   0  -3   5   17.59    1.39
  -1   3  -5  238.53   10.44
  -1   3  -5  249.21   10.14
  -1   3  -5  258.01   10.21
  -1   3  -5  256.51   10.82
   1  -3   5  241.26   10.12
   1  -3   5  247.47    9.89
   1  -3   5  247.43    9.38
   1  -3   5  238.12   11.75
   1  -3   5  244.52    9.38
   1  -3   5  251.61   11.47
   1  -3   5  241.87   10.76
  -2   3  -5   44.95    2.85
  -2   3  -5   44.17    3.38
  -2   3  -5   46.70    3.59
  -2   3  -5   47.53    3.29
  -2   3  -5   43.25    2.88
   2  -3   5   47.60    2.52
   2  -3   5   42.97    3.34
   2  -3   5   47.33    2.82
   2  -3   5   42.83    3.17
   2  -3   5   44.52    2.64
   2  -3   5   45.36    3.74
  -3   3  -5  157.74    6.88
  -3   3  -5  140.52    8.03
  -3   3  -5  160.52    7.99
  -3   3  -5  145.96    7.98
  -3   3  -5  159.86    7.14
   3  -3   5  144.08    6.48
   3  -3   5  161.06    6.52
   3  -3   5  138.37    7.72
   3  -3   5  164.02    8.05
   3  -3   5  151.05    6.70
  -4   3  -5   32.87    3.71
  -4   3  -5   46.03    3.65
  -4   3  -5   41.52    3.86
  -4   3  -5   38.62    3.17
   4  -3   5   42.53    3.92
   4  -3   5   42.70    3.26
   4  -3   5   36.02    2.73
   4  -3   5   39.20    2.66
   4  -3   5   38.45    2.99
  -5   3  -5   11.16    2.41
  -5   3  -5    4.86    2.03
  -5   3  -5    9.25    2.02
   5  -3   5    8.12    1.86
   5  -3   5    8.12    1.86
   5  -3   5    6.30    2.18
   5  -3   5    5.24    1.39
  -6   3  -5   26.33    3.52
  -6   3  -5   35.18    3.02
  -6   3  -5   32.18    3.71
  -6   3  -5   31.90    3.32
   6  -3   5   34.03    3.81
   6  -3   5   23.57    2.90
   6  -3   5   27.88    2.66
  -7   3  -5    3.61    2.24
  -7   3  -5    6.26    2.19
  -7   3  -5    9.42    2.15
  -7   3  -5    6.53    2.43
   7  -3   5   11.87    1.95
   7  -3   5    8.32    2.52
   7  -3   5   13.26    2.41
  -8   3  -5   36.50    4.12
  -8   3  -5   30.15    3.40
  -8   3  -5   34.97    4.24
   8  -3   5   32.23    3.59
   7   2  -5    1.25    1.63
   7   2  -5    1.87    1.66
   7   2  -5   -1.07    1.38
  -7  -2   5    0.47    1.31
  -7  -2   5    0.77    1.75
  -7  -2   5    0.62    1.43
   6   2  -5    1.65    1.36
   6   2  -5    5.65    1.78
   6   2  -5    2.36    1.57
  -6  -2   5    7.37    1.81
  -6  -2   5    4.20    1.93
  -6  -2   5    3.54    1.28
  -6  -2   5    3.47    1.54
   5   2  -5   13.70    1.95
   5   2  -5   14.35    1.94
   5   2  -5   12.06    1.92
  -5  -2   5   14.58    1.80
  -5  -2   5   16.81    2.57
  -5  -2   5   16.89    2.19
  -5  -2   5   15.92    2.05
  -5  -2   5   14.97    1.85
  -5  -2   5   13.98    2.02
   4   2  -5    5.13    1.25
   4   2  -5    1.82    1.07
   4   2  -5    4.60    1.28
  -4  -2   5    4.44    1.40
  -4  -2   5    3.74    1.22
  -4  -2   5    3.64    0.95
  -4  -2   5    4.56    1.13
  -4  -2   5    4.16    1.53
  -4  -2   5    4.05    1.22
  -4  -2   5    4.60    1.09
   3   2  -5   20.34    1.99
   3   2  -5   23.01    1.80
   3   2  -5   20.52    2.00
  -3  -2   5   19.85    2.03
  -3  -2   5   23.67    2.55
  -3  -2   5   21.06    2.04
  -3  -2   5   16.15    1.65
  -3  -2   5   21.90    1.78
  -3  -2   5   20.69    1.96
  -3  -2   5   18.75    1.73
   2   2  -5   11.62    1.09
  -2  -2   5   12.80    1.44
  -2  -2   5   11.12    1.20
  -2  -2   5   11.27    1.32
  -2  -2   5   10.13    0.74
  -2  -2   5    9.50    1.36
  -2  -2   5    9.64    1.12
   1   2  -5  158.01    6.00
   1   2  -5  153.75    6.73
   1   2  -5  150.11    6.79
  -1  -2   5  154.49    6.99
  -1  -2   5  164.13    6.47
  -1  -2   5  161.60    6.72
  -1  -2   5  153.96    7.46
  -1  -2   5  147.59    6.18
  -1  -2   5  162.37    7.05
  -1  -2   5  155.55    5.86
   0   2  -5  173.10    6.90
   0   2  -5  174.67    7.24
   0   2  -5  175.63    7.36
   0   2  -5  170.28    7.49
   0   2  -5  175.10    6.33
   0  -2   5  168.44    7.25
   0  -2   5  169.32    7.54
   0  -2   5  170.17    8.26
   0  -2   5  166.99    8.02
   0  -2   5  166.09    6.91
   0  -2   5  170.66    6.51
   0  -2   5  171.38    7.55
   0  -2   5  167.17    6.27
  -1   2  -5   80.02    3.97
  -1   2  -5   85.37    3.82
  -1   2  -5   84.60    3.85
  -1   2  -5   81.92    4.09
   1  -2   5   74.61    4.06
   1  -2   5   82.28    3.33
   1  -2   5   83.74    3.99
   1  -2   5   79.62    4.41
   1  -2   5   83.09    3.62
   1  -2   5   78.89    4.46
   1  -2   5   83.72    3.72
  -2   2  -5   -0.04    0.82
  -2   2  -5   -0.48    0.77
  -2   2  -5    1.39    0.98
  -2   2  -5   -0.31    0.87
   2  -2   5    1.98    1.12
   2  -2   5    0.32    0.79
   2  -2   5    1.45    0.42
   2  -2   5    1.23    0.87
   2  -2   5    1.06    0.71
   2  -2   5    0.40    0.93
   2  -2   5    0.77    1.07
  -3   2  -5   50.73    3.80
  -3   2  -5   48.68    3.71
  -3   2  -5   54.01    3.39
  -3   2  -5   49.76    3.11
  -3   2  -5   51.30    3.71
   3  -2   5   56.23    3.50
   3  -2   5   43.53    3.88
   3  -2   5   58.84    3.12
   3  -2   5   53.99    2.95
   3  -2   5   65.73    3.83
   3  -2   5   52.34    2.96
   3  -2   5   50.95    2.48
  -4   2  -5   41.64    3.10
  -4   2  -5   41.04    3.81
  -4   2  -5   53.01    4.34
  -4   2  -5   50.37    3.55
  -4   2  -5   47.38    3.12
   4  -2   5   47.66    3.34
   4  -2   5   47.21    3.26
   4  -2   5   45.65    4.14
   4  -2   5   46.26    2.71
   4  -2   5   49.51    2.67
   4  -2   5   49.30    3.01
  -5   2  -5   61.67    4.44
  -5   2  -5   49.45    3.73
  -5   2  -5   60.27    3.51
  -5   2  -5   60.53    3.61
  -5   2  -5   58.07    4.64
   5  -2   5   55.18    3.14
   5  -2   5   58.76    3.79
   5  -2   5   54.38    3.34
   5  -2   5   63.30    4.66
   5  -2   5   61.75    3.92
  -6   2  -5    1.78    1.71
  -6   2  -5    5.08    1.49
  -6   2  -5    1.58    1.21
  -6   2  -5    2.42    1.50
  -6   2  -5    4.94    1.99
   6  -2   5    2.96    1.98
   6  -2   5    1.94    1.29
   6  -2   5    3.97    1.31
   6  -2   5    0.07    1.42
  -7   2  -5   30.98    3.28
  -7   2  -5   29.13    3.51
  -7   2  -5   28.70    3.56
  -7   2  -5   33.91    3.05
   7  -2   5   22.27    3.45
   7  -2   5   30.71    2.78
   7  -2   5   27.58    2.72
   7  -2   5   24.16    2.93
  -8   2  -5    1.33    1.61
  -8   2  -5   -1.70    1.80
  -8   2  -5   -1.31    2.02
  -8   2  -5   -2.34    1.42
   8  -2   5   -0.09    1.88
   8  -2   5   -0.71    2.15
   7   1  -5   13.64    2.52
   7   1  -5   17.03    2.75
  -7  -1   5   10.79    2.23
  -7  -1   5   15.58    2.84
  -7  -1   5    9.87    1.96
   6   1  -5   19.44    2.48
   6   1  -5   18.75    2.52
   6   1  -5   17.16    2.54
  -6  -1   5   12.09    2.59
  -6  -1   5   17.42    2.67
  -6  -1   5   16.86    2.18
  -6  -1   5   19.05    2.39
   5   1  -5   15.01    2.12
   5   1  -5   15.68    2.07
   5   1  -5   14.25    1.97
  -5  -1   5   14.95    2.64
  -5  -1   5   14.32    2.03
  -5  -1   5   13.76    1.83
  -5  -1   5   16.53    2.11
  -5  -1   5   12.91    2.16
   4   1  -5   11.04    1.63
   4   1  -5   11.04    1.63
   4   1  -5   12.54    1.77
  -4  -1   5   10.68    1.52
  -4  -1   5   13.33    1.96
  -4  -1   5    9.08    1.50
  -4  -1   5   13.98    2.29
  -4  -1   5   18.96    1.81
  -4  -1   5   11.18    1.68
   3   1  -5   60.80    3.34
   3   1  -5   66.23    3.69
   3   1  -5   65.06    3.64
  -3  -1   5   64.68    3.60
  -3  -1   5   56.23    3.27
  -3  -1   5   63.26    3.27
  -3  -1   5   63.58    3.69
  -3  -1   5   66.07    3.31
  -3  -1   5   63.04    4.14
  -3  -1   5   70.15    3.67
   2   1  -5   21.44    1.57
   2   1  -5   18.21    1.70
   2   1  -5   21.20    1.79
   2   1  -5   19.59    1.09
  -2  -1   5   18.89    1.56
  -2  -1   5   18.18    1.68
  -2  -1   5   18.27    1.54
  -2  -1   5   19.87    1.79
  -2  -1   5   15.67    1.69
  -2  -1   5   19.88    1.09
  -2  -1   5   20.41    1.77
  -2  -1   5   21.04    2.24
   1   1  -5  157.69    7.03
   1   1  -5  164.32    6.33
   1   1  -5  157.63    6.97
  -1  -1   5  161.04    6.93
  -1  -1   5  178.11    7.25
  -1  -1   5  149.50    6.96
  -1  -1   5  160.20    7.69
  -1  -1   5  166.06    7.23
  -1  -1   5  163.82    5.93
  -1  -1   5  160.49    6.50
   0   1  -5   -0.20    0.45
   0   1  -5    0.93    0.31
   0   1  -5    1.19    0.64
   0   1  -5    0.61    0.71
   0  -1   5   -1.04    0.71
   0  -1   5    1.17    0.27
   0  -1   5    0.57    0.57
   0  -1   5    0.05    0.77
   0  -1   5   -0.13    0.61
   0  -1   5    0.74    0.58
   0  -1   5    1.11    0.64
  -1   1  -5    0.55    0.40
  -1   1  -5    0.79    0.66
  -1   1  -5    1.42    0.74
  -1   1  -5    0.99    0.44
  -1   1  -5    1.60    0.72
  -1   1  -5    1.38    0.68
   1  -1   5    1.27    0.69
   1  -1   5    1.43    0.76
   1  -1   5    1.42    0.84
   1  -1   5    0.53    0.79
   1  -1   5    1.60    0.52
   1  -1   5    0.81    0.65
   1  -1   5    1.25    0.59
   1  -1   5    1.06    0.73
  -2   1  -5  343.18   12.99
  -2   1  -5  354.25   14.38
  -2   1  -5  359.75   14.14
  -2   1  -5  356.54   14.52
  -2   1  -5  348.88   14.64
  -2   1  -5  346.91   12.97
   2  -1   5  354.35   15.14
   2  -1   5  354.44   13.24
   2  -1   5  360.98   13.15
   2  -1   5  344.76   13.91
   2  -1   5  339.74   15.71
   2  -1   5  371.70   15.01
  -3   1  -5   37.29    2.22
  -3   1  -5   39.92    2.96
  -3   1  -5   38.98    2.57
  -3   1  -5   37.52    2.92
  -3   1  -5   33.81    1.99
  -3   1  -5   40.55    3.23
   3  -1   5   41.50    2.51
   3  -1   5   39.63    2.47
   3  -1   5   36.51    2.39
   3  -1   5   42.17    2.03
   3  -1   5   36.45    2.36
   3  -1   5   34.72    3.13
   3  -1   5   37.75    2.58
  -4   1  -5  173.50    7.94
  -4   1  -5  169.76    8.78
  -4   1  -5  176.26    7.17
  -4   1  -5  184.48    8.17
  -4   1  -5  175.54    8.58
  -4   1  -5  177.63    7.05
  -4   1  -5  182.22    8.15
   4  -1   5  170.33    7.49
   4  -1   5  177.57    7.34
   4  -1   5  171.90    8.24
   4  -1   5  170.82    8.83
   4  -1   5  171.16    7.34
   4  -1   5  170.54    7.02
  -5   1  -5    7.29    1.63
  -5   1  -5    6.81    1.50
  -5   1  -5    8.74    2.09
  -5   1  -5    6.92    1.45
  -5   1  -5    6.51    1.92
   5  -1   5    7.17    1.27
   5  -1   5    7.71    2.15
   5  -1   5    6.09    1.12
   5  -1   5    4.58    1.66
   5  -1   5    9.29    1.64
   5  -1   5    7.20    1.25
  -6   1  -5   30.11    3.22
  -6   1  -5   31.91    2.88
  -6   1  -5   39.75    3.78
  -6   1  -5   33.83    3.11
  -6   1  -5   30.18    2.64
   6  -1   5   31.59    2.65
   6  -1   5   30.05    2.53
   6  -1   5   25.46    3.25
   6  -1   5   24.57    2.76
  -7   1  -5   10.79    1.95
  -7   1  -5   16.69    2.63
  -7   1  -5   15.26    2.77
  -7   1  -5   16.16    2.23
  -7   1  -5   15.10    2.35
   7  -1   5   17.69    2.65
   7  -1   5   15.89    2.11
   7  -1   5   14.73    2.12
   7  -1   5   14.58    2.70
  -8   1  -5   42.01    4.09
  -8   1  -5   42.38    3.73
  -8   1  -5   37.11    3.36
  -8   1  -5   46.07    4.58
  -8   1  -5   41.22    3.95
   8  -1   5   36.43    3.38
   8  -1   5   42.63    4.41
   8  -1   5   33.30    3.56
   8  -1   5   43.32    3.30
  -9   1  -5   21.63    2.80
  -9   1  -5   19.08    3.32
  -9   1  -5   23.85    3.33
   9  -1   5   21.30    3.03
   9  -1   5   22.65    2.88
   7   0  -5   37.70    3.90
   7   0  -5   43.99    4.06
  -7   0   5   37.91    4.32
  -7   0   5   43.24    3.64
  -7   0   5   37.57    3.79
   6   0  -5    0.97    1.40
   6   0  -5   -0.53    1.47
   6   0  -5   -0.54    1.55
  -6   0   5   -1.22    1.71
  -6   0   5    0.43    1.25
  -6   0   5    0.78    1.39
  -6   0   5   -2.17    1.48
   5   0  -5    8.80    1.87
   5   0  -5   12.32    1.92
   5   0  -5    9.80    1.88
  -5   0   5   13.28    1.95
  -5   0   5   11.50    1.69
  -5   0   5   12.23    2.59
  -5   0   5   12.34    2.11
   4   0  -5    0.04    1.16
   4   0  -5    0.05    1.07
   4   0  -5    2.05    1.18
  -4   0   5    1.45    1.18
  -4   0   5    0.59    0.86
  -4   0   5   -0.07    1.55
  -4   0   5    0.56    0.88
  -4   0   5    0.77    1.27
  -4   0   5    0.97    1.06
   3   0  -5   14.92    1.77
   3   0  -5   15.76    1.73
   3   0  -5   11.02    1.65
   3   0  -5   12.90    1.20
  -3   0   5   13.58    1.50
  -3   0   5   15.84    1.50
  -3   0   5   13.08    1.66
  -3   0   5   13.36    2.23
  -3   0   5   15.34    1.87
  -3   0   5   14.76    1.59
  -3   0   5   12.02    1.57
  -3   0   5   13.68    1.48
   2   0  -5    3.31    0.97
   2   0  -5    0.88    0.83
   2   0  -5    2.69    0.59
   2   0  -5    2.81    0.88
  -2   0   5    3.04    0.89
  -2   0   5    3.56    1.39
  -2   0   5    1.74    0.90
  -2   0   5    1.19    1.00
  -2   0   5    1.55    0.80
  -2   0   5    2.63    0.86
  -2   0   5    1.77    0.92
   1   0  -5    2.41    0.72
   1   0  -5    3.82    0.94
   1   0  -5    2.56    0.76
   1   0  -5    3.75    0.43
  -1   0   5    2.87    1.04
  -1   0   5    1.92    0.77
  -1   0   5    2.85    0.44
  -1   0   5    2.81    1.09
  -1   0   5    1.18    0.58
  -1   0   5    1.92    0.78
  -1   0   5    1.74    0.78
  -1   0   5    1.68    0.68
   0   0  -5  140.77    6.14
   0   0  -5  144.35    6.29
   0   0  -5  142.74    5.27
   0   0  -5  148.74    5.64
   0   0   5  143.88    5.48
   0   0   5  146.05    6.32
   0   0   5  130.38    6.71
   0   0   5  140.61    6.32
   0   0   5  144.53    6.27
   0   0   5  146.06    5.81
  -1   0  -5  267.96    9.80
  -1   0  -5  261.30    9.45
  -1   0  -5  265.03   10.79
  -1   0  -5  265.39   10.27
  -1   0  -5  261.62   10.82
   1   0   5  268.30    9.71
   1   0   5  256.56   11.43
   1   0   5  250.26   10.12
   1   0   5  265.62    9.81
   1   0   5  260.38   11.03
   1   0   5  264.77   10.89
   1   0   5  259.03   10.65
  -2   0  -5  122.33    5.67
  -2   0  -5  132.18    5.60
  -2   0  -5  127.00    4.94
  -2   0  -5  125.11    5.00
  -2   0  -5  128.67    5.47
  -2   0  -5  122.10    5.64
   2   0   5  131.92    5.15
   2   0   5  125.51    5.82
   2   0   5  124.32    5.28
   2   0   5  130.65    5.66
   2   0   5  132.98    5.87
  -3   0  -5   40.41    2.44
  -3   0  -5   40.75    3.05
  -3   0  -5   39.20    2.14
  -3   0  -5   38.89    2.21
  -3   0  -5   36.59    2.81
  -3   0  -5   42.68    2.60
   3   0   5   42.12    2.47
   3   0   5   36.75    2.43
   3   0   5   39.23    2.32
   3   0   5   39.01    2.33
   3   0   5   44.83    3.01
   3   0   5   41.93    2.32
  -4   0  -5    0.96    1.29
  -4   0  -5    2.06    0.85
  -4   0  -5    0.77    0.88
  -4   0  -5    0.76    1.22
  -4   0  -5    0.51    0.76
  -4   0  -5    2.04    1.06
  -4   0  -5   -0.52    1.42
   4   0   5    2.24    0.95
   4   0   5    3.15    1.80
   4   0   5    1.15    0.66
   4   0   5    1.08    0.99
   4   0   5    1.13    0.83
   4   0   5    1.08    1.04
  -5   0  -5    0.79    1.02
  -5   0  -5    0.14    1.28
  -5   0  -5    0.60    1.14
  -5   0  -5    2.33    1.35
  -5   0  -5    2.43    1.77
  -5   0  -5    2.94    1.03
   5   0   5    3.82    1.07
   5   0   5    2.10    1.20
   5   0   5    1.74    1.26
   5   0   5    3.64    1.94
   5   0   5    2.49    0.87
  -6   0  -5   29.50    2.59
  -6   0  -5   30.41    2.90
  -6   0  -5   29.73    2.48
  -6   0  -5   27.37    3.24
  -6   0  -5   29.00    2.90
  -6   0  -5   33.29    2.93
   6   0   5   31.70    2.60
   6   0   5   33.92    3.49
   6   0   5   32.20    2.93
   6   0   5   32.38    2.57
  -7   0  -5    0.60    1.18
  -7   0  -5    1.00    1.46
  -7   0  -5   -0.55    1.59
  -7   0  -5    2.01    1.45
  -7   0  -5    1.15    1.32
   7   0   5    0.09    1.64
   7   0   5    0.22    1.58
   7   0   5   -0.64    1.14
   7   0   5    3.00    1.41
  -8   0  -5   29.71    3.09
  -8   0  -5   23.72    3.36
  -8   0  -5   20.93    2.93
  -8   0  -5   26.88    2.64
  -8   0  -5   22.45    2.95
   8   0   5   23.88    3.52
   8   0   5   22.27    3.00
   8   0   5   22.72    2.49
   8   0   5   23.69    2.64
  -9   0  -5    1.59    1.83
  -9   0  -5    3.08    1.65
  -9   0  -5    1.76    1.67
  -9   0  -5    0.08    1.56
  -9   0  -5    4.65    2.18
   9   0   5   -0.11    1.67
   9   0   5    0.80    2.29
   9   0   5   -0.90    1.95
   6  -1  -5   -2.47    1.53
   6  -1  -5    1.05    1.91
   6  -1  -5   -1.40    1.54
  -6   1   5    0.36    1.92
  -6   1   5    1.77    1.37
  -6   1   5    2.49    1.52
  -6   1   5    7.90    2.55
   5  -1  -5    1.13    1.32
   5  -1  -5    2.49    1.59
   5  -1  -5    4.33    1.76
  -5   1   5    3.28    1.24
  -5   1   5    2.04    1.35
  -5   1   5    3.45    2.17
  -5   1   5    0.60    1.66
   4  -1  -5    4.49    1.51
   4  -1  -5    2.32    1.38
   4  -1  -5    5.22    1.50
  -4   1   5    6.71    1.70
  -4   1   5    5.67    1.32
  -4   1   5    7.34    1.38
  -4   1   5    8.40    2.29
   3  -1  -5    2.78    1.13
   3  -1  -5    0.15    0.76
   3  -1  -5    0.62    1.11
   3  -1  -5    0.33    0.96
  -3   1   5   -0.52    1.39
  -3   1   5   -0.61    0.81
  -3   1   5    0.98    0.89
  -3   1   5    1.93    1.18
  -3   1   5   -0.23    0.89
  -3   1   5    0.51    0.89
   2  -1  -5   88.07    3.74
   2  -1  -5   87.62    3.48
   2  -1  -5   83.47    4.38
   2  -1  -5   89.05    4.41
   2  -1  -5   88.45    4.23
   2  -1  -5   87.17    4.22
  -2   1   5   88.22    4.24
  -2   1   5   80.56    3.95
  -2   1   5   87.64    4.05
  -2   1   5   90.57    4.44
  -2   1   5   90.51    4.47
  -2   1   5   87.60    4.10
  -2   1   5   84.10    4.49
  -2   1   5   79.55    5.17
   1  -1  -5   35.01    1.70
   1  -1  -5   32.58    2.34
   1  -1  -5   35.51    1.84
   1  -1  -5   34.60    2.19
   1  -1  -5   35.55    2.10
  -1   1   5   33.40    2.12
  -1   1   5   32.43    2.57
  -1   1   5   33.15    1.95
  -1   1   5   35.96    2.95
  -1   1   5   33.19    2.29
  -1   1   5   33.18    1.79
  -1   1   5   32.37    1.64
  -1   1   5   32.99    2.07
  -1   1   5   37.51    2.17
   0  -1  -5  317.58   11.92
   0  -1  -5  329.64   13.34
   0  -1  -5  333.49   12.28
   0  -1  -5  320.75   13.13
   0   1   5  311.65   13.00
   0   1   5  321.06   12.40
   0   1   5  327.62   13.43
   0   1   5  333.06   12.56
   0   1   5  322.96   13.47
   0   1   5  313.24   11.78
   0   1   5  337.47   14.30
  -1  -1  -5   25.81    1.38
  -1  -1  -5   26.88    1.35
  -1  -1  -5   23.74    1.85
  -1  -1  -5   24.51    1.57
  -1  -1  -5   26.30    1.68
   1   1   5   26.54    1.63
   1   1   5   27.12    1.75
   1   1   5   24.40    1.47
   1   1   5   26.63    2.18
   1   1   5   28.34    1.61
   1   1   5   28.15    2.12
  -2  -1  -5   50.68    2.51
  -2  -1  -5   45.74    2.26
  -2  -1  -5   41.07    2.62
  -2  -1  -5   46.62    2.32
  -2  -1  -5   44.94    2.25
  -2  -1  -5   45.17    2.07
  -2  -1  -5   45.40    2.18
   2   1   5   48.52    2.50
   2   1   5   44.56    2.24
   2   1   5   46.54    2.30
   2   1   5   48.07    2.55
   2   1   5   44.02    2.58
   2   1   5   55.73    2.93
   2   1   5   46.82    2.17
  -3  -1  -5  206.05    8.49
  -3  -1  -5  208.65    9.03
  -3  -1  -5  205.89    8.94
  -3  -1  -5  199.02    7.94
  -3  -1  -5  202.12    8.62
  -3  -1  -5  199.03    7.79
  -3  -1  -5  213.87    8.05
   3   1   5  202.24    8.03
   3   1   5  209.41    9.11
   3   1   5  204.87    8.04
   3   1   5  201.07    8.78
   3   1   5  202.79    8.48
  -4  -1  -5    3.14    1.06
  -4  -1  -5    2.58    1.60
  -4  -1  -5    2.54    1.12
  -4  -1  -5    1.22    1.37
  -4  -1  -5    0.98    0.80
  -4  -1  -5    1.67    0.81
   4   1   5    2.21    0.94
   4   1   5    2.07    1.00
   4   1   5    0.91    1.57
   4   1   5    2.37    0.60
   4   1   5    1.52    0.93
  -5  -1  -5  206.15    9.51
  -5  -1  -5  210.60    9.89
  -5  -1  -5  212.41    8.64
  -5  -1  -5  216.69    8.75
  -5  -1  -5  226.52   10.14
  -5  -1  -5  207.27    9.34
   5   1   5  215.49    8.75
   5   1   5  198.29    8.85
   5   1   5  248.72   10.58
   5   1   5  210.96    8.66
  -6  -1  -5    7.04    2.13
  -6  -1  -5    9.40    1.68
  -6  -1  -5    9.31    1.52
  -6  -1  -5   10.32    1.55
  -6  -1  -5    7.02    1.81
  -6  -1  -5    9.00    1.65
   6   1   5   10.75    2.40
   6   1   5    6.43    1.50
   6   1   5    9.83    1.80
   6   1   5   11.06    1.66
  -7  -1  -5   67.59    3.88
  -7  -1  -5   67.48    4.32
  -7  -1  -5   72.52    4.64
  -7  -1  -5   68.14    3.90
  -7  -1  -5   70.56    4.33
  -7  -1  -5   65.27    4.79
   7   1   5   67.88    5.00
   7   1   5   70.26    4.01
   7   1   5   64.14    4.12
   7   1   5   70.52    3.97
  -8  -1  -5    2.58    1.44
  -8  -1  -5    3.03    1.43
  -8  -1  -5    2.51    1.49
  -8  -1  -5    6.91    1.97
  -8  -1  -5    0.72    1.77
  -8  -1  -5    2.60    1.61
   8   1   5    2.71    1.82
   8   1   5    3.98    1.55
   8   1   5    5.71    2.24
   8   1   5    3.40    1.47
  -9  -1  -5   54.64    4.57
  -9  -1  -5   66.92    4.59
  -9  -1  -5   58.46    3.92
  -9  -1  -5   62.01    5.47
   9   1   5   65.31    3.98
   9   1   5   56.81    4.40
   9   1   5   56.00    5.31
   9   1   5   55.61    4.61
 -10  -1  -5    4.54    2.20
 -10  -1  -5    9.70    2.09
 -10  -1  -5    6.10    2.59
  10   1   5    4.53    2.35
  10   1   5    6.81    2.23
   6  -2  -5   26.09    3.16
   6  -2  -5   25.93    3.25
  -6   2   5   29.50    2.96
  -6   2   5   27.93    4.02
  -6   2   5   25.26    3.75
   5  -2  -5    2.04    1.81
   5  -2  -5    1.81    1.65
   5  -2  -5    3.37    1.66
  -5   2   5    2.22    1.41
  -5   2   5    2.37    1.31
  -5   2   5    1.80    1.94
  -5   2   5    1.83    2.26
   4  -2  -5    8.64    1.68
   4  -2  -5   11.07    2.04
   4  -2  -5    7.61    1.71
  -4   2   5    9.19    2.03
  -4   2   5   12.69    2.78
  -4   2   5    9.89    1.70
  -4   2   5   10.31    1.60
   3  -2  -5    4.41    1.35
   3  -2  -5    4.50    1.27
   3  -2  -5    3.69    1.39
   3  -2  -5    4.81    1.11
  -3   2   5    6.23    1.28
  -3   2   5    5.62    1.22
  -3   2   5    4.74    2.02
  -3   2   5    3.60    1.43
   2  -2  -5   64.93    3.56
   2  -2  -5   56.06    2.94
   2  -2  -5   55.39    3.38
   2  -2  -5   58.50    3.39
  -2   2   5   61.82    3.74
  -2   2   5   63.37    4.38
  -2   2   5   55.26    3.09
  -2   2   5   63.86    3.22
  -2   2   5   58.55    3.39
  -2   2   5   57.49    3.20
  -2   2   5   60.36    3.69
   1  -2  -5   29.25    1.73
   1  -2  -5   27.24    1.83
   1  -2  -5   29.67    1.63
   1  -2  -5   26.13    2.07
   1  -2  -5   25.33    2.12
   1  -2  -5   28.14    1.93
  -1   2   5   31.07    2.12
  -1   2   5   27.93    2.84
  -1   2   5   23.81    2.44
  -1   2   5   31.23    1.94
  -1   2   5   25.98    1.89
  -1   2   5   26.28    1.74
  -1   2   5   27.18    1.74
  -1   2   5   26.12    2.03
   0  -2  -5    1.84    0.64
   0  -2  -5    1.51    0.65
   0  -2  -5    1.58    0.83
   0  -2  -5    1.90    0.90
   0  -2  -5    2.50    0.60
   0   2   5    1.00    0.55
   0   2   5   -0.02    1.11
   0   2   5    1.25    0.63
   0   2   5    0.68    0.62
   0   2   5    2.06    0.68
   0   2   5    1.57    0.57
   0   2   5    1.72    0.72
   0   2   5    1.43    1.13
  -1  -2  -5   60.71    2.72
  -1  -2  -5   67.58    3.31
  -1  -2  -5   72.13    3.05
  -1  -2  -5   72.07    3.09
   1   2   5   61.57    3.02
   1   2   5   58.56    2.82
   1   2   5   63.66    2.88
   1   2   5   57.05    3.47
   1   2   5   65.29    3.05
   1   2   5   57.98    3.57
  -2  -2  -5  252.31    9.44
  -2  -2  -5  258.54   10.19
  -2  -2  -5  243.61   10.65
  -2  -2  -5  253.91    9.64
  -2  -2  -5  252.92   10.42
  -2  -2  -5  255.42    9.79
   2   2   5  250.16    9.56
   2   2   5  267.44   11.16
   2   2   5  256.76   10.37
   2   2   5  254.62    9.74
   2   2   5  262.34   10.52
   2   2   5  251.86   10.58
  -3  -2  -5  143.49    5.66
  -3  -2  -5  143.82    6.59
  -3  -2  -5  144.76    6.15
  -3  -2  -5  138.36    5.97
  -3  -2  -5  139.32    5.84
  -3  -2  -5  141.73    5.80
  -3  -2  -5  142.15    6.58
   3   2   5  144.21    5.80
   3   2   5  144.59    6.43
   3   2   5  142.15    6.29
   3   2   5  152.48    5.90
   3   2   5  151.44    6.46
  -4  -2  -5  109.86    5.74
  -4  -2  -5  114.09    4.84
  -4  -2  -5  113.63    4.69
  -4  -2  -5  104.68    5.88
  -4  -2  -5  105.51    4.86
  -4  -2  -5  107.12    4.81
  -4  -2  -5  113.67    5.15
   4   2   5  100.85    5.67
   4   2   5  118.17    4.89
   4   2   5  107.26    4.87
   4   2   5  115.35    5.13
   4   2   5  110.14    4.83
  -5  -2  -5    0.39    0.77
  -5  -2  -5   -0.62    0.84
  -5  -2  -5    1.60    1.05
  -5  -2  -5   -1.67    1.35
  -5  -2  -5    0.75    0.91
  -5  -2  -5   -1.46    1.20
   5   2   5    2.21    1.65
   5   2   5    0.20    0.90
   5   2   5    0.83    0.90
   5   2   5   -0.24    1.05
  -6  -2  -5   12.41    2.24
  -6  -2  -5   12.77    1.81
  -6  -2  -5   11.79    1.47
  -6  -2  -5   11.29    1.60
  -6  -2  -5   13.67    1.59
  -6  -2  -5   10.57    2.21
  -6  -2  -5   12.47    1.69
   6   2   5   14.42    1.89
   6   2   5   12.62    1.86
   6   2   5   14.67    1.54
   6   2   5   15.82    2.57
  -7  -2  -5   22.76    2.89
  -7  -2  -5   24.74    2.35
  -7  -2  -5   20.49    2.22
  -7  -2  -5   19.07    2.17
  -7  -2  -5   24.60    2.53
  -7  -2  -5   25.86    2.10
  -7  -2  -5   24.41    3.15
   7   2   5   25.52    2.55
   7   2   5   21.23    2.28
   7   2   5   25.46    2.47
   7   2   5   18.33    2.91
  -8  -2  -5    7.24    2.18
  -8  -2  -5    6.18    1.72
  -8  -2  -5    6.10    2.18
  -8  -2  -5    2.03    1.46
  -8  -2  -5    6.16    1.53
   8   2   5    6.19    2.43
   8   2   5    7.98    1.71
   8   2   5    5.89    1.83
   8   2   5    7.07    1.77
  -9  -2  -5   11.17    2.71
  -9  -2  -5   11.32    1.95
  -9  -2  -5    6.34    1.89
  -9  -2  -5    9.86    2.05
  -9  -2  -5   11.76    2.49
   9   2   5   13.24    2.10
   9   2   5    7.34    2.11
   9   2   5   10.75    2.18
 -10  -2  -5    2.82    2.02
 -10  -2  -5   -0.11    2.04
 -10  -2  -5   -0.74    1.33
  10   2   5   -1.55    1.75
  10   2   5    1.65    2.09
   5  -3  -5   -2.47    1.57
   5  -3  -5    1.88    1.73
  -5   3   5    2.34    2.49
  -5   3   5   -0.32    1.20
  -5   3   5    1.07    2.07
   4  -3  -5    0.59    1.39
   4  -3  -5    2.93    1.61
  -4   3   5    1.83    1.18
  -4   3   5   -0.27    2.29
  -4   3   5    4.12    1.96
   3  -3  -5    1.29    1.23
   3  -3  -5    3.63    1.48
   3  -3  -5    1.41    1.19
   3  -3  -5    0.93    1.02
  -3   3   5    0.09    1.24
  -3   3   5    0.74    0.98
  -3   3   5    0.45    0.88
  -3   3   5    0.29    2.04
   2  -3  -5    1.84    1.14
   2  -3  -5    1.03    1.19
   2  -3  -5    1.70    1.10
   2  -3  -5    1.89    0.92
  -2   3   5    2.87    1.67
  -2   3   5    2.96    1.13
  -2   3   5    2.88    1.02
  -2   3   5    2.38    0.94
  -2   3   5    2.25    2.01
  -2   3   5    0.31    1.17
   1  -3  -5   45.24    2.85
   1  -3  -5   47.08    2.28
   1  -3  -5   43.16    2.99
   1  -3  -5   46.41    2.77
   1  -3  -5   49.14    2.60
   1  -3  -5   45.76    2.58
  -1   3   5   43.45    3.50
  -1   3   5   49.30    3.09
  -1   3   5   49.06    2.64
  -1   3   5   50.44    2.73
  -1   3   5   45.71    2.79
  -1   3   5   48.80    4.25
   0  -3  -5   39.28    2.30
   0  -3  -5   42.47    2.21
   0  -3  -5   41.14    2.57
   0  -3  -5   39.01    2.04
   0  -3  -5   42.08    2.21
   0  -3  -5   39.70    2.17
   0  -3  -5   42.07    2.69
   0   3   5   42.35    2.61
   0   3   5   43.02    2.27
   0   3   5   44.48    2.09
   0   3   5   40.96    2.24
   0   3   5   45.70    3.44
   0   3   5   36.57    2.27
   0   3   5   42.80    3.22
   0   3   5   41.31    2.08
  -1  -3  -5  374.41   13.76
  -1  -3  -5  363.68   14.24
  -1  -3  -5  374.65   14.96
  -1  -3  -5  365.96   15.33
  -1  -3  -5  374.42   14.03
   1   3   5  382.60   16.53
   1   3   5  367.53   13.64
   1   3   5  382.10   14.82
   1   3   5  384.35   15.31
   1   3   5  372.73   15.35
   1   3   5  379.14   15.09
   1   3   5  376.21   14.11
  -2  -3  -5   20.34    1.51
  -2  -3  -5   16.15    1.32
  -2  -3  -5   20.03    1.77
  -2  -3  -5   18.09    1.54
  -2  -3  -5   17.59    1.49
  -2  -3  -5   16.70    1.31
   2   3   5   19.05    1.04
   2   3   5   18.20    1.90
   2   3   5   16.87    1.80
   2   3   5   16.60    1.39
   2   3   5   18.01    1.45
   2   3   5   15.02    1.12
   2   3   5   19.20    1.16
  -3  -3  -5  134.82    5.44
  -3  -3  -5  114.47    5.91
  -3  -3  -5  119.95    5.96
  -3  -3  -5  132.20    5.29
  -3  -3  -5  120.03    5.10
  -3  -3  -5  130.20    5.30
  -3  -3  -5  128.84    5.58
   3   3   5  131.38    5.98
   3   3   5  129.11    5.24
   3   3   5  131.90    5.55
   3   3   5  122.45    5.74
   3   3   5  130.57    5.07
  -4  -3  -5  116.51    4.81
  -4  -3  -5  111.57    5.76
  -4  -3  -5  111.67    6.12
  -4  -3  -5  116.00    4.95
  -4  -3  -5  114.48    5.21
  -4  -3  -5  111.55    5.00
  -4  -3  -5  112.89    4.87
   4   3   5  116.03    5.31
   4   3   5  112.96    4.93
   4   3   5  119.77    4.97
   4   3   5  108.59    5.45
   4   3   5  112.98    5.17
  -5  -3  -5   -0.58    1.32
  -5  -3  -5   -0.14    0.81
  -5  -3  -5    1.31    0.89
  -5  -3  -5    3.88    1.48
  -5  -3  -5    3.11    1.02
  -5  -3  -5    0.76    0.87
  -5  -3  -5    0.73    0.88
   5   3   5    2.66    1.59
   5   3   5    1.44    0.96
   5   3   5    2.39    1.07
   5   3   5    2.86    1.09
  -6  -3  -5  160.24    6.74
  -6  -3  -5  159.93    7.50
  -6  -3  -5  166.91    6.92
  -6  -3  -5  161.62    7.14
  -6  -3  -5  168.65    8.37
  -6  -3  -5  159.22    7.99
   6   3   5  162.09    7.06
   6   3   5  157.84    7.15
   6   3   5  155.93    6.95
   6   3   5  179.07    8.40
  -7  -3  -5   11.62    1.59
  -7  -3  -5   16.41    2.11
  -7  -3  -5   12.97    1.96
  -7  -3  -5   12.76    2.35
  -7  -3  -5    9.34    2.04
  -7  -3  -5   16.23    1.97
   7   3   5   11.66    2.48
   7   3   5   14.60    1.87
   7   3   5   13.26    1.97
  -8  -3  -5   80.71    4.46
  -8  -3  -5   69.21    4.61
  -8  -3  -5   74.06    4.23
  -8  -3  -5   71.12    4.97
  -8  -3  -5   79.61    5.14
   8   3   5   79.11    4.69
   8   3   5   71.91    4.17
   8   3   5   75.92    4.45
   8   3   5   78.20    5.46
  -9  -3  -5    2.39    1.52
  -9  -3  -5    2.48    1.54
  -9  -3  -5    1.21    1.34
  -9  -3  -5    1.88    1.84
  -9  -3  -5   -1.71    1.76
   9   3   5   -0.99    1.55
   9   3   5   -0.86    1.29
   9   3   5   -1.95    1.99
   9   3   5    0.99    1.50
 -10  -3  -5   78.18    5.95
 -10  -3  -5   89.30    6.32
 -10  -3  -5   95.68    5.54
 -10  -3  -5   85.48    5.57
 -10  -3  -5   89.06    5.13
  10   3   5   89.93    6.67
  10   3   5   91.41    5.56
  10   3   5   96.24    5.62
   4  -4  -5   -0.38    1.59
  -4   4   5    0.79    2.45
  -4   4   5    2.80    2.14
  -4   4   5    2.04    1.30
   3  -4  -5    4.71    1.32
   3  -4  -5    3.58    1.50
   3  -4  -5    4.69    1.60
  -3   4   5    6.20    2.01
  -3   4   5    4.28    1.27
  -3   4   5    1.38    2.56
   2  -4  -5    9.51    1.44
   2  -4  -5    7.62    1.62
   2  -4  -5   11.12    1.82
  -2   4   5    6.82    1.30
  -2   4   5    7.06    2.56
  -2   4   5    8.19    1.84
   1  -4  -5   79.41    4.30
   1  -4  -5   83.52    4.23
   1  -4  -5   79.49    3.87
  -1   4   5   77.56    4.51
  -1   4   5   80.79    4.16
  -1   4   5   78.32    4.02
  -1   4   5   74.53    4.90
  -1   4   5  101.13    6.19
   0  -4  -5   47.26    2.75
   0  -4  -5   43.12    2.38
   0  -4  -5   49.24    2.38
   0  -4  -5   47.59    3.04
   0  -4  -5   45.49    2.63
   0   4   5   50.28    3.03
   0   4   5   45.84    2.71
   0   4   5   55.11    3.69
   0   4   5   47.37    2.36
   0   4   5   39.31    3.90
  -1  -4  -5    2.95    0.97
  -1  -4  -5    5.01    0.89
  -1  -4  -5    4.12    0.89
  -1  -4  -5    5.73    1.15
  -1  -4  -5    2.84    0.83
   1   4   5    3.78    0.96
   1   4   5    1.62    1.55
   1   4   5    5.74    0.98
   1   4   5    3.93    1.38
   1   4   5    3.34    0.82
  -2  -4  -5    1.55    0.41
  -2  -4  -5    0.38    0.90
  -2  -4  -5   -0.08    0.71
  -2  -4  -5    0.71    0.84
  -2  -4  -5   -0.34    0.59
  -2  -4  -5    1.44    0.77
  -2  -4  -5    0.78    0.62
  -2  -4  -5    1.02    0.74
   2   4   5    1.13    1.27
   2   4   5    0.78    0.55
   2   4   5   -0.55    0.66
   2   4   5    1.69    1.25
   2   4   5    1.43    0.41
   2   4   5    2.99    0.82
  -3  -4  -5  115.09    5.81
  -3  -4  -5  109.39    5.56
  -3  -4  -5  117.94    5.40
  -3  -4  -5  113.50    5.11
  -3  -4  -5  123.20    5.34
  -3  -4  -5  130.61    5.05
  -3  -4  -5  125.57    5.14
   3   4   5  125.90    5.09
   3   4   5  120.15    4.66
   3   4   5  123.43    6.02
   3   4   5  124.62    5.08
   3   4   5  124.58    5.70
   3   4   5  120.40    5.44
  -4  -4  -5   73.68    3.77
  -4  -4  -5   73.65    3.64
  -4  -4  -5   75.06    4.00
  -4  -4  -5   70.81    4.76
  -4  -4  -5   82.06    4.57
  -4  -4  -5   70.68    3.56
  -4  -4  -5   73.39    3.48
  -4  -4  -5   75.93    3.86
   4   4   5   75.76    4.07
   4   4   5   78.68    4.01
   4   4   5   82.16    3.72
   4   4   5   84.69    3.70
  -5  -4  -5   97.46    4.48
  -5  -4  -5   98.84    4.38
  -5  -4  -5   96.58    5.86
  -5  -4  -5   89.27    4.84
  -5  -4  -5  102.37    4.44
  -5  -4  -5   93.13    4.69
  -5  -4  -5   96.21    4.63
   5   4   5   90.31    5.08
   5   4   5   92.72    4.38
   5   4   5   97.54    4.48
   5   4   5   96.46    4.50
   5   4   5   96.84    4.73
  -6  -4  -5    2.41    0.96
  -6  -4  -5    1.21    1.20
  -6  -4  -5    0.93    1.04
  -6  -4  -5    0.08    0.91
  -6  -4  -5    1.31    1.08
  -6  -4  -5    1.77    1.01
  -6  -4  -5    0.89    1.48
   6   4   5    1.05    1.08
   6   4   5    0.44    1.09
   6   4   5    3.94    1.82
   6   4   5   -0.84    0.96
  -7  -4  -5   27.35    2.85
  -7  -4  -5   28.99    2.38
  -7  -4  -5   26.87    2.63
  -7  -4  -5   29.38    2.50
  -7  -4  -5   31.59    2.73
  -7  -4  -5   28.72    3.22
   7   4   5   27.81    2.53
   7   4   5   28.18    2.72
   7   4   5   29.67    3.27
   7   4   5   25.21    2.24
  -8  -4  -5    2.65    1.46
  -8  -4  -5    2.49    1.40
  -8  -4  -5    3.78    1.25
  -8  -4  -5    1.77    1.24
  -8  -4  -5    1.97    1.60
  -8  -4  -5    3.01    2.00
   8   4   5    0.75    1.40
   8   4   5    2.84    2.03
   8   4   5    2.15    1.43
  -9  -4  -5   33.78    3.07
  -9  -4  -5   32.46    3.36
  -9  -4  -5   32.13    3.25
  -9  -4  -5   36.13    3.94
  -9  -4  -5   37.90    3.85
   9   4   5   35.38    4.06
   9   4   5   36.76    3.43
   9   4   5   38.29    3.24
   9   4   5   33.63    3.36
 -10  -4  -5   -1.19    1.75
 -10  -4  -5    1.76    1.63
 -10  -4  -5    0.92    1.49
 -10  -4  -5    0.95    1.72
 -10  -4  -5    1.29    1.98
  10   4   5    2.26    1.69
  10   4   5    0.35    1.62
  10   4   5    3.46    2.59
  10   4   5    1.71    1.83
   4  -5  -5    2.76    1.74
  -4   5   5   -4.16    2.62
  -4   5   5    2.39    2.20
   3  -5  -5   12.25    2.26
   3  -5  -5   10.85    1.87
  -3   5   5   10.80    1.72
  -3   5   5   14.43    2.76
  -3   5   5   12.46    3.58
   2  -5  -5    0.07    1.36
   2  -5  -5    1.29    1.14
  -2   5   5    0.86    0.97
  -2   5   5   -0.44    1.41
  -2   5   5   -2.68    2.09
   1  -5  -5   21.16    2.07
   1  -5  -5   25.15    2.33
   1  -5  -5   26.42    2.47
  -1   5   5   24.13    2.57
  -1   5   5   24.08    3.11
  -1   5   5   21.70    2.27
  -1   5   5   23.13    3.67
  -1   5   5   25.08    2.17
   0  -5  -5   19.80    1.62
   0  -5  -5   18.29    1.57
   0  -5  -5   20.14    1.97
   0  -5  -5   20.91    1.88
   0  -5  -5   15.51    1.86
   0   5   5   19.29    2.04
   0   5   5   22.06    2.75
   0   5   5   16.87    3.14
   0   5   5   17.88    1.54
   0   5   5   18.04    1.89
  -1  -5  -5    2.38    0.83
  -1  -5  -5    2.56    1.09
  -1  -5  -5    3.80    0.90
  -1  -5  -5    2.20    0.91
  -1  -5  -5    3.32    1.13
   1   5   5    2.08    1.77
   1   5   5    2.55    1.49
   1   5   5    2.70    0.96
   1   5   5    2.61    0.80
   1   5   5    3.67    1.04
  -2  -5  -5  207.07    8.78
  -2  -5  -5  212.98    8.44
  -2  -5  -5  214.65    9.40
  -2  -5  -5  213.31    8.37
  -2  -5  -5  217.84    8.65
   2   5   5  214.68    8.34
   2   5   5  215.42    9.07
   2   5   5  208.49    9.39
   2   5   5  225.28   10.53
   2   5   5  221.69    9.14
  -3  -5  -5   17.80    1.70
  -3  -5  -5   17.76    2.05
  -3  -5  -5   17.45    1.65
  -3  -5  -5   15.53    1.54
  -3  -5  -5   16.57    1.68
  -3  -5  -5   19.09    1.82
   3   5   5   15.47    2.13
   3   5   5   16.09    1.60
   3   5   5   18.32    2.04
   3   5   5   16.69    1.65
  -4  -5  -5  139.91    7.24
  -4  -5  -5  139.80    5.84
  -4  -5  -5  130.46    6.01
  -4  -5  -5  141.17    7.50
  -4  -5  -5  135.65    5.87
  -4  -5  -5  142.25    5.88
  -4  -5  -5  130.62    5.69
  -4  -5  -5  138.91    6.22
   4   5   5  130.28    5.72
   4   5   5  133.75    6.66
   4   5   5  140.36    6.28
   4   5   5  142.00    6.39
  -5  -5  -5   39.97    2.53
  -5  -5  -5   41.44    2.71
  -5  -5  -5   41.77    2.61
  -5  -5  -5   39.26    2.64
  -5  -5  -5   40.98    2.69
  -5  -5  -5   40.26    2.52
  -5  -5  -5   43.58    3.93
   5   5   5   43.77    2.71
   5   5   5   39.12    2.94
   5   5   5   42.68    2.67
  -6  -5  -5   26.17    2.22
  -6  -5  -5   26.64    2.38
  -6  -5  -5   19.85    1.99
  -6  -5  -5   19.99    2.15
  -6  -5  -5   21.01    2.28
  -6  -5  -5   21.73    2.02
  -6  -5  -5   33.98    3.43
   6   5   5   27.07    2.27
   6   5   5   27.13    2.37
   6   5   5   25.39    2.57
   6   5   5   20.99    2.16
  -7  -5  -5   57.43    4.71
  -7  -5  -5   45.04    3.37
  -7  -5  -5   52.62    3.42
  -7  -5  -5   52.26    3.26
  -7  -5  -5   51.43    3.16
  -7  -5  -5   57.94    3.12
  -7  -5  -5   53.87    3.59
   7   5   5   54.93    3.38
   7   5   5   49.26    3.28
   7   5   5   54.48    3.94
   7   5   5   39.63    3.15
  -8  -5  -5   33.85    3.20
  -8  -5  -5   35.14    3.13
  -8  -5  -5   25.86    2.60
  -8  -5  -5   32.09    2.67
  -8  -5  -5   28.72    2.93
  -8  -5  -5   39.90    4.07
   8   5   5   30.70    3.05
   8   5   5   33.77    2.88
   8   5   5   30.42    3.48
  -9  -5  -5   35.92    3.41
  -9  -5  -5   34.57    3.49
  -9  -5  -5   39.56    3.77
  -9  -5  -5   46.19    3.46
  -9  -5  -5   42.20    4.38
   9   5   5   35.18    3.35
   9   5   5   39.20    4.15
   9   5   5   38.38    3.25
   9   5   5   41.43    3.64
 -10  -5  -5    4.70    1.82
 -10  -5  -5    3.11    1.74
 -10  -5  -5    7.91    2.29
 -10  -5  -5    4.58    1.82
 -10  -5  -5    7.28    2.47
  10   5   5    6.29    2.63
  10   5   5    5.07    1.84
  10   5   5    5.59    2.13
  10   5   5    5.34    1.91
 -11  -5  -5   80.17    6.06
 -11  -5  -5   83.33    6.22
 -11  -5  -5   88.03    5.43
  11   5   5   85.46    5.61
   3  -6  -5    2.03    1.48
   3  -6  -5    2.15    1.71
  -3   6   5    0.92    3.12
  -3   6   5    2.79    2.25
   2  -6  -5    2.60    1.48
   2  -6  -5   -1.19    1.18
  -2   6   5    1.38    1.09
  -2   6   5   -0.44    2.67
  -2   6   5   -0.99    1.63
   1  -6  -5    8.12    1.78
   1  -6  -5   11.69    1.77
  -1   6   5    7.95    1.83
  -1   6   5    7.92    1.48
  -1   6   5    8.81    1.94
  -1   6   5    7.97    3.17
  -1   6   5    4.93    2.48
   0  -6  -5   26.83    2.51
   0  -6  -5   27.50    2.42
   0  -6  -5   28.59    2.11
   0   6   5   34.13    3.64
   0   6   5   26.90    4.07
   0   6   5   29.04    2.58
   0   6   5   27.28    2.31
   0   6   5   29.53    2.72
  -1  -6  -5   65.54    3.80
  -1  -6  -5   72.01    3.49
  -1  -6  -5   71.84    3.76
  -1  -6  -5   71.83    3.98
  -1  -6  -5   68.70    3.44
   1   6   5   71.10    3.87
   1   6   5   72.76    4.49
   1   6   5   68.73    3.40
   1   6   5   67.60    5.71
  -2  -6  -5   14.92    1.69
  -2  -6  -5   14.05    1.54
  -2  -6  -5   16.83    1.88
  -2  -6  -5   15.24    1.54
  -2  -6  -5   18.76    2.02
   2   6   5   23.92    2.93
   2   6   5   16.74    1.60
   2   6   5   18.63    1.90
   2   6   5   16.31    2.13
  -3  -6  -5    3.61    1.54
  -3  -6  -5    3.92    1.03
  -3  -6  -5    3.05    1.06
  -3  -6  -5    3.84    1.14
  -3  -6  -5    2.82    0.97
  -3  -6  -5    0.51    2.22
   3   6   5    3.41    1.02
   3   6   5    4.54    1.16
   3   6   5    4.02    1.35
   3   6   5    2.60    1.65
  -4  -6  -5   25.31    3.27
  -4  -6  -5   23.66    2.04
  -4  -6  -5   24.57    2.16
  -4  -6  -5   25.97    2.24
  -4  -6  -5   26.22    3.11
  -4  -6  -5   24.34    2.12
  -4  -6  -5   25.01    2.18
   4   6   5   23.89    2.62
   4   6   5   24.57    2.17
   4   6   5   26.27    2.15
   4   6   5   25.41    2.46
  -5  -6  -5   24.26    2.05
  -5  -6  -5   24.54    2.15
  -5  -6  -5   19.07    2.91
  -5  -6  -5   21.58    2.09
  -5  -6  -5   26.82    2.21
  -5  -6  -5   19.34    1.94
  -5  -6  -5   21.61    2.12
   5   6   5   25.63    2.10
   5   6   5   20.53    2.11
   5   6   5   23.50    2.32
   5   6   5   23.06    2.26
  -6  -6  -5   60.31    3.75
  -6  -6  -5   64.46    3.48
  -6  -6  -5   70.40    4.93
  -6  -6  -5   57.26    3.67
  -6  -6  -5   58.61    3.38
  -6  -6  -5   62.18    3.52
   6   6   5   64.33    3.78
   6   6   5   65.41    3.56
  -7  -6  -5   -0.63    0.97
  -7  -6  -5   -0.72    1.60
  -7  -6  -5    0.65    1.05
  -7  -6  -5   -0.17    1.03
  -7  -6  -5    1.81    1.15
  -7  -6  -5    1.84    1.37
   7   6   5    1.35    1.17
   7   6   5   -1.53    1.11
   7   6   5   -0.35    1.14
  -8  -6  -5   24.69    2.61
  -8  -6  -5   26.76    2.48
  -8  -6  -5   24.94    2.68
  -8  -6  -5   27.71    2.72
  -8  -6  -5   24.90    2.43
  -8  -6  -5   26.82    2.89
  -8  -6  -5   30.09    3.60
   8   6   5   19.37    2.45
   8   6   5   25.34    2.45
  -9  -6  -5   -1.24    1.22
  -9  -6  -5    3.26    1.70
  -9  -6  -5    1.16    1.44
  -9  -6  -5    0.19    1.40
  -9  -6  -5   -0.26    1.88
   9   6   5    1.02    1.68
   9   6   5   -0.49    1.43
 -10  -6  -5   39.26    4.59
 -10  -6  -5   46.20    3.79
 -10  -6  -5   44.71    4.02
 -10  -6  -5   42.24    3.99
 -10  -6  -5   42.70    4.08
  10   6   5   43.36    3.67
  10   6   5   40.18    3.91
  10   6   5   40.81    3.88
 -11  -6  -5    3.14    1.90
 -11  -6  -5    3.61    2.12
 -11  -6  -5   -2.09    2.12
  11   6   5    1.69    1.90
   2  -7  -5   14.19    2.22
   2  -7  -5   12.44    2.29
  -2   7   5   16.26    2.95
  -2   7   5   10.79    4.14
   1  -7  -5    1.06    1.31
   1  -7  -5    4.14    1.67
  -1   7   5   -0.98    2.63
   0  -7  -5   48.49    3.52
   0  -7  -5   41.64    3.43
   0   7   5   41.84    5.30
   0   7   5   41.33    3.46
   0   7   5   44.86    4.59
   0   7   5   50.54    3.14
  -1  -7  -5    7.23    1.32
  -1  -7  -5    9.05    1.44
  -1  -7  -5    9.36    3.29
  -1  -7  -5    6.14    1.57
  -1  -7  -5    6.03    1.37
   1   7   5   15.32    3.18
   1   7   5    8.16    2.24
   1   7   5    6.43    1.21
   1   7   5    6.21    1.53
  -2  -7  -5    0.57    2.59
  -2  -7  -5    2.45    0.99
  -2  -7  -5    1.42    0.99
  -2  -7  -5    0.18    1.01
  -2  -7  -5    2.31    1.13
   2   7   5    0.76    0.87
   2   7   5    4.43    1.73
   2   7   5    1.78    1.11
   2   7   5   -1.50    1.92
  -3  -7  -5  128.21    5.97
  -3  -7  -5  133.10    5.89
  -3  -7  -5  139.57    8.86
  -3  -7  -5  137.13    5.93
  -3  -7  -5  140.47    6.22
   3   7   5  131.69    6.36
   3   7   5  132.34    7.61
   3   7   5  130.82    5.81
   3   7   5  130.05    6.65
  -4  -7  -5   12.28    1.64
  -4  -7  -5    9.92    2.56
  -4  -7  -5   11.55    1.64
  -4  -7  -5   13.76    2.55
  -4  -7  -5    9.18    1.43
  -4  -7  -5   12.17    1.58
  -4  -7  -5   11.01    1.64
   4   7   5   10.51    1.81
   4   7   5   14.75    1.69
   4   7   5    9.89    1.59
   4   7   5   10.53    2.18
  -5  -7  -5  104.75    5.34
  -5  -7  -5  107.19    5.17
  -5  -7  -5  131.97    6.93
  -5  -7  -5  101.72    5.37
  -5  -7  -5   96.43    4.98
  -5  -7  -5  117.81    5.24
   5   7   5  109.82    5.54
   5   7   5  111.35    5.11
   5   7   5  121.71    6.18
   5   7   5   95.22    5.33
  -6  -7  -5   16.54    1.93
  -6  -7  -5   21.21    2.13
  -6  -7  -5   21.20    2.32
  -6  -7  -5   21.33    3.08
  -6  -7  -5   18.72    2.09
  -6  -7  -5   18.75    2.19
   6   7   5   21.65    2.32
   6   7   5   20.57    2.32
   6   7   5   23.66    2.20
  -7  -7  -5   28.78    2.74
  -7  -7  -5   28.25    2.64
  -7  -7  -5   27.17    2.51
  -7  -7  -5   32.04    2.68
  -7  -7  -5   27.96    2.82
  -7  -7  -5   37.29    3.91
   7   7   5   31.99    2.85
   7   7   5   33.98    2.86
   7   7   5   30.10    2.63
  -8  -7  -5   23.18    2.81
  -8  -7  -5   25.99    2.72
  -8  -7  -5   26.76    3.58
  -8  -7  -5   29.41    2.63
  -8  -7  -5   30.29    2.66
  -8  -7  -5   23.03    2.58
   8   7   5   29.42    2.76
   8   7   5   25.07    2.53
   8   7   5   23.04    2.63
  -9  -7  -5   34.05    3.39
  -9  -7  -5   34.97    3.38
  -9  -7  -5   34.90    4.20
  -9  -7  -5   31.96    3.01
  -9  -7  -5   33.51    3.34
  -9  -7  -5   32.81    2.99
   9   7   5   33.18    2.96
   9   7   5   31.84    3.31
 -10  -7  -5   27.58    3.96
 -10  -7  -5   20.61    2.71
 -10  -7  -5   21.60    2.97
 -10  -7  -5   25.35    3.11
  10   7   5   26.33    2.92
  10   7   5   19.35    2.97
   0  -8  -5    6.80    1.85
   0  -8  -5    8.14    1.81
   0  -8  -5    3.86    3.71
   0   8   5    5.38    3.33
   0   8   5    6.34    1.93
   0   8   5    5.52    3.11
  -1  -8  -5   12.67    4.20
  -1  -8  -5   19.07    1.96
  -1  -8  -5   15.83    2.13
  -1  -8  -5   19.77    2.42
   1   8   5   21.25    3.26
   1   8   5   16.79    3.82
   1   8   5   18.66    2.41
  -2  -8  -5   58.74    6.73
  -2  -8  -5   63.71    3.94
  -2  -8  -5   62.01    3.78
  -2  -8  -5   64.27    3.58
  -2  -8  -5   61.29    3.51
   2   8   5   60.12    3.43
   2   8   5   64.93    4.62
   2   8   5   71.28    6.14
   2   8   5   64.22    3.97
  -3  -8  -5   15.99    2.12
  -3  -8  -5   18.32    1.96
  -3  -8  -5   20.87    2.19
  -3  -8  -5   18.41    3.68
  -3  -8  -5   15.37    1.90
   3   8   5   16.62    3.11
   3   8   5   16.83    2.55
   3   8   5   18.15    2.24
   3   8   5   18.27    1.89
  -4  -8  -5   15.59    2.04
  -4  -8  -5   17.13    2.01
  -4  -8  -5   13.71    1.79
  -4  -8  -5   11.76    1.70
  -4  -8  -5   18.42    3.32
   4   8   5   16.03    2.16
   4   8   5   18.47    2.91
   4   8   5   12.15    2.14
   4   8   5   13.10    1.74
  -5  -8  -5   17.91    2.04
  -5  -8  -5   15.94    2.10
  -5  -8  -5   13.16    1.76
  -5  -8  -5   18.69    2.11
  -5  -8  -5   14.93    2.06
   5   8   5   12.53    1.76
   5   8   5   17.33    2.17
   5   8   5   14.14    2.19
   5   8   5   15.50    2.45
  -6  -8  -5    7.49    2.27
  -6  -8  -5    4.76    1.57
  -6  -8  -5    3.85    1.28
  -6  -8  -5    6.41    1.45
  -6  -8  -5    3.09    1.38
  -6  -8  -5    7.60    1.50
   6   8   5    2.48    1.49
   6   8   5    4.08    1.30
   6   8   5    6.77    1.57
  -7  -8  -5   34.35    3.75
  -7  -8  -5   31.17    2.74
  -7  -8  -5   26.93    2.66
  -7  -8  -5   34.50    3.08
  -7  -8  -5   30.55    2.79
  -7  -8  -5   32.56    3.14
   7   8   5   29.46    2.65
   7   8   5   37.32    3.20
   7   8   5   36.01    3.18
  -8  -8  -5   -0.41    1.17
  -8  -8  -5   -0.70    1.87
  -8  -8  -5   -0.52    1.19
  -8  -8  -5    0.55    1.18
  -8  -8  -5    0.93    1.22
  -8  -8  -5    0.12    1.43
   8   8   5   -0.86    1.20
   8   8   5   -0.98    1.12
   8   8   5    0.10    1.42
   8   8   5   -1.02    1.25
  -9  -8  -5   17.90    2.55
  -9  -8  -5   18.85    2.57
  -9  -8  -5   15.76    2.53
  -9  -8  -5   15.22    3.26
  -9  -8  -5   20.08    2.50
  -9  -8  -5   19.77    2.49
   9   8   5   18.20    2.66
   9   8   5   19.42    2.45
 -10  -8  -5    0.05    1.75
 -10  -8  -5    2.65    1.62
 -10  -8  -5    1.42    1.85
 -10  -8  -5   -0.84    2.03
  10   8   5    1.85    1.92
  10   8   5    3.79    1.72
  -1  -9  -5   40.65    6.06
  -1  -9  -5   41.49    3.66
  -1  -9  -5   40.27    3.56
   1   9   5   43.83    3.83
   1   9   5   37.98    5.41
   1   9   5   43.39    4.69
  -2  -9  -5    2.36    1.45
  -2  -9  -5   -0.51    1.12
  -2  -9  -5    3.82    3.12
  -2  -9  -5    0.18    1.12
  -2  -9  -5   -0.51    1.37
   2   9   5    0.29    1.03
   2   9   5    2.26    1.50
   2   9   5   -1.17    2.53
   2   9   5   -0.92    1.76
  -3  -9  -5    7.04    1.63
  -3  -9  -5    4.39    1.64
  -3  -9  -5    4.90    2.93
  -3  -9  -5    3.34    1.34
  -3  -9  -5    7.32    1.55
   3   9   5    6.11    1.66
   3   9   5    8.64    2.28
   3   9   5    6.43    2.52
   3   9   5    4.93    1.37
  -4  -9  -5   76.61    4.69
  -4  -9  -5   93.10    6.77
  -4  -9  -5   84.22    4.71
  -4  -9  -5   83.73    4.43
  -4  -9  -5   88.87    4.53
   4   9   5   86.88    6.17
   4   9   5   82.42    4.37
   4   9   5   84.72    4.91
   4   9   5   76.19    5.08
  -5  -9  -5    1.07    1.26
  -5  -9  -5    0.48    1.21
  -5  -9  -5    0.03    1.19
  -5  -9  -5    0.81    1.10
   5   9   5    0.57    1.47
   5   9   5   -0.44    1.77
   5   9   5    1.79    1.36
   5   9   5   -0.55    0.98
  -6  -9  -5   74.01    4.10
  -6  -9  -5   59.74    4.16
  -6  -9  -5   68.43    4.06
  -6  -9  -5   71.98    4.07
  -6  -9  -5   65.94    4.34
   6   9   5   72.74    4.41
   6   9   5   68.00    4.02
   6   9   5   82.28    4.73
  -7  -9  -5    8.82    1.79
  -7  -9  -5    7.97    1.83
  -7  -9  -5    7.23    1.67
  -7  -9  -5    9.33    1.85
  -7  -9  -5    8.30    1.86
   7   9   5    6.12    1.87
   7   9   5    6.96    1.71
   7   9   5    6.79    1.63
  -8  -9  -5   36.79    3.32
  -8  -9  -5   25.45    3.16
  -8  -9  -5   29.19    2.93
  -8  -9  -5   26.60    3.62
  -8  -9  -5   32.47    2.91
  -8  -9  -5   28.38    3.00
   8   9   5   23.42    2.89
   8   9   5   28.66    2.82
   8   9   5   36.20    3.40
  -9  -9  -5    5.43    1.78
  -9  -9  -5    7.50    1.91
  -9  -9  -5    5.24    1.92
  -9  -9  -5    8.13    2.64
  -9  -9  -5    5.01    1.90
   9   9   5    7.49    2.03
   9   9   5    4.95    1.59
 -10  -9  -5   28.25    3.30
 -10  -9  -5   30.80    4.28
 -10  -9  -5   36.78    3.88
 -10  -9  -5   36.24    3.47
  10   9   5   37.30    3.76
  10   9   5   30.94    3.15
  -3 -10  -5   38.15    3.18
  -3 -10  -5   32.93    3.22
  -3 -10  -5   31.15    5.09
  -3 -10  -5   37.33    3.08
  -3 -10  -5   36.34    3.42
   3  10   5   29.32    2.81
   3  10   5   33.13    4.75
   3  10   5   33.74    3.92
  -4 -10  -5   10.94    1.89
  -4 -10  -5   13.75    1.97
  -4 -10  -5    9.10    3.00
  -4 -10  -5   15.44    2.36
  -4 -10  -5   12.46    2.16
   4  10   5   10.26    2.46
   4  10   5   16.15    3.37
   4  10   5    8.83    1.72
  -5 -10  -5   24.85    2.68
  -5 -10  -5   16.54    2.27
  -5 -10  -5   20.17    2.67
  -5 -10  -5   22.54    2.44
   5  10   5   20.00    2.66
   5  10   5   26.44    3.72
   5  10   5   25.11    2.52
   5  10   5   22.02    2.94
  -6 -10  -5    5.09    1.45
  -6 -10  -5    3.21    1.55
  -6 -10  -5    5.65    1.72
  -6 -10  -5    4.45    1.69
   6  10   5    1.55    1.72
   6  10   5    1.32    1.35
   6  10   5    4.18    1.67
  -7 -10  -5    2.02    1.39
  -7 -10  -5   -0.04    1.31
  -7 -10  -5   -0.46    1.18
  -7 -10  -5    1.18    1.64
   7  10   5    0.98    1.29
   7  10   5   -0.11    1.57
  -8 -10  -5    8.43    1.93
  -8 -10  -5    6.10    1.82
  -8 -10  -5    5.53    1.95
   8  10   5    8.83    2.22
   8  10   5    7.96    1.88
  -9 -10  -5    3.86    2.01
  -9 -10  -5    3.99    1.78
  -9 -10  -5    3.86    1.69
  -9 -10  -5    1.45    1.62
   9  10   5    3.79    1.71
   9  10   5    4.12    1.95
   9  10   5    3.70    1.76
   4  10  -6    7.85    3.55
   4  10  -6    8.19    2.55
  -4 -10   6    7.04    2.13
  -4 -10   6    5.13    2.85
  -4 -10   6    3.32    3.61
  -4 -10   6   10.46    1.80
   3  10  -6   12.71    2.95
   3  10  -6    8.19    3.37
  -3 -10   6   12.89    2.06
  -3 -10   6    8.23    3.18
  -3 -10   6   13.54    4.06
  -3 -10   6    9.90    2.18
   2  10  -6    2.01    2.50
   2  10  -6   -2.47    2.64
  -2 -10   6    1.25    1.28
  -2 -10   6   -0.34    2.44
  -2 -10   6    1.04    1.59
   1  10  -6    8.49    3.51
   1  10  -6    4.44    3.09
  -1 -10   6    8.71    3.49
  -1 -10   6    8.65    1.82
  -1 -10   6    8.88    2.25
   6   9  -6    3.79    1.97
   6   9  -6    0.85    2.49
   6   9  -6    3.80    1.79
  -6  -9   6    1.57    1.53
  -6  -9   6    2.02    1.58
  -6  -9   6    2.72    3.30
  -6  -9   6    2.13    2.06
  -6  -9   6    5.62    1.61
   5   9  -6    4.30    1.94
   5   9  -6    9.27    3.21
  -5  -9   6    8.28    1.76
  -5  -9   6    5.30    1.81
  -5  -9   6    4.13    2.24
  -5  -9   6    1.38    3.02
   4   9  -6   75.86    5.22
   4   9  -6   65.00    6.78
  -4  -9   6   69.50    4.05
  -4  -9   6   81.89    6.19
  -4  -9   6   73.66    4.05
  -4  -9   6   69.78    7.30
  -4  -9   6   75.22    4.80
   3   9  -6   -1.69    2.40
   3   9  -6    3.92    2.07
  -3  -9   6    2.31    1.52
  -3  -9   6    5.19    3.38
  -3  -9   6    3.64    2.67
  -3  -9   6    3.37    1.26
   2   9  -6   55.16    6.17
   2   9  -6   58.73    5.02
  -2  -9   6   58.49    6.61
  -2  -9   6   52.66    4.38
  -2  -9   6   44.38    5.51
  -2  -9   6   54.53    3.39
   1   9  -6   11.02    3.37
   1   9  -6    8.90    2.12
   1   9  -6   12.01    2.89
  -1  -9   6    7.66    3.16
  -1  -9   6   10.03    2.15
  -1  -9   6    9.11    1.79
   0   9  -6   54.20    4.39
   0   9  -6   40.16    5.35
   0   9  -6   48.95    5.70
   0  -9   6   54.27    3.50
   0  -9   6   52.28    4.47
   0  -9   6   59.74    6.23
  -1   9  -6   -0.95    2.50
  -1   9  -6   -1.87    2.77
   1  -9   6    1.81    1.47
   1  -9   6    0.84    1.66
   1  -9   6    2.47    1.50
   1  -9   6    0.82    2.36
   7   8  -6    4.89    1.96
   7   8  -6    8.88    2.20
  -7  -8   6    6.10    3.28
  -7  -8   6    5.74    1.73
  -7  -8   6    6.12    2.03
  -7  -8   6    4.53    2.18
   6   8  -6    6.40    1.99
   6   8  -6    6.21    1.78
   6   8  -6    6.70    1.91
  -6  -8   6    2.23    1.91
  -6  -8   6    4.15    1.67
  -6  -8   6    4.81    1.54
  -6  -8   6    5.34    2.94
   5   8  -6   63.67    4.68
   5   8  -6   69.10    4.54
  -5  -8   6   71.70    4.09
  -5  -8   6   66.32    4.81
  -5  -8   6   66.53    4.38
  -5  -8   6   65.77    5.22
  -5  -8   6   73.29    6.82
  -5  -8   6   78.58    4.55
   4   8  -6   14.30    3.38
   4   8  -6   11.35    2.20
   4   8  -6    9.74    1.84
  -4  -8   6    9.27    1.48
  -4  -8   6    8.99    1.56
  -4  -8   6    3.85    2.80
  -4  -8   6    9.83    2.50
  -4  -8   6    9.08    1.72
  -4  -8   6    9.01    2.08
  -4  -8   6   16.88    2.29
   3   8  -6   25.90    4.23
   3   8  -6   30.21    2.81
   3   8  -6   25.31    3.08
  -3  -8   6   31.80    2.52
  -3  -8   6   31.69    3.07
  -3  -8   6   25.18    2.34
  -3  -8   6   27.93    2.72
  -3  -8   6   45.22    5.34
  -3  -8   6   30.57    4.08
   2   8  -6    7.41    1.76
   2   8  -6    1.10    1.75
   2   8  -6    5.11    2.63
  -2  -8   6    6.57    2.92
  -2  -8   6    2.49    1.54
  -2  -8   6    4.81    1.23
  -2  -8   6    5.28    1.40
  -2  -8   6    3.50    2.37
  -2  -8   6    4.48    1.22
   1   8  -6   19.41    3.74
   1   8  -6   11.31    2.54
   1   8  -6   14.27    2.15
  -1  -8   6   15.54    2.02
  -1  -8   6   15.80    2.40
  -1  -8   6   16.63    1.88
  -1  -8   6    9.65    3.26
  -1  -8   6   12.89    1.80
  -1  -8   6   15.83    3.43
   0   8  -6    1.01    2.23
   0   8  -6    1.74    2.30
   0   8  -6    1.83    1.62
   0  -8   6    1.07    1.19
   0  -8   6    0.31    1.42
   0  -8   6   -0.05    2.20
   0  -8   6    1.26    1.20
   0  -8   6    4.21    1.25
  -1   8  -6   11.90    2.35
  -1   8  -6   14.03    3.44
  -1   8  -6    8.27    3.17
   1  -8   6    7.28    2.10
   1  -8   6    7.92    1.68
   1  -8   6   11.20    1.84
   1  -8   6    8.31    1.66
   1  -8   6    8.18    2.85
  -2   8  -6   11.52    3.10
  -2   8  -6   12.43    3.56
  -2   8  -6   16.17    2.60
   2  -8   6   16.28    2.28
   2  -8   6   14.24    2.18
   2  -8   6   13.76    2.57
   2  -8   6   11.66    3.01
  -3   8  -6    6.24    2.78
  -3   8  -6   -0.99    2.41
   3  -8   6    0.99    2.26
   3  -8   6    1.65    1.70
   3  -8   6    3.64    1.60
   7   7  -6    5.01    1.80
   7   7  -6    4.61    1.74
  -7  -7   6    4.32    1.95
  -7  -7   6    2.84    1.96
  -7  -7   6    2.83    2.54
  -7  -7   6    3.25    1.52
   6   7  -6  117.35    6.89
   6   7  -6  129.36    6.50
   6   7  -6  117.06    6.65
   6   7  -6  130.33    7.04
  -6  -7   6  124.06    6.73
  -6  -7   6  129.04    6.87
  -6  -7   6  125.19    8.29
  -6  -7   6  127.07    7.07
   5   7  -6    2.34    1.31
   5   7  -6    2.46    1.53
   5   7  -6    4.96    1.65
  -5  -7   6    4.07    1.43
  -5  -7   6    1.90    1.18
  -5  -7   6    1.28    2.46
  -5  -7   6    4.73    1.79
  -5  -7   6    3.26    1.39
   4   7  -6   39.41    3.52
   4   7  -6   45.26    3.23
  -4  -7   6   42.14    3.67
  -4  -7   6   43.19    4.32
  -4  -7   6   38.47    3.27
  -4  -7   6   37.64    2.72
  -4  -7   6   37.97    4.58
  -4  -7   6   36.94    3.19
   3   7  -6   83.56    5.06
   3   7  -6   80.68    4.65
  -3  -7   6   85.53    4.72
  -3  -7   6   84.15    4.07
  -3  -7   6   80.67    5.88
  -3  -7   6   89.37    4.37
  -3  -7   6   79.96    4.67
  -3  -7   6   82.74    5.03
  -3  -7   6   86.01    6.42
   2   7  -6   13.90    3.12
   2   7  -6   12.68    1.86
   2   7  -6    9.89    2.00
  -2  -7   6   14.23    1.84
  -2  -7   6   14.80    3.23
  -2  -7   6   13.20    1.99
  -2  -7   6   14.95    2.91
  -2  -7   6    9.71    1.47
  -2  -7   6   13.27    1.62
   1   7  -6   62.16    4.59
   1   7  -6   59.51    5.81
   1   7  -6   76.35    4.32
   1   7  -6   67.40    3.91
  -1  -7   6   64.61    3.60
  -1  -7   6   72.58    3.73
  -1  -7   6   75.29    6.49
  -1  -7   6   68.68    4.18
  -1  -7   6   62.68    5.89
  -1  -7   6   68.24    4.03
   0   7  -6   16.41    2.38
   0   7  -6   17.54    2.23
   0   7  -6   19.74    3.54
   0   7  -6   20.84    2.98
   0  -7   6   13.68    1.76
   0  -7   6   15.05    2.00
   0  -7   6   20.20    2.47
   0  -7   6   14.09    3.45
   0  -7   6   17.63    1.95
   0  -7   6   16.99    1.76
   0  -7   6   19.16    3.45
  -1   7  -6   89.00    6.45
  -1   7  -6   80.11    4.85
  -1   7  -6   80.07    5.59
  -1   7  -6   83.96    6.11
   1  -7   6   90.08    4.54
   1  -7   6   75.34    4.76
   1  -7   6   88.36    4.31
   1  -7   6   86.69    6.28
   1  -7   6   79.93    4.30
   1  -7   6   71.16    4.79
  -2   7  -6    2.58    2.35
  -2   7  -6    2.83    2.45
  -2   7  -6    0.67    2.16
  -2   7  -6    0.33    1.47
   2  -7   6   -0.10    1.22
   2  -7   6    0.89    1.27
   2  -7   6   -0.15    1.38
   2  -7   6    0.73    1.56
   2  -7   6   -2.33    1.78
   2  -7   6    1.15    1.14
  -3   7  -6   86.22    5.56
  -3   7  -6   97.17    6.57
  -3   7  -6   86.63    6.68
   3  -7   6   90.36    5.39
   3  -7   6   96.63    5.03
   3  -7   6   86.91    5.30
   3  -7   6   81.31    5.62
   3  -7   6   90.06    6.31
   3  -7   6   89.67    5.08
  -4   7  -6   -1.78    2.25
   4  -7   6    3.79    1.87
   4  -7   6    2.89    1.65
   4  -7   6    1.98    2.04
   4  -7   6    2.60    2.08
   7   6  -6   33.03    3.25
   7   6  -6   27.54    3.11
  -7  -6   6   38.00    3.19
  -7  -6   6   32.49    3.30
  -7  -6   6   36.83    3.50
   6   6  -6    3.73    1.51
   6   6  -6    4.14    1.65
   6   6  -6    4.07    1.64
  -6  -6   6    3.70    1.72
  -6  -6   6    6.28    2.55
  -6  -6   6    5.74    1.70
  -6  -6   6    4.53    1.55
  -6  -6   6    3.94    1.56
  -6  -6   6    5.38    1.40
   5   6  -6    0.77    1.14
   5   6  -6    0.18    1.29
  -5  -6   6    0.50    1.30
  -5  -6   6    1.51    1.20
  -5  -6   6   -0.27    1.01
  -5  -6   6   -0.53    1.08
  -5  -6   6    0.61    1.91
  -5  -6   6   -2.23    1.30
  -5  -6   6   -0.31    0.99
   4   6  -6  105.64    5.93
   4   6  -6  111.01    5.75
   4   6  -6  117.68    5.55
  -4  -6   6  110.24    5.82
  -4  -6   6  106.61    5.28
  -4  -6   6  109.46    5.95
  -4  -6   6  116.52    7.15
  -4  -6   6  102.97    5.48
  -4  -6   6  102.79    6.47
   3   6  -6    7.09    1.59
   3   6  -6    8.72    1.36
   3   6  -6    4.62    1.32
  -3  -6   6    7.13    1.54
  -3  -6   6    5.11    1.16
  -3  -6   6    5.39    1.05
  -3  -6   6    3.97    1.82
  -3  -6   6    5.66    1.63
  -3  -6   6    9.86    2.57
  -3  -6   6    5.50    1.34
   2   6  -6   41.89    2.95
   2   6  -6   42.13    3.11
  -2  -6   6   43.66    2.86
  -2  -6   6   37.79    2.41
  -2  -6   6   39.92    4.06
  -2  -6   6   42.78    2.65
  -2  -6   6   33.86    4.06
  -2  -6   6   41.85    3.20
  -2  -6   6   37.60    3.26
   1   6  -6    4.14    1.58
   1   6  -6    6.56    1.29
   1   6  -6    5.02    2.16
   1   6  -6    6.77    1.51
  -1  -6   6    5.23    1.36
  -1  -6   6    7.32    1.22
  -1  -6   6    5.58    2.24
  -1  -6   6    7.23    1.25
  -1  -6   6    4.37    2.08
  -1  -6   6    7.11    1.34
   0   6  -6   18.92    3.22
   0   6  -6   23.51    2.30
   0   6  -6   18.76    2.49
   0   6  -6   28.36    2.61
   0  -6   6   21.10    3.24
   0  -6   6   22.45    2.27
   0  -6   6   23.01    2.50
   0  -6   6   26.21    1.92
   0  -6   6   22.70    3.46
   0  -6   6   24.22    2.11
   0  -6   6   21.79    2.02
  -1   6  -6    2.90    1.57
  -1   6  -6    2.40    2.05
  -1   6  -6    1.29    1.60
  -1   6  -6   -1.25    1.23
   1  -6   6    2.61    1.02
   1  -6   6    1.45    1.18
   1  -6   6    0.84    2.16
   1  -6   6   -0.71    1.82
   1  -6   6    1.19    0.94
   1  -6   6    0.60    1.35
   1  -6   6    1.80    1.14
  -2   6  -6   23.29    3.31
  -2   6  -6   22.76    3.37
  -2   6  -6   22.82    2.67
  -2   6  -6   18.32    3.31
   2  -6   6   17.01    2.10
   2  -6   6   23.77    2.74
   2  -6   6   24.71    2.65
   2  -6   6   21.50    2.17
   2  -6   6   23.18    3.33
   2  -6   6   21.56    2.32
  -3   6  -6   15.19    3.20
  -3   6  -6   13.33    2.84
  -3   6  -6   15.02    2.43
  -3   6  -6   11.55    2.80
   3  -6   6   10.79    2.02
   3  -6   6   12.27    2.75
   3  -6   6   10.53    1.74
   3  -6   6   14.45    2.02
   3  -6   6   11.72    2.44
  -4   6  -6    0.86    2.09
  -4   6  -6    0.40    2.30
  -4   6  -6    0.89    1.82
  -4   6  -6    0.22    1.91
   4  -6   6    3.04    1.85
   4  -6   6    1.24    1.29
   4  -6   6    2.20    1.60
   4  -6   6    0.38    1.87
  -5   6  -6   59.55    5.71
   5  -6   6   62.12    4.13
   5  -6   6   81.34    4.88
   5  -6   6   57.74    5.45
   7   5  -6   38.55    3.60
   7   5  -6   37.69    3.62
  -7  -5   6   37.02    3.33
  -7  -5   6   38.39    4.42
  -7  -5   6   43.92    3.64
  -7  -5   6   39.30    3.76
  -7  -5   6   40.17    4.04
   6   5  -6    1.54    1.36
   6   5  -6    3.43    1.59
   6   5  -6    2.52    1.46
  -6  -5   6    2.78    1.66
  -6  -5   6    2.13    1.41
  -6  -5   6    0.96    2.00
  -6  -5   6    4.41    1.32
  -6  -5   6    2.50    1.31
  -6  -5   6    5.25    1.56
   5   5  -6  208.91    9.50
   5   5  -6  205.52    9.61
   5   5  -6  197.69    9.87
  -5  -5   6  213.60    9.01
  -5  -5   6  202.22    9.83
  -5  -5   6  200.85   10.82
  -5  -5   6  207.75    9.94
  -5  -5   6  202.12    9.62
  -5  -5   6  222.95    9.12
   4   5  -6    4.52    1.36
   4   5  -6    9.78    1.57
  -4  -5   6    5.68    1.31
  -4  -5   6    5.73    1.26
  -4  -5   6    6.17    1.40
  -4  -5   6    6.46    2.18
  -4  -5   6    6.64    1.56
  -4  -5   6    3.68    1.28
  -4  -5   6    4.05    1.48
   3   5  -6   76.69    3.95
   3   5  -6   68.10    4.00
   3   5  -6   77.15    4.39
  -3  -5   6   75.25    4.04
  -3  -5   6   72.57    3.83
  -3  -5   6   59.30    4.78
  -3  -5   6   71.71    4.86
  -3  -5   6   67.37    4.22
  -3  -5   6   75.32    4.23
  -3  -5   6   72.37    3.63
  -3  -5   6   77.23    3.33
   2   5  -6   76.95    4.27
   2   5  -6   79.26    3.99
   2   5  -6   76.78    4.49
  -2  -5   6   94.95    4.73
  -2  -5   6   77.07    3.91
  -2  -5   6   74.25    4.26
  -2  -5   6   71.14    5.31
  -2  -5   6   77.17    3.56
  -2  -5   6   86.28    4.34
  -2  -5   6   77.91    5.09
   1   5  -6   35.75    2.38
   1   5  -6   35.22    2.77
   1   5  -6   41.74    2.91
   1   5  -6   34.51    2.28
  -1  -5   6   35.81    3.55
  -1  -5   6   35.32    2.25
  -1  -5   6   41.79    3.94
  -1  -5   6   39.75    2.68
  -1  -5   6   40.62    2.73
  -1  -5   6   36.57    3.08
  -1  -5   6   32.57    2.47
   0   5  -6  106.96    4.99
   0   5  -6  105.84    5.27
   0   5  -6  103.90    5.63
   0  -5   6   97.30    6.40
   0  -5   6   96.47    4.51
   0  -5   6  104.43    4.78
   0  -5   6  100.36    5.24
   0  -5   6  105.38    6.44
   0  -5   6  101.31    4.37
   0  -5   6  100.13    5.13
  -1   5  -6   44.31    3.31
  -1   5  -6   46.22    4.46
  -1   5  -6   38.78    3.54
  -1   5  -6   41.57    2.99
   1  -5   6   42.83    3.10
   1  -5   6   45.64    2.55
   1  -5   6   41.53    3.04
   1  -5   6   48.21    2.93
   1  -5   6   42.39    2.71
   1  -5   6   49.48    4.37
   1  -5   6   47.32    4.58
  -2   5  -6   95.68    6.34
  -2   5  -6   98.58    6.64
  -2   5  -6  110.44    5.45
  -2   5  -6  106.06    6.10
   2  -5   6  115.68    5.45
   2  -5   6  109.11    5.41
   2  -5   6   99.51    5.69
   2  -5   6   93.48    6.78
   2  -5   6  100.85    6.52
   2  -5   6  106.88    4.94
   2  -5   6  100.16    4.81
  -3   5  -6    1.26    1.88
  -3   5  -6    0.64    2.23
  -3   5  -6    0.78    1.32
  -3   5  -6   -1.14    1.98
   3  -5   6    0.83    1.14
   3  -5   6    1.06    1.07
   3  -5   6    2.00    1.29
   3  -5   6    2.64    1.70
   3  -5   6    0.56    1.52
  -4   5  -6  159.67    8.09
  -4   5  -6  153.72    9.08
  -4   5  -6  174.80    8.82
  -4   5  -6  166.54    8.82
   4  -5   6  157.71    8.76
   4  -5   6  160.45    7.24
   4  -5   6  149.84    7.46
   4  -5   6  168.27    7.57
   4  -5   6  164.00    8.88
  -5   5  -6   -1.93    1.58
  -5   5  -6    3.74    2.45
  -5   5  -6    0.42    1.89
   5  -5   6   -2.36    1.13
   5  -5   6    0.80    1.53
  -6   5  -6   29.80    3.23
  -6   5  -6   33.59    4.22
  -6   5  -6   31.86    3.86
   6  -5   6   28.40    3.34
   6  -5   6   33.61    3.13
   6  -5   6   24.19    3.63
   7   4  -6   15.04    2.35
   7   4  -6   19.01    2.63
   7   4  -6   15.28    2.49
  -7  -4   6   20.49    3.34
  -7  -4   6   15.82    2.48
  -7  -4   6   17.11    2.41
   6   4  -6   83.92    4.94
   6   4  -6   79.61    4.56
   6   4  -6   79.61    4.78
   6   4  -6   76.42    4.99
  -6  -4   6   88.70    4.74
  -6  -4   6   79.04    4.92
  -6  -4   6   74.76    5.04
  -6  -4   6   91.45    5.98
  -6  -4   6   81.69    5.04
   5   4  -6    2.80    1.28
   5   4  -6    1.68    1.29
   5   4  -6    0.47    1.21
   5   4  -6    0.29    1.08
  -5  -4   6    1.40    1.11
  -5  -4   6    2.46    1.07
  -5  -4   6    1.27    1.10
  -5  -4   6   -0.36    1.18
  -5  -4   6    2.57    1.43
  -5  -4   6   -0.43    1.69
   4   4  -6    4.18    1.10
   4   4  -6    1.18    1.11
   4   4  -6    2.75    1.26
  -4  -4   6    2.50    1.05
  -4  -4   6    5.47    1.22
  -4  -4   6    2.19    1.20
  -4  -4   6    3.65    1.40
  -4  -4   6    2.17    1.00
  -4  -4   6    3.34    1.78
  -4  -4   6    2.21    1.11
   3   4  -6   68.05    3.94
   3   4  -6   73.19    3.44
   3   4  -6   79.03    4.10
  -3  -4   6   76.09    3.63
  -3  -4   6   75.79    4.17
  -3  -4   6   72.13    4.17
  -3  -4   6   69.07    4.07
  -3  -4   6   75.95    5.04
  -3  -4   6   69.94    3.82
  -3  -4   6   69.81    3.69
   2   4  -6    5.18    1.16
   2   4  -6    3.83    1.22
   2   4  -6    6.02    1.08
  -2  -4   6    5.41    1.33
  -2  -4   6    7.07    1.21
  -2  -4   6    6.56    0.90
  -2  -4   6    7.33    1.04
  -2  -4   6    6.12    1.10
  -2  -4   6    5.37    1.26
  -2  -4   6    4.08    1.50
  -2  -4   6    6.18    1.70
   1   4  -6   83.70    4.47
   1   4  -6   77.05    3.75
   1   4  -6   80.90    4.25
   1   4  -6   80.38    3.95
  -1  -4   6   80.87    5.08
  -1  -4   6   82.94    4.28
  -1  -4   6   81.49    3.60
  -1  -4   6   81.40    4.34
  -1  -4   6   78.53    4.45
  -1  -4   6   81.31    3.97
  -1  -4   6   82.83    3.54
  -1  -4   6   87.58    5.10
   0   4  -6   11.92    1.42
   0   4  -6   11.52    1.54
   0   4  -6    8.52    1.57
   0   4  -6   12.35    1.26
   0  -4   6    9.46    1.94
   0  -4   6   12.76    1.33
   0  -4   6   10.39    0.96
   0  -4   6    9.98    1.42
   0  -4   6   11.57    1.62
   0  -4   6   11.80    1.35
   0  -4   6   12.43    2.11
  -1   4  -6   92.70    4.34
  -1   4  -6   92.61    4.60
  -1   4  -6   90.82    5.11
  -1   4  -6   93.85    4.90
   1  -4   6   95.16    5.78
   1  -4   6   93.06    5.67
   1  -4   6   96.50    4.32
   1  -4   6   95.34    4.48
   1  -4   6   84.88    4.78
   1  -4   6   88.06    3.99
   1  -4   6   93.70    4.71
  -2   4  -6    4.32    1.77
  -2   4  -6    6.84    2.05
  -2   4  -6    5.68    1.68
  -2   4  -6    1.20    1.26
   2  -4   6    7.13    1.28
   2  -4   6    5.06    1.46
   2  -4   6    5.96    1.16
   2  -4   6    4.73    1.35
   2  -4   6    5.42    2.09
   2  -4   6   10.23    2.02
   2  -4   6    9.20    1.51
  -3   4  -6   79.02    4.68
  -3   4  -6   68.59    5.51
  -3   4  -6   96.66    5.71
  -3   4  -6   91.21    5.81
   3  -4   6   87.87    4.57
   3  -4   6   91.48    5.54
   3  -4   6   86.50    4.38
   3  -4   6   92.03    4.39
   3  -4   6   85.55    5.34
  -4   4  -6    0.11    1.68
  -4   4  -6    3.00    1.51
  -4   4  -6    2.64    1.75
  -4   4  -6   -0.52    2.05
   4  -4   6   -0.26    1.32
   4  -4   6    0.28    1.08
   4  -4   6    1.20    1.73
   4  -4   6    0.75    1.26
   4  -4   6    0.39    1.13
  -5   4  -6    2.85    1.64
  -5   4  -6   -0.44    1.99
  -5   4  -6    1.47    1.97
   5  -4   6    5.74    2.22
   5  -4   6    2.74    1.69
   5  -4   6    1.30    1.47
   5  -4   6    1.43    1.32
  -6   4  -6   62.02    4.12
  -6   4  -6   65.13    5.46
  -6   4  -6   56.98    4.79
  -6   4  -6   65.95    5.35
   6  -4   6   61.99    5.38
   6  -4   6   59.28    3.86
   6  -4   6   57.27    4.48
  -7   4  -6   16.40    3.02
  -7   4  -6   18.09    2.73
  -7   4  -6   16.73    3.02
   7  -4   6   19.45    2.94
   7  -4   6   17.28    2.43
   7   3  -6   44.76    4.13
   7   3  -6   53.58    3.91
   7   3  -6   60.07    4.38
  -7  -3   6   56.86    3.85
  -7  -3   6   56.22    4.78
  -7  -3   6   51.63    5.02
  -7  -3   6   46.77    4.19
   6   3  -6   35.62    3.31
   6   3  -6   31.98    2.99
   6   3  -6   31.23    3.27
   6   3  -6   36.68    3.29
  -6  -3   6   37.17    3.09
  -6  -3   6   28.75    2.81
  -6  -3   6   34.08    3.25
  -6  -3   6   30.71    3.78
  -6  -3   6   38.64    3.46
  -6  -3   6   33.43    3.48
   5   3  -6    1.59    1.29
   5   3  -6   -0.80    1.17
   5   3  -6    1.45    1.20
   5   3  -6   -0.06    1.17
  -5  -3   6    0.87    1.23
  -5  -3   6    0.83    0.99
  -5  -3   6    0.43    1.01
  -5  -3   6    1.44    1.19
  -5  -3   6    0.49    1.68
  -5  -3   6    1.02    1.03
   4   3  -6  243.45   10.67
   4   3  -6  240.21   10.65
   4   3  -6  244.00    9.67
  -4  -3   6  238.94   11.76
  -4  -3   6  242.85   10.99
  -4  -3   6  237.68   10.68
  -4  -3   6  236.59   10.05
  -4  -3   6  232.52   10.91
  -4  -3   6  242.48    9.92
  -4  -3   6  237.68    9.87
   3   3  -6   -1.24    0.69
   3   3  -6    0.76    0.90
   3   3  -6   -1.23    0.82
  -3  -3   6   -0.34    0.89
  -3  -3   6    0.58    0.80
  -3  -3   6   -0.38    0.82
  -3  -3   6    1.08    0.79
  -3  -3   6    0.67    1.00
  -3  -3   6    0.88    0.91
  -3  -3   6    1.36    1.44
   2   3  -6  168.11    7.34
   2   3  -6  166.94    7.27
   2   3  -6  159.09    6.40
  -2  -3   6  165.90    8.26
  -2  -3   6  172.14    6.96
  -2  -3   6  143.13    7.47
  -2  -3   6  160.28    7.35
  -2  -3   6  165.06    6.14
  -2  -3   6  164.20    7.18
  -2  -3   6  160.71    6.66
  -2  -3   6  158.19    7.53
   1   3  -6   27.94    2.07
   1   3  -6   26.50    2.24
   1   3  -6   25.91    2.12
   1   3  -6   27.32    1.61
   1   3  -6   26.03    1.45
  -1  -3   6   29.68    1.63
  -1  -3   6   29.03    2.73
  -1  -3   6   28.73    2.77
  -1  -3   6   28.45    1.75
  -1  -3   6   28.37    2.31
  -1  -3   6   27.13    2.05
  -1  -3   6   27.15    1.87
  -1  -3   6   24.91    2.20
   0   3  -6  175.59    7.70
   0   3  -6  172.60    7.88
   0   3  -6  174.17    7.43
   0   3  -6  179.43    7.21
   0  -3   6  171.48    6.48
   0  -3   6  171.96    7.22
   0  -3   6  163.25    7.87
   0  -3   6  177.05    6.76
   0  -3   6  178.63    6.77
   0  -3   6  171.55    8.72
   0  -3   6  170.28    7.85
   0  -3   6  166.63    7.54
   0  -3   6  172.32    8.44
  -1   3  -6   81.42    4.58
  -1   3  -6   85.22    4.49
  -1   3  -6   86.35    4.20
  -1   3  -6   91.97    4.20
   1  -3   6   86.95    5.10
   1  -3   6   85.69    4.42
   1  -3   6   86.44    4.52
   1  -3   6   86.23    4.18
   1  -3   6   91.11    3.99
   1  -3   6   91.54    5.14
   1  -3   6   85.65    3.64
  -2   3  -6  150.26    6.94
  -2   3  -6  158.97    7.00
  -2   3  -6  153.51    7.37
  -2   3  -6  152.80    7.52
   2  -3   6  157.51    7.97
   2  -3   6  159.17    8.10
   2  -3   6  158.78    6.92
   2  -3   6  160.84    6.35
   2  -3   6  163.53    7.60
   2  -3   6  144.29    6.41
   2  -3   6  157.27    7.00
  -3   3  -6   75.69    4.28
  -3   3  -6   81.28    4.99
  -3   3  -6   77.27    4.30
  -3   3  -6   80.05    5.18
  -3   3  -6   68.44    4.98
   3  -3   6   72.23    4.89
   3  -3   6   75.01    4.08
   3  -3   6   75.73    3.87
   3  -3   6   81.80    4.84
   3  -3   6   76.87    3.86
   3  -3   6   77.29    5.20
  -4   3  -6   -0.82    1.88
  -4   3  -6    1.80    1.83
  -4   3  -6    1.65    1.30
  -4   3  -6    0.42    1.39
   4  -3   6    1.32    1.26
   4  -3   6    0.03    1.66
   4  -3   6    0.42    0.99
   4  -3   6   -0.42    1.15
   4  -3   6   -1.16    0.95
  -5   3  -6  228.50   10.94
  -5   3  -6  220.51   11.00
  -5   3  -6  209.49   10.18
  -5   3  -6  233.38    9.36
   5  -3   6  209.71    9.55
   5  -3   6  229.80   11.26
   5  -3   6  220.26    9.21
  -6   3  -6    5.19    1.90
  -6   3  -6    6.08    2.29
  -6   3  -6    6.72    2.14
  -6   3  -6    4.54    1.68
   6  -3   6    4.70    1.86
   6  -3   6    4.20    2.21
   6  -3   6    3.43    1.52
  -7   3  -6   47.39    4.69
  -7   3  -6   53.14    4.78
  -7   3  -6   41.92    4.22
  -7   3  -6   49.65    3.94
   7  -3   6   53.41    4.99
   7  -3   6   49.78    3.70
   7  -3   6   44.99    3.95
  -8   3  -6   18.51    3.10
  -8   3  -6   16.12    2.67
  -8   3  -6   11.89    2.79
   8  -3   6   13.72    2.21
   8  -3   6   12.38    2.53
   7   2  -6   37.71    3.77
   7   2  -6   30.20    3.27
   7   2  -6   33.74    3.52
  -7  -2   6   35.34    3.94
  -7  -2   6   35.95    3.59
  -7  -2   6   36.77    3.42
   6   2  -6   12.06    2.15
   6   2  -6   11.68    2.13
   6   2  -6   10.15    2.08
   6   2  -6   12.20    2.08
  -6  -2   6   11.91    2.25
  -6  -2   6   12.59    2.21
  -6  -2   6   14.57    2.85
  -6  -2   6   11.45    1.97
  -6  -2   6   15.47    2.34
   5   2  -6  132.01    6.77
   5   2  -6  138.77    6.40
   5   2  -6  141.87    6.91
   5   2  -6  130.56    7.03
  -5  -2   6  143.29    6.42
  -5  -2   6  150.47    8.00
  -5  -2   6  135.88    7.16
  -5  -2   6  133.16    6.41
  -5  -2   6  129.33    6.78
  -5  -2   6  127.98    7.00
   4   2  -6   13.04    1.86
   4   2  -6   10.17    1.54
   4   2  -6    9.59    1.71
   4   2  -6    8.87    1.56
  -4  -2   6   11.83    1.58
  -4  -2   6   10.06    1.50
  -4  -2   6    9.17    1.59
  -4  -2   6    9.84    1.63
  -4  -2   6    5.29    1.83
  -4  -2   6    9.09    1.72
   3   2  -6   41.64    2.78
   3   2  -6   38.84    2.44
   3   2  -6   42.29    2.85
  -3  -2   6   34.79    2.47
  -3  -2   6   35.34    2.67
  -3  -2   6   39.55    2.79
  -3  -2   6   35.34    2.33
  -3  -2   6   38.18    2.49
  -3  -2   6   35.85    3.44
  -3  -2   6   35.93    2.73
   2   2  -6   45.55    2.37
   2   2  -6   33.25    2.51
   2   2  -6   39.33    2.60
  -2  -2   6   42.11    2.76
  -2  -2   6   44.31    2.43
  -2  -2   6   38.06    2.71
  -2  -2   6   43.72    2.77
  -2  -2   6   38.34    2.37
  -2  -2   6   42.75    2.71
  -2  -2   6   44.41    3.37
   1   2  -6    3.60    0.69
   1   2  -6    1.20    0.82
   1   2  -6    2.88    0.95
  -1  -2   6    2.22    1.16
  -1  -2   6    2.09    0.73
  -1  -2   6    2.65    0.69
  -1  -2   6    2.09    1.05
  -1  -2   6    1.17    0.54
  -1  -2   6    0.76    0.84
  -1  -2   6    1.42    0.94
   0   2  -6   68.88    3.63
   0   2  -6   66.90    3.51
   0   2  -6   67.05    3.46
   0   2  -6   68.09    2.77
   0   2  -6   67.61    3.06
   0  -2   6   73.09    3.72
   0  -2   6   65.04    3.58
   0  -2   6   67.03    3.95
   0  -2   6   68.40    3.03
   0  -2   6   69.83    4.10
   0  -2   6   73.39    3.77
   0  -2   6   65.84    3.08
   0  -2   6   68.55    3.28
  -1   2  -6   12.87    1.44
  -1   2  -6   12.85    1.01
  -1   2  -6   13.13    1.37
  -1   2  -6   13.80    1.56
  -1   2  -6   11.45    1.31
  -1   2  -6   11.66    0.74
   1  -2   6   11.83    1.49
   1  -2   6   15.71    1.83
   1  -2   6   10.25    1.58
   1  -2   6   14.05    0.93
   1  -2   6   12.93    1.36
   1  -2   6   14.63    1.57
   1  -2   6   10.78    1.23
   1  -2   6   14.43    1.66
  -2   2  -6   96.13    4.58
  -2   2  -6   93.66    4.84
  -2   2  -6   95.47    4.59
  -2   2  -6   89.64    4.00
  -2   2  -6   93.69    4.87
   2  -2   6   93.47    4.30
   2  -2   6   94.65    5.15
   2  -2   6   93.32    4.93
   2  -2   6  100.10    4.56
   2  -2   6   97.59    5.12
   2  -2   6   91.99    4.60
   2  -2   6   97.09    4.11
  -3   2  -6   22.70    2.18
  -3   2  -6   19.52    2.23
  -3   2  -6   21.16    2.36
  -3   2  -6   24.45    1.85
  -3   2  -6   21.07    2.47
  -3   2  -6   17.69    2.32
   3  -2   6   20.36    2.54
   3  -2   6   21.11    2.14
   3  -2   6   23.70    2.44
   3  -2   6   21.04    2.03
   3  -2   6   19.61    1.97
   3  -2   6   23.97    1.99
  -4   2  -6  167.48    7.56
  -4   2  -6  160.20    8.48
  -4   2  -6  162.62    7.51
  -4   2  -6  157.24    7.89
  -4   2  -6  158.26    6.75
  -4   2  -6  153.43    8.18
   4  -2   6  163.81    6.89
   4  -2   6  164.08    7.04
   4  -2   6  165.07    8.04
   4  -2   6  156.30    7.88
   4  -2   6  155.52    7.06
   4  -2   6  143.52    8.29
  -5   2  -6    0.94    1.79
  -5   2  -6    0.09    1.76
  -5   2  -6    2.94    1.18
  -5   2  -6    1.80    1.21
  -5   2  -6    0.83    1.32
   5  -2   6    0.78    1.00
   5  -2   6    1.01    1.50
   5  -2   6   -0.71    1.77
   5  -2   6    2.83    1.26
  -6   2  -6    7.78    1.85
  -6   2  -6   12.10    2.48
  -6   2  -6    5.96    1.60
  -6   2  -6    4.99    2.04
  -6   2  -6    8.71    1.70
   6  -2   6    6.98    2.39
   6  -2   6    7.60    1.62
   6  -2   6    7.80    1.97
  -7   2  -6   50.68    4.61
  -7   2  -6   47.46    3.61
  -7   2  -6   45.65    4.26
  -7   2  -6   36.83    3.77
   7  -2   6   37.07    3.18
   7  -2   6   42.41    3.81
   7  -2   6   42.39    4.32
  -8   2  -6   17.68    3.11
  -8   2  -6   16.02    2.88
  -8   2  -6   13.77    2.40
   8  -2   6   17.46    2.75
   8  -2   6   13.38    2.15
   6   1  -6   91.75    5.58
   6   1  -6   96.12    5.84
   6   1  -6   89.20    5.22
  -6  -1   6   99.62    5.26
  -6  -1   6   83.11    5.36
  -6  -1   6   97.66    5.99
  -6  -1   6  104.23    6.59
   5   1  -6   17.92    2.31
   5   1  -6   15.91    2.22
   5   1  -6   23.49    2.62
  -5  -1   6   16.31    2.02
  -5  -1   6   23.81    3.22
  -5  -1   6   18.20    2.54
  -5  -1   6   17.96    2.37
  -5  -1   6   19.21    2.36
   4   1  -6   10.77    1.71
   4   1  -6   12.43    1.81
   4   1  -6   11.11    1.75
   4   1  -6   10.54    1.71
  -4  -1   6    8.78    2.24
  -4  -1   6    7.94    1.39
  -4  -1   6    9.22    1.69
  -4  -1   6   10.78    1.76
  -4  -1   6    9.17    1.52
  -4  -1   6   12.70    1.94
   3   1  -6  250.19    9.85
   3   1  -6  245.24   10.98
   3   1  -6  244.49   10.69
   3   1  -6  250.75   10.74
  -3  -1   6  249.56   11.01
  -3  -1   6  236.88   10.94
  -3  -1   6  247.35   10.71
  -3  -1   6  243.78   10.10
  -3  -1   6  246.96   10.08
  -3  -1   6  247.78    9.96
  -3  -1   6  229.72   11.65
   2   1  -6    4.71    1.01
   2   1  -6    3.51    1.12
   2   1  -6    4.91    1.14
  -2  -1   6    5.23    1.21
  -2  -1   6    3.53    0.97
  -2  -1   6    3.23    1.05
  -2  -1   6    3.43    1.00
  -2  -1   6    4.38    1.45
  -2  -1   6    5.59    1.23
  -2  -1   6    2.69    0.91
   1   1  -6  267.78   11.29
   1   1  -6  274.52   11.23
   1   1  -6  264.21   10.20
  -1  -1   6  271.95   10.62
  -1  -1   6  266.95   11.51
  -1  -1   6  272.66   11.05
  -1  -1   6  260.41   11.53
  -1  -1   6  273.19   11.29
  -1  -1   6  257.89   12.19
  -1  -1   6  273.26   10.47
  -1  -1   6  262.00    9.66
   0   1  -6   22.60    1.86
   0   1  -6   22.09    1.42
   0   1  -6   21.01    1.80
   0  -1   6   24.21    1.69
   0  -1   6   24.12    1.75
   0  -1   6   22.32    1.48
   0  -1   6   22.62    2.22
   0  -1   6   18.45    1.94
   0  -1   6   24.05    1.94
  -1   1  -6  164.07    6.60
  -1   1  -6  158.94    6.11
  -1   1  -6  158.98    7.07
  -1   1  -6  157.85    5.87
  -1   1  -6  163.58    7.06
  -1   1  -6  171.28    7.05
   1  -1   6  165.12    7.56
   1  -1   6  162.55    7.23
   1  -1   6  163.12    6.39
   1  -1   6  155.69    7.11
   1  -1   6  156.82    6.01
   1  -1   6  157.84    6.63
   1  -1   6  154.70    7.02
  -2   1  -6   20.89    1.73
  -2   1  -6   17.36    1.61
  -2   1  -6   17.08    1.64
  -2   1  -6   20.57    1.35
  -2   1  -6   18.86    1.20
  -2   1  -6   19.36    1.80
   2  -1   6   17.90    1.75
   2  -1   6   19.40    1.85
   2  -1   6   20.96    1.92
   2  -1   6   17.64    1.60
   2  -1   6   15.18    1.72
   2  -1   6   19.26    1.49
   2  -1   6   17.07    1.76
  -3   1  -6  274.58   11.27
  -3   1  -6  271.67   11.07
  -3   1  -6  264.76   11.14
  -3   1  -6  253.91    9.65
  -3   1  -6  253.70   10.70
  -3   1  -6  250.45    9.74
   3  -1   6  241.78    9.95
   3  -1   6  255.28   11.57
   3  -1   6  250.42   11.63
   3  -1   6  242.73   10.42
   3  -1   6  256.95   11.32
   3  -1   6  237.59    9.99
  -4   1  -6   49.75    2.61
  -4   1  -6   55.25    3.91
  -4   1  -6   51.00    3.30
  -4   1  -6   48.08    3.56
  -4   1  -6   51.27    3.33
  -4   1  -6   45.15    4.01
  -4   1  -6   50.03    2.90
   4  -1   6   46.51    3.06
   4  -1   6   53.72    3.09
   4  -1   6   50.91    2.63
   4  -1   6   52.56    3.21
   4  -1   6   47.93    3.34
   4  -1   6   54.11    3.05
   4  -1   6   38.15    3.98
  -5   1  -6    3.66    1.39
  -5   1  -6    3.00    1.73
  -5   1  -6    3.17    1.14
  -5   1  -6    4.41    1.79
  -5   1  -6    3.34    1.06
  -5   1  -6    3.73    1.46
   5  -1   6    5.74    2.21
   5  -1   6    6.26    1.18
   5  -1   6    3.54    1.57
   5  -1   6    1.96    1.23
   5  -1   6    3.55    1.05
  -6   1  -6  254.55   10.32
  -6   1  -6  243.88   11.62
  -6   1  -6  255.64   11.23
  -6   1  -6  221.65   11.10
  -6   1  -6  265.67   12.08
   6  -1   6  251.85   10.25
   6  -1   6  277.22   12.41
   6  -1   6  242.22   10.08
   6  -1   6  236.64   10.64
  -7   1  -6    5.52    2.21
  -7   1  -6    8.16    2.00
  -7   1  -6    6.47    1.96
  -7   1  -6    6.60    1.72
  -7   1  -6    4.24    1.59
   7  -1   6   10.07    2.28
   7  -1   6   10.47    2.40
   7  -1   6    5.09    1.64
   7  -1   6   10.05    1.75
  -8   1  -6   79.76    5.68
  -8   1  -6   69.96    5.09
  -8   1  -6   85.51    5.12
  -8   1  -6   79.39    4.73
  -8   1  -6   74.27    5.42
   8  -1   6   82.25    4.61
   8  -1   6   81.74    5.83
   8  -1   6   84.08    5.31
  -9   1  -6    4.88    2.11
  -9   1  -6    4.06    2.32
  -9   1  -6    2.36    1.60
   9  -1   6    6.72    2.22
   6   0  -6   26.99    3.38
   6   0  -6   26.85    3.07
   6   0  -6   26.23    3.15
  -6   0   6   26.92    2.99
  -6   0   6   27.11    3.84
  -6   0   6   29.88    3.52
  -6   0   6   22.93    2.64
   5   0  -6    6.07    1.83
   5   0  -6   12.08    2.11
   5   0  -6    5.82    1.75
  -5   0   6    5.49    1.64
  -5   0   6    8.29    1.57
  -5   0   6    3.27    1.91
  -5   0   6    5.46    2.21
   4   0  -6  130.29    6.54
   4   0  -6  129.39    6.66
   4   0  -6  137.22    6.13
   4   0  -6  131.01    6.39
  -4   0   6  122.41    6.56
  -4   0   6  124.86    7.54
  -4   0   6  124.71    6.02
  -4   0   6  125.62    6.37
  -4   0   6  128.28    6.72
  -4   0   6  130.01    6.01
   3   0  -6   13.06    1.70
   3   0  -6   12.21    1.78
   3   0  -6    9.83    1.56
   3   0  -6   11.47    1.59
  -3   0   6   13.69    1.60
  -3   0   6   11.12    1.80
  -3   0   6   10.42    1.44
  -3   0   6   16.06    1.72
  -3   0   6   11.21    1.62
  -3   0   6   10.73    2.26
  -3   0   6   10.80    1.65
   2   0  -6   95.82    5.02
   2   0  -6   95.10    4.50
   2   0  -6  102.16    4.85
  -2   0   6  102.79    4.87
  -2   0   6   97.37    5.66
  -2   0   6  101.74    4.62
  -2   0   6  100.10    4.86
  -2   0   6   99.12    4.58
  -2   0   6   96.72    4.98
  -2   0   6  101.11    5.05
   1   0  -6   62.73    3.49
   1   0  -6   61.50    3.27
   1   0  -6   56.80    3.02
  -1   0   6   63.30    3.16
  -1   0   6   63.03    3.44
  -1   0   6   59.60    3.30
  -1   0   6   63.71    3.34
  -1   0   6   60.70    3.03
  -1   0   6   55.66    3.55
  -1   0   6   59.02    3.88
   0   0  -6   20.14    1.44
   0   0  -6   18.50    1.57
   0   0  -6   19.93    1.74
   0   0   6   19.14    1.66
   0   0   6   18.30    1.45
   0   0   6   18.64    1.37
   0   0   6   21.13    1.69
   0   0   6   17.31    1.92
   0   0   6   19.25    2.02
  -1   0  -6    5.51    0.62
  -1   0  -6    5.89    1.01
  -1   0  -6    5.45    0.47
  -1   0  -6    6.10    0.78
  -1   0  -6    7.55    1.16
   1   0   6    5.46    1.16
   1   0   6    5.49    0.91
   1   0   6    4.54    0.63
   1   0   6    8.27    0.97
   1   0   6    6.30    1.25
   1   0   6    6.00    1.00
   1   0   6    6.24    1.04
  -2   0  -6   10.86    0.89
  -2   0  -6   10.87    1.30
  -2   0  -6   10.28    1.13
  -2   0  -6    9.79    1.32
  -2   0  -6   13.04    1.20
  -2   0  -6   10.87    0.97
   2   0   6   10.76    1.42
   2   0   6   10.34    1.16
   2   0   6    8.45    1.39
   2   0   6   11.64    1.19
   2   0   6   11.62    1.13
   2   0   6    9.80    1.32
   2   0   6   12.33    1.42
  -3   0  -6   57.30    2.70
  -3   0  -6   53.23    2.63
  -3   0  -6   53.17    3.03
  -3   0  -6   57.48    3.10
  -3   0  -6   54.04    3.32
  -3   0  -6   54.79    3.44
   3   0   6   54.37    3.06
   3   0   6   55.36    2.85
   3   0   6   59.01    3.08
   3   0   6   50.74    3.06
   3   0   6   58.16    3.55
  -4   0  -6   28.29    3.10
  -4   0  -6   32.49    2.15
  -4   0  -6   33.44    3.06
  -4   0  -6   35.90    2.91
  -4   0  -6   34.91    2.24
  -4   0  -6   33.63    2.66
   4   0   6   36.83    2.44
   4   0   6   33.63    2.14
   4   0   6   37.46    2.50
   4   0   6   29.70    3.21
   4   0   6   33.46    2.30
   4   0   6   30.14    2.52
  -5   0  -6  245.86   10.98
  -5   0  -6  238.71    9.60
  -5   0  -6  237.72   10.54
  -5   0  -6  231.51   10.94
  -5   0  -6  236.43    9.59
  -5   0  -6  234.12   11.26
   5   0   6  242.40   11.66
   5   0   6  247.26    9.90
   5   0   6  254.77    9.82
   5   0   6  234.62    9.57
   5   0   6  243.29    9.99
  -6   0  -6   25.08    2.23
  -6   0  -6   20.15    2.39
  -6   0  -6   23.06    2.63
  -6   0  -6   22.17    2.93
  -6   0  -6   26.52    2.35
  -6   0  -6   26.67    2.71
   6   0   6   27.43    2.66
   6   0   6   23.01    2.42
   6   0   6   22.38    2.13
   6   0   6   25.78    3.15
  -7   0  -6   45.28    3.73
  -7   0  -6   33.81    3.29
  -7   0  -6   41.89    3.57
  -7   0  -6   38.58    3.89
  -7   0  -6   38.94    3.07
  -7   0  -6   37.05    3.00
   7   0   6   43.38    3.65
   7   0   6   39.12    3.91
   7   0   6   40.23    3.08
   7   0   6   40.92    3.27
  -8   0  -6    7.27    1.92
  -8   0  -6    6.00    1.89
  -8   0  -6    6.59    1.70
  -8   0  -6    8.36    2.03
  -8   0  -6    8.27    2.24
   8   0   6    7.56    2.28
   8   0   6    7.72    2.28
   8   0   6    6.29    1.80
   8   0   6   12.07    2.02
  -9   0  -6    7.56    1.84
  -9   0  -6    4.32    1.96
  -9   0  -6    1.85    2.06
  -9   0  -6    4.87    1.91
   9   0   6    5.01    1.75
   9   0   6    5.02    2.32
   9   0   6    5.53    2.06
   9   0   6    4.12    2.24
   6  -1  -6    0.80    1.91
   6  -1  -6    0.82    1.87
  -6   1   6    1.00    1.29
  -6   1   6   -1.75    1.73
  -6   1   6    5.65    2.59
  -6   1   6    1.59    1.58
   5  -1  -6  128.63    6.61
   5  -1  -6  107.33    6.61
   5  -1  -6  118.07    6.18
  -5   1   6  126.94    7.76
  -5   1   6  117.38    6.25
  -5   1   6  117.36    6.96
  -5   1   6  116.21    5.95
   4  -1  -6    3.54    1.47
   4  -1  -6    4.26    1.49
   4  -1  -6    7.35    1.71
  -4   1   6    5.17    2.19
  -4   1   6    5.37    1.42
  -4   1   6    3.00    1.48
  -4   1   6    3.62    1.18
   3  -1  -6   34.86    2.70
   3  -1  -6   38.54    3.13
   3  -1  -6   41.88    2.80
   3  -1  -6   39.97    2.92
  -3   1   6   42.34    2.69
  -3   1   6   40.95    4.04
  -3   1   6   39.00    3.28
  -3   1   6   41.57    2.74
  -3   1   6   36.71    2.87
  -3   1   6   36.62    2.93
   2  -1  -6  162.24    7.72
   2  -1  -6  172.91    7.17
   2  -1  -6  166.95    7.72
   2  -1  -6  168.90    7.49
  -2   1   6  167.05    7.85
  -2   1   6  166.12    7.10
  -2   1   6  168.93    8.74
  -2   1   6  167.00    7.14
  -2   1   6  153.53    7.42
  -2   1   6  178.31    7.58
  -2   1   6  169.04    7.75
   1  -1  -6   26.52    2.19
   1  -1  -6   24.65    1.41
   1  -1  -6   28.39    1.98
   1  -1  -6   25.73    1.96
  -1   1   6   24.82    1.76
  -1   1   6   24.69    2.72
  -1   1   6   23.07    2.36
  -1   1   6   27.46    2.01
  -1   1   6   24.42    1.89
  -1   1   6   24.40    2.10
  -1   1   6   25.79    1.97
   0  -1  -6  201.05    8.59
   0  -1  -6  202.57    8.03
   0  -1  -6  194.90    8.80
   0  -1  -6  204.47    7.62
   0   1   6  208.81    9.60
   0   1   6  208.60    8.11
   0   1   6  199.37    7.72
   0   1   6  200.85    7.96
   0   1   6  200.64    8.79
   0   1   6  204.67    8.82
   0   1   6  210.47    8.83
  -1  -1  -6   32.88    1.61
  -1  -1  -6   30.31    2.02
  -1  -1  -6   30.80    1.57
  -1  -1  -6   31.19    1.88
  -1  -1  -6   32.48    2.20
   1   1   6   33.08    2.49
   1   1   6   32.21    1.62
   1   1   6   31.53    1.81
   1   1   6   30.28    1.93
   1   1   6   28.66    2.03
   1   1   6   31.27    1.98
   1   1   6   34.55    2.69
  -2  -1  -6  250.53    9.47
  -2  -1  -6  245.09    9.33
  -2  -1  -6  247.28   10.32
  -2  -1  -6  247.13   10.23
  -2  -1  -6  253.89    9.90
  -2  -1  -6  238.99   10.43
  -2  -1  -6  241.61    9.10
   2   1   6  243.09    9.33
   2   1   6  240.01    9.64
   2   1   6  248.55    9.52
   2   1   6  252.22   10.29
   2   1   6  254.31   10.32
   2   1   6  244.71   10.50
   2   1   6  253.70   10.92
  -3  -1  -6   -0.14    0.66
  -3  -1  -6   -0.39    0.60
  -3  -1  -6    0.94    0.61
  -3  -1  -6   -0.90    0.91
  -3  -1  -6    0.15    0.61
  -3  -1  -6    0.83    0.95
   3   1   6   -0.55    0.76
   3   1   6    0.86    0.77
   3   1   6   -0.11    0.64
   3   1   6    0.07    1.04
   3   1   6    0.89    0.93
  -4  -1  -6  432.18   18.10
  -4  -1  -6  434.86   17.21
  -4  -1  -6  418.83   17.78
  -4  -1  -6  426.29   16.14
  -4  -1  -6  411.58   18.15
  -4  -1  -6  433.11   15.89
   4   1   6  428.46   17.88
   4   1   6  431.51   16.86
   4   1   6  398.98   18.39
   4   1   6  434.86   16.25
   4   1   6  440.42   16.05
  -5  -1  -6   -0.69    0.80
  -5  -1  -6    0.31    1.14
  -5  -1  -6    1.30    1.41
  -5  -1  -6    0.36    0.84
  -5  -1  -6   -0.17    1.41
  -5  -1  -6    0.55    1.02
   5   1   6    0.12    1.13
   5   1   6    1.12    1.76
   5   1   6    0.00    1.00
   5   1   6    1.23    1.18
  -6  -1  -6   25.80    3.05
  -6  -1  -6   29.15    2.57
  -6  -1  -6   29.53    2.41
  -6  -1  -6   23.12    2.49
  -6  -1  -6   26.58    2.38
  -6  -1  -6   28.13    2.94
   6   1   6   27.18    2.53
   6   1   6   26.18    2.27
   6   1   6   30.33    2.68
   6   1   6   29.75    2.19
   6   1   6   36.09    3.59
  -7  -1  -6  125.45    6.78
  -7  -1  -6  127.09    5.97
  -7  -1  -6  127.03    7.09
  -7  -1  -6  129.26    6.50
  -7  -1  -6  123.47    6.52
  -7  -1  -6  133.32    6.04
   7   1   6  125.67    6.00
   7   1   6  126.36    6.34
   7   1   6  123.15    7.19
   7   1   6  122.91    6.00
  -8  -1  -6    2.20    1.44
  -8  -1  -6    2.80    1.51
  -8  -1  -6    3.11    1.75
  -8  -1  -6    6.09    1.81
  -8  -1  -6    1.81    1.92
   8   1   6    5.12    1.63
   8   1   6    5.85    2.25
   8   1   6    5.63    1.67
   8   1   6    4.04    1.79
  -9  -1  -6   70.49    5.17
  -9  -1  -6   76.65    4.40
  -9  -1  -6   64.55    4.62
  -9  -1  -6   74.69    5.04
   9   1   6   69.40    4.30
   9   1   6   70.22    4.52
   9   1   6   58.93    5.49
   9   1   6   67.21    4.66
 -10  -1  -6    0.18    1.70
 -10  -1  -6   -1.19    1.43
 -10  -1  -6    0.33    1.96
  10   1   6    0.98    2.12
  10   1   6   -1.50    1.66
   5  -2  -6    5.37    1.95
   5  -2  -6    9.75    2.13
  -5   2   6    7.30    1.72
  -5   2   6    3.13    2.41
  -5   2   6    8.95    2.33
   4  -2  -6   -1.52    1.31
   4  -2  -6    1.61    1.51
   4  -2  -6   -0.43    1.28
  -4   2   6    0.39    1.05
  -4   2   6   -1.70    1.43
  -4   2   6    3.04    2.31
  -4   2   6   -0.11    1.13
   3  -2  -6   94.78    5.16
   3  -2  -6   91.31    4.81
   3  -2  -6   87.81    4.82
   3  -2  -6   95.00    5.15
  -3   2   6  102.77    5.43
  -3   2   6   90.87    6.37
  -3   2   6   88.52    4.82
  -3   2   6   93.82    4.73
   2  -2  -6    9.86    1.58
   2  -2  -6    9.20    1.57
   2  -2  -6   10.53    1.55
   2  -2  -6   10.80    1.48
  -2   2   6   14.18    1.99
  -2   2   6    9.33    2.31
  -2   2   6   10.83    1.59
  -2   2   6    9.20    1.32
  -2   2   6   10.86    1.50
  -2   2   6   11.42    1.49
  -2   2   6   10.54    1.67
   1  -2  -6   89.81    3.94
   1  -2  -6   93.55    4.81
   1  -2  -6   87.19    4.41
   1  -2  -6   93.04    3.86
   1  -2  -6   91.74    4.43
   1  -2  -6   89.51    4.56
  -1   2   6   93.65    4.23
  -1   2   6   95.51    4.43
  -1   2   6   90.53    4.60
  -1   2   6   95.35    4.51
  -1   2   6   95.64    5.45
  -1   2   6   85.54    4.96
  -1   2   6   95.39    4.77
   0  -2  -6   11.66    1.40
   0  -2  -6   11.40    1.56
   0  -2  -6   11.34    1.24
   0  -2  -6   11.11    1.20
   0  -2  -6   10.55    0.99
   0   2   6   12.84    2.09
   0   2   6    8.09    1.82
   0   2   6   12.49    1.37
   0   2   6   10.38    1.00
   0   2   6   11.30    1.13
   0   2   6   11.91    1.26
   0   2   6   11.07    1.21
  -1  -2  -6   72.06    3.25
  -1  -2  -6   75.60    3.15
  -1  -2  -6   69.79    3.42
  -1  -2  -6   75.56    3.50
  -1  -2  -6   74.36    3.86
  -1  -2  -6   73.69    3.37
   1   2   6   73.82    4.19
   1   2   6   70.23    3.50
   1   2   6   74.09    3.37
   1   2   6   70.34    3.51
   1   2   6   70.76    3.21
   1   2   6   72.84    4.10
   1   2   6   70.52    3.24
  -2  -2  -6    7.82    0.80
  -2  -2  -6    5.66    0.96
  -2  -2  -6    6.77    0.81
  -2  -2  -6    5.62    0.84
  -2  -2  -6    5.79    0.98
  -2  -2  -6    4.61    1.07
   2   2   6    7.13    1.21
   2   2   6    6.61    0.81
   2   2   6    6.87    0.93
   2   2   6    4.83    1.34
   2   2   6    5.52    1.08
   2   2   6    7.61    0.80
  -3  -2  -6  126.67    6.12
  -3  -2  -6  135.25    5.42
  -3  -2  -6  130.67    5.21
  -3  -2  -6  126.77    5.54
  -3  -2  -6  130.93    6.03
  -3  -2  -6  131.94    5.50
  -3  -2  -6  137.16    5.76
   3   2   6  124.54    6.10
   3   2   6  129.61    6.09
   3   2   6  135.83    5.39
   3   2   6  139.11    5.97
   3   2   6  135.34    5.45
   3   2   6  120.00    5.49
  -4  -2  -6   36.41    2.29
  -4  -2  -6   34.92    2.10
  -4  -2  -6   37.35    2.26
  -4  -2  -6   31.14    2.90
  -4  -2  -6   33.17    3.09
  -4  -2  -6   33.85    2.34
  -4  -2  -6   33.75    2.22
   4   2   6   34.30    2.26
   4   2   6   34.45    2.81
   4   2   6   34.71    2.64
   4   2   6   36.78    2.44
   4   2   6   35.40    2.04
  -5  -2  -6    9.47    2.05
  -5  -2  -6   11.05    1.49
  -5  -2  -6    9.40    1.35
  -5  -2  -6   10.69    1.61
  -5  -2  -6   10.76    1.30
  -5  -2  -6   10.68    2.10
   5   2   6   10.25    1.60
   5   2   6   10.97    1.53
   5   2   6    9.37    1.50
   5   2   6   10.49    2.20
  -6  -2  -6  137.11    6.83
  -6  -2  -6  147.85    6.36
  -6  -2  -6  144.96    7.57
  -6  -2  -6  146.58    6.50
  -6  -2  -6  151.76    7.65
   6   2   6  135.94    6.57
   6   2   6  149.55    7.76
   6   2   6  135.53    6.38
   6   2   6  152.21    6.47
  -7  -2  -6   64.34    3.46
  -7  -2  -6   69.97    4.77
  -7  -2  -6   64.16    4.48
  -7  -2  -6   58.15    3.89
  -7  -2  -6   61.60    3.64
  -7  -2  -6   64.27    3.81
   7   2   6   60.21    3.75
   7   2   6   59.84    3.98
   7   2   6   72.39    4.67
  -8  -2  -6   43.52    4.13
  -8  -2  -6   50.68    3.29
  -8  -2  -6   45.11    4.23
  -8  -2  -6   41.72    3.42
  -8  -2  -6   40.46    3.62
   8   2   6   46.65    3.56
   8   2   6   48.52    3.54
   8   2   6   44.52    4.25
   8   2   6   51.80    3.91
  -9  -2  -6    0.13    1.65
  -9  -2  -6   -0.47    1.40
  -9  -2  -6   -1.37    1.39
  -9  -2  -6    0.25    1.45
  -9  -2  -6   -1.48    1.51
   9   2   6    0.63    1.84
   9   2   6    0.76    2.05
   9   2   6    2.68    1.62
   9   2   6   -2.07    1.22
 -10  -2  -6   -0.09    1.78
 -10  -2  -6   -2.42    1.37
 -10  -2  -6   -1.00    1.67
  10   2   6   -1.71    1.54
  10   2   6   -0.09    1.86
  10   2   6    0.81    1.73
   4  -3  -6  128.76    6.64
   4  -3  -6  110.81    6.08
  -4   3   6  114.11    7.97
  -4   3   6  122.31    6.02
  -4   3   6  126.90    7.20
   3  -3  -6    0.78    1.33
   3  -3  -6    0.60    1.34
  -3   3   6    3.97    2.44
  -3   3   6    0.77    1.44
  -3   3   6    0.26    1.05
   2  -3  -6   69.40    4.17
   2  -3  -6   71.79    4.02
   2  -3  -6   66.42    3.50
   2  -3  -6   74.06    4.11
  -2   3   6   70.57    3.82
  -2   3   6   70.76    4.31
  -2   3   6   71.10    5.48
  -2   3   6   63.80    3.68
   1  -3  -6   71.41    3.82
   1  -3  -6   69.54    3.45
   1  -3  -6   62.97    3.70
   1  -3  -6   68.72    4.04
   1  -3  -6   69.93    3.61
  -1   3   6   81.47    4.14
  -1   3   6   72.82    3.77
  -1   3   6   69.32    3.81
  -1   3   6   77.34    4.68
  -1   3   6   70.65    5.13
  -1   3   6   73.09    3.69
   0  -3  -6   33.89    2.05
   0  -3  -6   35.90    2.18
   0  -3  -6   37.71    2.14
   0  -3  -6   40.81    2.55
   0  -3  -6   35.33    2.13
   0  -3  -6   36.93    2.68
   0   3   6   36.85    3.27
   0   3   6   33.65    1.99
   0   3   6   31.37    2.32
   0   3   6   35.96    3.43
   0   3   6   33.61    2.01
   0   3   6   35.01    2.16
   0   3   6   32.43    2.07
  -1  -3  -6   76.88    3.66
  -1  -3  -6   77.60    4.12
  -1  -3  -6   78.72    3.81
  -1  -3  -6   80.05    3.62
  -1  -3  -6   72.11    3.46
   1   3   6   77.57    3.47
   1   3   6   84.70    4.52
   1   3   6   83.16    4.79
   1   3   6   78.63    3.38
   1   3   6   83.12    3.83
   1   3   6   75.72    3.61
   1   3   6   77.55    3.69
  -2  -3  -6   66.17    3.17
  -2  -3  -6   67.25    3.26
  -2  -3  -6   64.61    3.22
  -2  -3  -6   62.61    3.02
  -2  -3  -6   63.47    3.18
  -2  -3  -6   61.93    3.62
   2   3   6   66.91    2.84
   2   3   6   68.48    3.93
   2   3   6   63.09    3.05
   2   3   6   64.52    3.16
   2   3   6   68.37    3.12
   2   3   6   63.80    3.14
   2   3   6   66.32    3.97
  -3  -3  -6  239.15    9.25
  -3  -3  -6  234.09    9.74
  -3  -3  -6  234.40    9.25
  -3  -3  -6  242.02   10.10
  -3  -3  -6  230.43    9.02
  -3  -3  -6  243.47    9.43
   3   3   6  233.51    9.19
   3   3   6  231.70   10.04
   3   3   6  236.14    9.16
   3   3   6  252.48   10.62
   3   3   6  236.37    9.96
  -4  -3  -6    4.25    1.59
  -4  -3  -6    0.89    1.33
  -4  -3  -6    5.43    1.04
  -4  -3  -6    5.05    1.09
  -4  -3  -6    4.20    0.90
  -4  -3  -6    3.34    1.00
  -4  -3  -6    4.41    1.11
   4   3   6    3.26    1.06
   4   3   6    3.33    0.92
   4   3   6    3.81    0.97
   4   3   6    3.14    1.15
   4   3   6    3.73    1.37
  -5  -3  -6  349.98   13.75
  -5  -3  -6  355.81   13.45
  -5  -3  -6  344.84   15.66
  -5  -3  -6  362.37   13.41
  -5  -3  -6  351.45   14.49
  -5  -3  -6  350.68   13.68
  -5  -3  -6  368.59   15.22
   5   3   6  319.56   15.31
   5   3   6  354.66   14.23
   5   3   6  352.50   13.48
   5   3   6  366.90   13.76
  -6  -3  -6    2.15    1.09
  -6  -3  -6    5.05    1.85
  -6  -3  -6    3.33    1.21
  -6  -3  -6    3.32    1.66
  -6  -3  -6    4.68    1.38
  -6  -3  -6    2.73    1.17
   6   3   6    3.32    1.30
   6   3   6    6.31    1.93
   6   3   6    4.80    1.34
   6   3   6    4.08    1.45
  -7  -3  -6   32.73    3.33
  -7  -3  -6   30.30    2.93
  -7  -3  -6   36.62    2.64
  -7  -3  -6   34.62    2.89
  -7  -3  -6   29.94    2.63
  -7  -3  -6   34.49    3.53
   7   3   6   34.51    3.44
   7   3   6   37.53    2.67
   7   3   6   26.95    2.76
   7   3   6   32.81    2.87
  -8  -3  -6   67.55    4.11
  -8  -3  -6   63.82    3.59
  -8  -3  -6   62.52    3.80
  -8  -3  -6   72.81    4.86
  -8  -3  -6   59.59    4.91
  -8  -3  -6   57.68    4.09
   8   3   6   71.04    4.13
   8   3   6   60.30    4.09
   8   3   6   61.15    4.07
   8   3   6   67.01    4.81
  -9  -3  -6   -0.35    1.47
  -9  -3  -6    0.94    1.51
  -9  -3  -6    0.05    1.39
  -9  -3  -6    3.45    1.86
  -9  -3  -6    1.59    1.92
   9   3   6    0.04    2.02
   9   3   6    2.24    1.62
   9   3   6    3.57    1.81
   9   3   6    1.39    1.58
 -10  -3  -6   46.69    3.91
 -10  -3  -6   46.47    3.98
 -10  -3  -6   40.81    4.38
 -10  -3  -6   49.15    4.61
 -10  -3  -6   46.65    4.20
  10   3   6   45.63    3.99
  10   3   6   45.96    3.71
  10   3   6   39.95    4.53
  10   3   6   46.52    4.21
   4  -4  -6    4.32    1.94
  -4   4   6   -0.74    2.64
  -4   4   6    0.67    1.27
  -4   4   6    3.00    2.04
   3  -4  -6    3.84    1.78
   3  -4  -6    3.48    1.66
  -3   4   6    3.58    2.74
  -3   4   6    2.99    1.33
  -3   4   6   -0.68    1.54
   2  -4  -6   69.22    3.57
   2  -4  -6   73.36    4.21
   2  -4  -6   65.64    3.89
  -2   4   6   49.98    5.48
  -2   4   6   66.52    3.77
  -2   4   6   58.11    4.21
   1  -4  -6    2.66    1.29
   1  -4  -6    3.67    1.06
   1  -4  -6    2.72    1.35
  -1   4   6   -1.05    1.94
  -1   4   6    2.66    2.27
  -1   4   6    3.31    1.36
  -1   4   6    3.96    1.15
   0  -4  -6   49.64    2.77
   0  -4  -6   51.88    3.28
   0  -4  -6   52.72    3.11
   0  -4  -6   49.69    2.67
   0   4   6   49.88    3.11
   0   4   6   49.97    2.89
   0   4   6   57.21    4.24
   0   4   6   60.04    4.58
  -1  -4  -6    3.14    0.94
  -1  -4  -6    4.00    1.25
  -1  -4  -6    4.00    1.11
  -1  -4  -6    5.45    1.00
   1   4   6    4.71    1.04
   1   4   6    6.05    1.04
   1   4   6    4.37    0.97
   1   4   6    4.13    1.75
   1   4   6    6.16    1.74
  -2  -4  -6   48.05    2.61
  -2  -4  -6   45.36    2.98
  -2  -4  -6   49.70    2.65
  -2  -4  -6   42.77    2.49
  -2  -4  -6   44.94    2.66
   2   4   6   48.92    3.56
   2   4   6   43.89    2.49
   2   4   6   43.87    3.29
   2   4   6   44.22    2.54
   2   4   6   44.29    2.36
  -3  -4  -6    6.33    1.10
  -3  -4  -6    7.31    1.08
  -3  -4  -6    5.25    1.07
  -3  -4  -6    6.54    1.20
  -3  -4  -6    6.12    1.31
  -3  -4  -6    7.93    1.50
   3   4   6    6.72    1.09
   3   4   6    4.18    1.44
   3   4   6    7.77    1.21
   3   4   6    6.81    1.47
   3   4   6    7.06    0.77
  -4  -4  -6   87.91    4.48
  -4  -4  -6   87.25    4.03
  -4  -4  -6   74.08    3.78
  -4  -4  -6   74.69    4.77
  -4  -4  -6   84.56    4.04
  -4  -4  -6   78.48    3.71
  -4  -4  -6   81.49    3.89
   4   4   6   78.01    4.25
   4   4   6   72.25    3.78
   4   4   6   79.93    4.41
   4   4   6   78.02    3.42
   4   4   6   84.03    3.78
  -5  -4  -6   11.65    1.59
  -5  -4  -6   10.29    2.31
  -5  -4  -6   12.60    1.83
  -5  -4  -6   10.07    1.37
  -5  -4  -6    9.88    1.46
  -5  -4  -6   11.60    1.56
  -5  -4  -6   12.54    1.67
   5   4   6    8.92    1.72
   5   4   6   10.91    1.49
   5   4   6   14.27    1.78
   5   4   6   13.08    1.68
  -6  -4  -6    2.54    1.41
  -6  -4  -6    2.45    1.18
  -6  -4  -6    3.63    1.79
  -6  -4  -6    1.30    1.03
  -6  -4  -6    0.71    0.97
  -6  -4  -6    2.26    1.05
  -6  -4  -6    1.41    1.06
   6   4   6    3.07    1.35
   6   4   6    2.44    1.60
   6   4   6    1.53    1.13
   6   4   6    1.77    1.15
  -7  -4  -6  104.48    5.95
  -7  -4  -6   85.58    4.44
  -7  -4  -6   88.60    4.78
  -7  -4  -6   91.64    5.00
  -7  -4  -6   89.42    4.94
  -7  -4  -6   90.70    4.57
  -7  -4  -6   91.33    5.28
   7   4   6   93.02    4.72
   7   4   6   88.36    4.92
   7   4   6   98.81    5.54
   7   4   6   90.05    4.69
  -8  -4  -6   47.02    3.52
  -8  -4  -6   49.98    3.48
  -8  -4  -6   52.55    4.27
  -8  -4  -6   43.11    3.43
  -8  -4  -6   52.92    3.22
  -8  -4  -6   45.99    4.22
   8   4   6   52.97    3.43
   8   4   6   49.86    3.86
   8   4   6   53.35    4.42
  -9  -4  -6   45.53    3.79
  -9  -4  -6   42.63    4.28
  -9  -4  -6   38.95    3.79
  -9  -4  -6   46.82    3.66
  -9  -4  -6   48.31    4.28
   9   4   6   45.38    3.81
   9   4   6   46.57    3.62
   9   4   6   48.79    4.45
   9   4   6   45.18    3.86
 -10  -4  -6   -0.47    1.55
 -10  -4  -6   -1.04    1.47
 -10  -4  -6    0.94    1.69
 -10  -4  -6    1.35    2.03
 -10  -4  -6    1.27    1.43
  10   4   6    3.28    2.02
  10   4   6    0.46    1.69
  10   4   6    1.12    2.17
  10   4   6   -1.14    1.63
   3  -5  -6   95.24    5.50
  -3   5   6   83.05    8.10
  -3   5   6  109.63    6.58
  -3   5   6  104.95    5.31
   2  -5  -6    3.00    1.28
   2  -5  -6    2.16    1.49
  -2   5   6    1.08    1.14
  -2   5   6    0.16    1.46
  -2   5   6   -0.35    2.26
   1  -5  -6   63.98    3.64
   1  -5  -6   60.67    3.79
   1  -5  -6   67.18    4.14
  -1   5   6   66.17    5.30
  -1   5   6   68.97    3.74
  -1   5   6   56.86    5.82
  -1   5   6   63.24    4.11
   0  -5  -6   42.24    2.66
   0  -5  -6   44.92    2.45
   0  -5  -6   39.34    2.98
   0  -5  -6   41.47    3.15
   0   5   6   39.99    2.90
   0   5   6   37.67    2.70
   0   5   6   41.70    4.44
   0   5   6   42.85    4.06
  -1  -5  -6   44.22    2.59
  -1  -5  -6   52.09    2.69
  -1  -5  -6   45.99    2.74
  -1  -5  -6   46.42    2.94
  -1  -5  -6   41.33    3.05
   1   5   6   48.48    2.59
   1   5   6   48.24    2.93
   1   5   6   49.04    3.91
   1   5   6   46.46    4.22
   1   5   6   47.23    2.88
  -2  -5  -6   45.11    2.59
  -2  -5  -6   44.32    2.87
  -2  -5  -6   41.14    2.59
  -2  -5  -6   40.36    2.54
  -2  -5  -6   46.68    3.07
   2   5   6   46.44    2.73
   2   5   6   50.46    2.61
   2   5   6   49.29    3.69
   2   5   6   37.58    3.34
  -3  -5  -6   48.63    2.83
  -3  -5  -6   46.38    3.32
  -3  -5  -6   51.20    2.82
  -3  -5  -6   48.90    2.90
  -3  -5  -6   49.05    2.86
   3   5   6   45.97    2.84
   3   5   6   49.91    2.79
   3   5   6   54.11    3.44
   3   5   6   48.31    3.61
  -4  -5  -6   74.76    4.91
  -4  -5  -6   80.58    3.96
  -4  -5  -6   80.01    4.09
  -4  -5  -6   79.70    4.15
  -4  -5  -6   77.05    3.79
  -4  -5  -6   81.02    3.96
   4   5   6   82.21    4.22
   4   5   6   83.19    4.02
   4   5   6   85.61    4.61
   4   5   6   90.12    4.72
  -5  -5  -6    4.00    1.89
  -5  -5  -6    1.06    0.91
  -5  -5  -6    2.24    1.01
  -5  -5  -6    1.45    0.89
  -5  -5  -6    0.47    0.96
  -5  -5  -6    0.81    0.99
   5   5   6   -0.24    0.98
   5   5   6    1.04    1.23
   5   5   6   -0.55    0.96
  -6  -5  -6  220.19   10.34
  -6  -5  -6  249.74   11.58
  -6  -5  -6  242.18    9.66
  -6  -5  -6  237.34    9.87
  -6  -5  -6  244.50    9.64
  -6  -5  -6  229.63   10.43
  -6  -5  -6  227.43    9.93
   6   5   6  254.93    9.70
   6   5   6  239.20    9.87
   6   5   6  249.24   10.28
  -7  -5  -6    9.92    1.81
  -7  -5  -6    8.81    1.57
  -7  -5  -6    8.88    1.76
  -7  -5  -6    9.75    2.37
  -7  -5  -6   11.16    1.81
  -7  -5  -6    6.89    1.49
  -7  -5  -6    8.94    1.58
   7   5   6   11.74    2.12
   7   5   6    8.45    1.57
   7   5   6    4.89    1.46
   7   5   6    8.13    1.69
  -8  -5  -6   66.39    4.14
  -8  -5  -6   63.68    4.13
  -8  -5  -6   61.86    4.25
  -8  -5  -6   62.43    4.70
  -8  -5  -6   58.25    3.80
  -8  -5  -6   70.38    3.85
  -8  -5  -6   67.98    4.42
   8   5   6   69.82    4.69
   8   5   6   75.68    4.19
   8   5   6   69.86    4.25
  -9  -5  -6   23.68    2.90
  -9  -5  -6   18.16    2.79
  -9  -5  -6   23.51    2.83
  -9  -5  -6   20.95    2.45
  -9  -5  -6   28.61    3.49
   9   5   6   26.47    3.27
   9   5   6   21.34    2.67
   9   5   6   24.65    2.92
 -10  -5  -6   -1.03    1.24
 -10  -5  -6    0.88    1.75
 -10  -5  -6   -0.13    1.55
 -10  -5  -6    1.52    1.68
 -10  -5  -6   -0.92    1.76
  10   5   6    0.02    1.66
  10   5   6   -0.60    2.04
  10   5   6    1.23    1.79
  10   5   6   -1.07    1.62
 -11  -5  -6   13.56    2.96
 -11  -5  -6   16.12    3.13
 -11  -5  -6   11.04    2.53
   2  -6  -6    9.35    2.12
   2  -6  -6    8.40    1.83
  -2   6   6    5.99    1.56
  -2   6   6    8.96    2.26
  -2   6   6    6.89    3.62
   1  -6  -6   32.50    3.02
   1  -6  -6   33.71    2.81
  -1   6   6   32.41    3.23
  -1   6   6   19.23    4.00
  -1   6   6   33.48    2.77
   0  -6  -6    0.13    1.22
   0  -6  -6   -1.26    1.00
   0   6   6    0.85    1.16
   0   6   6   -0.06    2.08
   0   6   6    0.16    1.06
   0   6   6    2.61    2.28
  -1  -6  -6   27.57    2.16
  -1  -6  -6   28.10    2.17
  -1  -6  -6   25.91    2.51
  -1  -6  -6   29.09    2.39
  -1  -6  -6   28.03    2.57
   1   6   6   25.41    2.09
   1   6   6   35.03    3.54
   1   6   6   27.18    3.74
   1   6   6   28.72    2.45
  -2  -6  -6    4.03    1.38
  -2  -6  -6    5.46    1.20
  -2  -6  -6    4.95    1.16
  -2  -6  -6    3.57    1.30
  -2  -6  -6    4.13    1.05
   2   6   6    1.85    1.62
   2   6   6    5.54    1.16
   2   6   6    4.32    2.05
   2   6   6    3.68    1.22
  -3  -6  -6   40.89    2.61
  -3  -6  -6   47.84    3.30
  -3  -6  -6   43.44    2.65
  -3  -6  -6   37.57    2.49
  -3  -6  -6   38.11    2.93
   3   6   6   36.36    3.27
   3   6   6   38.88    2.69
   3   6   6   45.76    3.83
   3   6   6   35.55    2.48
  -4  -6  -6   21.24    3.22
  -4  -6  -6   23.75    2.27
  -4  -6  -6   27.30    2.27
  -4  -6  -6   25.08    2.16
  -4  -6  -6   23.55    2.16
  -4  -6  -6   26.29    2.98
  -4  -6  -6   21.68    2.09
   4   6   6   23.68    2.14
   4   6   6   22.68    2.47
   4   6   6   21.19    2.53
   4   6   6   24.66    2.13
  -5  -6  -6   71.58    3.89
  -5  -6  -6   69.21    3.63
  -5  -6  -6   70.32    3.76
  -5  -6  -6   77.75    5.29
  -5  -6  -6   71.14    3.72
  -5  -6  -6   63.37    3.86
   5   6   6   70.64    3.70
   5   6   6   70.08    4.23
   5   6   6   72.14    3.98
   5   6   6   70.38    4.18
  -6  -6  -6    8.72    1.40
  -6  -6  -6    8.24    1.53
  -6  -6  -6    7.57    2.29
  -6  -6  -6   10.98    1.64
  -6  -6  -6    3.16    1.31
  -6  -6  -6    6.88    1.52
   6   6   6    7.36    1.62
   6   6   6    6.36    1.43
  -7  -6  -6    3.53    1.25
  -7  -6  -6    3.43    1.32
  -7  -6  -6    4.18    1.34
  -7  -6  -6    3.93    2.05
  -7  -6  -6    1.92    1.20
  -7  -6  -6    4.51    1.53
   7   6   6    1.78    1.21
   7   6   6    3.16    1.45
   7   6   6    1.91    1.22
  -8  -6  -6   45.29    3.26
  -8  -6  -6   39.39    4.01
  -8  -6  -6   29.51    3.12
  -8  -6  -6   34.00    2.89
  -8  -6  -6   30.92    2.96
  -8  -6  -6   38.09    3.37
   8   6   6   32.13    3.05
   8   6   6   34.72    2.96
   8   6   6   35.66    3.10
  -9  -6  -6   28.25    2.87
  -9  -6  -6   30.54    3.82
  -9  -6  -6   29.16    3.12
  -9  -6  -6   22.91    2.93
  -9  -6  -6   33.44    3.25
  -9  -6  -6   33.82    2.95
   9   6   6   28.06    2.85
   9   6   6   23.26    2.91
 -10  -6  -6   24.68    3.21
 -10  -6  -6   26.76    3.73
 -10  -6  -6   19.49    3.00
 -10  -6  -6   27.10    2.96
 -10  -6  -6   31.08    3.26
  10   6   6   25.35    3.17
  10   6   6   25.63    2.95
   1  -7  -6    2.01    1.49
   1  -7  -6    1.96    1.42
  -1   7   6   -0.64    2.95
   0  -7  -6   53.68    3.51
   0  -7  -6   52.71    3.96
   0   7   6   49.01    5.73
   0   7   6   50.61    3.34
   0   7   6   53.76    5.29
  -1  -7  -6   12.30    1.81
  -1  -7  -6   10.75    1.82
  -1  -7  -6    9.93    1.47
   1   7   6   15.62    2.81
   1   7   6    8.23    1.71
   1   7   6   10.81    3.06
  -2  -7  -6   67.18    3.97
  -2  -7  -6   66.11    3.89
  -2  -7  -6   74.21    3.69
  -2  -7  -6   70.43    3.67
   2   7   6   79.50    5.06
   2   7   6   66.40    4.06
   2   7   6   73.41    5.39
   2   7   6   69.21    3.65
  -3  -7  -6   10.54    3.21
  -3  -7  -6    8.82    1.92
  -3  -7  -6    7.25    1.63
  -3  -7  -6    9.30    1.46
  -3  -7  -6    8.52    1.48
  -3  -7  -6    9.21    1.50
   3   7   6   10.61    1.65
   3   7   6   10.64    2.42
   3   7   6    9.64    1.44
   3   7   6   11.42    2.12
  -4  -7  -6   78.97    5.22
  -4  -7  -6   67.82    3.84
  -4  -7  -6   68.25    4.13
  -4  -7  -6   74.25    3.92
  -4  -7  -6   75.92    5.82
  -4  -7  -6   75.60    4.00
   4   7   6   80.91    5.13
   4   7   6   72.15    4.45
   4   7   6   79.52    4.24
   4   7   6   77.19    3.95
  -5  -7  -6   12.57    1.79
  -5  -7  -6   15.02    1.84
  -5  -7  -6   19.54    3.03
  -5  -7  -6   16.14    1.99
  -5  -7  -6   16.88    1.90
  -5  -7  -6   16.05    2.05
   5   7   6   20.17    2.41
   5   7   6   18.79    1.95
   5   7   6   15.40    1.99
   5   7   6   15.83    2.26
  -6  -7  -6    1.16    1.07
  -6  -7  -6    0.46    1.12
  -6  -7  -6    0.72    1.19
  -6  -7  -6    1.01    1.04
  -6  -7  -6   -1.12    1.70
  -6  -7  -6    0.44    1.06
   6   7   6    0.56    1.15
   6   7   6    1.16    1.13
   6   7   6   -1.49    1.16
  -7  -7  -6  130.96    6.88
  -7  -7  -6  137.08    6.39
  -7  -7  -6  126.92    6.44
  -7  -7  -6  149.06    6.45
  -7  -7  -6  139.91    6.81
  -7  -7  -6  167.43    8.24
   7   7   6  139.07    6.91
   7   7   6  138.02    6.57
   7   7   6  135.55    6.33
  -8  -7  -6   10.69    2.00
  -8  -7  -6   12.91    1.95
  -8  -7  -6   12.71    1.98
  -8  -7  -6   12.84    2.24
  -8  -7  -6   12.65    1.91
  -8  -7  -6   14.22    2.72
   8   7   6   17.18    2.21
   8   7   6   12.16    2.06
   8   7   6   14.45    2.01
  -9  -7  -6   45.74    3.53
  -9  -7  -6   40.12    3.38
  -9  -7  -6   51.56    4.86
  -9  -7  -6   45.97    3.95
  -9  -7  -6   40.48    3.63
  -9  -7  -6   36.01    3.53
   9   7   6   46.26    3.61
   9   7   6   41.32    3.70
 -10  -7  -6    2.87    2.23
 -10  -7  -6    3.62    1.66
 -10  -7  -6    4.81    1.98
  10   7   6    4.01    1.91
  10   7   6    3.40    1.99
   0  -8  -6    6.27    1.74
   0  -8  -6    3.19    1.72
   0  -8  -6    8.77    4.15
   0   8   6    6.14    3.35
  -1  -8  -6    5.19    1.78
  -1  -8  -6    4.60    1.42
  -1  -8  -6    2.31    3.44
   1   8   6    3.69    2.53
   1   8   6    2.91    1.54
   1   8   6    6.43    3.07
  -2  -8  -6    3.92    1.60
  -2  -8  -6    4.54    1.49
  -2  -8  -6    6.71    3.38
  -2  -8  -6    6.19    1.41
  -2  -8  -6    8.58    1.51
   2   8   6    4.96    2.58
   2   8   6    8.88    2.53
   2   8   6    5.24    1.38
   2   8   6    6.40    1.62
  -3  -8  -6    2.13    1.12
  -3  -8  -6    4.86    1.40
  -3  -8  -6    2.20    1.14
  -3  -8  -6    7.15    3.22
  -3  -8  -6    4.76    1.58
   3   8   6    4.50    1.83
   3   8   6    5.54    2.20
   3   8   6    3.90    1.20
   3   8   6    5.22    1.58
  -4  -8  -6   24.55    2.40
  -4  -8  -6   21.91    2.45
  -4  -8  -6   20.86    3.58
  -4  -8  -6   22.13    2.21
  -4  -8  -6   19.11    2.25
   4   8   6   26.06    2.54
   4   8   6   20.70    3.03
   4   8   6   20.84    2.73
   4   8   6   22.50    2.26
  -5  -8  -6   12.22    1.77
  -5  -8  -6   12.20    1.91
  -5  -8  -6   13.62    1.85
  -5  -8  -6   11.14    1.94
  -5  -8  -6   13.83    1.91
   5   8   6   13.51    2.39
   5   8   6   11.93    1.84
   5   8   6   12.79    2.22
   5   8   6   15.40    2.09
  -6  -8  -6   78.14    5.49
  -6  -8  -6   69.05    4.20
  -6  -8  -6   70.31    3.97
  -6  -8  -6   63.87    3.95
  -6  -8  -6   66.13    4.05
   6   8   6   69.42    4.29
   6   8   6   64.15    4.13
   6   8   6   65.50    3.82
  -7  -8  -6   13.82    2.04
  -7  -8  -6   14.52    1.92
  -7  -8  -6   12.73    2.14
  -7  -8  -6   13.42    2.01
  -7  -8  -6    8.57    1.81
  -7  -8  -6   17.64    3.06
   7   8   6   13.73    2.09
   7   8   6   17.59    2.48
   7   8   6   12.51    1.89
  -8  -8  -6    5.56    2.20
  -8  -8  -6    3.49    1.44
  -8  -8  -6    3.63    1.51
  -8  -8  -6    4.03    1.64
  -8  -8  -6    4.16    1.52
  -8  -8  -6    3.91    1.44
   8   8   6    2.87    1.71
   8   8   6    3.23    1.55
   8   8   6    2.97    1.52
   8   8   6    0.52    1.32
  -9  -8  -6    6.97    2.57
  -9  -8  -6    7.94    1.96
  -9  -8  -6    6.84    1.97
  -9  -8  -6    7.38    2.02
  -9  -8  -6    7.89    1.94
  -9  -8  -6    8.80    1.86
   9   8   6    6.86    2.03
   9   8   6    6.03    1.82
 -10  -8  -6   19.27    2.88
 -10  -8  -6   23.74    2.76
 -10  -8  -6   17.80    2.79
 -10  -8  -6   17.89    2.58
 -10  -8  -6   28.10    3.90
  10   8   6   28.01    3.31
  10   8   6   20.66    2.69
  -2  -9  -6    3.18    1.71
  -2  -9  -6    2.63    1.30
  -2  -9  -6    0.69    1.38
  -2  -9  -6    2.35    3.33
   2   9   6    3.17    2.43
   2   9   6    8.13    3.15
   2   9   6    3.37    1.72
  -3  -9  -6   45.95    3.37
  -3  -9  -6   43.93    3.35
  -3  -9  -6   53.53    6.12
  -3  -9  -6   44.41    3.60
  -3  -9  -6   52.16    3.94
   3   9   6   44.24    3.33
   3   9   6   43.07    4.95
   3   9   6   43.50    4.30
   3   9   6   47.06    3.84
  -4  -9  -6    2.35    2.42
  -4  -9  -6    1.86    1.41
  -4  -9  -6    2.40    1.44
  -4  -9  -6    0.68    1.17
  -4  -9  -6   -0.89    1.28
   4   9   6    2.71    2.13
   4   9   6   -0.98    1.08
   4   9   6   -0.30    1.36
   4   9   6    0.29    1.70
  -5  -9  -6   56.31    3.71
  -5  -9  -6   64.16    4.05
  -5  -9  -6   66.65    3.95
  -5  -9  -6   69.36    4.05
   5   9   6   67.37    5.18
   5   9   6   63.06    3.84
   5   9   6   64.66    4.38
   5   9   6   62.82    4.19
  -6  -9  -6    3.95    1.66
  -6  -9  -6    5.78    1.57
  -6  -9  -6    5.85    1.50
  -6  -9  -6    3.17    1.55
  -6  -9  -6    3.78    1.44
   6   9   6    4.21    1.62
   6   9   6    3.22    1.80
   6   9   6    3.68    1.38
  -7  -9  -6    2.23    1.59
  -7  -9  -6    2.85    1.45
  -7  -9  -6    3.23    1.55
  -7  -9  -6   -0.03    1.36
   7   9   6    0.26    1.52
   7   9   6    3.84    1.65
   7   9   6    1.74    1.40
  -8  -9  -6   72.56    4.33
  -8  -9  -6   74.03    4.47
  -8  -9  -6   72.87    4.76
  -8  -9  -6   73.43    4.58
  -8  -9  -6   84.23    5.71
  -8  -9  -6   66.84    4.64
   8   9   6   75.90    4.85
   8   9   6   72.73    4.89
   8   9   6   80.87    4.55
  -9  -9  -6   16.90    3.14
  -9  -9  -6   12.86    2.41
  -9  -9  -6   16.08    2.35
  -9  -9  -6    9.91    2.11
  -9  -9  -6    8.38    1.97
   9   9   6   10.03    2.09
   9   9   6   11.50    2.35
   9   9   6   16.22    2.50
  -4 -10  -6    8.22    3.07
  -4 -10  -6    5.28    1.77
  -4 -10  -6    5.54    1.55
  -4 -10  -6    5.43    1.81
  -4 -10  -6    7.05    1.71
   4  10   6    5.11    2.23
   4  10   6    3.41    1.44
   4  10   6    1.02    2.31
  -5 -10  -6    5.34    1.64
  -5 -10  -6    5.65    1.54
  -5 -10  -6    5.52    1.81
  -5 -10  -6    4.75    1.67
   5  10   6    5.70    2.57
   5  10   6    4.60    2.05
   5  10   6    3.63    1.44
  -6 -10  -6    8.53    2.07
  -6 -10  -6    4.91    1.64
  -6 -10  -6    9.88    1.78
  -6 -10  -6    6.04    1.81
   6  10   6    5.44    1.71
   6  10   6    4.12    1.99
  -7 -10  -6   49.29    3.74
  -7 -10  -6   48.37    3.82
  -7 -10  -6   37.58    3.72
   7  10   6   40.56    3.49
   7  10   6   49.60    4.26
  -8 -10  -6   15.90    2.45
  -8 -10  -6   19.73    2.89
  -8 -10  -6   18.26    2.49
   8  10   6   18.53    2.46
   8  10   6   24.02    3.13
   5   9  -7   22.76    4.39
   5   9  -7   14.09    2.74
   5   9  -7   17.20    2.61
  -5  -9   7   21.51    4.47
  -5  -9   7   16.00    2.57
  -5  -9   7   15.25    3.27
  -5  -9   7   18.09    3.06
  -5  -9   7   18.34    2.28
   4   9  -7    6.57    2.95
   4   9  -7    6.24    2.09
  -4  -9   7    3.18    1.37
  -4  -9   7    4.46    1.89
  -4  -9   7    1.77    2.99
  -4  -9   7    7.16    2.66
  -4  -9   7    5.52    1.72
   3   9  -7   28.48    3.51
   3   9  -7   18.86    4.04
  -3  -9   7   20.78    3.99
  -3  -9   7   19.41    2.49
  -3  -9   7   26.64    2.50
  -3  -9   7   25.44    3.07
  -3  -9   7   26.73    4.81
  -3  -9   7   22.86    2.43
   2   9  -7    1.16    2.88
   2   9  -7    1.48    2.01
  -2  -9   7    0.06    3.15
  -2  -9   7    1.65    1.60
  -2  -9   7   -0.16    2.46
  -2  -9   7   -0.12    1.19
  -2  -9   7    0.11    1.12
   1   9  -7    5.59    3.26
   1   9  -7    1.76    2.39
  -1  -9   7    1.18    1.55
  -1  -9   7    1.79    1.40
  -1  -9   7    0.38    3.10
  -1  -9   7    3.50    2.79
   0   9  -7   24.88    4.08
   0   9  -7   20.72    4.19
   0  -9   7   19.87    4.00
   0  -9   7   24.17    2.69
   0  -9   7   25.57    3.30
  -1   9  -7   11.96    3.70
  -1   9  -7   13.40    3.53
   1  -9   7   13.43    3.41
   1  -9   7   17.95    2.93
   1  -9   7   15.23    2.26
   6   8  -7    3.31    1.93
   6   8  -7    1.10    1.64
  -6  -8   7   -0.89    1.80
  -6  -8   7    1.15    2.89
  -6  -8   7    1.07    1.41
   5   8  -7    5.99    2.04
   5   8  -7   12.42    2.41
  -5  -8   7    5.28    1.96
  -5  -8   7   11.30    2.10
  -5  -8   7   11.02    1.86
  -5  -8   7   10.78    2.02
  -5  -8   7    7.17    3.00
   4   8  -7   -0.02    1.50
   4   8  -7   -0.23    1.37
  -4  -8   7    1.12    2.00
  -4  -8   7    0.91    1.29
  -4  -8   7   -1.74    2.37
  -4  -8   7   -1.62    1.58
  -4  -8   7    0.42    1.10
  -4  -8   7    1.15    1.40
   3   8  -7    1.98    1.49
   3   8  -7    4.10    1.84
   3   8  -7   -0.08    2.44
  -3  -8   7    1.23    1.23
  -3  -8   7    0.75    1.43
  -3  -8   7    0.14    0.99
  -3  -8   7    1.40    2.74
  -3  -8   7    1.86    1.06
  -3  -8   7    3.20    2.20
   2   8  -7   41.79    4.08
   2   8  -7   49.30    3.60
   2   8  -7   35.62    4.92
  -2  -8   7   44.83    3.83
  -2  -8   7   46.78    3.04
  -2  -8   7   45.67    3.33
  -2  -8   7   43.75    2.96
  -2  -8   7   54.76    5.84
  -2  -8   7   44.08    5.10
   1   8  -7   21.07    3.07
   1   8  -7   26.95    4.37
   1   8  -7   28.46    3.01
  -1  -8   7   19.43    2.64
  -1  -8   7   22.35    2.31
  -1  -8   7   19.95    3.82
  -1  -8   7   21.37    2.48
  -1  -8   7   23.95    4.48
  -1  -8   7   24.48    2.37
   0   8  -7   53.99    5.22
   0   8  -7   64.58    6.27
   0   8  -7   60.61    4.19
   0  -8   7   61.84    3.76
   0  -8   7   65.80    4.49
   0  -8   7   67.26    6.84
   0  -8   7   66.28    3.77
   0  -8   7   56.85    4.09
   0  -8   7   68.38    6.50
  -1   8  -7   -0.96    2.45
  -1   8  -7   -2.35    1.54
  -1   8  -7    0.36    2.48
   1  -8   7    0.05    1.24
   1  -8   7    1.45    1.36
   1  -8   7    3.01    1.87
   1  -8   7    0.89    2.33
   1  -8   7    1.54    1.49
  -2   8  -7    0.33    1.89
  -2   8  -7    0.43    2.40
  -2   8  -7    0.52    2.83
   2  -8   7    1.34    1.85
   2  -8   7    4.99    2.49
   2  -8   7    2.20    1.48
   2  -8   7    4.56    1.67
   6   7  -7    6.47    1.91
   6   7  -7    3.68    1.85
   6   7  -7    7.81    2.02
  -6  -7   7   10.47    3.23
  -6  -7   7    7.99    2.23
  -6  -7   7    0.28    1.70
  -6  -7   7    7.34    1.73
   5   7  -7   -2.38    1.30
   5   7  -7    1.34    1.39
  -5  -7   7    1.00    2.42
  -5  -7   7   -0.73    1.39
  -5  -7   7    0.30    1.02
  -5  -7   7   -0.06    1.29
  -5  -7   7   -0.41    1.17
   4   7  -7   31.16    3.23
   4   7  -7   38.46    3.31
  -4  -7   7   35.53    4.51
  -4  -7   7   34.28    3.40
  -4  -7   7   32.95    3.14
  -4  -7   7   37.27    3.98
  -4  -7   7   33.15    3.13
  -4  -7   7   32.57    2.81
   3   7  -7   31.07    3.11
   3   7  -7   29.90    2.87
  -3  -7   7   29.65    3.79
  -3  -7   7   28.22    2.55
  -3  -7   7   31.41    2.39
  -3  -7   7   28.48    2.97
  -3  -7   7   25.56    4.03
  -3  -7   7   33.13    3.30
  -3  -7   7   28.45    2.78
   2   7  -7   66.66    4.61
   2   7  -7   81.40    4.55
  -2  -7   7   73.92    4.60
  -2  -7   7   61.67    5.87
  -2  -7   7   73.85    3.77
  -2  -7   7   68.71    4.26
  -2  -7   7   73.91    3.99
  -2  -7   7   79.21    6.12
   1   7  -7    3.49    1.68
   1   7  -7    3.66    1.61
   1   7  -7    8.31    2.68
  -1  -7   7    7.55    2.65
  -1  -7   7    6.70    1.73
  -1  -7   7   10.62    1.54
  -1  -7   7    6.01    1.42
  -1  -7   7    8.45    1.48
  -1  -7   7   10.86    2.99
   0   7  -7    1.57    1.59
   0   7  -7    0.24    1.71
   0   7  -7   -0.53    2.17
   0   7  -7    0.57    1.37
   0  -7   7    3.04    1.22
   0  -7   7    2.44    1.19
   0  -7   7   -0.50    1.07
   0  -7   7    1.57    2.66
   0  -7   7    0.21    2.09
   0  -7   7    3.72    1.58
  -1   7  -7   14.01    2.66
  -1   7  -7   13.30    3.30
  -1   7  -7   11.08    2.13
  -1   7  -7   15.78    3.04
   1  -7   7   14.94    3.67
   1  -7   7   12.76    2.99
   1  -7   7   10.96    1.83
   1  -7   7    8.95    1.82
   1  -7   7   13.40    2.30
   1  -7   7   12.01    1.88
  -2   7  -7   13.47    3.48
  -2   7  -7   20.06    3.61
  -2   7  -7   14.26    2.48
  -2   7  -7   22.76    3.71
   2  -7   7   20.29    2.62
   2  -7   7   14.94    2.48
   2  -7   7   19.89    2.46
   2  -7   7   20.50    3.38
   2  -7   7   18.41    2.25
   2  -7   7   23.04    2.40
  -3   7  -7   10.94    3.30
  -3   7  -7    7.53    2.79
  -3   7  -7    7.93    2.29
   3  -7   7    6.79    2.19
   3  -7   7    6.91    1.82
   3  -7   7   11.22    2.70
   3  -7   7   10.21    1.96
   3  -7   7   13.95    2.40
   3  -7   7    9.98    2.25
  -4   7  -7    4.52    2.83
   4  -7   7    7.15    2.26
   4  -7   7    4.19    2.32
   4  -7   7    8.17    2.41
   4  -7   7    5.56    1.80
   4  -7   7    7.96    2.14
  -7  -6   7    4.08    1.96
  -7  -6   7    1.14    1.86
  -7  -6   7    6.50    2.84
   6   6  -7   11.22    2.27
   6   6  -7    6.25    1.86
   6   6  -7    6.47    1.84
  -6  -6   7    8.19    1.77
  -6  -6   7   11.73    2.07
  -6  -6   7    3.03    2.68
  -6  -6   7    5.47    1.78
  -6  -6   7   10.60    2.36
  -6  -6   7    5.83    1.83
   5   6  -7   13.74    2.26
   5   6  -7   16.91    2.26
  -5  -6   7   10.07    1.85
  -5  -6   7    9.97    1.96
  -5  -6   7   10.84    1.88
  -5  -6   7    8.39    2.77
  -5  -6   7   12.57    2.12
  -5  -6   7   11.23    2.25
   4   6  -7   40.17    3.18
   4   6  -7   43.85    3.66
   4   6  -7   38.65    3.33
  -4  -6   7   43.25    3.70
  -4  -6   7   40.92    4.52
  -4  -6   7   44.26    3.34
  -4  -6   7   33.27    2.93
  -4  -6   7   37.00    3.30
   3   6  -7    7.94    1.74
   3   6  -7   11.18    1.65
   3   6  -7    7.83    1.80
  -3  -6   7   10.82    1.84
  -3  -6   7   13.26    2.17
  -3  -6   7   11.95    2.44
  -3  -6   7   10.19    1.51
  -3  -6   7    8.95    2.63
  -3  -6   7    8.22    1.67
   2   6  -7    3.01    1.21
   2   6  -7    4.02    1.58
  -2  -6   7    2.91    1.57
  -2  -6   7    3.20    1.24
  -2  -6   7    1.80    1.25
  -2  -6   7    3.34    0.98
  -2  -6   7    3.33    1.03
  -2  -6   7    3.19    1.77
  -2  -6   7    2.10    1.97
   1   6  -7   65.75    4.15
   1   6  -7   62.10    4.39
  -1  -6   7   66.15    4.13
  -1  -6   7   71.21    5.42
  -1  -6   7   75.74    5.60
  -1  -6   7   67.98    4.05
  -1  -6   7   71.31    3.53
  -1  -6   7   66.94    3.74
   0   6  -7   17.28    2.29
   0   6  -7   12.95    2.21
   0   6  -7   19.63    2.12
   0   6  -7   15.61    3.16
   0  -6   7   15.01    2.00
   0  -6   7   21.86    3.19
   0  -6   7   15.87    1.79
   0  -6   7   15.14    3.17
   0  -6   7   17.14    1.88
   0  -6   7   16.43    2.19
  -1   6  -7  106.52    7.31
  -1   6  -7  117.96    6.21
  -1   6  -7  111.25    5.76
  -1   6  -7  101.71    6.48
   1  -6   7  105.29    5.75
   1  -6   7  107.84    7.61
   1  -6   7  113.25    5.99
   1  -6   7  107.73    5.49
   1  -6   7  112.47    5.23
   1  -6   7  117.46    7.27
  -2   6  -7   -0.43    1.40
  -2   6  -7   -0.10    2.04
  -2   6  -7    2.41    2.09
  -2   6  -7    0.65    1.91
   2  -6   7    1.19    1.42
   2  -6   7    1.24    1.47
   2  -6   7    0.42    1.18
   2  -6   7   -0.83    2.03
   2  -6   7    1.30    1.10
   2  -6   7    0.06    1.00
   2  -6   7   -2.67    1.58
  -3   6  -7   13.73    2.41
  -3   6  -7   11.50    2.88
  -3   6  -7   16.79    3.50
  -3   6  -7   19.18    3.40
   3  -6   7   14.28    2.51
   3  -6   7   18.29    2.55
   3  -6   7   11.95    2.65
   3  -6   7   12.16    2.15
   3  -6   7   15.87    2.08
   3  -6   7   16.99    2.16
  -4   6  -7   10.61    2.66
  -4   6  -7    9.20    2.99
  -4   6  -7    9.89    2.44
   4  -6   7    5.58    1.62
   4  -6   7    7.23    1.92
   4  -6   7    8.58    2.39
   4  -6   7    6.43    2.42
  -5   6  -7   18.54    3.19
  -5   6  -7   16.03    3.42
   5  -6   7   15.18    2.35
   5  -6   7   16.10    2.64
   7   5  -7    4.24    1.83
   7   5  -7    2.25    1.73
  -7  -5   7    4.93    1.67
  -7  -5   7    1.82    2.39
  -7  -5   7    1.29    1.36
  -7  -5   7    1.30    1.75
  -7  -5   7    2.75    1.83
   6   5  -7   10.98    2.11
   6   5  -7    8.80    2.02
   6   5  -7    9.52    2.18
  -6  -5   7   10.72    2.11
  -6  -5   7    9.03    2.74
  -6  -5   7    8.98    1.91
  -6  -5   7   11.21    2.32
  -6  -5   7    9.91    2.00
  -6  -5   7   13.95    2.04
   5   5  -7   -1.06    1.09
   5   5  -7    0.88    1.41
   5   5  -7   -0.83    1.21
  -5  -5   7    1.65    1.23
  -5  -5   7    1.67    1.45
  -5  -5   7   -0.78    1.18
  -5  -5   7    0.74    1.18
  -5  -5   7   -0.96    1.39
  -5  -5   7    1.06    1.90
   4   5  -7    5.63    1.59
   4   5  -7    4.03    1.42
  -4  -5   7    6.33    2.25
  -4  -5   7    5.43    1.37
  -4  -5   7    7.18    1.45
  -4  -5   7    8.10    1.44
  -4  -5   7    4.07    1.43
  -4  -5   7    3.71    1.50
  -4  -5   7    2.28    1.35
   3   5  -7   36.25    2.75
   3   5  -7   30.60    2.73
   3   5  -7   27.84    2.86
  -3  -5   7   24.52    3.39
  -3  -5   7   32.16    2.88
  -3  -5   7   26.75    2.59
  -3  -5   7   33.38    2.27
  -3  -5   7   35.87    2.71
  -3  -5   7   32.58    3.03
   2   5  -7   51.86    3.42
   2   5  -7   48.71    3.07
   2   5  -7   55.11    3.60
  -2  -5   7   52.86    3.66
  -2  -5   7   45.28    2.63
  -2  -5   7   52.42    4.61
  -2  -5   7   52.75    3.12
  -2  -5   7   55.61    3.45
  -2  -5   7   51.03    4.09
  -2  -5   7   53.04    3.45
   1   5  -7   98.38    5.34
   1   5  -7   96.15    4.70
   1   5  -7   99.93    5.15
  -1  -5   7  102.26    5.21
  -1  -5   7   98.96    5.45
  -1  -5   7   96.84    6.25
  -1  -5   7   87.23    5.07
  -1  -5   7  100.08    4.42
  -1  -5   7  100.22    4.80
  -1  -5   7  100.49    6.28
   0   5  -7   19.52    1.97
   0   5  -7   21.31    2.47
   0   5  -7   19.49    2.21
   0  -5   7   22.10    1.99
   0  -5   7   13.89    1.96
   0  -5   7   18.15    2.75
   0  -5   7   20.37    1.82
   0  -5   7   19.83    2.26
   0  -5   7   16.57    2.87
  -1   5  -7    1.60    1.29
  -1   5  -7    2.04    1.99
  -1   5  -7    2.74    1.49
  -1   5  -7    0.60    1.33
   1  -5   7    0.67    1.16
   1  -5   7   -0.69    0.81
   1  -5   7    0.58    1.19
   1  -5   7    0.68    0.91
   1  -5   7    2.68    2.04
   1  -5   7    0.46    1.64
  -2   5  -7    4.80    2.22
  -2   5  -7    4.31    1.87
  -2   5  -7    1.98    1.42
  -2   5  -7    1.76    1.87
   2  -5   7    5.22    1.43
   2  -5   7    3.09    1.84
   2  -5   7    8.32    2.63
   2  -5   7    3.52    1.33
   2  -5   7    3.06    1.09
   2  -5   7    2.54    1.50
   2  -5   7    2.41    1.39
  -3   5  -7   10.73    2.92
  -3   5  -7   21.90    3.38
  -3   5  -7   14.39    2.80
  -3   5  -7   20.85    2.57
   3  -5   7   11.47    2.33
   3  -5   7   18.90    2.54
   3  -5   7   19.22    2.36
   3  -5   7   17.29    2.10
   3  -5   7   23.98    3.01
   3  -5   7   15.04    1.97
  -4   5  -7    0.54    1.57
  -4   5  -7    1.66    2.03
  -4   5  -7   -0.88    2.19
  -4   5  -7    1.36    1.96
   4  -5   7    4.11    1.52
   4  -5   7    0.66    1.67
   4  -5   7    0.24    1.79
   4  -5   7   -0.24    1.16
   4  -5   7    2.98    1.45
  -5   5  -7   11.77    2.75
  -5   5  -7   14.27    3.12
  -5   5  -7    9.81    2.41
   5  -5   7   15.94    3.18
   5  -5   7   11.30    2.11
   5  -5   7   11.59    2.30
  -6   5  -7    0.46    2.04
  -6   5  -7    0.39    1.53
  -6   5  -7    3.13    2.18
   6  -5   7    1.07    1.83
   6  -5   7   -0.05    1.34
   7   4  -7    4.17    1.81
   7   4  -7   -0.65    1.61
  -7  -4   7    0.08    1.45
  -7  -4   7    1.53    1.70
  -7  -4   7    1.32    1.84
  -7  -4   7    2.21    2.37
   6   4  -7   -0.78    1.29
   6   4  -7   -0.07    1.33
   6   4  -7    1.81    1.54
  -6  -4   7    1.79    1.44
  -6  -4   7    1.40    1.34
  -6  -4   7   -0.26    1.17
  -6  -4   7   -1.35    1.89
  -6  -4   7    0.95    1.48
  -6  -4   7    2.09    1.55
   5   4  -7    7.04    1.83
   5   4  -7    7.93    1.86
   5   4  -7   12.39    2.02
  -5  -4   7   10.72    1.93
  -5  -4   7    8.48    1.60
  -5  -4   7   14.51    2.25
  -5  -4   7    8.36    2.48
  -5  -4   7   12.59    1.88
  -5  -4   7   14.71    2.24
   4   4  -7   16.90    2.20
   4   4  -7   16.65    2.08
  -4  -4   7   17.52    1.95
  -4  -4   7   18.29    2.02
  -4  -4   7   19.29    2.03
  -4  -4   7   15.19    2.17
  -4  -4   7   14.65    2.15
  -4  -4   7   15.44    2.80
  -4  -4   7   18.30    2.23
   3   4  -7   95.93    4.76
   3   4  -7   83.44    4.75
  -3  -4   7   86.20    4.88
  -3  -4   7   82.95    5.58
  -3  -4   7   80.80    4.66
  -3  -4   7   88.89    4.42
  -3  -4   7   87.06    4.87
  -3  -4   7   88.83    4.54
  -3  -4   7   82.86    4.18
   2   4  -7   22.46    2.08
   2   4  -7   22.87    2.23
   2   4  -7   24.32    2.44
  -2  -4   7   24.48    1.89
  -2  -4   7   23.77    1.65
  -2  -4   7   24.33    2.30
  -2  -4   7   22.29    2.84
  -2  -4   7   20.53    2.24
  -2  -4   7   21.89    2.34
  -2  -4   7   22.00    2.00
   1   4  -7   33.25    2.34
   1   4  -7   36.00    2.75
   1   4  -7   33.79    2.83
  -1  -4   7   31.17    2.72
  -1  -4   7   36.14    2.01
  -1  -4   7   34.54    3.44
  -1  -4   7   33.36    2.25
  -1  -4   7   27.45    2.52
  -1  -4   7   32.36    1.98
  -1  -4   7   27.38    3.18
  -1  -4   7   37.31    2.95
   0   4  -7   52.20    2.86
   0   4  -7   50.08    2.94
   0   4  -7   50.44    3.32
   0   4  -7   46.29    3.27
   0  -4   7   50.28    2.74
   0  -4   7   51.56    2.99
   0  -4   7   55.22    4.15
   0  -4   7   47.88    3.14
   0  -4   7   55.44    3.46
   0  -4   7   54.30    3.55
   0  -4   7   48.44    3.93
  -1   4  -7   13.14    1.67
  -1   4  -7   14.34    1.53
  -1   4  -7   11.67    1.92
  -1   4  -7   10.83    1.73
   1  -4   7   13.90    1.88
   1  -4   7   12.65    1.53
   1  -4   7    9.47    2.19
   1  -4   7   13.89    1.63
   1  -4   7   11.84    1.87
   1  -4   7   11.96    2.18
  -2   4  -7  115.89    5.97
  -2   4  -7  125.20    6.70
  -2   4  -7  117.03    7.12
  -2   4  -7  125.66    6.48
   2  -4   7  125.63    5.97
   2  -4   7  137.36    7.35
   2  -4   7  131.26    7.19
   2  -4   7  121.74    6.55
   2  -4   7  121.01    5.34
   2  -4   7  128.49    6.08
   2  -4   7  120.66    5.59
  -3   4  -7   -0.16    1.81
  -3   4  -7    0.76    1.73
  -3   4  -7    0.90    1.29
  -3   4  -7    3.09    1.99
   3  -4   7    1.86    1.64
   3  -4   7    0.48    1.02
   3  -4   7   -0.82    1.07
   3  -4   7    0.23    1.10
   3  -4   7    0.09    1.98
   3  -4   7    3.67    1.62
  -4   4  -7   47.50    3.89
  -4   4  -7   45.94    4.67
  -4   4  -7   58.33    4.29
  -4   4  -7   49.78    4.79
   4  -4   7   51.88    3.53
   4  -4   7   53.64    3.36
   4  -4   7   51.68    3.43
   4  -4   7   57.12    4.10
   4  -4   7   43.17    4.40
  -5   4  -7   11.50    2.25
  -5   4  -7    8.79    1.82
   5  -4   7   12.58    2.86
   5  -4   7   13.08    2.09
  -6   4  -7   54.44    4.71
  -6   4  -7   60.66    4.07
  -6   4  -7   62.06    5.34
  -6   4  -7   57.45    5.11
   6  -4   7   50.38    4.23
   6  -4   7   61.90    5.36
   6  -4   7   57.78    3.79
  -7   4  -7    2.70    2.15
  -7   4  -7    0.54    2.15
  -7   4  -7    1.31    1.67
   7  -4   7    6.43    2.16
   7  -4   7    5.53    1.75
   6   3  -7   -0.59    1.46
   6   3  -7    0.94    1.52
   6   3  -7    1.78    1.56
   6   3  -7   -0.32    1.38
  -6  -3   7   -0.43    1.56
  -6  -3   7    0.92    1.51
  -6  -3   7   -0.37    1.23
  -6  -3   7    0.31    1.50
  -6  -3   7    0.60    1.98
  -6  -3   7    0.38    1.17
   5   3  -7   21.48    2.60
   5   3  -7   24.62    2.81
   5   3  -7   24.60    2.70
   5   3  -7   24.50    2.45
  -5  -3   7   22.26    2.57
  -5  -3   7   25.54    3.45
  -5  -3   7   27.20    2.52
  -5  -3   7   24.60    2.87
  -5  -3   7   23.72    2.42
  -5  -3   7   18.82    2.43
   4   3  -7   10.53    1.81
   4   3  -7    6.07    1.55
   4   3  -7   13.42    1.69
  -4  -3   7   10.48    1.59
  -4  -3   7   11.15    1.69
  -4  -3   7   10.65    1.92
  -4  -3   7    8.57    1.72
  -4  -3   7    9.33    1.74
  -4  -3   7   11.73    2.48
   3   3  -7   19.89    2.22
   3   3  -7   19.87    1.74
   3   3  -7   17.03    2.03
  -3  -3   7   20.45    2.20
  -3  -3   7   19.19    2.19
  -3  -3   7   20.75    1.89
  -3  -3   7   24.91    2.20
  -3  -3   7   17.26    2.72
  -3  -3   7   21.00    2.03
  -3  -3   7   13.58    1.90
   2   3  -7   13.84    1.75
   2   3  -7   14.99    1.81
  -2  -3   7   13.28    1.85
  -2  -3   7   11.86    1.64
  -2  -3   7   14.11    1.47
  -2  -3   7   16.06    1.65
  -2  -3   7   12.26    1.76
  -2  -3   7   12.48    2.15
   1   3  -7   67.07    3.81
   1   3  -7   74.08    3.72
   1   3  -7   64.78    3.74
  -1  -3   7   66.02    4.37
  -1  -3   7   65.21    2.98
  -1  -3   7   61.19    3.33
  -1  -3   7   71.23    3.87
  -1  -3   7   66.44    3.76
  -1  -3   7   65.35    3.18
  -1  -3   7   60.43    3.80
   0   3  -7  143.45    6.68
   0   3  -7  143.59    6.44
   0   3  -7  144.78    6.84
   0  -3   7  142.95    6.84
   0  -3   7  142.65    5.81
   0  -3   7  145.11    5.82
   0  -3   7  138.63    7.56
   0  -3   7  146.28    7.48
   0  -3   7  141.20    6.63
   0  -3   7  142.13    6.86
   0  -3   7  143.51    6.23
  -1   3  -7   82.95    4.00
  -1   3  -7   79.55    4.44
  -1   3  -7   80.04    4.07
  -1   3  -7   83.62    4.34
   1  -3   7   84.08    4.87
   1  -3   7   75.05    4.87
   1  -3   7   76.36    3.73
   1  -3   7   81.38    4.05
   1  -3   7   77.53    4.33
   1  -3   7   80.85    4.33
  -2   3  -7   36.76    2.49
  -2   3  -7   33.04    2.90
  -2   3  -7   29.62    2.72
  -2   3  -7   33.70    2.47
   2  -3   7   30.06    2.40
   2  -3   7   30.63    2.65
   2  -3   7   35.90    3.28
   2  -3   7   28.38    1.98
   2  -3   7   33.63    2.97
   2  -3   7   29.25    2.48
   2  -3   7   33.82    3.10
  -3   3  -7    6.55    1.23
  -3   3  -7    7.65    1.64
  -3   3  -7    8.77    1.73
  -3   3  -7    5.90    1.80
  -3   3  -7    7.67    1.99
  -3   3  -7    9.85    2.08
   3  -3   7   10.91    1.59
   3  -3   7    8.93    2.11
   3  -3   7    9.08    1.59
   3  -3   7   10.31    2.15
   3  -3   7   10.61    1.83
   3  -3   7    7.48    1.34
  -4   3  -7   10.23    1.53
  -4   3  -7    6.69    1.93
  -4   3  -7    7.46    2.22
  -4   3  -7    7.77    2.37
  -4   3  -7    7.60    1.69
   4  -3   7    7.35    1.56
   4  -3   7   14.05    2.40
   4  -3   7    7.59    1.55
   4  -3   7    9.77    1.65
   4  -3   7    4.42    2.08
   4  -3   7   10.14    1.84
  -5   3  -7    2.73    2.09
  -5   3  -7    4.91    2.17
  -5   3  -7    2.85    1.38
  -5   3  -7    1.58    1.46
   5  -3   7    1.61    1.25
   5  -3   7    0.05    2.03
   5  -3   7   -0.69    1.40
   5  -3   7    3.86    1.31
  -6   3  -7    4.52    2.24
  -6   3  -7    5.93    2.27
  -6   3  -7    3.63    1.76
  -6   3  -7    6.22    1.75
   6  -3   7    7.29    1.77
   6  -3   7    6.81    2.36
   6  -3   7    4.94    1.91
  -7   3  -7    0.40    1.92
  -7   3  -7    2.61    1.98
  -7   3  -7    3.38    1.82
  -7   3  -7   -1.78    1.41
   7  -3   7   -0.97    1.35
   7  -3   7   -1.40    1.83
   6   2  -7    0.00    1.45
   6   2  -7   -0.58    1.53
   6   2  -7    0.11    1.60
   6   2  -7    0.47    1.40
  -6  -2   7   -0.69    1.41
  -6  -2   7   -1.73    1.42
  -6  -2   7    0.65    1.53
  -6  -2   7    1.30    1.20
  -6  -2   7    3.38    2.24
   5   2  -7    2.94    1.43
   5   2  -7    3.31    1.59
   5   2  -7    2.98    1.48
   5   2  -7    7.20    1.64
  -5  -2   7    3.82    2.12
  -5  -2   7    4.07    1.37
  -5  -2   7    3.05    1.47
  -5  -2   7    2.97    1.24
  -5  -2   7    3.81    1.51
  -5  -2   7    2.47    1.61
   4   2  -7    9.72    1.83
   4   2  -7   11.41    1.69
   4   2  -7   10.91    1.90
   4   2  -7    7.05    1.67
  -4  -2   7    7.44    2.32
  -4  -2   7    7.79    1.51
  -4  -2   7   10.91    1.80
  -4  -2   7    7.97    1.47
  -4  -2   7   11.50    1.85
  -4  -2   7    8.11    1.84
   3   2  -7   20.63    2.26
   3   2  -7   24.22    1.99
   3   2  -7   20.39    2.18
  -3  -2   7   22.54    2.25
  -3  -2   7   19.79    2.08
  -3  -2   7   20.39    2.35
  -3  -2   7   20.96    1.99
  -3  -2   7   19.60    1.95
  -3  -2   7   21.20    2.27
  -3  -2   7   17.72    2.68
   2   2  -7  158.79    7.70
   2   2  -7  168.66    7.75
   2   2  -7  166.17    6.87
  -2  -2   7  170.17    7.74
  -2  -2   7  171.24    8.00
  -2  -2   7  167.09    7.11
  -2  -2   7  162.86    8.63
  -2  -2   7  179.48    8.05
  -2  -2   7  165.19    7.56
  -2  -2   7  181.29    7.31
   1   2  -7   74.15    3.89
   1   2  -7   75.50    3.28
   1   2  -7   84.13    3.99
  -1  -2   7   76.22    4.03
  -1  -2   7   71.34    3.62
  -1  -2   7   69.61    3.44
  -1  -2   7   69.46    3.08
  -1  -2   7   73.90    4.63
  -1  -2   7   67.87    3.93
  -1  -2   7   70.49    4.05
   0   2  -7  160.16    7.73
   0   2  -7  166.23    7.60
   0   2  -7  174.00    7.60
   0   2  -7  168.86    6.51
   0  -2   7  176.07    7.84
   0  -2   7  180.38    7.92
   0  -2   7  177.79    7.24
   0  -2   7  162.57    6.87
   0  -2   7  182.91    7.77
   0  -2   7  166.03    6.63
   0  -2   7  173.61    8.37
  -1   2  -7   12.27    1.55
  -1   2  -7   12.59    1.46
  -1   2  -7   12.49    1.32
  -1   2  -7   12.15    1.62
   1  -2   7   10.13    1.30
   1  -2   7    9.05    1.29
   1  -2   7   13.52    1.63
   1  -2   7   11.99    1.74
   1  -2   7   11.98    1.82
   1  -2   7   11.92    1.83
   1  -2   7    9.50    1.43
  -2   2  -7    2.61    1.24
  -2   2  -7    2.50    0.82
  -2   2  -7    3.25    1.08
  -2   2  -7    2.84    1.05
  -2   2  -7    1.67    1.05
   2  -2   7    3.65    1.34
   2  -2   7    2.09    1.07
   2  -2   7    2.52    1.10
   2  -2   7    1.46    1.11
   2  -2   7    1.77    1.01
   2  -2   7    2.47    0.77
   2  -2   7    0.81    1.06
  -3   2  -7  128.94    6.45
  -3   2  -7  136.58    6.75
  -3   2  -7  136.48    6.31
  -3   2  -7  140.06    6.87
  -3   2  -7  135.22    5.60
   3  -2   7  129.23    5.96
   3  -2   7  136.28    7.01
   3  -2   7  126.11    5.70
   3  -2   7  135.61    6.88
   3  -2   7  133.10    6.90
   3  -2   7  131.25    6.21
  -4   2  -7    4.36    1.18
  -4   2  -7    2.30    1.36
  -4   2  -7    2.43    2.02
  -4   2  -7    2.41    1.42
  -4   2  -7    1.13    1.80
  -4   2  -7    3.02    1.52
   4  -2   7    3.80    1.85
   4  -2   7    1.93    1.32
   4  -2   7    5.55    1.74
   4  -2   7    1.87    1.15
   4  -2   7    5.23    1.49
   4  -2   7    3.54    1.30
  -5   2  -7   63.88    3.83
  -5   2  -7   54.25    4.75
  -5   2  -7   59.03    3.87
  -5   2  -7   57.23    4.68
  -5   2  -7   59.37    3.41
   5  -2   7   58.90    3.43
   5  -2   7   53.35    4.97
   5  -2   7   55.70    3.78
   5  -2   7   57.81    3.56
  -6   2  -7    2.17    1.76
  -6   2  -7    1.46    1.37
  -6   2  -7    3.20    1.53
  -6   2  -7    2.71    1.96
   6  -2   7    0.73    1.61
   6  -2   7    1.12    1.31
   6  -2   7   -1.64    1.58
  -7   2  -7   81.29    4.77
  -7   2  -7   89.61    5.87
  -7   2  -7   94.83    5.83
  -7   2  -7   86.23    5.42
   7  -2   7   82.17    5.93
   7  -2   7   85.60    4.81
   7  -2   7   83.86    5.21
  -8   2  -7   -1.43    1.44
  -8   2  -7    0.37    1.82
  -8   2  -7    1.74    1.93
   8  -2   7    1.00    1.89
   8  -2   7    0.39    1.45
   6   1  -7    7.00    2.10
   6   1  -7   11.57    2.28
   6   1  -7    8.66    2.00
  -6  -1   7   10.96    2.26
  -6  -1   7    8.94    2.36
  -6  -1   7    7.82    2.75
  -6  -1   7    3.43    1.52
   5   1  -7    2.68    1.59
   5   1  -7    1.16    1.31
   5   1  -7    2.88    1.62
   5   1  -7    0.98    1.43
  -5  -1   7    0.03    1.19
  -5  -1   7    2.44    1.53
  -5  -1   7    1.85    1.09
  -5  -1   7   -0.31    1.19
  -5  -1   7    2.17    1.95
  -5  -1   7    0.16    1.35
   4   1  -7   48.58    3.58
   4   1  -7   53.45    3.35
   4   1  -7   46.32    3.42
   4   1  -7   50.13    3.57
  -4  -1   7   53.27    3.25
  -4  -1   7   47.40    3.49
  -4  -1   7   52.35    3.58
  -4  -1   7   50.13    3.78
  -4  -1   7   53.73    3.21
  -4  -1   7   49.66    4.56
   3   1  -7   42.26    3.04
   3   1  -7   42.71    2.84
   3   1  -7   38.88    2.99
   3   1  -7   40.70    3.07
  -3  -1   7   46.48    3.34
  -3  -1   7   45.89    2.92
  -3  -1   7   46.75    4.14
  -3  -1   7   43.16    3.08
  -3  -1   7   41.28    3.05
  -3  -1   7   44.71    2.87
  -3  -1   7   44.29    2.75
   2   1  -7   53.03    2.84
   2   1  -7   45.97    3.04
   2   1  -7   42.01    3.07
  -2  -1   7   43.32    3.81
  -2  -1   7   43.56    3.00
  -2  -1   7   42.92    2.97
  -2  -1   7   44.12    3.01
  -2  -1   7   46.75    3.07
  -2  -1   7   44.61    2.77
  -2  -1   7   47.08    2.71
   1   1  -7    1.72    0.76
   1   1  -7    0.66    0.86
   1   1  -7    1.92    1.00
  -1  -1   7    1.71    0.96
  -1  -1   7    2.05    1.19
  -1  -1   7    0.58    0.72
  -1  -1   7    0.04    0.67
  -1  -1   7   -0.76    0.91
  -1  -1   7    1.63    1.28
   0   1  -7   27.95    2.22
   0   1  -7   29.65    1.71
   0   1  -7   25.90    2.15
   0  -1   7   30.21    2.00
   0  -1   7   25.71    1.70
   0  -1   7   31.82    2.65
   0  -1   7   30.01    2.12
   0  -1   7   27.06    2.61
   0  -1   7   27.82    2.06
  -1   1  -7   99.92    3.97
  -1   1  -7  100.72    4.75
  -1   1  -7   99.16    4.79
  -1   1  -7   97.91    4.14
  -1   1  -7   98.60    4.78
   1  -1   7   84.50    4.80
   1  -1   7   96.16    4.30
   1  -1   7  104.50    4.83
   1  -1   7   99.50    4.84
   1  -1   7   92.51    5.16
   1  -1   7   94.16    4.39
  -2   1  -7  121.60    5.53
  -2   1  -7  120.33    4.87
  -2   1  -7  127.34    5.92
  -2   1  -7  129.91    5.87
  -2   1  -7  122.85    5.82
  -2   1  -7  127.59    4.92
   2  -1   7  117.94    5.86
   2  -1   7  132.18    5.59
   2  -1   7  117.53    6.16
   2  -1   7  128.07    6.05
   2  -1   7  117.47    5.38
   2  -1   7  126.83    5.10
  -3   1  -7   14.78    1.23
  -3   1  -7   16.33    1.78
  -3   1  -7   15.97    1.86
  -3   1  -7   13.45    1.90
  -3   1  -7   15.89    1.43
  -3   1  -7   12.55    1.64
   3  -1   7   13.37    1.73
   3  -1   7   15.08    1.61
   3  -1   7   14.64    1.77
   3  -1   7   13.84    1.98
   3  -1   7   13.55    1.66
   3  -1   7   15.17    1.89
  -4   1  -7   30.11    3.06
  -4   1  -7   35.75    2.81
  -4   1  -7   27.13    1.97
  -4   1  -7   30.38    3.03
  -4   1  -7   28.13    3.18
  -4   1  -7   33.27    2.34
   4  -1   7   41.79    2.15
   4  -1   7   31.18    2.41
   4  -1   7   25.57    3.19
   4  -1   7   31.48    2.71
   4  -1   7   31.73    2.56
   4  -1   7   30.93    2.62
   4  -1   7   35.17    2.66
  -5   1  -7    2.78    0.99
  -5   1  -7    2.02    1.64
  -5   1  -7    1.43    1.33
  -5   1  -7    1.05    1.39
  -5   1  -7    1.88    1.09
  -5   1  -7    3.86    1.99
   5  -1   7    0.67    1.34
   5  -1   7   -1.10    1.70
   5  -1   7    1.50    1.37
   5  -1   7    0.76    1.00
  -6   1  -7   15.03    2.42
  -6   1  -7   14.68    2.15
  -6   1  -7   15.21    2.18
  -6   1  -7   13.87    1.92
  -6   1  -7   15.67    2.69
   6  -1   7   14.39    2.67
   6  -1   7   12.27    2.25
   6  -1   7   10.07    1.83
  -7   1  -7   -0.95    1.27
  -7   1  -7    0.02    1.49
  -7   1  -7    2.26    1.42
  -7   1  -7    2.65    1.94
  -7   1  -7    1.67    1.66
   7  -1   7    3.00    1.59
   7  -1   7    0.66    1.77
   7  -1   7    5.03    2.21
  -8   1  -7    5.90    1.98
  -8   1  -7    8.02    2.18
  -8   1  -7    9.10    2.33
  -8   1  -7    6.16    1.80
   8  -1   7    6.09    1.85
   8  -1   7    4.78    2.21
   8  -1   7    2.66    2.13
  -9   1  -7   35.87    3.44
  -9   1  -7   36.70    4.21
   9  -1   7   31.96    3.66
   9  -1   7   36.66    3.31
  -6   0   7    4.29    2.09
  -6   0   7    1.57    1.73
   5   0  -7    2.57    1.72
   5   0  -7    2.12    1.63
   5   0  -7    3.47    1.75
   5   0  -7    4.79    1.63
  -5   0   7    4.39    1.46
  -5   0   7    5.96    2.52
  -5   0   7    4.87    1.83
  -5   0   7    1.67    1.52
   4   0  -7   10.57    1.98
   4   0  -7    6.51    1.74
   4   0  -7    8.95    1.70
   4   0  -7   12.41    1.94
  -4   0   7   11.89    2.01
  -4   0   7    9.75    1.66
  -4   0   7   12.05    1.80
  -4   0   7   15.06    2.10
  -4   0   7   11.06    2.07
  -4   0   7   13.43    2.75
   3   0  -7   -0.39    1.09
   3   0  -7    0.78    1.08
   3   0  -7    1.15    1.29
   3   0  -7    0.03    0.95
  -3   0   7    2.08    1.06
  -3   0   7    1.16    1.73
  -3   0   7   -0.29    1.02
  -3   0   7   -0.22    1.07
  -3   0   7   -0.28    1.11
  -3   0   7    1.60    0.96
   2   0  -7    0.62    0.88
   2   0  -7   -0.37    0.92
   2   0  -7    0.61    1.04
  -2   0   7    0.91    1.11
  -2   0   7   -0.16    1.30
  -2   0   7    0.39    0.83
  -2   0   7    0.67    0.87
  -2   0   7    0.43    0.95
  -2   0   7    0.65    0.91
  -2   0   7   -0.39    1.02
   1   0  -7  167.76    7.45
   1   0  -7  163.02    6.83
   1   0  -7  168.82    7.60
  -1   0   7  160.12    8.39
  -1   0   7  174.03    7.05
  -1   0   7  165.39    7.48
  -1   0   7  164.52    7.66
  -1   0   7  161.97    7.54
  -1   0   7  164.21    6.98
  -1   0   7  168.48    7.66
   0   0  -7   35.36    2.29
   0   0  -7   37.47    2.62
   0   0  -7   33.83    2.11
   0   0   7   37.90    3.10
   0   0   7   33.08    2.34
   0   0   7   32.42    1.97
   0   0   7   34.88    2.34
   0   0   7   30.18    2.73
   0   0   7   35.42    2.16
  -1   0  -7  211.52    8.14
  -1   0  -7  204.17    9.09
  -1   0  -7  208.14    9.02
  -1   0  -7  209.74    8.29
   1   0   7  220.87    9.12
   1   0   7  213.80    9.71
   1   0   7  205.14    9.22
   1   0   7  201.63    8.18
   1   0   7  215.29    8.50
   1   0   7  214.73    9.21
  -2   0  -7   10.59    1.26
  -2   0  -7   12.07    1.10
  -2   0  -7   10.27    1.41
  -2   0  -7   12.60    0.93
  -2   0  -7   11.81    1.18
  -2   0  -7   10.21    1.49
   2   0   7   11.02    1.45
   2   0   7    7.79    1.55
   2   0   7   13.34    1.16
   2   0   7   11.87    1.32
   2   0   7   12.65    1.56
   2   0   7   10.30    1.42
   2   0   7   14.52    1.40
  -3   0  -7   19.09    1.41
  -3   0  -7   14.72    1.83
  -3   0  -7   15.31    1.33
  -3   0  -7   18.92    1.97
  -3   0  -7   14.79    1.57
  -3   0  -7   14.38    1.62
   3   0   7   15.49    1.81
   3   0   7   18.00    1.80
   3   0   7   17.12    1.71
   3   0   7   16.67    1.99
   3   0   7   16.78    1.96
   3   0   7   18.53    1.62
  -4   0  -7  102.74    5.37
  -4   0  -7  104.92    4.52
  -4   0  -7  100.10    5.06
  -4   0  -7   95.12    5.65
  -4   0  -7   93.76    5.54
  -4   0  -7  102.87    4.52
   4   0   7  101.14    5.04
   4   0   7   93.41    5.82
   4   0   7  104.12    4.93
   4   0   7  110.04    4.84
   4   0   7  107.50    5.07
  -5   0  -7   33.42    2.47
  -5   0  -7   34.11    2.38
  -5   0  -7   31.19    3.17
  -5   0  -7   31.61    2.78
  -5   0  -7   30.42    2.94
  -5   0  -7   32.80    3.48
   5   0   7   35.67    2.65
   5   0   7   33.49    2.74
   5   0   7   31.23    2.71
   5   0   7   25.72    3.34
  -6   0  -7   43.13    3.26
  -6   0  -7   47.70    3.02
  -6   0  -7   46.96    4.27
  -6   0  -7   48.84    3.90
  -6   0  -7   43.55    3.57
  -6   0  -7   54.15    3.09
   6   0   7   45.12    3.00
   6   0   7   48.57    3.05
   6   0   7   46.47    3.56
   6   0   7   49.11    3.50
   6   0   7   48.12    4.49
  -7   0  -7    2.37    1.47
  -7   0  -7    6.63    1.59
  -7   0  -7    5.97    2.21
  -7   0  -7    4.21    1.67
  -7   0  -7    9.24    1.96
  -7   0  -7    5.22    1.44
   7   0   7    5.65    1.79
   7   0   7    6.78    1.53
   7   0   7   10.01    2.41
   7   0   7    8.73    1.84
  -8   0  -7   95.54    6.28
  -8   0  -7   98.09    5.85
  -8   0  -7  110.46    6.03
  -8   0  -7  103.76    5.44
   8   0   7  110.58    5.47
   8   0   7   92.92    5.76
   8   0   7   93.51    5.29
   8   0   7  106.95    6.67
  -9   0  -7    1.11    1.78
  -9   0  -7    3.31    2.02
  -9   0  -7    2.68    1.61
   9   0   7   -0.60    1.85
   9   0   7    1.26    1.65
   5  -1  -7    1.34    1.60
   5  -1  -7    5.14    1.61
   5  -1  -7    3.61    1.86
   5  -1  -7    2.91    1.89
  -5   1   7    2.55    1.89
  -5   1   7   -0.79    1.38
  -5   1   7    3.49    1.42
  -5   1   7    1.44    2.34
   4  -1  -7   -1.26    1.41
   4  -1  -7    3.28    1.62
   4  -1  -7    0.92    1.34
   4  -1  -7    2.11    1.32
  -4   1   7    0.36    2.05
  -4   1   7    1.43    1.31
  -4   1   7    4.00    1.70
  -4   1   7    0.44    1.05
   3  -1  -7   35.18    3.09
   3  -1  -7   32.30    2.75
   3  -1  -7   36.56    2.86
   3  -1  -7   33.98    3.00
  -3   1   7   27.03    2.90
  -3   1   7   34.46    2.99
  -3   1   7   32.54    3.76
  -3   1   7   27.77    2.68
  -3   1   7   38.53    2.81
  -3   1   7   33.37    2.72
   2  -1  -7   50.81    3.13
   2  -1  -7   53.09    3.44
   2  -1  -7   49.96    3.11
   2  -1  -7   45.65    3.15
  -2   1   7   50.38    3.62
  -2   1   7   43.40    2.85
  -2   1   7   51.06    3.44
  -2   1   7   47.87    2.95
  -2   1   7   48.91    3.19
  -2   1   7   52.41    4.06
  -2   1   7   48.71    3.14
   1  -1  -7   37.88    2.56
   1  -1  -7   39.45    2.19
   1  -1  -7   40.23    2.93
   1  -1  -7   39.06    2.48
  -1   1   7   38.62    2.36
  -1   1   7   34.10    2.66
  -1   1   7   41.59    2.64
  -1   1   7   33.26    3.03
  -1   1   7   43.82    2.55
  -1   1   7   36.90    3.50
  -1   1   7   37.05    2.54
   0  -1  -7   17.77    1.84
   0  -1  -7   15.45    1.58
   0  -1  -7   18.39    1.58
   0   1   7   16.34    1.65
   0   1   7   15.54    1.43
   0   1   7   17.99    1.70
   0   1   7   16.54    1.45
   0   1   7   13.37    2.04
   0   1   7   14.74    2.05
  -1  -1  -7    7.85    1.21
  -1  -1  -7    9.68    0.83
  -1  -1  -7    9.96    1.49
  -1  -1  -7   11.26    0.88
  -1  -1  -7   11.85    1.22
   1   1   7    8.82    1.06
   1   1   7    7.73    1.13
   1   1   7   11.51    1.43
   1   1   7   13.85    1.92
   1   1   7   13.64    1.82
   1   1   7    8.45    0.79
   1   1   7   11.02    1.31
  -2  -1  -7   51.44    2.23
  -2  -1  -7   46.95    2.90
  -2  -1  -7   52.44    2.48
  -2  -1  -7   49.54    2.53
  -2  -1  -7   48.12    2.35
  -2  -1  -7   48.84    2.61
  -2  -1  -7   51.44    3.17
   2   1   7   49.76    2.67
   2   1   7   48.35    3.12
   2   1   7   51.04    2.56
   2   1   7   57.51    3.37
   2   1   7   49.90    2.96
   2   1   7   43.15    2.74
   2   1   7   49.70    2.42
  -3  -1  -7  109.26    4.83
  -3  -1  -7  101.81    4.30
  -3  -1  -7  104.71    4.80
  -3  -1  -7  105.16    5.21
  -3  -1  -7  100.25    5.18
  -3  -1  -7  104.09    4.53
   3   1   7  108.19    4.98
   3   1   7  101.34    5.15
   3   1   7  104.85    5.20
   3   1   7  111.97    4.61
   3   1   7  105.59    4.73
   3   1   7  101.78    5.13
  -4  -1  -7    3.86    0.95
  -4  -1  -7    2.84    1.06
  -4  -1  -7    3.90    1.19
  -4  -1  -7    4.30    0.93
  -4  -1  -7    1.21    1.53
  -4  -1  -7    6.42    1.63
   4   1   7    2.66    1.31
   4   1   7    6.12    1.64
   4   1   7    4.33    1.16
   4   1   7    6.31    1.45
   4   1   7    4.68    0.97
  -5  -1  -7   36.41    2.41
  -5  -1  -7   34.08    3.49
  -5  -1  -7   36.01    2.42
  -5  -1  -7   38.54    2.84
  -5  -1  -7   35.53    3.61
  -5  -1  -7   34.51    2.83
   5   1   7   31.60    2.63
   5   1   7   34.52    2.79
   5   1   7   43.88    2.85
   5   1   7   30.06    3.38
  -6  -1  -7    1.25    1.21
  -6  -1  -7   -0.11    1.01
  -6  -1  -7    1.49    1.27
  -6  -1  -7    0.54    1.10
  -6  -1  -7    2.52    1.71
  -6  -1  -7    0.00    1.45
   6   1   7    1.61    1.28
   6   1   7    0.24    0.97
   6   1   7    2.13    1.27
   6   1   7    3.08    2.03
  -7  -1  -7   57.23    4.19
  -7  -1  -7   61.50    3.78
  -7  -1  -7   72.25    3.98
  -7  -1  -7   70.00    4.70
  -7  -1  -7   74.31    5.09
   7   1   7   70.50    4.17
   7   1   7   84.33    5.32
   7   1   7   65.50    3.94
   7   1   7   76.31    4.43
  -8  -1  -7    3.25    1.47
  -8  -1  -7    2.61    1.72
  -8  -1  -7    3.52    1.70
  -8  -1  -7    5.89    1.61
  -8  -1  -7    6.73    2.10
   8   1   7    4.07    1.82
   8   1   7    4.94    1.56
   8   1   7    3.97    2.02
   8   1   7    7.51    1.84
  -9  -1  -7   28.38    3.27
  -9  -1  -7   26.46    3.44
  -9  -1  -7   29.33    3.37
  -9  -1  -7   34.90    3.12
   9   1   7   28.30    2.90
   9   1   7   28.87    2.94
   9   1   7   22.22    3.32
   9   1   7   26.05    3.32
 -10  -1  -7   15.23    2.51
 -10  -1  -7   14.87    2.77
 -10  -1  -7   11.53    2.71
  10   1   7   18.75    2.60
  10   1   7   17.84    2.66
  10   1   7   12.49    2.84
  -5   2   7    7.32    2.37
   4  -2  -7    2.75    1.53
   4  -2  -7    4.04    1.83
  -4   2   7    0.16    2.19
  -4   2   7    3.86    1.43
  -4   2   7    4.52    1.90
  -4   2   7    2.56    1.43
   3  -2  -7   33.67    2.88
   3  -2  -7   29.89    2.90
   3  -2  -7   34.19    2.76
   3  -2  -7   22.76    2.75
  -3   2   7   29.26    3.05
  -3   2   7   27.52    3.89
  -3   2   7   29.51    2.61
  -3   2   7   31.62    2.74
   2  -2  -7    1.05    1.12
   2  -2  -7   -0.66    1.22
   2  -2  -7    0.29    0.94
   2  -2  -7   -0.91    0.99
  -2   2   7    0.37    1.10
  -2   2   7    0.72    0.89
  -2   2   7    0.40    1.11
  -2   2   7    0.28    1.60
  -2   2   7    1.58    1.02
  -2   2   7    1.84    1.52
  -2   2   7    0.43    1.01
   1  -2  -7    6.10    1.49
   1  -2  -7    6.67    1.27
   1  -2  -7    8.38    1.28
   1  -2  -7    6.65    1.40
  -1   2   7    8.12    2.02
  -1   2   7    7.09    1.12
  -1   2   7    6.15    2.00
  -1   2   7    6.12    1.22
  -1   2   7    6.33    1.34
  -1   2   7    7.70    1.35
  -1   2   7    7.24    1.28
   0  -2  -7  121.54    5.89
   0  -2  -7  124.48    5.05
   0  -2  -7  116.56    5.27
   0  -2  -7  118.75    5.48
   0   2   7  122.64    5.66
   0   2   7  112.90    6.12
   0   2   7  112.28    5.57
   0   2   7  116.38    5.14
   0   2   7  126.37    6.66
  -1  -2  -7   35.81    2.18
  -1  -2  -7   36.93    2.72
  -1  -2  -7   36.17    2.30
  -1  -2  -7   33.37    1.85
  -1  -2  -7   38.83    2.32
   1   2   7   33.53    1.92
   1   2   7   32.04    2.91
   1   2   7   31.24    2.95
   1   2   7   30.81    1.80
   1   2   7   34.04    2.13
   1   2   7   34.45    2.17
   1   2   7   33.25    2.24
  -2  -2  -7  246.49   10.80
  -2  -2  -7  248.40    9.83
  -2  -2  -7  261.92    9.62
  -2  -2  -7  250.96   10.11
  -2  -2  -7  257.73   10.55
   2   2   7  246.13   11.32
   2   2   7  243.26   10.46
   2   2   7  248.03   10.68
   2   2   7  253.00   10.12
   2   2   7  249.55   10.73
   2   2   7  254.00    9.77
   2   2   7  252.88    9.82
  -3  -2  -7    3.58    0.93
  -3  -2  -7    1.77    1.15
  -3  -2  -7    3.05    0.73
  -3  -2  -7    3.48    0.67
  -3  -2  -7    3.77    1.14
  -3  -2  -7    2.81    0.83
  -3  -2  -7    4.62    0.91
   3   2   7    3.78    1.10
   3   2   7    3.38    1.14
   3   2   7    3.25    0.83
   3   2   7    3.70    0.86
   3   2   7    2.50    0.71
   3   2   7    2.85    1.42
   3   2   7    3.11    0.92
  -4  -2  -7   54.90    3.04
  -4  -2  -7   59.15    3.22
  -4  -2  -7   57.18    3.07
  -4  -2  -7   58.85    2.89
  -4  -2  -7   59.57    3.94
  -4  -2  -7   55.25    3.82
   4   2   7   57.60    3.15
   4   2   7   60.95    3.55
   4   2   7   58.21    3.09
   4   2   7   60.27    3.68
   4   2   7   56.07    3.29
  -5  -2  -7   35.04    3.53
  -5  -2  -7   35.19    2.32
  -5  -2  -7   35.14    2.53
  -5  -2  -7   31.99    2.64
  -5  -2  -7   36.86    3.51
   5   2   7   35.21    2.85
   5   2   7   28.65    3.14
   5   2   7   40.61    2.96
   5   2   7   34.48    2.62
  -6  -2  -7   83.31    5.42
  -6  -2  -7   81.45    4.66
  -6  -2  -7   86.43    4.44
  -6  -2  -7   92.01    5.29
  -6  -2  -7   84.56    4.30
   6   2   7   82.93    4.57
   6   2   7   95.26    5.63
   6   2   7   89.16    4.59
   6   2   7   84.95    4.54
  -7  -2  -7   35.04    2.82
  -7  -2  -7   32.79    2.89
  -7  -2  -7   38.85    3.57
  -7  -2  -7   34.70    3.50
  -7  -2  -7   36.06    3.16
   7   2   7   35.75    3.12
   7   2   7   39.45    3.14
   7   2   7   37.01    3.79
  -8  -2  -7   20.82    2.59
  -8  -2  -7   20.48    2.14
  -8  -2  -7   21.56    2.83
  -8  -2  -7   26.37    3.17
  -8  -2  -7   20.28    2.42
  -8  -2  -7   18.56    2.28
   8   2   7   24.05    3.17
   8   2   7   21.24    2.61
   8   2   7   22.99    2.55
   8   2   7   17.65    2.33
  -9  -2  -7   95.02    5.30
  -9  -2  -7   97.14    6.22
  -9  -2  -7   97.00    6.00
  -9  -2  -7   90.71    5.32
  -9  -2  -7   92.84    5.74
   9   2   7   99.93    6.26
   9   2   7   85.01    5.55
   9   2   7  102.04    5.43
   9   2   7  107.27    5.45
 -10  -2  -7    1.54    1.61
 -10  -2  -7    2.07    1.77
 -10  -2  -7    0.77    1.96
 -10  -2  -7    0.32    1.64
  10   2   7    0.96    1.65
  10   2   7   -0.17    1.96
  10   2   7    3.45    1.79
   4  -3  -7   -1.09    1.40
   4  -3  -7   -0.25    1.72
  -4   3   7    1.12    1.34
  -4   3   7   -1.16    1.68
  -4   3   7    0.78    2.42
   3  -3  -7   -1.99    1.40
   3  -3  -7    0.12    1.31
  -3   3   7    3.07    2.46
  -3   3   7   -0.62    1.44
  -3   3   7   -0.20    1.04
   2  -3  -7   12.61    1.95
   2  -3  -7   15.97    2.23
  -2   3   7   15.64    2.16
  -2   3   7   14.91    3.07
  -2   3   7   14.24    1.84
   1  -3  -7   61.16    3.82
   1  -3  -7   65.58    3.66
  -1   3   7   62.91    3.53
  -1   3   7   63.31    3.50
  -1   3   7   64.86    3.86
  -1   3   7   60.64    4.69
  -1   3   7   67.53    4.90
   0  -3  -7   89.78    4.04
   0  -3  -7   96.25    4.56
   0  -3  -7  100.11    4.95
   0  -3  -7   86.98    4.47
   0  -3  -7   86.88    4.35
   0  -3  -7   87.03    4.01
   0   3   7   92.08    4.13
   0   3   7   88.51    4.62
   0   3   7   92.20    4.51
   0   3   7   95.24    5.81
   0   3   7   93.80    5.50
  -1  -3  -7   46.31    2.96
  -1  -3  -7   42.67    2.52
  -1  -3  -7   41.49    2.50
  -1  -3  -7   43.86    2.73
  -1  -3  -7   46.67    2.33
   1   3   7   37.61    3.49
   1   3   7   41.86    2.53
   1   3   7   44.32    3.60
   1   3   7   40.82    2.35
   1   3   7   43.50    2.47
   1   3   7   45.15    2.28
   1   3   7   42.01    2.53
  -2  -3  -7    0.62    0.97
  -2  -3  -7    1.09    0.90
  -2  -3  -7   -0.86    0.73
  -2  -3  -7    0.62    0.68
  -2  -3  -7   -0.18    0.63
  -2  -3  -7   -0.15    0.85
   2   3   7    1.00    0.57
   2   3   7   -2.10    0.84
   2   3   7    0.58    0.67
   2   3   7   -0.76    1.02
   2   3   7    1.91    1.42
   2   3   7    0.67    0.68
   2   3   7   -0.03    0.58
  -3  -3  -7    3.78    0.98
  -3  -3  -7    3.26    0.76
  -3  -3  -7    2.67    0.83
  -3  -3  -7    4.38    1.26
  -3  -3  -7    3.19    0.85
  -3  -3  -7    4.01    1.14
  -3  -3  -7    5.96    1.21
   3   3   7    4.26    0.73
   3   3   7    5.62    1.22
   3   3   7    0.96    1.27
   3   3   7    3.60    0.84
   3   3   7    4.37    1.29
  -4  -3  -7   58.59    4.15
  -4  -3  -7   57.47    4.02
  -4  -3  -7   68.28    3.48
  -4  -3  -7   68.33    3.13
  -4  -3  -7   64.69    3.41
  -4  -3  -7   70.49    3.32
  -4  -3  -7   60.63    3.32
   4   3   7   58.30    3.48
   4   3   7   62.60    3.42
   4   3   7   63.32    3.54
   4   3   7   62.86    3.11
   4   3   7   63.46    3.88
   4   3   7   65.21    3.24
  -5  -3  -7    0.09    0.89
  -5  -3  -7    1.52    1.52
  -5  -3  -7    2.25    1.50
  -5  -3  -7    1.99    1.16
  -5  -3  -7    1.25    1.00
  -5  -3  -7    1.62    1.06
  -5  -3  -7    2.06    1.01
   5   3   7    0.82    0.98
   5   3   7    1.63    1.20
   5   3   7    0.50    1.38
   5   3   7    1.15    1.33
  -6  -3  -7   27.65    3.13
  -6  -3  -7   27.95    2.28
  -6  -3  -7   25.90    2.37
  -6  -3  -7   25.51    2.84
  -6  -3  -7   24.16    2.40
  -6  -3  -7   23.50    2.38
   6   3   7   27.44    2.52
   6   3   7   29.43    3.07
   6   3   7   30.19    2.61
   6   3   7   26.86    2.51
  -7  -3  -7   -0.16    1.55
  -7  -3  -7    2.68    1.21
  -7  -3  -7    0.86    1.15
  -7  -3  -7    1.56    1.20
  -7  -3  -7    0.50    1.52
  -7  -3  -7    2.38    1.26
   7   3   7   -0.36    1.14
   7   3   7    1.40    1.45
   7   3   7    0.56    1.72
   7   3   7    0.55    1.24
  -8  -3  -7   77.32    4.15
  -8  -3  -7   78.29    5.21
  -8  -3  -7   82.36    5.26
  -8  -3  -7   74.74    4.83
  -8  -3  -7   77.06    4.32
  -8  -3  -7   79.69    4.61
   8   3   7   74.35    4.57
   8   3   7   75.81    4.61
   8   3   7   92.66    5.41
  -9  -3  -7    7.15    2.21
  -9  -3  -7    7.24    1.79
  -9  -3  -7    6.06    1.83
  -9  -3  -7    8.33    2.06
  -9  -3  -7    7.35    2.11
   9   3   7    8.92    2.15
   9   3   7    8.07    2.34
   9   3   7   10.67    2.14
   9   3   7    8.89    1.98
 -10  -3  -7   50.61    4.64
 -10  -3  -7   47.01    4.61
 -10  -3  -7   43.19    3.76
 -10  -3  -7   44.12    3.93
  10   3   7   45.26    4.58
  10   3   7   43.51    4.16
  10   3   7   49.45    3.89
  10   3   7   49.36    4.07
   3  -4  -7    2.97    1.81
   3  -4  -7    5.01    1.81
  -3   4   7    3.28    1.35
  -3   4   7    2.27    1.80
  -3   4   7    2.74    2.72
   2  -4  -7   71.22    4.14
   2  -4  -7   71.79    4.49
  -2   4   7   60.53    6.15
  -2   4   7   69.25    4.54
  -2   4   7   68.52    4.02
   1  -4  -7    6.82    1.65
   1  -4  -7    5.07    1.45
  -1   4   7    7.33    2.56
  -1   4   7    7.52    1.62
  -1   4   7    7.34    1.47
  -1   4   7    3.11    2.14
   0  -4  -7   27.60    2.43
   0  -4  -7   30.16    2.21
   0  -4  -7   27.61    2.05
   0  -4  -7   30.00    2.72
   0   4   7   28.69    2.45
   0   4   7   32.56    3.43
   0   4   7   29.51    3.60
  -1  -4  -7   64.77    3.75
  -1  -4  -7   68.81    4.10
  -1  -4  -7   68.16    3.37
  -1  -4  -7   66.81    3.40
   1   4   7   68.79    3.52
   1   4   7   75.48    4.89
   1   4   7   72.42    3.43
   1   4   7   71.52    3.73
   1   4   7   74.65    4.87
  -2  -4  -7   11.90    1.41
  -2  -4  -7   10.05    1.43
  -2  -4  -7   11.66    1.75
  -2  -4  -7    9.41    1.26
   2   4   7   11.70    2.02
   2   4   7   10.39    1.27
   2   4   7   11.23    2.03
   2   4   7   10.90    1.41
  -3  -4  -7  181.01    7.68
  -3  -4  -7  186.12    7.85
  -3  -4  -7  185.26    7.45
  -3  -4  -7  180.66    7.48
  -3  -4  -7  174.15    8.34
   3   4   7  177.32    7.42
   3   4   7  178.97    7.81
   3   4   7  192.27    8.49
   3   4   7  190.61    8.76
  -4  -4  -7    4.97    1.11
  -4  -4  -7    8.58    1.13
  -4  -4  -7    7.81    1.37
  -4  -4  -7    7.04    1.18
  -4  -4  -7    8.65    1.79
  -4  -4  -7    8.20    1.33
  -4  -4  -7    6.85    1.76
   4   4   7    7.62    1.39
   4   4   7    7.27    1.80
   4   4   7    5.38    1.27
  -5  -4  -7   68.87    3.67
  -5  -4  -7   69.22    4.88
  -5  -4  -7   69.39    3.82
  -5  -4  -7   67.58    4.24
  -5  -4  -7   65.23    3.65
  -5  -4  -7   72.77    3.79
  -5  -4  -7   66.55    3.40
   5   4   7   72.42    4.27
   5   4   7   68.58    3.76
   5   4   7   71.30    3.74
   5   4   7   67.59    3.60
  -6  -4  -7   27.85    3.22
  -6  -4  -7   22.69    2.30
  -6  -4  -7   23.07    2.26
  -6  -4  -7   25.89    2.21
  -6  -4  -7   21.88    2.24
  -6  -4  -7   23.51    2.64
  -6  -4  -7   25.33    2.29
   6   4   7   21.18    2.24
   6   4   7   24.03    2.29
   6   4   7   22.09    2.60
   6   4   7   25.49    2.57
  -7  -4  -7   79.64    4.61
  -7  -4  -7   76.67    4.33
  -7  -4  -7   88.23    4.80
  -7  -4  -7   84.50    5.40
  -7  -4  -7   85.61    5.11
  -7  -4  -7   81.27    4.37
  -7  -4  -7   82.23    4.80
   7   4   7   86.41    4.65
   7   4   7   81.11    4.61
   7   4   7   82.02    4.67
   7   4   7  104.38    5.60
  -8  -4  -7   11.62    2.08
  -8  -4  -7   15.46    1.92
  -8  -4  -7   14.16    2.39
  -8  -4  -7   14.54    2.00
  -8  -4  -7   14.92    2.28
  -8  -4  -7   16.12    2.63
   8   4   7   15.23    2.21
   8   4   7   13.50    2.19
  -9  -4  -7   27.02    2.86
  -9  -4  -7   29.21    3.47
  -9  -4  -7   27.03    3.34
  -9  -4  -7   24.28    3.03
  -9  -4  -7   29.38    3.08
   9   4   7   31.57    3.50
   9   4   7   32.15    3.27
   9   4   7   27.18    2.96
 -10  -4  -7   55.59    4.34
 -10  -4  -7   56.06    4.68
 -10  -4  -7   53.94    4.92
 -10  -4  -7   55.85    4.93
 -10  -4  -7   52.22    4.12
  10   4   7   58.50    4.49
  10   4   7   59.41    4.39
  10   4   7   52.30    4.48
  10   4   7   57.35    4.98
   2  -5  -7    2.49    1.60
  -2   5   7    0.82    1.51
  -2   5   7    1.90    1.29
  -2   5   7    1.69    2.84
   1  -5  -7    3.78    1.58
   1  -5  -7    1.11    1.37
  -1   5   7    4.77    1.54
  -1   5   7    1.70    2.31
  -1   5   7    2.88    1.26
   0  -5  -7   48.47    3.41
   0  -5  -7   55.87    3.71
   0  -5  -7   57.05    3.24
   0   5   7   55.77    3.31
   0   5   7   50.30    5.07
   0   5   7   53.68    4.90
  -1  -5  -7   50.14    3.17
  -1  -5  -7   52.91    3.50
  -1  -5  -7   50.68    2.91
  -1  -5  -7   46.64    2.79
   1   5   7   53.88    4.48
   1   5   7   51.85    3.03
   1   5   7   49.68    4.55
  -2  -5  -7   58.47    3.69
  -2  -5  -7   55.39    3.41
  -2  -5  -7   57.33    3.11
  -2  -5  -7   60.81    3.19
   2   5   7   58.17    3.24
   2   5   7   57.84    3.11
   2   5   7   60.42    4.24
   2   5   7   54.19    4.35
  -3  -5  -7    0.73    0.87
  -3  -5  -7   -0.23    0.99
  -3  -5  -7    0.36    1.16
  -3  -5  -7   -1.75    0.76
  -3  -5  -7   -0.86    0.82
   3   5   7    0.16    0.85
   3   5   7    2.96    1.53
   3   5   7    1.21    1.35
   3   5   7    0.94    0.87
  -4  -5  -7    1.14    0.97
  -4  -5  -7    1.10    0.98
  -4  -5  -7    0.69    0.87
  -4  -5  -7    0.46    1.41
  -4  -5  -7    1.52    1.07
   4   5   7    0.52    1.23
   4   5   7    0.38    0.88
   4   5   7    0.70    0.95
   4   5   7    1.60    1.37
  -5  -5  -7   24.46    2.07
  -5  -5  -7   24.19    2.23
  -5  -5  -7   23.38    2.20
  -5  -5  -7   25.20    2.31
  -5  -5  -7   28.91    3.33
  -5  -5  -7   24.22    2.17
   5   5   7   28.99    2.80
   5   5   7   27.24    2.31
   5   5   7   29.46    2.38
  -6  -5  -7    3.41    1.11
  -6  -5  -7    2.67    1.25
  -6  -5  -7    8.08    2.24
  -6  -5  -7    2.25    1.12
  -6  -5  -7    1.47    1.19
  -6  -5  -7    2.94    1.17
   6   5   7    1.39    1.10
   6   5   7    7.95    1.56
  -7  -5  -7   14.99    2.12
  -7  -5  -7   12.11    1.92
  -7  -5  -7   10.38    1.82
  -7  -5  -7   20.48    2.84
  -7  -5  -7   12.81    1.92
  -7  -5  -7   16.04    1.97
  -7  -5  -7   16.57    1.94
   7   5   7   19.97    2.40
   7   5   7   14.29    2.04
   7   5   7   13.12    2.03
  -8  -5  -7   -0.17    1.53
  -8  -5  -7    2.26    1.48
  -8  -5  -7   -0.38    1.20
  -8  -5  -7    0.84    1.37
  -8  -5  -7   -2.32    1.52
  -8  -5  -7    0.90    1.12
  -8  -5  -7    0.73    1.28
   8   5   7    1.73    1.54
   8   5   7    5.08    1.65
   8   5   7    1.69    1.43
  -9  -5  -7   52.05    4.04
  -9  -5  -7   43.91    4.09
  -9  -5  -7   50.51    3.84
  -9  -5  -7   52.02    3.75
  -9  -5  -7   60.11    4.86
  -9  -5  -7   53.00    4.41
   9   5   7   52.32    3.96
   9   5   7   50.28    4.12
 -10  -5  -7    7.49    2.10
 -10  -5  -7   10.79    2.18
 -10  -5  -7   14.76    2.75
 -10  -5  -7   11.69    2.17
 -10  -5  -7    9.40    2.42
  10   5   7    9.26    2.32
  10   5   7    8.52    2.24
  10   5   7    9.06    2.09
   1  -6  -7   60.03    4.09
  -1   6   7   52.51    6.04
  -1   6   7   60.37    3.68
   0  -6  -7   11.56    1.72
   0  -6  -7    9.27    1.80
   0   6   7    9.48    1.73
   0   6   7    9.55    3.08
   0   6   7   11.14    3.18
  -1  -6  -7   57.74    3.37
  -1  -6  -7   53.29    3.50
  -1  -6  -7   59.89    3.84
  -1  -6  -7   56.89    3.20
   1   6   7   63.50    5.18
   1   6   7   48.88    5.07
  -2  -6  -7   47.14    3.20
  -2  -6  -7   54.23    3.00
  -2  -6  -7   51.38    3.07
  -2  -6  -7   58.62    3.70
   2   6   7   51.52    2.98
   2   6   7   53.72    4.38
   2   6   7   47.93    4.49
   2   6   7   49.49    3.18
  -3  -6  -7    0.39    0.94
  -3  -6  -7    2.42    0.97
  -3  -6  -7    3.03    1.14
  -3  -6  -7    3.04    1.43
   3   6   7    1.24    1.53
   3   6   7    1.87    1.07
   3   6   7    2.82    1.02
   3   6   7    0.48    1.57
  -4  -6  -7  103.10    4.87
  -4  -6  -7  102.51    5.09
  -4  -6  -7   93.73    4.75
  -4  -6  -7  101.48    5.88
  -4  -6  -7   95.48    4.96
   4   6   7   91.45    4.96
   4   6   7  100.25    5.46
   4   6   7  104.04    4.78
   4   6   7  111.85    5.89
  -5  -6  -7    2.87    1.22
  -5  -6  -7    2.66    1.14
  -5  -6  -7    4.90    2.12
  -5  -6  -7    6.21    1.36
  -5  -6  -7    3.85    1.18
  -5  -6  -7    2.62    1.23
   5   6   7    2.95    1.30
   5   6   7    3.95    1.31
   5   6   7    5.60    1.33
   5   6   7    3.30    1.50
  -6  -6  -7   62.26    3.53
  -6  -6  -7   57.68    3.70
  -6  -6  -7   65.90    3.72
  -6  -6  -7   53.68    3.47
  -6  -6  -7   69.64    5.47
  -6  -6  -7   66.41    3.90
   6   6   7   66.20    3.68
   6   6   7   64.82    4.18
  -7  -6  -7   13.66    2.55
  -7  -6  -7   12.72    1.88
  -7  -6  -7    9.28    1.71
  -7  -6  -7   13.60    2.05
  -7  -6  -7    9.40    1.77
  -7  -6  -7   15.09    1.91
   7   6   7   14.75    2.23
   7   6   7    8.79    1.72
   7   6   7   10.82    1.81
  -8  -6  -7   98.27    5.44
  -8  -6  -7   90.99    5.41
  -8  -6  -7  114.35    6.54
  -8  -6  -7   96.16    4.98
  -8  -6  -7   87.39    5.07
  -8  -6  -7   92.94    4.96
   8   6   7   91.32    5.11
   8   6   7  100.31    5.43
   8   6   7  101.48    5.28
  -9  -6  -7    3.78    1.69
  -9  -6  -7    0.94    1.32
  -9  -6  -7   -0.13    1.21
  -9  -6  -7    2.86    1.68
  -9  -6  -7    2.92    1.97
   9   6   7    1.31    1.77
   9   6   7   -1.07    1.53
 -10  -6  -7   41.11    3.98
 -10  -6  -7   44.10    4.65
 -10  -6  -7   47.76    3.88
  10   6   7   46.88    4.15
  10   6   7   47.29    3.99
   0  -7  -7   -0.15    1.19
   0  -7  -7    2.01    1.55
   0   7   7    0.98    2.74
   0   7   7    5.69    3.08
   0   7   7    0.19    1.22
  -1  -7  -7   29.59    2.72
  -1  -7  -7   24.45    2.65
   1   7   7   32.70    4.43
   1   7   7   27.91    3.92
  -2  -7  -7   21.39    2.45
  -2  -7  -7   21.38    2.25
  -2  -7  -7   21.68    2.14
   2   7   7   23.02    3.20
   2   7   7   20.87    2.31
   2   7   7   26.53    3.65
  -3  -7  -7   68.40    3.71
  -3  -7  -7   61.04    3.95
  -3  -7  -7   71.07    3.86
  -3  -7  -7   64.24    4.43
  -3  -7  -7   66.86    3.64
   3   7   7   62.18    4.87
   3   7   7   69.60    4.01
   3   7   7   78.50    5.08
   3   7   7   63.07    3.59
  -4  -7  -7    2.19    2.27
  -4  -7  -7    3.51    1.25
  -4  -7  -7    2.95    1.97
  -4  -7  -7    3.88    1.33
  -4  -7  -7    1.12    1.12
   4   7   7    2.34    1.64
   4   7   7    3.48    1.21
   4   7   7    3.68    1.78
   4   7   7    3.30    1.32
  -5  -7  -7   12.66    1.82
  -5  -7  -7   11.50    1.80
  -5  -7  -7   13.53    2.83
  -5  -7  -7   14.98    1.84
  -5  -7  -7   14.38    1.78
   5   7   7   11.66    2.18
   5   7   7   10.47    1.68
   5   7   7   14.49    2.21
   5   7   7   11.57    1.79
  -6  -7  -7    0.86    1.20
  -6  -7  -7    0.73    1.02
  -6  -7  -7   -0.21    1.83
  -6  -7  -7    0.92    1.21
  -6  -7  -7    0.91    1.17
  -6  -7  -7    2.18    1.27
   6   7   7    2.68    1.66
   6   7   7    3.43    1.38
   6   7   7    0.58    1.17
  -7  -7  -7   19.33    2.21
  -7  -7  -7   15.56    2.02
  -7  -7  -7   21.10    2.28
  -7  -7  -7   15.89    2.19
  -7  -7  -7   24.05    3.33
  -7  -7  -7   16.38    2.24
   7   7   7   18.86    2.23
   7   7   7   17.23    2.48
   7   7   7   18.80    2.28
  -8  -7  -7    1.19    1.39
  -8  -7  -7    2.09    1.43
  -8  -7  -7    4.41    1.66
  -8  -7  -7    1.23    1.93
  -8  -7  -7    1.64    1.28
  -8  -7  -7    4.60    1.57
   8   7   7    4.00    1.58
   8   7   7    3.83    1.51
   8   7   7    0.44    1.60
  -9  -7  -7    6.49    1.83
  -9  -7  -7    4.94    1.91
  -9  -7  -7    4.00    2.11
  -9  -7  -7    4.93    1.75
  -9  -7  -7    7.64    1.80
  -9  -7  -7    2.35    1.71
   9   7   7    5.80    1.97
   9   7   7    2.83    1.60
 -10  -7  -7   41.72    3.68
 -10  -7  -7   37.59    3.79
 -10  -7  -7   44.17    3.64
 -10  -7  -7   40.88    4.48
  10   7   7   40.10    3.68
  10   7   7   38.00    3.94
  -1  -8  -7   10.39    4.43
  -1  -8  -7   12.27    2.04
  -1  -8  -7   12.75    2.30
   1   8   7   12.98    3.55
   1   8   7   15.66    2.15
   1   8   7   14.30    3.48
  -2  -8  -7   64.51    4.20
  -2  -8  -7   67.36    3.98
  -2  -8  -7   63.63    7.08
  -2  -8  -7   64.95    3.68
   2   8   7   56.79    3.97
   2   8   7   61.37    5.93
   2   8   7   65.20    5.45
  -3  -8  -7    6.98    3.46
  -3  -8  -7    5.77    1.49
  -3  -8  -7    6.45    1.47
  -3  -8  -7   10.72    1.73
  -3  -8  -7    7.96    1.84
   3   8   7    6.02    2.34
   3   8   7    9.77    2.46
   3   8   7    7.53    1.54
   3   8   7    5.71    1.65
  -4  -8  -7   11.27    2.04
  -4  -8  -7   10.43    1.79
  -4  -8  -7   12.68    3.38
  -4  -8  -7   10.77    1.82
  -4  -8  -7   13.39    1.93
   4   8   7   14.04    1.90
   4   8   7   12.55    1.97
   4   8   7    9.78    2.30
   4   8   7   14.18    2.63
  -5  -8  -7   37.27    3.09
  -5  -8  -7   35.93    3.12
  -5  -8  -7   40.51    3.17
   5   8   7   32.22    3.43
   5   8   7   46.79    3.26
   5   8   7   43.05    3.88
   5   8   7   39.78    3.14
  -6  -8  -7   13.13    1.99
  -6  -8  -7   11.36    1.81
  -6  -8  -7   17.93    3.13
  -6  -8  -7   11.75    1.99
  -6  -8  -7   11.29    1.92
   6   8   7   11.01    1.89
   6   8   7   13.21    1.92
   6   8   7   16.56    2.45
  -7  -8  -7   38.53    3.23
  -7  -8  -7   39.06    3.46
  -7  -8  -7   44.39    3.34
  -7  -8  -7   51.14    4.72
  -7  -8  -7   36.40    3.19
  -7  -8  -7   45.26    3.62
   7   8   7   42.70    3.44
   7   8   7   37.83    3.62
   7   8   7   41.15    3.55
  -8  -8  -7    6.85    1.98
  -8  -8  -7    8.02    1.85
  -8  -8  -7    9.22    1.87
  -8  -8  -7    8.75    1.90
  -8  -8  -7   11.66    2.71
  -8  -8  -7    9.41    1.88
   8   8   7    8.12    1.95
   8   8   7    9.89    2.09
   8   8   7    9.48    1.90
   8   8   7    7.15    2.09
  -9  -8  -7   79.13    4.87
  -9  -8  -7   87.39    5.96
  -9  -8  -7   79.48    4.76
  -9  -8  -7   81.74    5.14
  -9  -8  -7   74.51    4.99
  -9  -8  -7   85.40    4.80
   9   8   7   79.72    4.79
   9   8   7   68.10    4.81
   9   8   7   77.32    5.06
 -10  -8  -7   -0.36    1.80
 -10  -8  -7    1.88    2.11
 -10  -8  -7   -2.95    1.39
 -10  -8  -7    0.79    1.55
 -10  -8  -7    1.53    1.50
  10   8   7   -0.03    1.85
  10   8   7    0.38    1.60
  -2  -9  -7    3.10    1.55
  -2  -9  -7    2.88    1.76
   2   9   7    4.13    2.82
   2   9   7    1.59    2.63
  -3  -9  -7    4.21    1.81
  -3  -9  -7   10.15    1.96
  -3  -9  -7    6.75    3.46
  -3  -9  -7    7.86    1.67
  -3  -9  -7    5.99    1.67
   3   9   7    8.84    2.54
   3   9   7    9.09    1.96
   3   9   7   15.23    3.29
  -4  -9  -7   26.40    4.32
  -4  -9  -7   31.25    2.92
  -4  -9  -7   26.23    2.97
  -4  -9  -7   33.04    3.06
  -4  -9  -7   31.63    2.77
   4   9   7   29.42    3.10
   4   9   7   28.55    3.57
   4   9   7   32.99    3.98
   4   9   7   29.48    2.76
  -5  -9  -7    1.30    1.43
  -5  -9  -7    3.63    1.31
  -5  -9  -7    0.96    1.47
  -5  -9  -7    1.29    1.38
   5   9   7    2.11    1.35
   5   9   7    3.56    2.03
   5   9   7    1.59    1.49
   5   9   7    1.77    1.82
  -6  -9  -7   12.30    2.05
  -6  -9  -7   19.84    2.51
  -6  -9  -7   17.79    2.32
   6   9   7   14.93    2.67
   6   9   7   16.04    2.36
   6   9   7   14.39    2.18
  -7  -9  -7    3.08    1.49
  -7  -9  -7    1.97    1.42
  -7  -9  -7   -0.37    1.26
  -7  -9  -7    0.75    1.60
   7   9   7   -0.30    1.34
   7   9   7    1.11    1.44
   7   9   7    1.33    1.83
  -8  -9  -7   22.31    2.72
  -8  -9  -7   23.60    2.72
  -8  -9  -7   22.67    2.88
  -8  -9  -7   23.33    2.71
  -8  -9  -7   29.12    3.76
   8   9   7   19.98    2.76
   8   9   7   28.52    3.29
   8   9   7   26.99    2.81
  -9  -9  -7    0.53    1.46
  -9  -9  -7    1.33    1.44
  -9  -9  -7    1.50    2.09
  -9  -9  -7    2.54    1.62
  -9  -9  -7    1.93    1.77
   9   9   7    2.46    1.57
   9   9   7    0.53    1.51
   9   9   7    0.74    1.84
  -5 -10  -7    8.78    1.84
  -5 -10  -7   11.01    2.17
  -5 -10  -7   12.44    2.18
  -5 -10  -7   11.06    2.08
   5  10   7   11.65    2.04
   5  10   7   12.17    2.88
   5  10   7    7.94    2.40
  -6 -10  -7   14.57    2.48
  -6 -10  -7   12.48    2.10
  -6 -10  -7   13.59    2.23
   6  10   7   23.73    3.20
   6  10   7   13.72    2.18
  -7 -10  -7   15.26    2.22
  -7 -10  -7   15.24    2.42
  -7 -10  -7   18.46    2.72
   7  10   7   16.69    2.33
   7  10   7   16.56    2.98
  -8 -10  -7   12.92    2.24
  -8 -10  -7   13.74    2.49
  -4  -9   8   14.36    4.16
  -4  -9   8   20.95    2.85
   3   9  -8    0.92    2.01
   3   9  -8    1.64    2.81
  -3  -9   8    1.22    1.27
  -3  -9   8   -1.37    1.22
  -3  -9   8    2.14    1.25
  -3  -9   8   -0.37    2.36
  -3  -9   8    0.56    3.36
  -3  -9   8    0.85    1.56
   2   9  -8    9.85    3.55
   2   9  -8   11.37    2.76
  -2  -9   8   11.21    2.39
  -2  -9   8    7.36    1.69
  -2  -9   8    8.65    3.84
  -2  -9   8   12.03    2.15
  -2  -9   8   12.07    1.95
  -2  -9   8    7.76    3.18
   1   9  -8   -1.70    2.40
   1   9  -8    0.56    2.25
  -1  -9   8    2.52    2.68
  -1  -9   8    0.83    1.28
  -1  -9   8   -1.15    2.79
  -1  -9   8    1.62    1.68
  -1  -9   8    1.34    1.21
   0   9  -8   22.05    4.24
   0   9  -8   29.24    4.36
   0  -9   8   19.71    2.55
   0  -9   8   27.08    2.74
   0  -9   8   23.02    4.16
   0  -9   8   27.27    3.40
   5   8  -8   42.54    4.22
   5   8  -8   47.88    4.21
  -5  -8   8   47.32    4.44
  -5  -8   8   48.93    5.92
  -5  -8   8   45.42    3.93
  -5  -8   8   43.71    3.61
   4   8  -8    5.26    2.08
   4   8  -8    5.60    2.02
  -4  -8   8    9.98    2.81
  -4  -8   8   10.49    2.38
  -4  -8   8    7.78    2.01
  -4  -8   8    4.81    1.72
  -4  -8   8    4.85    2.94
  -4  -8   8    7.84    1.68
   3   8  -8   21.47    4.19
   3   8  -8   33.28    3.29
   3   8  -8   31.70    3.59
  -3  -8   8   27.98    4.18
  -3  -8   8   28.18    4.57
  -3  -8   8   27.38    3.17
  -3  -8   8   29.75    2.76
  -3  -8   8   28.20    3.00
   2   8  -8   18.57    2.85
   2   8  -8   24.82    2.86
   2   8  -8   17.22    3.73
  -2  -8   8   22.89    2.86
  -2  -8   8   19.35    2.15
  -2  -8   8   20.55    4.13
  -2  -8   8   22.16    2.32
  -2  -8   8   23.00    2.62
  -2  -8   8   17.24    3.65
   1   8  -8   42.81    3.77
   1   8  -8   33.08    4.93
   1   8  -8   35.01    3.93
  -1  -8   8   38.55    5.25
  -1  -8   8   37.82    3.10
  -1  -8   8   38.11    3.68
  -1  -8   8   34.77    3.31
  -1  -8   8   36.29    4.90
  -1  -8   8   38.41    3.09
   0   8  -8   15.16    2.72
   0   8  -8   12.52    3.65
   0   8  -8   14.81    3.08
   0  -8   8   16.29    2.57
   0  -8   8   15.38    2.28
   0  -8   8   15.82    2.11
   0  -8   8   17.84    2.22
   0  -8   8   15.02    3.50
   0  -8   8   18.29    4.20
  -1   8  -8    5.22    2.80
  -1   8  -8    3.44    2.71
   1  -8   8    6.19    1.60
   1  -8   8    7.23    2.01
   1  -8   8    3.55    1.58
   1  -8   8    2.89    2.53
   1  -8   8    7.19    2.15
  -2   8  -8   78.81    6.96
  -2   8  -8   67.16    6.85
  -2   8  -8   79.71    5.31
   2  -8   8   79.97    5.35
   2  -8   8   83.49    4.75
   2  -8   8   67.09    5.13
   2  -8   8   71.21    6.49
   2  -8   8   83.30    5.09
   5   7  -8    4.53    1.90
   5   7  -8    5.14    1.90
  -5  -7   8    2.09    1.30
  -5  -7   8    4.12    1.59
  -5  -7   8    5.95    2.12
  -5  -7   8    5.39    2.76
   4   7  -8    0.17    1.54
   4   7  -8    2.53    1.53
  -4  -7   8    0.48    2.20
  -4  -7   8    1.82    1.39
  -4  -7   8    1.23    1.44
  -4  -7   8   -1.01    1.53
  -4  -7   8    0.63    1.04
   3   7  -8   25.48    3.06
  -3  -7   8   25.87    2.76
  -3  -7   8   26.70    4.03
  -3  -7   8   26.37    2.51
  -3  -7   8   19.10    2.83
  -3  -7   8   24.95    2.87
  -3  -7   8   19.54    3.47
   2   7  -8    3.43    1.62
   2   7  -8    5.09    1.75
  -2  -7   8    4.91    1.61
  -2  -7   8    1.69    1.20
  -2  -7   8    3.18    1.12
  -2  -7   8    3.56    1.38
  -2  -7   8    4.49    2.40
  -2  -7   8    3.75    2.31
   1   7  -8   26.66    3.93
   1   7  -8   21.89    2.66
   1   7  -8   24.89    2.96
  -1  -7   8   22.77    2.14
  -1  -7   8   21.53    2.25
  -1  -7   8   16.54    3.34
  -1  -7   8   13.63    3.32
  -1  -7   8   22.64    2.79
  -1  -7   8   17.08    2.29
   0   7  -8    4.65    1.91
   0   7  -8    4.75    2.72
   0   7  -8    5.45    1.90
   0  -7   8    3.99    1.33
   0  -7   8    3.23    1.27
   0  -7   8    1.28    1.32
   0  -7   8    4.87    1.78
   0  -7   8   -0.69    2.02
   0  -7   8    0.55    2.57
  -1   7  -8   65.68    6.37
  -1   7  -8   68.29    5.70
  -1   7  -8   72.71    5.02
   1  -7   8   69.77    6.14
   1  -7   8   66.89    6.65
   1  -7   8   59.46    3.77
   1  -7   8   56.79    4.27
   1  -7   8   68.48    4.07
   1  -7   8   70.95    4.68
  -2   7  -8    4.14    2.01
  -2   7  -8    8.76    2.88
  -2   7  -8    7.74    2.79
  -2   7  -8    7.20    3.05
   2  -7   8    5.08    1.73
   2  -7   8    6.68    2.04
   2  -7   8    5.55    1.72
   2  -7   8    2.34    1.71
   2  -7   8    6.50    2.46
  -3   7  -8   20.58    3.81
  -3   7  -8   13.73    3.15
  -3   7  -8   14.13    3.30
  -3   7  -8   15.15    2.72
   3  -7   8   13.32    2.41
   3  -7   8   15.65    3.03
   3  -7   8   12.57    2.18
   3  -7   8    8.24    2.19
   3  -7   8   14.20    2.79
   6   6  -8   54.91    4.33
   6   6  -8   43.87    4.16
  -6  -6   8   52.14    4.37
  -6  -6   8   48.15    4.47
  -6  -6   8   48.05    3.86
  -6  -6   8   48.89    5.56
   5   6  -8    1.84    1.57
   5   6  -8    0.56    1.45
   5   6  -8   -0.74    1.49
  -5  -6   8   -0.48    1.29
  -5  -6   8    0.96    2.37
  -5  -6   8    0.78    1.69
  -5  -6   8    0.06    1.21
   4   6  -8   94.20    5.64
   4   6  -8   95.63    5.72
   4   6  -8  110.48    5.59
  -4  -6   8  107.38    5.36
  -4  -6   8   90.39    5.76
  -4  -6   8  105.82    5.48
  -4  -6   8   98.91    5.74
  -4  -6   8   87.60    6.66
   3   6  -8    8.22    1.64
   3   6  -8    8.48    1.92
   3   6  -8    8.00    1.86
  -3  -6   8    9.72    1.86
  -3  -6   8    7.38    1.66
  -3  -6   8    8.72    2.65
  -3  -6   8    7.30    1.47
  -3  -6   8    9.22    2.02
   2   6  -8   91.47    5.07
   2   6  -8   86.68    5.28
  -2  -6   8   88.14    4.60
  -2  -6   8   88.27    5.01
  -2  -6   8   91.02    6.33
  -2  -6   8   84.31    5.01
  -2  -6   8   84.65    6.17
  -2  -6   8   91.93    4.21
  -2  -6   8   87.76    5.37
   1   6  -8   11.29    2.07
   1   6  -8   20.08    2.35
  -1  -6   8   14.27    1.66
  -1  -6   8   14.60    1.81
  -1  -6   8   18.27    2.22
  -1  -6   8   14.86    2.87
  -1  -6   8   18.64    3.32
  -1  -6   8   15.36    2.24
   0   6  -8  107.34    6.02
   0   6  -8  102.18    7.09
   0   6  -8  111.31    5.78
   0  -6   8  104.89    4.93
   0  -6   8   96.60    5.59
   0  -6   8  102.68    7.03
   0  -6   8  104.56    6.93
   0  -6   8   98.33    5.12
   0  -6   8   92.10    5.45
  -1   6  -8    8.82    2.10
  -1   6  -8   10.16    2.91
  -1   6  -8    5.71    1.95
   1  -6   8   12.25    3.14
   1  -6   8    8.57    1.67
   1  -6   8    9.75    2.55
   1  -6   8    6.81    1.75
   1  -6   8    8.72    1.55
   1  -6   8    5.62    1.80
  -2   6  -8   11.84    2.74
  -2   6  -8   10.34    2.17
  -2   6  -8   11.04    3.04
  -2   6  -8   11.26    2.71
   2  -6   8   15.18    2.18
   2  -6   8   14.74    2.81
   2  -6   8   10.65    2.19
   2  -6   8    8.91    1.79
   2  -6   8   13.09    2.23
   2  -6   8   13.06    3.32
  -3   6  -8  105.83    7.40
  -3   6  -8   92.90    6.91
  -3   6  -8  102.48    5.96
  -3   6  -8  101.20    6.93
   3  -6   8   88.18    5.67
   3  -6   8  112.70    6.88
   3  -6   8  107.29    5.95
   3  -6   8  108.50    5.39
   3  -6   8  101.52    6.39
  -4   6  -8    2.65    1.92
  -4   6  -8    4.08    2.56
  -4   6  -8    2.38    2.74
   4  -6   8    5.51    1.77
   4  -6   8    1.52    2.12
   4  -6   8    5.52    2.16
   4  -6   8    1.70    1.49
   4  -6   8    2.33    1.65
   4  -6   8    3.93    2.04
  -5   6  -8   73.60    6.02
  -5   6  -8   67.55    6.33
  -5   6  -8   70.54    4.68
   5  -6   8   73.29    4.56
   5  -6   8   85.35    5.08
   6   5  -8   14.92    2.55
   6   5  -8   18.77    2.67
  -6  -5   8   15.72    2.39
  -6  -5   8   15.87    2.59
  -6  -5   8   12.27    2.16
  -6  -5   8   17.11    2.68
  -6  -5   8   17.25    3.53
   5   5  -8   46.74    3.92
   5   5  -8   49.32    4.13
   5   5  -8   50.72    4.29
  -5  -5   8   48.55    4.10
  -5  -5   8   52.64    3.93
  -5  -5   8   56.46    5.41
  -5  -5   8   43.52    4.09
  -5  -5   8   51.44    3.50
  -5  -5   8   49.91    3.53
   4   5  -8    2.73    1.48
   4   5  -8    6.96    1.75
  -4  -5   8    2.61    1.18
  -4  -5   8    1.35    1.48
  -4  -5   8    3.29    1.34
  -4  -5   8    1.24    2.07
  -4  -5   8    2.68    1.26
  -4  -5   8    1.16    1.18
   3   5  -8    8.83    1.87
   3   5  -8    9.03    1.72
   3   5  -8    7.76    1.68
  -3  -5   8    6.94    1.61
  -3  -5   8    5.93    1.63
  -3  -5   8    7.02    1.40
  -3  -5   8    6.73    1.56
  -3  -5   8    9.07    2.41
   2   5  -8    9.40    1.63
   2   5  -8   11.99    1.85
   2   5  -8    9.39    1.82
  -2  -5   8   10.82    1.84
  -2  -5   8   11.80    1.91
  -2  -5   8    6.94    1.83
  -2  -5   8    9.85    2.43
  -2  -5   8   11.61    1.66
   1   5  -8   19.07    2.23
   1   5  -8   17.90    2.29
   1   5  -8   15.66    1.82
  -1  -5   8   14.00    1.72
  -1  -5   8   13.76    1.97
  -1  -5   8   20.69    3.07
  -1  -5   8   17.65    2.33
  -1  -5   8   20.54    2.35
  -1  -5   8   16.11    1.66
  -1  -5   8   13.56    2.56
   0   5  -8   21.84    2.45
   0   5  -8   18.62    2.40
   0  -5   8   20.29    2.97
   0  -5   8   12.70    1.96
   0  -5   8   17.53    1.92
   0  -5   8   23.24    3.27
   0  -5   8   17.29    1.81
   0  -5   8   19.43    2.42
  -1   5  -8    4.80    1.58
  -1   5  -8    4.14    1.70
  -1   5  -8    1.36    1.35
   1  -5   8    1.66    1.28
   1  -5   8    1.96    1.13
   1  -5   8    3.28    1.10
   1  -5   8    2.86    1.47
   1  -5   8    3.10    2.05
   1  -5   8    2.19    1.75
  -2   5  -8  112.99    6.56
  -2   5  -8  114.18    7.24
  -2   5  -8  112.00    6.41
  -2   5  -8  112.63    5.82
   2  -5   8  123.76    7.51
   2  -5   8  117.65    7.03
   2  -5   8   99.62    5.34
   2  -5   8  112.71    6.31
   2  -5   8  112.26    5.93
   2  -5   8  110.88    5.83
  -3   5  -8   18.10    3.32
  -3   5  -8   20.20    2.58
  -3   5  -8   17.10    3.18
  -3   5  -8   17.54    3.14
   3  -5   8   22.06    2.56
   3  -5   8   21.48    3.50
   3  -5   8   11.31    2.43
   3  -5   8   18.72    2.57
   3  -5   8   20.89    2.33
   3  -5   8   23.51    3.06
  -4   5  -8   39.62    4.67
  -4   5  -8   39.38    4.57
  -4   5  -8   45.33    3.99
   4  -5   8   47.84    4.66
   4  -5   8   52.80    3.71
   4  -5   8   42.37    3.47
   4  -5   8   47.91    4.27
   4  -5   8   36.35    3.85
   4  -5   8   44.22    3.63
  -5   5  -8    5.69    2.70
  -5   5  -8   -1.38    1.73
  -5   5  -8    1.51    1.53
  -5   5  -8    3.28    2.25
   5  -5   8    2.05    1.70
   5  -5   8    0.69    2.04
   5  -5   8    1.10    1.52
  -6   5  -8   -0.36    2.11
  -6   5  -8    1.51    1.79
  -6   5  -8   -1.10    1.98
   6  -5   8    2.15    1.57
   6  -5   8    1.17    1.89
   6   4  -8   27.09    3.21
   6   4  -8   27.39    3.16
  -6  -4   8   27.03    3.38
  -6  -4   8   25.42    3.14
  -6  -4   8   38.17    4.60
  -6  -4   8   33.19    3.14
   5   4  -8   40.53    3.76
   5   4  -8   46.01    3.92
   5   4  -8   51.23    4.24
  -5  -4   8   46.73    4.08
  -5  -4   8   46.55    4.84
  -5  -4   8   45.07    3.24
  -5  -4   8   46.14    3.94
  -5  -4   8   45.65    3.58
  -5  -4   8   50.62    3.72
   4   4  -8    3.07    1.52
   4   4  -8    2.70    1.51
  -4  -4   8    6.10    1.45
  -4  -4   8    5.62    1.42
  -4  -4   8    5.92    1.66
  -4  -4   8    3.67    2.20
  -4  -4   8    6.57    1.47
  -4  -4   8    3.48    1.41
  -4  -4   8    7.99    1.72
   3   4  -8   95.61    5.10
   3   4  -8   90.44    4.93
  -3  -4   8   80.19    5.02
  -3  -4   8   85.24    5.14
  -3  -4   8   86.95    5.93
  -3  -4   8   95.27    4.70
  -3  -4   8   91.71    4.95
  -3  -4   8  100.02    4.62
   2   4  -8   17.26    2.15
   2   4  -8   15.16    1.91
   2   4  -8   16.82    2.07
  -2  -4   8   15.99    2.08
  -2  -4   8   16.22    1.89
  -2  -4   8   15.10    2.09
  -2  -4   8   17.96    1.74
  -2  -4   8   18.65    2.20
  -2  -4   8   16.82    2.66
   1   4  -8   89.96    4.89
   1   4  -8   78.84    4.61
   1   4  -8   86.01    4.51
  -1  -4   8   92.20    5.68
  -1  -4   8   82.72    4.78
  -1  -4   8   89.14    4.89
  -1  -4   8  104.62    5.79
  -1  -4   8   78.65    4.80
  -1  -4   8   87.31    4.37
  -1  -4   8   89.53    3.92
   0   4  -8    3.35    1.08
   0   4  -8    4.21    1.42
   0   4  -8    5.05    1.47
   0  -4   8    5.41    1.49
   0  -4   8    4.81    1.93
   0  -4   8    4.33    1.00
   0  -4   8    4.01    1.75
   0  -4   8    5.49    1.22
   0  -4   8    4.50    1.25
   0  -4   8    4.96    1.44
  -1   4  -8  222.69    9.35
  -1   4  -8  206.60   10.01
  -1   4  -8  219.26    9.82
   1  -4   8  221.31    9.19
   1  -4   8  218.51   11.07
   1  -4   8  202.58    9.92
   1  -4   8  209.78   10.74
   1  -4   8  216.57    8.66
   1  -4   8  211.23    9.60
  -2   4  -8    0.56    1.44
  -2   4  -8    1.32    1.30
  -2   4  -8    2.21    1.56
   2  -4   8    2.08    1.62
   2  -4   8   -0.86    1.19
   2  -4   8    0.83    1.11
   2  -4   8   -0.05    0.94
   2  -4   8    1.30    1.78
   2  -4   8    0.52    1.22
  -3   4  -8   69.24    5.09
  -3   4  -8   73.22    4.33
  -3   4  -8   64.12    4.83
  -3   4  -8   70.08    5.33
   3  -4   8   70.78    4.30
   3  -4   8   75.14    4.91
   3  -4   8   64.13    3.94
   3  -4   8   80.30    5.09
   3  -4   8   79.16    5.65
   3  -4   8   65.31    3.72
   3  -4   8   70.05    4.52
  -4   4  -8   86.91    4.38
  -4   4  -8   70.19    6.01
  -4   4  -8   89.08    6.21
  -4   4  -8   77.21    4.84
   4  -4   8   81.89    4.50
   4  -4   8   70.48    5.42
   4  -4   8   85.79    5.28
   4  -4   8   79.51    4.36
   4  -4   8   75.10    4.53
  -5   4  -8   -1.93    1.23
  -5   4  -8    0.02    2.08
  -5   4  -8   -0.90    2.09
  -5   4  -8    1.92    1.73
   5  -4   8    0.99    1.48
   5  -4   8    0.85    1.96
   5  -4   8    0.77    1.28
  -6   4  -8   74.19    5.36
  -6   4  -8   97.09    6.22
  -6   4  -8   91.06    5.08
  -6   4  -8   85.99    6.24
   6  -4   8   80.69    4.90
   6  -4   8   88.11    6.41
   6  -4   8   89.28    5.23
  -7   4  -8   -0.70    1.49
  -7   4  -8    0.91    2.15
  -7   4  -8   -0.14    1.93
   7  -4   8   -1.77    1.71
   7  -4   8    3.02    1.64
   6   3  -8   34.73    3.52
   6   3  -8   32.34    3.47
  -6  -3   8   33.05    4.36
  -6  -3   8   33.17    3.81
  -6  -3   8   37.25    3.62
  -6  -3   8   32.26    3.20
  -6  -3   8   40.47    3.53
   5   3  -8    2.35    1.59
   5   3  -8    3.07    1.60
   5   3  -8    5.30    1.78
  -5  -3   8    5.08    1.70
  -5  -3   8    4.59    2.31
  -5  -3   8    7.30    1.93
  -5  -3   8    3.79    1.51
  -5  -3   8    7.36    1.60
  -5  -3   8    5.20    1.86
   4   3  -8   64.77    4.31
   4   3  -8   62.65    4.17
   4   3  -8   69.39    4.42
  -4  -3   8   62.93    4.32
  -4  -3   8   70.95    4.06
  -4  -3   8   70.98    3.96
  -4  -3   8   77.50    5.45
  -4  -3   8   68.02    4.24
  -4  -3   8   59.21    4.37
   3   3  -8    4.58    1.39
   3   3  -8    5.94    1.57
  -3  -3   8    5.45    1.34
  -3  -3   8    3.74    1.14
  -3  -3   8    2.95    1.39
  -3  -3   8    1.22    1.14
  -3  -3   8    2.34    1.90
  -3  -3   8    4.30    1.40
  -3  -3   8    4.64    1.50
   2   3  -8   13.88    1.87
   2   3  -8   15.48    1.94
  -2  -3   8   15.48    1.65
  -2  -3   8   14.98    1.82
  -2  -3   8   12.42    2.29
  -2  -3   8   16.98    2.12
  -2  -3   8   13.26    1.96
  -2  -3   8   14.68    1.95
   1   3  -8    2.00    1.17
   1   3  -8    1.70    1.07
   1   3  -8    5.02    1.33
  -1  -3   8    3.91    1.34
  -1  -3   8    2.49    0.89
  -1  -3   8    3.99    1.10
  -1  -3   8    2.98    0.77
  -1  -3   8    3.29    1.65
  -1  -3   8    4.99    1.28
   0   3  -8   56.22    3.34
   0   3  -8   57.68    3.46
   0   3  -8   61.14    3.56
   0  -3   8   55.28    2.85
   0  -3   8   58.63    3.26
   0  -3   8   54.85    3.60
   0  -3   8   55.21    3.99
   0  -3   8   55.02    3.62
   0  -3   8   57.40    2.88
   0  -3   8   55.33    3.51
  -1   3  -8    5.71    1.30
  -1   3  -8    6.97    1.44
  -1   3  -8    4.44    1.41
   1  -3   8    4.80    1.70
   1  -3   8    3.89    1.37
   1  -3   8    5.91    1.76
   1  -3   8    7.61    1.28
   1  -3   8    6.03    1.17
   1  -3   8    3.95    1.22
  -2   3  -8    2.29    1.37
  -2   3  -8    1.83    1.17
  -2   3  -8    1.75    1.16
  -2   3  -8    3.78    1.55
   2  -3   8    3.42    1.17
   2  -3   8    3.66    1.31
   2  -3   8    2.00    1.24
   2  -3   8    4.57    1.71
   2  -3   8    0.97    1.03
   2  -3   8    2.30    1.44
  -3   3  -8  116.27    5.72
  -3   3  -8  109.81    5.94
  -3   3  -8  112.60    6.30
  -3   3  -8  110.20    6.51
  -3   3  -8  107.99    6.27
  -3   3  -8  108.78    4.99
   3  -3   8  111.17    5.06
   3  -3   8  117.13    5.88
   3  -3   8  112.45    5.34
   3  -3   8  121.33    6.39
   3  -3   8  114.72    5.69
   3  -3   8  102.68    6.32
   3  -3   8  119.42    6.55
  -4   3  -8   24.86    3.47
  -4   3  -8   23.98    3.45
  -4   3  -8   32.98    2.55
  -4   3  -8   33.42    3.49
  -4   3  -8   30.03    2.93
   4  -3   8   37.26    3.72
   4  -3   8   33.39    2.72
   4  -3   8   35.80    2.87
   4  -3   8   23.50    3.36
   4  -3   8   32.03    3.02
   4  -3   8   33.53    2.83
  -5   3  -8   80.68    6.00
  -5   3  -8   94.02    4.68
  -5   3  -8   76.22    5.01
  -5   3  -8   90.95    6.05
   5  -3   8   84.82    5.97
   5  -3   8   85.63    4.67
   5  -3   8   81.76    4.65
   5  -3   8   83.58    4.72
  -6   3  -8    0.89    1.38
  -6   3  -8   -2.18    1.54
  -6   3  -8   -2.15    1.82
  -6   3  -8    1.43    2.03
   6  -3   8   -0.48    1.34
   6  -3   8    1.45    1.66
   6  -3   8    2.42    2.24
  -7   3  -8    2.56    2.04
  -7   3  -8    3.27    2.19
  -7   3  -8    0.39    1.43
  -7   3  -8    0.35    1.68
   7  -3   8    2.05    1.52
   7  -3   8    4.17    2.00
   7  -3   8    4.51    2.34
   6   2  -8    1.78    1.63
   6   2  -8   -0.25    1.73
   6   2  -8   -0.22    1.64
  -6  -2   8    3.90    1.85
  -6  -2   8   -0.11    1.67
  -6  -2   8    1.42    2.26
  -6  -2   8    1.01    1.33
   5   2  -8   55.59    3.98
   5   2  -8   51.77    4.24
   5   2  -8   56.21    3.74
   5   2  -8   55.54    4.17
  -5  -2   8   55.04    4.55
  -5  -2   8   51.40    3.92
  -5  -2   8   53.06    3.61
  -5  -2   8   46.66    4.13
  -5  -2   8   52.10    5.17
  -5  -2   8   58.18    3.75
   4   2  -8   36.31    3.30
   4   2  -8   38.95    2.99
   4   2  -8   31.19    3.24
   4   2  -8   37.74    3.41
  -4  -2   8   37.74    4.17
  -4  -2   8   39.23    3.56
  -4  -2   8   34.43    3.29
  -4  -2   8   38.97    3.43
  -4  -2   8   45.41    3.04
  -4  -2   8   45.50    3.03
   3   2  -8   20.23    2.39
   3   2  -8   24.11    2.55
   3   2  -8   25.07    2.17
  -3  -2   8   26.03    3.38
  -3  -2   8   25.61    2.36
  -3  -2   8   23.14    2.63
  -3  -2   8   24.95    2.57
  -3  -2   8   24.03    2.43
  -3  -2   8   24.45    2.28
  -3  -2   8   22.61    2.49
   2   2  -8   66.03    3.30
   2   2  -8   63.97    3.85
   2   2  -8   60.86    3.85
  -2  -2   8   66.46    3.55
  -2  -2   8   64.01    3.94
  -2  -2   8   53.81    4.43
  -2  -2   8   60.17    3.82
  -2  -2   8   56.50    3.80
  -2  -2   8   70.62    3.52
   1   2  -8   38.32    2.93
   1   2  -8   42.52    2.91
  -1  -2   8   34.31    2.67
  -1  -2   8   39.81    2.43
  -1  -2   8   34.18    3.07
  -1  -2   8   36.72    3.40
  -1  -2   8   36.87    2.45
  -1  -2   8   40.84    2.84
   0   2  -8  114.34    5.60
   0   2  -8  112.96    5.49
   0   2  -8  113.59    5.55
   0  -2   8  108.01    5.14
   0  -2   8  104.20    6.03
   0  -2   8  116.49    4.68
   0  -2   8  110.33    5.68
   0  -2   8  108.79    4.90
   0  -2   8  113.85    5.68
   0  -2   8  112.75    5.62
  -1   2  -8    5.42    1.29
  -1   2  -8    2.34    1.20
  -1   2  -8    3.78    1.21
   1  -2   8    4.29    1.44
   1  -2   8    6.06    1.16
   1  -2   8    3.62    1.14
   1  -2   8    5.04    1.30
   1  -2   8    4.49    1.08
   1  -2   8    2.20    1.26
  -2   2  -8  310.28   12.73
  -2   2  -8  305.42   12.36
  -2   2  -8  312.46   13.06
  -2   2  -8  300.97   12.93
   2  -2   8  294.57   14.09
   2  -2   8  278.87   13.18
   2  -2   8  305.12   12.19
   2  -2   8  291.15   12.56
   2  -2   8  292.22   11.58
   2  -2   8  298.06   13.63
  -3   2  -8    7.32    1.19
  -3   2  -8    7.67    1.76
  -3   2  -8    7.49    1.57
  -3   2  -8    9.99    1.77
  -3   2  -8   10.18    1.61
   3  -2   8    7.11    1.57
   3  -2   8    8.47    1.34
   3  -2   8   10.52    1.88
   3  -2   8    8.57    1.68
   3  -2   8    9.61    1.90
   3  -2   8    9.50    1.67
   3  -2   8    9.04    1.68
  -4   2  -8  140.59    6.73
  -4   2  -8  138.99    7.20
  -4   2  -8  138.75    7.11
  -4   2  -8  141.94    5.99
  -4   2  -8  129.42    7.53
  -4   2  -8  134.88    7.37
   4  -2   8  132.56    7.21
   4  -2   8  141.48    6.26
   4  -2   8  127.29    7.56
   4  -2   8  136.71    7.08
   4  -2   8  140.78    6.56
   4  -2   8  130.95    6.25
  -5   2  -8   50.69    4.79
  -5   2  -8   52.84    3.54
  -5   2  -8   49.59    3.86
  -5   2  -8   42.95    4.24
  -5   2  -8   44.92    3.04
   5  -2   8   45.70    4.58
   5  -2   8   49.91    3.61
   5  -2   8   46.78    3.33
   5  -2   8   48.25    3.60
  -6   2  -8   -0.89    1.19
  -6   2  -8   -3.05    1.60
  -6   2  -8    2.31    1.63
  -6   2  -8   -1.60    1.52
   6  -2   8   -0.56    1.52
   6  -2   8   -0.65    1.76
   6  -2   8   -0.91    1.35
  -7   2  -8   91.85    5.64
  -7   2  -8   89.09    4.69
  -7   2  -8   79.03    5.21
  -7   2  -8   81.18    5.54
   7  -2   8   75.62    5.72
   7  -2   8   65.63    4.46
   7  -2   8   76.70    4.96
  -8   2  -8    0.93    1.97
  -8   2  -8    0.27    1.51
  -8   2  -8   -1.14    1.69
   8  -2   8    2.32    1.99
   8  -2   8    0.79    1.57
   5   1  -8   32.69    3.25
   5   1  -8   30.53    3.26
   5   1  -8   35.48    3.55
   5   1  -8   35.43    3.22
  -5  -1   8   26.44    3.12
  -5  -1   8   33.40    4.32
  -5  -1   8   29.29    3.18
  -5  -1   8   30.74    3.01
  -5  -1   8   31.79    2.96
  -5  -1   8   28.25    3.41
   4   1  -8    6.44    1.76
   4   1  -8    3.01    1.45
   4   1  -8    4.89    1.75
   4   1  -8    1.56    1.39
  -4  -1   8    2.13    1.27
  -4  -1   8    2.94    1.53
  -4  -1   8    3.54    1.59
  -4  -1   8    3.62    1.34
  -4  -1   8    4.54    2.20
  -4  -1   8    5.57    1.65
   3   1  -8   62.02    4.05
   3   1  -8   60.25    3.92
   3   1  -8   56.90    3.97
   3   1  -8   64.99    3.62
  -3  -1   8   59.58    3.91
  -3  -1   8   72.44    5.05
  -3  -1   8   60.33    4.16
  -3  -1   8   65.53    3.74
  -3  -1   8   64.50    3.65
  -3  -1   8   59.84    3.97
   2   1  -8    2.53    1.00
   2   1  -8    2.08    1.33
   2   1  -8   -1.55    0.96
  -2  -1   8    1.54    1.62
  -2  -1   8   -0.42    1.10
  -2  -1   8    1.34    0.89
  -2  -1   8    2.35    1.10
  -2  -1   8    1.91    1.22
  -2  -1   8    0.39    1.03
  -2  -1   8    1.68    1.25
   1   1  -8   43.40    3.08
   1   1  -8   47.09    3.12
   1   1  -8   49.49    2.64
  -1  -1   8   43.31    3.87
  -1  -1   8   46.93    3.11
  -1  -1   8   53.88    3.50
  -1  -1   8   49.25    2.84
  -1  -1   8   48.88    2.87
  -1  -1   8   48.39    3.18
   0   1  -8    0.88    1.13
   0   1  -8    1.49    0.97
   0   1  -8    1.22    0.72
   0  -1   8    2.36    0.78
   0  -1   8    2.97    1.42
   0  -1   8    3.71    1.42
   0  -1   8    0.87    0.97
   0  -1   8    0.94    0.83
   0  -1   8    2.52    1.06
  -1   1  -8  144.84    6.63
  -1   1  -8  139.87    6.51
  -1   1  -8  145.11    6.61
  -1   1  -8  138.42    5.58
   1  -1   8  141.97    6.70
   1  -1   8  136.39    6.58
   1  -1   8  140.20    5.89
   1  -1   8  135.44    6.12
   1  -1   8  140.93    7.07
   1  -1   8  143.09    6.72
  -2   1  -8    0.97    0.83
  -2   1  -8    0.17    1.05
  -2   1  -8   -0.53    1.08
  -2   1  -8    1.68    0.94
   2  -1   8   -0.71    1.17
   2  -1   8   -0.45    1.01
   2  -1   8   -0.09    0.98
   2  -1   8    0.52    0.90
   2  -1   8    0.56    1.06
   2  -1   8    1.14    0.99
  -3   1  -8    5.30    0.93
  -3   1  -8    6.05    1.42
  -3   1  -8    4.57    1.57
  -3   1  -8    4.75    1.30
  -3   1  -8    6.35    1.29
   3  -1   8    4.65    1.38
   3  -1   8    6.32    1.40
   3  -1   8    6.57    1.23
   3  -1   8    3.36    1.22
   3  -1   8    4.86    1.37
   3  -1   8    5.67    1.50
  -4   1  -8   58.12    3.08
  -4   1  -8   60.21    3.92
  -4   1  -8   53.94    3.46
  -4   1  -8   52.16    3.97
  -4   1  -8   48.50    4.19
   4  -1   8   60.41    3.54
   4  -1   8   61.37    3.63
   4  -1   8   52.73    3.63
   4  -1   8   57.47    4.35
   4  -1   8   62.95    3.58
   4  -1   8   45.18    3.30
  -5   1  -8   48.52    4.10
  -5   1  -8   55.63    3.15
  -5   1  -8   58.63    4.27
  -5   1  -8   48.30    4.65
  -5   1  -8   51.23    3.53
   5  -1   8   54.87    3.39
   5  -1   8   53.38    3.41
   5  -1   8   45.04    4.52
   5  -1   8   51.56    3.52
  -6   1  -8  114.61    5.46
  -6   1  -8  106.73    5.99
  -6   1  -8  114.32    6.84
  -6   1  -8  114.71    6.19
  -6   1  -8  113.70    6.46
   6  -1   8  116.88    5.54
   6  -1   8  118.91    5.97
   6  -1   8  112.12    5.65
   6  -1   8  111.64    7.05
  -7   1  -8    4.11    2.06
  -7   1  -8    6.18    1.98
  -7   1  -8    4.50    1.66
  -7   1  -8    7.17    1.92
  -7   1  -8    1.63    1.36
   7  -1   8    5.09    1.76
   7  -1   8    5.43    2.37
   7  -1   8    5.27    1.86
  -8   1  -8    4.29    1.72
  -8   1  -8    8.09    2.02
  -8   1  -8    7.92    2.33
   8  -1   8    4.44    2.19
   8  -1   8    6.22    2.44
   8  -1   8    7.53    1.86
  -9   1  -8   -1.08    1.47
  -9   1  -8   -0.51    1.79
   9  -1   8   -0.19    1.48
   9  -1   8   -0.80    1.98
   5   0  -8    1.27    1.77
   5   0  -8   -0.75    1.62
   5   0  -8    1.06    1.45
  -5   0   8    3.92    2.42
  -5   0   8    1.54    1.78
  -5   0   8    2.83    1.42
  -5   0   8    2.15    1.65
   4   0  -8   60.67    4.27
   4   0  -8   76.27    4.36
   4   0  -8   68.44    4.60
   4   0  -8   76.09    4.72
  -4   0   8   68.89    5.98
  -4   0   8   69.90    4.45
  -4   0   8   70.24    4.62
  -4   0   8   74.08    4.19
  -4   0   8   66.30    4.02
  -4   0   8   67.21    4.62
   3   0  -8   15.85    2.13
   3   0  -8   19.79    2.26
   3   0  -8   14.92    2.16
   3   0  -8   20.76    2.18
  -3   0   8   18.72    2.25
  -3   0   8   14.85    1.87
  -3   0   8   15.30    2.24
  -3   0   8   16.01    1.94
  -3   0   8   14.03    2.08
  -3   0   8   16.46    2.95
   2   0  -8   49.49    3.10
   2   0  -8   48.99    3.33
   2   0  -8   49.58    3.43
  -2   0   8   57.19    3.61
  -2   0   8   50.14    3.45
  -2   0   8   53.03    3.41
  -2   0   8   47.70    3.33
  -2   0   8   49.54    4.47
  -2   0   8   50.30    3.15
  -2   0   8   58.88    3.25
   1   0  -8   51.88    3.23
   1   0  -8   48.84    2.90
   1   0  -8   52.86    3.36
  -1   0   8   50.56    3.57
  -1   0   8   53.14    3.06
  -1   0   8   49.41    3.85
  -1   0   8   55.00    2.93
  -1   0   8   50.86    3.33
  -1   0   8   51.32    3.27
   0   0  -8   92.20    4.75
   0   0  -8   96.18    4.29
   0   0  -8   86.03    4.87
   0   0   8  101.27    5.53
   0   0   8   90.81    4.86
   0   0   8  104.77    5.20
   0   0   8  102.69    4.55
   0   0   8   99.24    4.88
  -1   0  -8  107.94    4.46
  -1   0  -8  105.55    5.19
  -1   0  -8  101.13    5.10
   1   0   8  104.59    4.63
   1   0   8  104.81    5.61
   1   0   8  103.21    5.19
   1   0   8  102.77    4.70
   1   0   8  105.38    5.44
   1   0   8  101.77    5.07
  -2   0  -8   16.97    1.95
  -2   0  -8   15.05    1.33
  -2   0  -8   17.57    1.64
  -2   0  -8   17.13    1.37
  -2   0  -8   15.38    1.78
   2   0   8   17.12    1.81
   2   0   8   16.77    1.97
   2   0   8   15.34    2.08
   2   0   8   17.95    1.67
   2   0   8   18.34    1.92
   2   0   8   18.71    1.72
  -3   0  -8  248.33   10.81
  -3   0  -8  274.04    9.92
  -3   0  -8  265.46   10.12
  -3   0  -8  263.61   11.29
  -3   0  -8  282.74   11.52
  -3   0  -8  259.55   11.50
   3   0   8  272.16   11.79
   3   0   8  252.91   10.46
   3   0   8  265.19   10.73
   3   0   8  263.61   11.73
   3   0   8  246.07   11.05
   3   0   8  257.11   10.22
  -4   0  -8   22.20    2.60
  -4   0  -8   25.79    2.33
  -4   0  -8   22.72    1.85
  -4   0  -8   21.68    2.65
  -4   0  -8   28.79    2.44
  -4   0  -8   25.35    1.96
   4   0   8   25.63    2.41
   4   0   8   26.64    2.22
   4   0   8   27.77    2.58
   4   0   8   27.83    2.29
   4   0   8   27.08    2.86
  -5   0  -8  177.31    7.03
  -5   0  -8  176.44    7.74
  -5   0  -8  162.69    8.17
  -5   0  -8  172.78    6.95
  -5   0  -8  152.40    8.54
  -5   0  -8  144.21    8.27
   5   0   8  174.74    7.53
   5   0   8  125.78    8.37
   5   0   8  176.07    7.36
   5   0   8  175.16    7.40
  -6   0  -8   20.27    2.36
  -6   0  -8   19.68    1.99
  -6   0  -8   17.30    2.57
  -6   0  -8   21.85    2.19
  -6   0  -8   23.65    2.65
  -6   0  -8   22.26    3.11
   6   0   8   23.61    3.37
   6   0   8   18.95    2.07
   6   0   8   18.50    2.36
   6   0   8   15.26    2.17
  -7   0  -8    5.97    1.76
  -7   0  -8    8.59    2.30
  -7   0  -8    7.99    2.00
  -7   0  -8    6.52    1.60
   7   0   8    5.49    1.98
   7   0   8    2.95    2.12
   7   0   8    4.90    1.65
  -8   0  -8   36.23    3.68
  -8   0  -8   42.77    3.44
  -8   0  -8   42.26    4.22
  -8   0  -8   43.47    3.84
   8   0   8   39.39    3.44
   8   0   8   39.26    3.76
   8   0   8   39.91    4.16
  -9   0  -8    0.14    1.54
  -9   0  -8    1.94    1.99
  -9   0  -8   -0.32    1.49
   9   0   8    0.15    1.99
   9   0   8    0.09    1.45
   4  -1  -8   14.25    2.23
   4  -1  -8   15.65    2.31
   4  -1  -8   16.65    2.46
   4  -1  -8   14.63    2.51
  -4   1   8   15.32    3.31
  -4   1   8   12.76    2.16
  -4   1   8   14.26    2.42
  -4   1   8   20.15    2.37
   3  -1  -8   -0.37    1.23
   3  -1  -8    4.04    1.62
   3  -1  -8    0.66    1.31
   3  -1  -8    2.13    1.28
  -3   1   8    2.17    1.29
  -3   1   8    0.76    1.29
  -3   1   8    0.27    1.14
  -3   1   8    0.28    1.30
  -3   1   8   -0.67    1.89
  -3   1   8    0.70    1.00
   2  -1  -8   34.51    2.70
   2  -1  -8   24.84    2.75
   2  -1  -8   29.10    2.60
   2  -1  -8   31.17    2.80
  -2   1   8   32.49    2.97
  -2   1   8   32.51    3.70
  -2   1   8   34.11    2.84
  -2   1   8   32.59    2.53
  -2   1   8   27.94    2.49
  -2   1   8   29.71    2.67
  -2   1   8   32.82    2.92
   1  -1  -8    6.20    1.33
   1  -1  -8    4.77    1.37
   1  -1  -8    5.05    1.08
   1  -1  -8    4.45    1.27
  -1   1   8    3.79    1.84
  -1   1   8    4.86    1.37
  -1   1   8    7.23    1.23
  -1   1   8    4.05    1.16
  -1   1   8    5.53    1.71
  -1   1   8    4.02    1.10
   0  -1  -8   38.40    2.59
   0  -1  -8   34.55    2.41
   0  -1  -8   39.88    2.95
   0   1   8   41.52    2.38
   0   1   8   39.87    3.43
   0   1   8   35.84    2.55
   0   1   8   42.29    2.68
   0   1   8   31.51    3.26
  -1  -1  -8    2.14    1.01
  -1  -1  -8    1.50    0.94
  -1  -1  -8    1.57    0.91
   1   1   8    1.49    0.75
   1   1   8    0.28    1.09
   1   1   8   -0.90    1.20
   1   1   8    1.11    0.85
   1   1   8    0.71    1.01
   1   1   8   -0.09    0.73
  -2  -1  -8  146.79    5.84
  -2  -1  -8  140.41    6.41
  -2  -1  -8  140.14    6.21
  -2  -1  -8  134.81    6.57
  -2  -1  -8  137.74    5.81
   2   1   8  141.68    6.09
   2   1   8  144.92    6.87
   2   1   8  136.28    6.90
   2   1   8  142.94    5.94
   2   1   8  133.84    6.23
   2   1   8  131.04    6.44
  -3  -1  -8    6.01    1.44
  -3  -1  -8    5.85    1.02
  -3  -1  -8    6.13    1.49
  -3  -1  -8    5.13    0.82
  -3  -1  -8    5.67    1.02
  -3  -1  -8    7.34    1.10
   3   1   8    5.35    1.02
   3   1   8    3.14    1.41
   3   1   8    7.78    1.34
   3   1   8    5.79    1.25
   3   1   8    4.36    1.03
   3   1   8    4.49    1.62
  -4  -1  -8   27.52    2.75
  -4  -1  -8   30.49    2.31
  -4  -1  -8   28.13    2.88
  -4  -1  -8   30.01    2.40
  -4  -1  -8   29.48    2.16
  -4  -1  -8   29.62    2.00
   4   1   8   33.53    2.85
   4   1   8   28.94    2.79
   4   1   8   31.17    2.24
   4   1   8   32.49    2.57
   4   1   8   26.96    2.53
   4   1   8   30.27    2.29
  -5  -1  -8   22.30    2.98
  -5  -1  -8   27.76    3.32
  -5  -1  -8   30.62    2.26
  -5  -1  -8   29.97    2.25
  -5  -1  -8   24.83    2.41
   5   1   8   24.05    3.11
   5   1   8   30.13    2.68
   5   1   8   27.12    2.55
   5   1   8   20.85    2.21
  -6  -1  -8   31.48    2.50
  -6  -1  -8   25.34    3.18
  -6  -1  -8   30.44    2.47
  -6  -1  -8   24.63    2.61
  -6  -1  -8   25.57    3.06
   6   1   8   32.47    3.58
   6   1   8   26.98    2.58
   6   1   8   23.94    2.39
   6   1   8   27.25    2.71
  -7  -1  -8   66.71    4.50
  -7  -1  -8   75.38    4.18
  -7  -1  -8   80.90    5.33
  -7  -1  -8   77.47    4.32
  -7  -1  -8   78.40    5.08
   7   1   8   94.06    5.73
   7   1   8   80.00    4.27
   7   1   8   83.63    4.60
   7   1   8   73.55    4.39
  -8  -1  -8    6.53    1.92
  -8  -1  -8    7.02    1.69
  -8  -1  -8    7.85    1.69
  -8  -1  -8    6.09    1.85
  -8  -1  -8    4.11    1.95
   8   1   8    7.50    2.39
   8   1   8    4.71    1.94
   8   1   8    5.23    1.62
   8   1   8    8.99    2.00
  -9  -1  -8    5.84    2.15
  -9  -1  -8    3.79    1.87
  -9  -1  -8    5.45    1.93
  -9  -1  -8    6.74    1.80
   9   1   8    5.69    1.94
   9   1   8    7.77    2.33
   9   1   8    4.51    2.38
   4  -2  -8    1.01    1.58
   4  -2  -8   -0.36    1.73
  -4   2   8    0.61    2.44
  -4   2   8    1.59    1.36
  -4   2   8    0.56    1.63
   3  -2  -8   62.66    4.44
   3  -2  -8   67.82    4.17
  -3   2   8   64.04    5.86
  -3   2   8   65.66    4.50
  -3   2   8   60.17    3.86
  -3   2   8   62.60    4.05
   2  -2  -8   16.37    2.10
   2  -2  -8   11.87    2.00
   2  -2  -8   12.11    1.78
   2  -2  -8   15.62    2.03
  -2   2   8   18.59    3.08
  -2   2   8   13.41    1.86
  -2   2   8   19.22    2.29
  -2   2   8   17.41    1.88
  -2   2   8   14.38    2.01
  -2   2   8   13.51    1.87
   1  -2  -8   69.52    3.85
   1  -2  -8   58.17    3.77
   1  -2  -8   69.83    3.81
   1  -2  -8   74.31    4.29
  -1   2   8   65.59    3.87
  -1   2   8   70.69    3.76
  -1   2   8   59.47    4.68
  -1   2   8   69.56    4.94
  -1   2   8   64.42    3.96
  -1   2   8   74.66    3.61
   0  -2  -8   20.95    2.03
   0  -2  -8   20.62    2.35
   0  -2  -8   25.43    1.98
   0  -2  -8   29.15    2.25
   0   2   8   26.03    2.93
   0   2   8   27.58    1.89
   0   2   8   19.80    2.68
   0   2   8   28.33    2.32
   0   2   8   24.81    2.12
  -1  -2  -8   99.93    4.61
  -1  -2  -8  103.85    4.65
  -1  -2  -8   99.67    4.83
  -1  -2  -8   99.51    5.22
   1   2   8   98.18    5.62
   1   2   8   96.71    4.83
   1   2   8  100.57    4.63
   1   2   8  103.89    4.92
   1   2   8  101.18    4.47
   1   2   8   89.75    5.54
  -2  -2  -8   20.17    1.49
  -2  -2  -8   21.46    1.93
  -2  -2  -8   15.70    1.97
  -2  -2  -8   21.55    1.81
  -2  -2  -8   20.16    1.51
   2   2   8   22.69    1.66
   2   2   8   28.20    2.23
   2   2   8   24.17    2.67
   2   2   8   19.56    1.77
   2   2   8   20.82    2.30
   2   2   8   19.88    1.62
   2   2   8   16.60    1.41
  -3  -2  -8   32.75    2.07
  -3  -2  -8   35.99    2.67
  -3  -2  -8   35.62    2.19
  -3  -2  -8   35.49    1.93
  -3  -2  -8   31.79    2.24
  -3  -2  -8   34.80    2.84
   3   2   8   36.79    2.34
   3   2   8   34.23    3.04
   3   2   8   34.88    2.71
   3   2   8   31.05    2.71
   3   2   8   36.11    2.20
   3   2   8   37.13    2.14
  -4  -2  -8  257.48    9.95
  -4  -2  -8  264.86   10.88
  -4  -2  -8  253.38   10.29
  -4  -2  -8  247.78   11.52
  -4  -2  -8  264.68   10.35
  -4  -2  -8  257.15   11.59
   4   2   8  263.66   10.32
   4   2   8  268.06   11.51
   4   2   8  262.54   10.42
   4   2   8  260.86   10.51
   4   2   8  252.70   11.17
   4   2   8  264.50   11.50
  -5  -2  -8    8.91    1.57
  -5  -2  -8    8.46    1.29
  -5  -2  -8    8.63    1.45
  -5  -2  -8    7.72    2.11
  -5  -2  -8   11.15    2.32
   5   2   8    6.92    1.65
   5   2   8    9.65    1.53
   5   2   8    9.10    1.97
   5   2   8   11.65    1.83
  -6  -2  -8  206.21    9.79
  -6  -2  -8  177.01    9.74
  -6  -2  -8  197.28    8.99
  -6  -2  -8  202.44    8.25
  -6  -2  -8  206.99    8.45
   6   2   8  193.70    8.71
   6   2   8  202.28    8.55
   6   2   8  201.23    8.56
   6   2   8  183.92    9.86
  -7  -2  -8    4.94    1.92
  -7  -2  -8    4.56    1.60
  -7  -2  -8    2.81    1.32
  -7  -2  -8    3.53    1.84
  -7  -2  -8    2.64    1.35
   7   2   8    6.43    2.17
   7   2   8    2.17    1.42
   7   2   8    5.18    1.42
   7   2   8    2.51    1.58
  -8  -2  -8   11.27    1.87
  -8  -2  -8    8.36    2.14
  -8  -2  -8    8.14    2.13
  -8  -2  -8    6.84    1.94
  -8  -2  -8   10.06    1.89
  -8  -2  -8    8.70    1.64
   8   2   8    9.57    2.05
   8   2   8    9.36    2.50
   8   2   8   10.89    1.89
   8   2   8    7.77    1.94
  -9  -2  -8   13.46    2.20
  -9  -2  -8   11.32    2.33
  -9  -2  -8   14.92    2.63
  -9  -2  -8   12.63    2.60
  -9  -2  -8   16.92    2.35
   9   2   8   13.60    2.47
   9   2   8   15.47    2.39
   9   2   8   12.95    2.78
   9   2   8   14.84    2.41
 -10  -2  -8    1.26    1.63
 -10  -2  -8    2.77    2.00
 -10  -2  -8    2.66    1.82
 -10  -2  -8    1.16    1.66
  10   2   8    5.73    2.32
  10   2   8    0.96    1.74
  10   2   8   -0.03    1.65
   3  -3  -8    4.56    1.71
   3  -3  -8    6.65    2.05
  -3   3   8    5.33    1.94
  -3   3   8    5.13    1.46
  -3   3   8    6.49    2.95
   2  -3  -8    4.43    1.75
   2  -3  -8    4.02    1.48
  -2   3   8    4.52    1.60
  -2   3   8    4.12    1.36
  -2   3   8    3.49    2.40
   1  -3  -8   18.87    2.17
   1  -3  -8   16.35    2.24
  -1   3   8   14.84    2.74
  -1   3   8   16.21    2.94
  -1   3   8   13.80    1.80
  -1   3   8   16.17    2.05
   0  -3  -8   10.87    1.62
   0  -3  -8   11.46    1.41
   0  -3  -8    8.92    1.75
   0   3   8   10.60    2.27
   0   3   8   10.39    1.57
   0   3   8    8.81    2.18
  -1  -3  -8   14.99    1.69
  -1  -3  -8   17.33    1.88
  -1  -3  -8   19.38    1.77
  -1  -3  -8   21.24    2.26
   1   3   8   22.89    2.83
   1   3   8   17.45    2.55
   1   3   8   17.13    1.75
  -2  -3  -8   11.71    1.55
  -2  -3  -8    9.71    1.17
  -2  -3  -8    8.84    1.34
  -2  -3  -8    9.68    1.16
  -2  -3  -8    9.86    1.65
  -2  -3  -8   10.76    1.42
   2   3   8   10.79    1.13
   2   3   8    7.65    1.48
   2   3   8    8.46    1.18
   2   3   8    6.92    2.00
   2   3   8   11.80    1.94
  -3  -3  -8  140.98    5.88
  -3  -3  -8  140.03    6.14
  -3  -3  -8  144.59    6.93
  -3  -3  -8  134.44    6.14
  -3  -3  -8  140.69    6.16
  -3  -3  -8  139.44    6.53
   3   3   8  151.67    6.26
   3   3   8  135.65    6.16
   3   3   8  140.32    5.80
   3   3   8  139.88    6.95
   3   3   8  140.81    7.00
   3   3   8  139.96    6.34
  -4  -3  -8   31.09    2.35
  -4  -3  -8   29.19    2.23
  -4  -3  -8   35.55    2.99
  -4  -3  -8   27.18    2.03
  -4  -3  -8   34.08    2.28
  -4  -3  -8   32.63    2.59
  -4  -3  -8   31.31    2.96
   4   3   8   33.16    3.01
   4   3   8   31.72    2.39
   4   3   8   30.62    2.21
   4   3   8   30.43    2.12
   4   3   8   30.04    2.60
   4   3   8   33.99    2.08
  -5  -3  -8   70.06    3.79
  -5  -3  -8   70.59    3.52
  -5  -3  -8   68.29    4.66
  -5  -3  -8   70.20    3.94
  -5  -3  -8   69.80    3.92
  -5  -3  -8   73.11    4.75
  -5  -3  -8   72.53    3.80
   5   3   8   71.20    4.18
   5   3   8   75.05    4.11
   5   3   8   63.92    3.74
   5   3   8   70.79    4.32
  -6  -3  -8    6.83    1.49
  -6  -3  -8   10.15    1.67
  -6  -3  -8    9.83    1.54
  -6  -3  -8    8.98    2.06
  -6  -3  -8    9.22    1.64
  -6  -3  -8   12.43    2.46
   6   3   8    6.85    1.95
   6   3   8    6.09    1.72
   6   3   8   10.88    1.88
   6   3   8   10.66    1.80
  -7  -3  -8   17.18    2.05
  -7  -3  -8   13.61    2.10
   7   3   8   19.94    2.78
  -8  -3  -8   40.21    4.14
  -8  -3  -8   54.93    3.39
  -8  -3  -8   39.76    3.81
  -8  -3  -8   55.94    3.46
  -8  -3  -8   52.68    3.63
  -8  -3  -8   52.10    4.37
   8   3   8   48.00    3.83
   8   3   8   52.29    4.04
   8   3   8   58.96    4.35
  -9  -3  -8    9.29    2.00
  -9  -3  -8    9.38    2.34
  -9  -3  -8   15.34    2.67
  -9  -3  -8    8.27    1.88
  -9  -3  -8    8.87    2.15
   9   3   8   13.93    2.26
   9   3   8    7.25    2.00
   9   3   8    9.09    2.47
   9   3   8   11.24    2.36
 -10  -3  -8    4.40    1.89
 -10  -3  -8    3.22    1.97
 -10  -3  -8    7.76    2.21
 -10  -3  -8    3.40    1.57
  10   3   8    5.38    2.23
  10   3   8    3.41    1.97
  10   3   8   10.50    2.31
  10   3   8    3.96    2.12
  -3   4   8   -0.40    2.80
  -3   4   8    3.66    1.97
   2  -4  -8   57.12    4.29
   2  -4  -8   53.05    4.12
  -2   4   8   54.81    5.89
  -2   4   8   59.68    4.34
  -2   4   8   67.60    3.93
   1  -4  -8    4.52    1.57
   1  -4  -8    8.51    1.93
  -1   4   8    5.75    1.44
  -1   4   8    8.96    2.58
  -1   4   8    8.04    1.72
  -1   4   8    4.81    2.54
   0  -4  -8   91.21    5.13
   0  -4  -8   94.47    4.77
   0   4   8   85.07    5.92
   0   4   8   89.29    6.19
  -1  -4  -8    3.42    1.13
  -1  -4  -8    2.79    1.33
  -1  -4  -8    3.98    1.30
   1   4   8    3.17    1.89
   1   4   8    2.59    1.94
  -2  -4  -8  139.03    6.92
  -2  -4  -8  139.19    5.92
  -2  -4  -8  141.86    6.27
  -2  -4  -8  148.13    6.07
   2   4   8  135.52    7.17
   2   4   8  140.81    6.05
   2   4   8  127.70    7.27
  -3  -4  -8    1.10    0.79
  -3  -4  -8   -0.07    1.22
  -3  -4  -8    0.09    0.93
  -3  -4  -8    1.66    0.97
  -3  -4  -8   -1.33    0.67
   3   4   8   -0.81    0.72
   3   4   8    0.42    1.28
   3   4   8    0.17    1.51
   3   4   8    0.71    1.08
  -4  -4  -8   36.13    2.84
  -4  -4  -8   38.22    2.33
  -4  -4  -8   41.90    2.62
  -4  -4  -8   41.82    2.54
  -4  -4  -8   40.08    3.26
  -4  -4  -8   39.52    3.35
  -4  -4  -8   40.22    2.65
   4   4   8   44.03    3.06
   4   4   8   38.82    3.38
   4   4   8   42.64    3.13
  -5  -4  -8  165.35    7.07
  -5  -4  -8  160.25    7.40
  -5  -4  -8  154.95    8.30
  -5  -4  -8  158.90    8.02
  -5  -4  -8  170.61    6.84
  -5  -4  -8  170.41    7.22
  -5  -4  -8  150.87    7.07
   5   4   8  166.54    7.15
   5   4   8  156.53    7.71
   5   4   8  172.14    7.04
  -6  -4  -8   14.58    1.86
  -6  -4  -8   13.63    2.63
  -6  -4  -8   17.20    2.04
  -6  -4  -8   14.23    1.71
  -6  -4  -8   14.16    1.88
  -6  -4  -8   14.96    2.25
  -6  -4  -8   14.31    1.87
   6   4   8   14.63    2.04
   6   4   8   11.77    1.99
   6   4   8   17.23    2.01
   6   4   8    9.58    2.03
  -7  -4  -8  145.80    6.59
  -7  -4  -8  146.01    7.53
  -7  -4  -8  146.01    6.60
  -7  -4  -8  149.32    8.05
  -7  -4  -8  129.67    7.00
  -7  -4  -8  146.72    6.89
   7   4   8  146.73    7.74
   7   4   8  142.64    6.75
   7   4   8  149.73    7.00
   7   4   8  139.83    6.84
  -8  -4  -8    1.94    1.40
  -8  -4  -8    0.29    1.58
  -8  -4  -8   -1.46    1.09
  -8  -4  -8   -1.14    1.14
  -8  -4  -8    2.09    1.67
  -8  -4  -8    0.21    1.21
   8   4   8    2.32    1.58
   8   4   8   -0.49    1.65
   8   4   8   -0.62    1.37
  -9  -4  -8   18.16    2.25
  -9  -4  -8   18.86    2.41
  -9  -4  -8   21.92    2.66
  -9  -4  -8   24.83    2.97
  -9  -4  -8   23.97    3.05
  -9  -4  -8   19.21    2.84
   9   4   8   24.39    2.95
   9   4   8   19.65    2.97
   9   4   8   20.49    2.77
 -10  -4  -8    3.71    1.75
 -10  -4  -8    6.22    2.01
 -10  -4  -8    4.34    1.99
 -10  -4  -8    2.47    1.96
  10   4   8    7.10    2.29
  10   4   8    4.55    2.28
  10   4   8    4.12    1.93
  10   4   8    4.76    1.82
   2  -5  -8   -1.03    1.43
  -2   5   8    1.06    1.37
  -2   5   8    2.15    3.04
   1  -5  -8   15.75    2.32
   1  -5  -8   15.41    2.40
  -1   5   8   15.06    2.11
  -1   5   8   12.16    3.44
   0  -5  -8    1.18    1.51
   0  -5  -8    3.35    1.46
   0   5   8    2.42    1.28
   0   5   8    0.11    2.43
   0   5   8    3.73    2.42
  -1  -5  -8   30.61    2.91
  -1  -5  -8   28.28    2.63
  -1  -5  -8   33.70    2.38
   1   5   8   21.88    3.24
   1   5   8   17.69    3.12
  -2  -5  -8    6.21    1.31
  -2  -5  -8    7.56    1.53
  -2  -5  -8    3.92    1.09
  -2  -5  -8    6.73    1.64
   2   5   8    7.40    1.98
   2   5   8    5.55    1.36
   2   5   8    7.16    2.31
  -3  -5  -8   -0.94    1.26
  -3  -5  -8    0.25    1.04
  -3  -5  -8    0.39    0.89
  -3  -5  -8    2.14    1.07
   3   5   8    0.06    0.89
   3   5   8    0.32    1.63
   3   5   8    0.45    1.08
   3   5   8    1.94    1.50
  -4  -5  -8  112.15    5.38
  -4  -5  -8  106.07    5.27
  -4  -5  -8  120.42    6.21
  -4  -5  -8  109.12    5.06
  -4  -5  -8  108.41    5.17
   4   5   8  112.24    5.95
   4   5   8  104.78    5.87
   4   5   8  112.62    5.20
   4   5   8  103.34    5.26
  -5  -5  -8   57.40    3.39
  -5  -5  -8   55.96    3.44
  -5  -5  -8   51.98    3.04
  -5  -5  -8   47.73    4.33
  -5  -5  -8   62.87    3.46
  -5  -5  -8   46.55    3.13
   5   5   8   56.28    3.33
   5   5   8   54.47    3.85
  -6  -5  -8   51.94    3.29
  -6  -5  -8   48.18    3.31
  -6  -5  -8   47.53    3.02
  -6  -5  -8   51.79    3.27
  -6  -5  -8   47.34    3.33
  -6  -5  -8   41.60    4.37
   6   5   8   59.71    3.82
   6   5   8   48.35    3.26
   6   5   8   49.70    3.16
  -7  -5  -8    2.14    1.26
  -7  -5  -8    3.51    1.39
  -7  -5  -8   -0.05    1.42
  -7  -5  -8    1.45    1.20
  -7  -5  -8    0.97    1.72
  -7  -5  -8    0.88    1.22
   7   5   8    1.87    1.50
   7   5   8    3.90    1.38
   7   5   8    2.45    1.66
  -8  -5  -8    1.44    1.41
  -8  -5  -8    2.43    1.30
  -8  -5  -8    3.21    1.62
  -8  -5  -8    3.07    1.54
  -8  -5  -8    1.95    1.80
  -8  -5  -8    0.97    1.22
   8   5   8   -0.08    1.46
   8   5   8    2.25    1.63
   8   5   8    2.12    1.55
  -9  -5  -8   12.78    2.36
  -9  -5  -8   16.99    2.72
  -9  -5  -8   17.02    2.60
  -9  -5  -8   15.85    2.21
  -9  -5  -8   17.32    2.58
  -9  -5  -8   21.74    2.56
   9   5   8   15.30    2.55
   9   5   8   16.64    2.45
 -10  -5  -8    1.39    1.70
 -10  -5  -8    1.27    1.86
 -10  -5  -8    0.46    1.60
 -10  -5  -8    2.45    1.71
  10   5   8    1.43    1.95
  10   5   8    2.36    2.00
   1  -6  -8   28.44    3.07
  -1   6   8   31.55    3.00
  -1   6   8   26.67    4.63
   0  -6  -8   10.55    1.94
   0   6   8    9.38    3.48
   0   6   8   10.86    1.91
   0   6   8    9.50    3.16
  -1  -6  -8   44.75    3.56
  -1  -6  -8   54.74    4.09
   1   6   8   49.52    5.01
   1   6   8   47.85    4.91
  -2  -6  -8    4.44    1.15
  -2  -6  -8   -0.17    0.94
  -2  -6  -8    1.92    1.56
  -2  -6  -8   -0.28    1.01
   2   6   8    4.34    2.20
   2   6   8    1.96    2.05
  -3  -6  -8  149.59    7.46
  -3  -6  -8  147.75    6.42
  -3  -6  -8  148.97    6.46
  -3  -6  -8  136.84    6.63
   3   6   8  138.57    6.66
   3   6   8  132.90    7.69
   3   6   8  153.53    7.69
   3   6   8  139.64    6.28
  -4  -6  -8    2.33    1.21
  -4  -6  -8    3.71    1.23
  -4  -6  -8    1.97    1.15
  -4  -6  -8    1.98    1.13
  -4  -6  -8    2.64    1.72
   4   6   8    3.15    1.66
   4   6   8    1.54    1.59
   4   6   8    3.83    1.32
   4   6   8    2.54    1.18
  -5  -6  -8   63.05    3.76
  -5  -6  -8   64.30    5.25
  -5  -6  -8   60.92    3.62
  -5  -6  -8   66.82    3.67
  -5  -6  -8   59.86    3.74
   5   6   8   64.46    4.40
   5   6   8   68.61    3.74
   5   6   8   65.79    3.84
  -6  -6  -8   41.55    3.28
  -6  -6  -8   34.47    3.12
  -6  -6  -8   42.18    4.33
  -6  -6  -8   43.66    2.85
  -6  -6  -8   43.51    3.26
  -6  -6  -8   42.11    2.84
   6   6   8   43.28    3.30
   6   6   8   37.24    3.49
  -7  -6  -8    4.17    1.41
  -7  -6  -8    4.86    1.57
  -7  -6  -8    4.13    1.48
  -7  -6  -8    3.49    1.93
  -7  -6  -8    4.45    1.51
  -7  -6  -8    3.75    1.45
   7   6   8    3.86    1.49
   7   6   8    4.04    1.85
   7   6   8    4.96    1.54
  -8  -6  -8   58.40    3.78
  -8  -6  -8   53.11    3.53
  -8  -6  -8   56.79    3.71
  -8  -6  -8   45.40    3.98
  -8  -6  -8   54.07    4.22
  -8  -6  -8   62.46    5.17
   8   6   8   52.70    3.69
   8   6   8   60.51    3.97
   8   6   8   60.92    4.45
  -9  -6  -8    2.17    1.64
  -9  -6  -8    0.67    1.36
  -9  -6  -8    0.02    1.39
  -9  -6  -8    0.09    1.80
  -9  -6  -8   -0.84    1.29
   9   6   8   -0.67    1.49
   9   6   8    1.97    1.73
 -10  -6  -8   18.44    2.49
 -10  -6  -8   13.61    2.54
 -10  -6  -8   17.51    2.40
 -10  -6  -8   18.60    3.10
  10   6   8   19.33    2.87
  10   6   8   18.03    2.74
   0  -7  -8   10.24    2.10
   0   7   8   14.55    2.22
   0   7   8    6.98    3.23
  -1  -7  -8    1.26    1.37
   1   7   8    2.91    2.62
   1   7   8    6.26    2.98
  -2  -7  -8   31.03    2.81
  -2  -7  -8   31.30    2.66
  -2  -7  -8   30.62    2.96
   2   7   8   36.79    4.21
   2   7   8   32.59    4.03
  -3  -7  -8    2.71    1.70
  -3  -7  -8   -1.04    1.03
  -3  -7  -8    1.58    1.19
  -3  -7  -8    1.39    1.34
   3   7   8   -1.95    1.85
   3   7   8    0.75    1.74
   3   7   8    0.18    1.15
   3   7   8   -0.96    1.07
  -4  -7  -8    0.98    1.09
  -4  -7  -8    3.70    1.88
  -4  -7  -8    0.43    1.10
  -4  -7  -8    1.00    1.32
   4   7   8    1.38    1.22
   4   7   8    0.09    1.58
   4   7   8    2.69    1.72
   4   7   8    1.10    1.24
  -5  -7  -8   43.29    2.99
  -5  -7  -8   42.65    3.25
  -5  -7  -8   40.44    3.34
  -5  -7  -8   47.02    4.52
  -5  -7  -8   40.03    3.24
   5   7   8   47.54    3.39
   5   7   8   44.54    3.92
   5   7   8   41.53    3.71
   5   7   8   47.12    3.22
  -6  -7  -8   29.76    2.72
  -6  -7  -8   31.30    2.91
  -6  -7  -8   31.23    2.81
  -6  -7  -8   30.50    2.96
  -6  -7  -8   35.39    4.09
   6   7   8   29.42    2.75
   6   7   8   35.57    3.49
   6   7   8   30.66    2.91
  -7  -7  -8   39.12    3.52
  -7  -7  -8   41.74    3.53
  -7  -7  -8   42.57    3.39
  -7  -7  -8   45.57    3.48
  -7  -7  -8   48.87    3.47
  -7  -7  -8   53.23    4.87
   7   7   8   42.72    3.40
   7   7   8   46.00    3.97
   7   7   8   42.37    3.66
   7   7   8   43.60    3.51
  -8  -7  -8    9.55    1.93
  -8  -7  -8   10.42    2.14
  -8  -7  -8   10.28    1.87
  -8  -7  -8    7.03    1.83
  -8  -7  -8    8.90    1.85
  -8  -7  -8    7.93    2.43
   8   7   8    9.60    2.02
   8   7   8    7.77    1.95
   8   7   8    8.45    2.22
  -9  -7  -8   -1.45    1.33
  -9  -7  -8    1.68    1.93
  -9  -7  -8    0.92    1.62
  -9  -7  -8    1.73    1.65
  -9  -7  -8    2.84    1.49
  -9  -7  -8    1.69    1.51
   9   7   8   -0.38    1.64
   9   7   8   -0.69    1.58
 -10  -7  -8    1.30    1.64
 -10  -7  -8   -0.39    1.66
 -10  -7  -8   -0.65    1.70
 -10  -7  -8    0.21    1.44
  10   7   8    3.23    1.96
  10   7   8    0.80    1.89
  -2  -8  -8   18.31    2.13
  -2  -8  -8   11.34    4.14
  -2  -8  -8   20.38    2.68
  -2  -8  -8   19.00    2.36
   2   8   8   19.84    3.61
   2   8   8   13.93    3.24
  -3  -8  -8    0.11    1.25
  -3  -8  -8    3.37    1.48
  -3  -8  -8    1.66    1.28
  -3  -8  -8   -2.13    2.82
   3   8   8   -1.96    1.97
   3   8   8   -0.69    2.11
  -4  -8  -8   91.16    5.26
  -4  -8  -8  100.84    5.10
  -4  -8  -8   93.68    4.92
   4   8   8   95.40    6.21
   4   8   8   86.38    5.79
   4   8   8   95.86    4.90
   4   8   8   90.91    5.21
  -5  -8  -8   10.37    2.90
  -5  -8  -8   11.41    1.80
  -5  -8  -8   11.85    1.89
  -5  -8  -8   10.06    1.96
   5   8   8   10.36    2.30
   5   8   8   10.54    1.90
   5   8   8    6.89    2.07
   5   8   8    4.92    1.63
  -6  -8  -8   67.85    4.02
  -6  -8  -8   64.26    4.21
  -6  -8  -8   73.85    6.06
  -6  -8  -8   66.14    4.08
  -6  -8  -8   74.01    4.36
   6   8   8   61.25    4.23
   6   8   8   68.13    4.75
   6   8   8   67.53    4.03
  -7  -8  -8    7.07    1.85
  -7  -8  -8   10.34    2.81
  -7  -8  -8    8.54    1.92
  -7  -8  -8    3.54    1.46
  -7  -8  -8    7.15    1.76
   7   8   8    6.99    2.22
   7   8   8   10.82    2.07
   7   8   8    7.50    1.87
  -8  -8  -8    0.84    1.52
  -8  -8  -8   -2.32    1.16
  -8  -8  -8   -0.55    1.24
  -8  -8  -8    0.93    1.39
  -8  -8  -8    0.66    1.89
  -8  -8  -8    2.71    1.59
   8   8   8   -0.96    1.35
   8   8   8    0.03    1.43
   8   8   8   -0.17    1.44
   8   8   8   -1.90    1.51
  -9  -8  -8   25.85    3.19
  -9  -8  -8   27.35    2.96
  -9  -8  -8   25.31    3.60
  -9  -8  -8   32.58    3.11
  -9  -8  -8   22.85    2.84
   9   8   8   28.66    3.16
   9   8   8   20.41    2.89
   9   8   8   27.15    3.34
  -4  -9  -8    6.72    1.87
  -4  -9  -8    5.49    1.52
  -4  -9  -8    9.13    1.94
   4   9   8   12.80    2.88
   4   9   8    3.52    2.20
   4   9   8    3.67    1.75
  -5  -9  -8    1.23    1.44
  -5  -9  -8    3.33    1.44
  -5  -9  -8    4.85    1.72
   5   9   8    3.49    1.54
   5   9   8    0.02    1.71
   5   9   8    1.90    1.54
  -6  -9  -8    8.51    1.91
  -6  -9  -8   13.07    2.15
  -6  -9  -8    8.55    2.04
   6   9   8    8.83    2.01
   6   9   8    9.61    2.00
   6   9   8    4.98    2.00
  -7  -9  -8   18.49    2.36
  -7  -9  -8   11.99    2.08
  -7  -9  -8   20.53    2.66
   7   9   8   10.10    2.55
   7   9   8   16.01    2.38
  -8  -9  -8   32.55    3.13
  -8  -9  -8   35.14    4.13
  -8  -9  -8   27.44    3.00
  -8  -9  -8   26.21    3.18
   8   9   8   30.07    3.16
   8   9   8   31.23    3.58
   8   9   8   30.75    3.18
  -9  -9  -8    6.42    2.16
  -9  -9  -8   10.39    2.69
  -9  -9  -8    3.48    1.76
  -9  -9  -8    5.75    1.83
   9   9   8    8.44    2.46
  -4  -8   9    8.88    3.58
  -4  -8   9    5.71    2.14
  -4  -8   9    2.00    1.73
   3   8  -9   39.95    4.08
   3   8  -9   35.42    3.70
  -3  -8   9   39.04    3.30
  -3  -8   9   35.20    4.74
  -3  -8   9   35.98    3.72
  -3  -8   9   34.79    5.12
   2   8  -9   22.91    4.35
   2   8  -9   16.77    2.80
   2   8  -9   19.15    2.99
  -2  -8   9   15.76    2.20
  -2  -8   9   24.43    4.34
  -2  -8   9   21.62    2.74
  -2  -8   9   23.66    2.33
  -2  -8   9   17.83    3.80
  -2  -8   9   17.90    2.82
   1   8  -9   23.17    3.18
   1   8  -9   13.82    3.73
   1   8  -9   18.72    2.88
  -1  -8   9   13.95    2.10
  -1  -8   9   26.78    2.56
  -1  -8   9   20.96    4.40
  -1  -8   9   17.18    3.78
  -1  -8   9   15.44    2.41
  -1  -8   9   17.32    2.82
   0   8  -9    2.43    2.23
   0   8  -9   -0.78    2.60
   0   8  -9    3.97    2.19
   0  -8   9    4.49    2.60
   0  -8   9    3.96    1.49
   0  -8   9    0.97    1.28
   0  -8   9    7.82    3.56
   0  -8   9    2.52    1.84
   0  -8   9    3.34    1.66
  -1   8  -9    2.21    2.84
  -1   8  -9   -1.32    2.38
  -1   8  -9    3.87    2.49
   1  -8   9   -1.42    2.20
   1  -8   9    0.03    1.34
   1  -8   9    7.20    3.54
   1  -8   9    2.36    1.86
   1  -8   9    0.32    1.24
   4   7  -9   14.71    2.65
   4   7  -9   19.53    2.89
  -4  -7   9   22.09    4.15
  -4  -7   9   22.56    3.07
  -4  -7   9   23.31    2.91
  -4  -7   9   19.84    2.46
   3   7  -9   49.80    4.07
   3   7  -9   44.62    4.13
  -3  -7   9   49.99    3.41
  -3  -7   9   47.22    4.01
  -3  -7   9   36.96    5.07
  -3  -7   9   46.13    4.03
  -3  -7   9   47.21    4.32
   2   7  -9    2.62    1.71
   2   7  -9   -0.73    1.40
  -2  -7   9    0.08    2.08
  -2  -7   9    2.26    1.50
  -2  -7   9    3.22    2.65
  -2  -7   9    4.15    1.41
  -2  -7   9    0.13    1.31
   1   7  -9   -1.39    1.46
   1   7  -9    1.23    1.61
  -1  -7   9   -0.94    1.02
  -1  -7   9   -0.40    2.11
  -1  -7   9    0.47    1.24
  -1  -7   9    1.04    1.53
  -1  -7   9    4.00    2.73
  -1  -7   9    0.77    1.09
   0   7  -9   34.24    3.73
   0   7  -9   38.19    3.66
   0   7  -9   27.21    4.32
   0  -7   9   34.48    2.98
   0  -7   9   26.02    3.02
   0  -7   9   37.61    5.00
   0  -7   9   29.75    3.30
   0  -7   9   28.83    2.67
   0  -7   9   34.84    4.55
  -1   7  -9    1.91    2.37
  -1   7  -9    1.20    2.11
  -1   7  -9   -3.91    1.77
   1  -7   9    0.58    1.29
   1  -7   9   -2.77    1.40
   1  -7   9    2.10    2.68
   1  -7   9   -2.51    1.82
   1  -7   9    1.32    1.32
   1  -7   9    0.20    1.41
  -2   7  -9   27.69    4.27
  -2   7  -9   28.55    4.05
  -2   7  -9   21.17    3.91
   2  -7   9   27.13    3.30
   2  -7   9   25.53    3.01
   2  -7   9   26.12    2.83
   2  -7   9   22.52    3.19
   2  -7   9   23.43    4.37
   2  -7   9   27.75    3.91
  -3   7  -9   -0.92    2.84
  -3   7  -9    2.27    2.80
  -3   7  -9    2.45    2.48
  -3   7  -9   -0.55    1.82
   3  -7   9    2.69    2.21
   3  -7   9    6.61    2.04
   3  -7   9    2.29    1.51
   3  -7   9    3.05    1.88
   5   6  -9   33.83    3.55
   5   6  -9   28.69    3.30
   5   6  -9   26.54    3.31
  -5  -6   9   30.30    3.60
  -5  -6   9   31.22    3.11
  -5  -6   9   35.23    4.62
   4   6  -9    0.27    1.50
   4   6  -9    0.66    1.63
   4   6  -9    1.18    1.50
  -4  -6   9    1.42    1.36
  -4  -6   9   -0.70    2.37
  -4  -6   9    2.03    1.48
  -4  -6   9    1.85    1.53
  -4  -6   9    3.62    1.76
   3   6  -9   -0.41    1.45
   3   6  -9   -0.35    1.39
  -3  -6   9   -0.61    0.97
  -3  -6   9    2.41    2.38
  -3  -6   9    1.06    1.45
  -3  -6   9   -0.37    1.09
  -3  -6   9    0.31    1.55
   2   6  -9   34.83    3.35
   2   6  -9   29.95    3.06
  -2  -6   9   31.65    3.20
  -2  -6   9   33.13    2.86
  -2  -6   9   33.34    4.24
  -2  -6   9   29.39    3.03
  -2  -6   9   27.28    3.15
  -2  -6   9   33.23    4.00
   1   6  -9   33.90    3.45
   1   6  -9   30.94    3.15
  -1  -6   9   28.71    3.88
  -1  -6   9   28.66    2.65
  -1  -6   9   34.00    3.28
  -1  -6   9   29.47    3.04
  -1  -6   9   37.83    2.64
  -1  -6   9   34.26    4.25
   0   6  -9   24.60    2.91
   0   6  -9   33.16    3.42
   0  -6   9   27.73    4.03
   0  -6   9   25.77    2.90
   0  -6   9   23.92    2.72
   0  -6   9   24.94    2.52
   0  -6   9   23.02    3.58
   0  -6   9   32.37    2.59
  -1   6  -9   12.75    3.08
  -1   6  -9    8.27    2.33
  -1   6  -9   10.78    2.36
   1  -6   9   10.86    3.11
   1  -6   9   14.81    2.28
   1  -6   9    8.88    2.55
   1  -6   9   11.35    2.14
   1  -6   9   13.60    1.91
   1  -6   9   10.61    1.82
  -2   6  -9    0.64    2.03
  -2   6  -9   -0.44    2.20
  -2   6  -9    0.69    2.07
   2  -6   9   -0.11    1.47
   2  -6   9   -0.03    1.20
   2  -6   9    0.36    1.36
   2  -6   9    0.33    2.63
   2  -6   9    0.14    1.43
   2  -6   9    1.29    1.86
  -3   6  -9    4.68    2.41
  -3   6  -9    1.67    1.77
  -3   6  -9    1.49    2.52
  -3   6  -9    4.89    2.82
   3  -6   9    5.18    2.00
   3  -6   9    6.36    2.20
   3  -6   9    4.04    1.93
   3  -6   9    3.94    1.56
   3  -6   9    6.49    1.91
  -4   6  -9    1.23    2.80
  -4   6  -9    3.12    2.07
  -4   6  -9    0.77    2.46
   4  -6   9    0.08    1.59
   4  -6   9    1.36    1.52
   4  -6   9   -0.69    1.71
   5   5  -9   -1.51    1.53
   5   5  -9    0.41    1.60
  -5  -5   9    0.31    1.26
  -5  -5   9   -1.92    1.14
  -5  -5   9    2.98    2.52
  -5  -5   9   -0.77    1.41
   4   5  -9   32.17    3.26
   4   5  -9   32.11    3.23
  -4  -5   9   29.28    3.10
  -4  -5   9   30.48    2.87
  -4  -5   9   30.75    3.32
  -4  -5   9   31.95    3.00
  -4  -5   9   33.24    4.26
   3   5  -9   25.65    2.85
   3   5  -9   30.72    3.02
   3   5  -9   31.77    2.89
  -3  -5   9   25.12    2.44
  -3  -5   9   27.59    3.70
  -3  -5   9   18.95    2.64
  -3  -5   9   22.63    2.68
  -3  -5   9   22.57    2.66
   2   5  -9   99.63    5.24
   2   5  -9   91.72    5.26
   2   5  -9   96.14    5.56
  -2  -5   9   92.04    5.38
  -2  -5   9   89.87    5.41
  -2  -5   9   96.65    4.98
  -2  -5   9  101.56    5.69
  -2  -5   9   96.33    6.39
   1   5  -9    6.32    1.74
   1   5  -9    5.53    1.36
   1   5  -9    2.42    1.47
  -1  -5   9    4.44    1.08
  -1  -5   9    5.67    1.77
  -1  -5   9    3.65    1.99
  -1  -5   9    5.26    1.49
  -1  -5   9    7.26    2.44
  -1  -5   9    3.29    1.55
  -1  -5   9    6.19    1.41
   0   5  -9   12.46    2.09
   0   5  -9   12.28    2.13
   0  -5   9   12.18    2.63
   0  -5   9    6.06    1.53
   0  -5   9    9.49    1.60
   0  -5   9    9.93    2.59
   0  -5   9    9.51    2.06
   0  -5   9    6.99    1.35
  -1   5  -9   33.39    3.38
  -1   5  -9   31.51    3.18
   1  -5   9   34.86    3.34
   1  -5   9   37.03    3.04
   1  -5   9   38.56    2.84
   1  -5   9   36.40    3.96
   1  -5   9   37.98    4.17
   1  -5   9   31.50    3.10
  -2   5  -9    2.64    1.94
  -2   5  -9    6.20    2.45
  -2   5  -9    1.95    1.63
   2  -5   9    2.81    2.37
   2  -5   9    4.61    2.02
   2  -5   9    1.98    1.53
   2  -5   9    3.43    1.42
   2  -5   9    3.59    1.73
   2  -5   9    4.92    1.51
  -3   5  -9   21.34    3.54
  -3   5  -9   25.25    3.46
  -3   5  -9   21.75    2.73
  -3   5  -9   19.54    3.50
   3  -5   9   21.13    3.03
   3  -5   9   26.14    3.02
   3  -5   9   21.49    2.62
   3  -5   9   15.66    2.26
   3  -5   9   26.07    3.25
   3  -5   9   26.49    4.03
  -4   5  -9    4.90    2.83
  -4   5  -9    4.90    1.92
  -4   5  -9    3.47    2.71
   4  -5   9    1.67    1.77
   4  -5   9    1.75    1.44
   4  -5   9    4.29    2.36
   4  -5   9    3.86    1.73
   4  -5   9    4.84    2.01
  -5   5  -9   48.74    4.43
  -5   5  -9   50.76    5.38
  -5   5  -9   58.16    5.46
   5  -5   9   51.40    4.01
   5  -5   9   49.94    4.61
   5   4  -9   12.88    2.31
   5   4  -9   11.54    2.34
  -5  -4   9   18.15    3.40
  -5  -4   9   14.13    2.14
  -5  -4   9    7.91    2.07
  -5  -4   9   11.33    2.35
  -5  -4   9   14.08    2.17
   4   4  -9   45.13    3.83
   4   4  -9   43.68    3.77
  -4  -4   9   45.69    3.54
  -4  -4   9   47.51    4.95
  -4  -4   9   36.44    3.64
  -4  -4   9   41.39    3.76
  -4  -4   9   46.59    3.20
   3   4  -9   13.19    2.10
   3   4  -9   14.52    2.22
  -3  -4   9   14.92    2.99
  -3  -4   9   13.41    2.15
  -3  -4   9   16.30    2.03
  -3  -4   9   10.72    1.98
  -3  -4   9   13.79    2.22
  -3  -4   9   17.58    2.02
   2   4  -9    2.29    1.33
   2   4  -9    1.70    1.27
   2   4  -9    2.96    1.37
  -2  -4   9    2.71    1.23
  -2  -4   9    0.31    1.21
  -2  -4   9    2.68    1.09
  -2  -4   9    2.26    1.42
  -2  -4   9    2.15    1.85
  -2  -4   9    1.60    1.26
   1   4  -9   18.55    2.10
   1   4  -9   17.34    2.16
   1   4  -9   18.32    2.32
  -1  -4   9   18.89    2.26
  -1  -4   9   25.41    2.67
  -1  -4   9   20.30    2.96
  -1  -4   9   18.76    2.04
  -1  -4   9   18.42    2.47
   0   4  -9   46.55    3.43
   0   4  -9   45.07    3.02
   0   4  -9   42.30    3.19
   0  -4   9   51.77    3.51
   0  -4   9   41.02    3.57
   0  -4   9   50.55    3.08
   0  -4   9   44.96    2.64
   0  -4   9   42.47    4.11
   0  -4   9   46.00    4.28
   0  -4   9   40.25    3.19
  -1   4  -9   17.66    1.95
  -1   4  -9   17.03    2.25
  -1   4  -9   21.62    2.54
   1  -4   9   17.76    2.02
   1  -4   9   25.44    2.16
   1  -4   9   17.80    2.43
   1  -4   9   18.91    2.94
   1  -4   9   15.03    2.61
   1  -4   9   14.40    2.06
  -2   4  -9   11.01    2.27
  -2   4  -9   13.28    2.31
   2  -4   9   18.84    2.10
   2  -4   9   14.99    2.25
   2  -4   9   16.04    2.72
   2  -4   9   12.39    2.33
   2  -4   9   15.15    2.08
   2  -4   9   12.48    2.11
  -3   4  -9    3.72    2.12
  -3   4  -9    4.53    2.02
  -3   4  -9    3.70    1.54
  -3   4  -9    5.70    2.08
   3  -4   9    5.00    1.83
   3  -4   9    5.21    1.66
   3  -4   9    4.78    2.25
   3  -4   9    4.60    1.47
   3  -4   9    7.22    1.83
   3  -4   9    7.00    1.95
  -4   4  -9   15.54    3.22
  -4   4  -9   14.90    3.05
  -4   4  -9   15.58    2.36
   4  -4   9   17.54    2.55
   4  -4   9   13.18    2.84
   4  -4   9   14.12    2.06
   4  -4   9   14.59    2.59
   4  -4   9   17.03    2.35
  -5   4  -9    6.43    1.94
  -5   4  -9    8.27    1.75
  -5   4  -9    7.93    2.89
  -5   4  -9    3.05    2.49
   5  -4   9    5.99    1.69
   5  -4   9    4.44    2.33
   5  -4   9    6.97    1.76
   5  -4   9    4.13    1.69
  -6   4  -9   33.83    3.19
  -6   4  -9   34.92    4.21
  -6   4  -9   36.95    4.33
  -6   4  -9   29.92    3.59
   6  -4   9   34.17    3.35
   6  -4   9   34.43    3.30
   5   3  -9    4.44    1.91
   5   3  -9    5.43    1.93
  -5  -3   9    2.62    2.19
  -5  -3   9    3.49    1.55
  -5  -3   9    2.31    1.81
  -5  -3   9    3.09    1.80
  -5  -3   9    6.01    1.60
   4   3  -9    7.66    2.03
   4   3  -9    8.43    2.00
   4   3  -9    6.97    1.98
  -4  -3   9    8.62    1.80
  -4  -3   9   10.72    2.87
  -4  -3   9    8.77    2.00
  -4  -3   9    7.83    1.89
  -4  -3   9    8.15    1.94
  -4  -3   9    7.94    1.66
   3   3  -9   25.93    2.69
   3   3  -9   25.16    2.66
  -3  -3   9   24.71    2.73
  -3  -3   9   21.52    3.29
  -3  -3   9   22.58    2.51
  -3  -3   9   19.95    2.30
  -3  -3   9   26.70    2.41
  -3  -3   9   22.60    2.61
   2   3  -9   17.24    2.25
   2   3  -9   16.17    2.15
  -2  -3   9   19.79    2.33
  -2  -3   9   18.33    2.03
  -2  -3   9   15.77    2.12
  -2  -3   9   14.74    2.58
  -2  -3   9   16.70    1.85
  -2  -3   9   17.32    2.33
   1   3  -9  128.99    6.25
   1   3  -9  123.08    6.23
   1   3  -9  130.11    6.45
  -1  -3   9  121.97    6.45
  -1  -3   9  128.28    5.93
  -1  -3   9  123.61    5.59
  -1  -3   9  121.20    6.38
  -1  -3   9  125.42    7.26
  -1  -3   9  122.17    6.39
   0   3  -9    3.46    1.30
   0   3  -9    4.18    1.37
   0   3  -9    3.52    1.28
   0  -3   9    2.91    1.46
   0  -3   9    4.13    1.35
   0  -3   9    4.07    1.17
   0  -3   9    3.20    0.95
   0  -3   9    5.25    1.46
   0  -3   9    3.46    1.76
   0  -3   9    4.38    1.00
  -1   3  -9   44.49    3.02
  -1   3  -9   40.43    3.28
  -1   3  -9   39.57    2.99
   1  -3   9   39.59    3.64
   1  -3   9   35.16    3.30
   1  -3   9   40.51    3.76
   1  -3   9   37.29    3.20
   1  -3   9   41.72    2.57
   1  -3   9   33.61    2.82
  -2   3  -9   20.39    2.43
  -2   3  -9   20.47    2.47
  -2   3  -9   20.51    2.19
   2  -3   9   23.43    2.38
   2  -3   9   22.30    2.75
   2  -3   9   19.47    2.07
   2  -3   9   22.35    2.59
   2  -3   9   18.36    2.42
   2  -3   9   19.25    2.72
  -3   3  -9   40.20    3.34
  -3   3  -9   41.34    3.69
  -3   3  -9   40.39    3.64
  -3   3  -9   34.88    3.04
   3  -3   9   36.91    3.44
   3  -3   9   37.45    3.34
   3  -3   9   40.09    3.06
   3  -3   9   45.86    3.98
   3  -3   9   37.14    3.36
   3  -3   9   37.50    3.68
  -4   3  -9    6.43    2.31
  -4   3  -9    7.18    1.76
  -4   3  -9   11.54    2.82
   4  -3   9   14.35    2.54
   4  -3   9   10.16    1.88
   4  -3   9    7.37    1.75
   4  -3   9    6.64    2.33
   4  -3   9    7.31    1.79
  -5   3  -9   22.03    2.30
  -5   3  -9   20.00    2.68
  -5   3  -9   16.70    3.37
  -5   3  -9   18.52    3.27
   5  -3   9   19.04    3.32
   5  -3   9   25.64    2.61
   5  -3   9   20.45    2.47
   5  -3   9   24.63    2.54
  -6   3  -9   44.24    4.58
  -6   3  -9   50.55    3.62
  -6   3  -9   38.44    3.85
  -6   3  -9   44.04    4.53
   6  -3   9   54.14    4.00
   6  -3   9   41.72    3.61
   6  -3   9   46.25    4.88
  -7   3  -9    1.21    2.11
  -7   3  -9   -0.55    1.48
  -7   3  -9   -1.70    1.87
   7  -3   9    1.39    1.82
   7  -3   9    0.07    1.55
   5   2  -9    2.89    1.72
   5   2  -9    4.08    1.74
  -5  -2   9    5.00    1.71
  -5  -2   9    4.55    2.56
  -5  -2   9    4.41    1.98
  -5  -2   9    4.59    1.86
  -5  -2   9    4.01    1.59
   4   2  -9   13.52    2.26
   4   2  -9   13.83    2.35
   4   2  -9   15.18    2.45
  -4  -2   9    7.30    1.89
  -4  -2   9   14.06    2.45
  -4  -2   9   16.52    2.10
  -4  -2   9   15.20    2.10
  -4  -2   9   11.27    2.89
  -4  -2   9   14.40    2.23
   3   2  -9   60.75    4.00
   3   2  -9   56.03    3.98
  -3  -2   9   61.31    5.32
  -3  -2   9   61.75    3.91
  -3  -2   9   63.20    3.79
  -3  -2   9   64.99    4.30
  -3  -2   9   59.99    3.64
  -3  -2   9   57.88    4.07
   2   2  -9   41.07    3.28
   2   2  -9   33.15    3.02
  -2  -2   9   37.74    3.22
  -2  -2   9   36.56    3.17
  -2  -2   9   33.43    2.71
  -2  -2   9   37.01    3.19
  -2  -2   9   33.96    3.69
  -2  -2   9   33.60    2.66
   1   2  -9   11.17    1.79
   1   2  -9    7.88    1.57
  -1  -2   9    7.75    1.44
  -1  -2   9    9.94    2.07
  -1  -2   9   12.50    1.56
  -1  -2   9   13.99    2.13
  -1  -2   9    9.08    1.63
  -1  -2   9    9.69    1.72
   0   2  -9    1.32    1.06
   0   2  -9    0.48    1.11
   0   2  -9    1.94    1.21
   0  -2   9   -1.15    1.24
   0  -2   9    1.80    0.77
   0  -2   9    0.29    1.04
   0  -2   9    1.58    1.51
   0  -2   9    0.89    1.07
   0  -2   9    0.90    0.88
   0  -2   9    2.08    1.01
  -1   2  -9   25.87    2.36
  -1   2  -9   19.26    2.24
  -1   2  -9   20.88    2.16
   1  -2   9   21.96    2.72
   1  -2   9   22.03    2.26
   1  -2   9   22.60    2.26
   1  -2   9   21.26    2.57
   1  -2   9   21.66    2.03
   1  -2   9   24.05    1.98
  -2   2  -9    3.89    1.31
  -2   2  -9    1.78    1.18
  -2   2  -9    2.48    1.44
   2  -2   9    5.27    1.41
   2  -2   9    3.93    1.59
   2  -2   9    4.59    1.32
   2  -2   9    3.99    1.21
   2  -2   9    1.45    1.38
  -3   2  -9   15.07    1.88
  -3   2  -9   14.21    2.22
  -3   2  -9   13.92    1.99
  -3   2  -9   13.20    2.04
   3  -2   9   15.25    2.14
   3  -2   9   11.17    2.00
   3  -2   9   12.98    2.22
   3  -2   9   14.74    2.07
   3  -2   9   13.80    1.97
   3  -2   9   16.65    2.32
  -4   2  -9    0.07    1.66
  -4   2  -9    1.36    1.66
  -4   2  -9    1.52    1.29
  -4   2  -9   -0.09    1.55
   4  -2   9    0.09    1.23
   4  -2   9    0.28    1.80
   4  -2   9    0.34    1.17
   4  -2   9    0.35    1.29
   4  -2   9    1.13    1.50
   4  -2   9   -0.29    1.46
  -5   2  -9   28.55    3.04
  -5   2  -9   43.80    3.69
  -5   2  -9   34.44    4.22
  -5   2  -9   41.86    2.89
  -5   2  -9   42.27    4.13
   5  -2   9   36.99    3.15
   5  -2   9   27.96    2.86
   5  -2   9   30.61    4.01
   5  -2   9   43.10    3.24
  -6   2  -9   10.74    1.77
  -6   2  -9   11.68    2.81
  -6   2  -9   12.41    2.17
  -6   2  -9   10.47    2.58
   6  -2   9   12.66    2.16
   6  -2   9    5.60    2.40
   6  -2   9    8.09    1.95
  -7   2  -9   54.04    4.48
  -7   2  -9   53.25    3.91
  -7   2  -9   51.46    4.80
  -7   2  -9   56.23    4.80
   7  -2   9   55.99    4.34
   7  -2   9   56.25    5.33
   7  -2   9   52.32    4.03
  -8   2  -9   -2.00    1.33
  -8   2  -9   -2.05    1.56
   8  -2   9    2.38    1.67
   8  -2   9    2.09    1.98
  -5  -1   9   25.83    4.10
  -5  -1   9   22.09    3.14
  -5  -1   9   19.93    2.82
   4   1  -9   14.76    2.14
   4   1  -9   11.05    2.23
   4   1  -9   10.26    2.13
   4   1  -9   17.57    2.41
  -4  -1   9    9.16    2.07
  -4  -1   9   15.11    2.12
  -4  -1   9   12.69    2.17
  -4  -1   9   14.67    2.47
  -4  -1   9   12.75    3.06
  -4  -1   9   12.98    1.95
   3   1  -9   30.65    3.08
   3   1  -9   29.14    3.08
   3   1  -9   35.81    2.80
   3   1  -9   32.12    3.02
  -3  -1   9   31.70    3.05
  -3  -1   9   32.34    2.81
  -3  -1   9   29.98    2.69
  -3  -1   9   37.11    4.08
  -3  -1   9   32.56    3.21
  -3  -1   9   32.81    3.12
   2   1  -9   11.21    1.86
   2   1  -9   11.33    1.58
   2   1  -9   12.21    1.95
  -2  -1   9    9.51    1.58
  -2  -1   9   13.86    1.90
  -2  -1   9   11.80    1.72
  -2  -1   9    9.14    1.83
  -2  -1   9   10.92    2.36
  -2  -1   9   11.79    1.95
   1   1  -9    3.74    1.45
   1   1  -9    4.99    1.45
   1   1  -9    7.27    1.25
  -1  -1   9    5.73    1.33
  -1  -1   9    6.38    1.86
  -1  -1   9    5.32    1.47
  -1  -1   9    5.91    1.71
  -1  -1   9    6.09    1.39
  -1  -1   9    8.48    1.38
   0   1  -9  132.39    6.49
   0   1  -9  132.99    6.43
   0  -1   9  133.87    6.65
   0  -1   9  128.62    6.47
   0  -1   9  132.86    6.81
   0  -1   9  145.30    7.38
   0  -1   9  135.01    6.04
   0  -1   9  134.79    5.97
  -1   1  -9    1.87    1.11
  -1   1  -9    2.59    1.25
  -1   1  -9    2.35    1.02
   1  -1   9    1.46    0.88
   1  -1   9    2.00    1.10
   1  -1   9    1.90    1.36
   1  -1   9    2.47    1.12
   1  -1   9    0.54    1.26
   1  -1   9    1.06    0.95
  -2   1  -9   61.31    3.95
  -2   1  -9   62.13    3.70
  -2   1  -9   65.15    3.94
   2  -1   9   72.64    3.91
   2  -1   9   63.10    4.07
   2  -1   9   64.95    3.89
   2  -1   9   63.56    3.52
   2  -1   9   69.08    4.21
   2  -1   9   66.26    3.54
  -3   1  -9   19.85    2.08
  -3   1  -9   13.37    2.11
  -3   1  -9   21.74    2.32
  -3   1  -9   17.35    1.87
   3  -1   9   20.43    2.42
   3  -1   9   20.19    2.32
   3  -1   9   14.25    1.99
   3  -1   9   20.45    2.16
   3  -1   9   16.63    2.18
  -4   1  -9   79.41    5.18
  -4   1  -9   88.96    4.93
  -4   1  -9   80.94    4.41
  -4   1  -9   76.18    4.88
   4  -1   9   74.40    4.34
   4  -1   9   75.81    4.51
   4  -1   9   72.72    4.73
   4  -1   9   77.86    4.70
   4  -1   9   79.97    5.12
  -5   1  -9   10.73    2.76
  -5   1  -9   13.82    2.55
  -5   1  -9   14.28    2.02
  -5   1  -9   12.88    1.67
  -5   1  -9    6.75    2.19
   5  -1   9   13.85    2.03
   5  -1   9   14.67    1.99
   5  -1   9   13.14    2.03
   5  -1   9    7.65    2.44
  -6   1  -9   43.84    4.06
  -6   1  -9   46.62    3.82
  -6   1  -9   44.86    4.50
  -6   1  -9   49.98    3.22
  -6   1  -9   49.86    4.12
   6  -1   9   49.60    4.99
   6  -1   9   57.09    3.78
   6  -1   9   46.31    3.65
   6  -1   9   45.96    3.52
  -7   1  -9   31.51    3.76
  -7   1  -9   43.07    3.72
  -7   1  -9   38.70    3.57
  -7   1  -9   45.92    3.39
   7  -1   9   43.10    3.82
   7  -1   9   38.37    3.52
   7  -1   9   36.08    4.21
  -8   1  -9    2.80    1.97
  -8   1  -9    0.79    1.47
  -8   1  -9    0.04    1.57
   8  -1   9    1.23    1.63
   8  -1   9   -0.74    1.94
   8  -1   9    0.28    2.16
   4   0  -9    0.85    1.44
   4   0  -9   -0.24    1.45
   4   0  -9    1.06    1.56
   4   0  -9    3.21    1.77
  -4   0   9    0.76    1.49
  -4   0   9   -1.70    1.37
  -4   0   9    0.25    1.63
  -4   0   9    2.70    1.44
  -4   0   9    1.61    1.23
  -4   0   9    2.25    2.34
   3   0  -9    8.74    1.77
   3   0  -9   12.63    1.95
   3   0  -9    8.96    2.01
   3   0  -9   11.08    2.04
  -3   0   9   10.13    1.74
  -3   0   9   11.64    1.77
  -3   0   9   14.71    2.28
  -3   0   9    8.44    1.88
  -3   0   9   11.13    2.74
  -3   0   9    9.06    1.87
   2   0  -9   86.34    4.68
   2   0  -9   69.25    4.26
   2   0  -9   71.42    3.96
  -2   0   9   64.41    4.28
  -2   0   9   67.99    3.98
  -2   0   9   74.43    5.20
  -2   0   9   65.71    4.39
  -2   0   9   67.15    4.34
  -2   0   9   79.37    4.11
   1   0  -9   58.58    3.29
   1   0  -9   64.58    3.94
   1   0  -9   57.82    3.69
  -1   0   9   62.78    3.86
  -1   0   9   56.83    4.45
  -1   0   9   57.90    4.08
  -1   0   9   65.79    3.83
  -1   0   9   61.31    3.44
  -1   0   9   57.67    3.41
   0   0  -9   10.08    1.35
   0   0  -9   11.97    1.69
   0   0  -9   11.29    1.84
   0   0   9   10.33    1.56
   0   0   9   11.92    2.06
   0   0   9   12.45    1.53
   0   0   9   12.49    1.71
   0   0   9   14.82    2.24
  -1   0  -9    3.80    1.18
  -1   0  -9    5.12    1.41
  -1   0  -9    2.50    0.88
   1   0   9    2.46    1.08
   1   0   9    2.27    1.08
   1   0   9    2.93    0.98
   1   0   9    3.28    1.18
   1   0   9    4.36    1.54
   1   0   9    2.95    1.59
  -2   0  -9   17.24    2.03
  -2   0  -9   15.54    1.92
  -2   0  -9   18.24    1.49
  -2   0  -9   16.44    1.67
   2   0   9   18.89    1.82
   2   0   9   17.19    2.29
   2   0   9   15.05    1.65
   2   0   9   11.69    1.71
   2   0   9   15.06    2.08
   2   0   9   13.68    1.80
  -3   0  -9    3.28    1.08
  -3   0  -9    3.27    1.40
  -3   0  -9    3.64    1.49
  -3   0  -9    2.17    0.97
   3   0   9    1.71    1.25
   3   0   9    1.01    1.16
   3   0   9    2.84    1.29
   3   0   9    2.69    1.13
   3   0   9    1.72    1.42
  -4   0  -9   17.27    2.06
  -4   0  -9   22.47    2.73
  -4   0  -9   16.61    1.94
  -4   0  -9   22.16    2.58
   4   0   9   20.82    2.37
   4   0   9   18.46    2.07
   4   0   9   17.93    2.51
   4   0   9   21.95    2.44
   4   0   9   18.62    2.31
  -5   0  -9    1.79    1.78
  -5   0  -9    0.08    1.13
  -5   0  -9   -0.72    1.47
  -5   0  -9    0.36    0.98
  -5   0  -9    1.35    1.83
   5   0   9    0.22    1.11
   5   0   9    3.38    2.01
   5   0   9    1.06    1.37
   5   0   9    2.02    1.39
  -6   0  -9   55.26    3.78
  -6   0  -9   44.43    4.64
  -6   0  -9   60.57    3.39
  -6   0  -9   56.53    4.63
   6   0   9   54.37    3.54
   6   0   9   46.90    4.82
   6   0   9   56.34    3.87
   6   0   9   59.51    3.71
  -7   0  -9   13.78    2.45
  -7   0  -9   13.17    2.55
  -7   0  -9   15.77    2.26
  -7   0  -9   16.62    2.08
   7   0   9   13.72    2.36
   7   0   9   12.36    2.95
   7   0   9   12.04    2.13
  -8   0  -9   87.15    4.84
  -8   0  -9   80.65    5.30
  -8   0  -9   83.20    5.82
  -8   0  -9   87.38    5.36
   8   0   9   95.98    5.50
   8   0   9   80.63    4.90
   8   0   9   97.44    6.38
  -9   0  -9    7.20    1.82
   9   0   9    7.79    2.46
   9   0   9    6.48    2.06
   4  -1  -9   32.29    3.28
   4  -1  -9   34.99    3.67
   4  -1  -9   35.46    3.37
  -4   1   9   32.51    3.32
  -4   1   9   34.52    3.18
  -4   1   9   26.58    4.33
  -4   1   9   35.65    3.75
   3  -1  -9   16.84    2.59
   3  -1  -9   23.84    2.65
   3  -1  -9   25.22    2.87
   3  -1  -9   26.12    2.76
  -3   1   9   24.22    3.80
  -3   1   9   22.23    2.87
  -3   1   9   31.03    2.73
  -3   1   9   25.22    2.76
  -3   1   9   26.31    2.96
  -3   1   9   27.66    2.66
   2  -1  -9   60.65    3.84
   2  -1  -9   61.42    3.63
   2  -1  -9   56.20    4.09
   2  -1  -9   63.72    4.00
  -2   1   9   56.41    3.53
  -2   1   9   58.46    3.88
  -2   1   9   60.45    5.31
  -2   1   9   61.44    3.70
  -2   1   9   60.04    4.11
   1  -1  -9    6.90    1.40
   1  -1  -9    4.12    1.32
   1  -1  -9    4.08    1.47
  -1   1   9    3.29    1.21
  -1   1   9    5.99    1.52
  -1   1   9    2.35    1.89
  -1   1   9    5.45    1.86
  -1   1   9    5.84    1.45
  -1   1   9    5.36    1.26
   0  -1  -9   -0.28    0.90
   0  -1  -9   -1.28    0.90
   0  -1  -9   -0.41    1.11
   0   1   9   -0.18    0.77
   0   1   9    0.26    0.96
   0   1   9    0.29    1.48
   0   1   9    0.86    0.96
   0   1   9    0.12    1.54
  -1  -1  -9  121.18    5.20
  -1  -1  -9  121.04    5.94
  -1  -1  -9  119.81    5.75
   1   1   9  117.47    5.30
   1   1   9  118.22    5.81
   1   1   9  114.79    6.47
   1   1   9  115.81    5.68
   1   1   9  108.27    6.11
  -2  -1  -9   -0.68    0.99
  -2  -1  -9    1.28    0.79
  -2  -1  -9    1.30    1.09
  -2  -1  -9    0.55    0.75
   2   1   9    0.02    0.72
   2   1   9   -0.50    0.80
   2   1   9   -2.49    1.33
   2   1   9    0.11    0.87
   2   1   9    0.82    1.17
   2   1   9    1.47    1.22
  -3  -1  -9   87.31    4.30
  -3  -1  -9   98.35    4.53
  -3  -1  -9   93.72    4.26
  -3  -1  -9   88.76    4.95
  -3  -1  -9   86.79    5.03
   3   1   9   95.09    4.86
   3   1   9   90.48    4.68
   3   1   9   92.08    4.43
   3   1   9   90.25    5.00
   3   1   9   91.38    5.10
  -4  -1  -9   12.91    1.62
  -4  -1  -9   11.09    1.94
  -4  -1  -9   13.09    2.19
  -4  -1  -9   12.57    1.33
  -4  -1  -9   10.76    1.42
   4   1   9   12.84    2.00
   4   1   9   13.76    2.12
   4   1   9   13.62    1.64
   4   1   9   12.92    1.67
   4   1   9   12.09    1.85
   4   1   9   14.89    1.81
  -5  -1  -9   97.45    4.87
  -5  -1  -9   97.29    6.15
  -5  -1  -9   94.66    6.08
  -5  -1  -9  106.08    4.81
  -5  -1  -9  105.54    5.35
   5   1   9  109.95    5.53
   5   1   9  108.75    5.10
   5   1   9  111.79    5.39
   5   1   9   99.72    6.09
  -6  -1  -9    1.45    1.17
  -6  -1  -9    2.62    1.18
  -6  -1  -9    2.35    1.35
  -6  -1  -9    0.10    1.62
  -6  -1  -9   -0.73    1.63
   6   1   9    0.50    1.37
   6   1   9   -1.52    1.33
   6   1   9    0.14    1.18
   6   1   9   -0.36    1.99
  -7  -1  -9   92.19    6.01
  -7  -1  -9   97.40    5.50
  -7  -1  -9  102.36    6.09
  -7  -1  -9  103.70    5.07
   7   1   9   91.04    5.28
   7   1   9   95.13    6.40
   7   1   9   97.03    5.25
   7   1   9  100.93    5.23
  -8  -1  -9   17.15    2.87
  -8  -1  -9   26.16    2.68
  -8  -1  -9   21.10    2.95
  -8  -1  -9   25.55    2.88
   8   1   9   21.59    2.78
   8   1   9   25.69    3.41
   8   1   9   20.30    2.84
  -9  -1  -9    6.36    1.76
  -9  -1  -9    4.13    1.77
  -9  -1  -9    6.49    2.07
  -9  -1  -9    5.97    2.15
   9   1   9    5.45    2.27
   9   1   9    7.30    2.51
   9   1   9    6.82    2.09
   3  -2  -9    2.81    1.68
   3  -2  -9    0.73    1.76
  -3   2   9    3.00    2.69
  -3   2   9    3.06    1.71
  -3   2   9    1.08    1.22
   2  -2  -9    5.92    1.87
   2  -2  -9    8.11    1.83
  -2   2   9    6.39    1.49
  -2   2   9    3.95    1.62
  -2   2   9    6.78    2.39
   1  -2  -9   32.34    2.72
   1  -2  -9   28.83    2.57
   1  -2  -9   27.12    2.86
  -1   2   9   32.05    2.75
  -1   2   9   27.74    3.32
  -1   2   9   26.68    3.60
  -1   2   9   29.64    2.43
  -1   2   9   29.23    2.79
  -1   2   9   34.35    2.79
   0  -2  -9   77.74    3.97
   0  -2  -9   68.35    3.96
   0  -2  -9   69.80    4.28
   0  -2  -9   76.95    3.69
   0   2   9   71.17    5.04
   0   2   9   75.75    3.76
   0   2   9   67.50    4.13
   0   2   9   72.74    4.97
   0   2   9   68.99    4.03
  -1  -2  -9   18.86    2.29
  -1  -2  -9   20.95    2.07
  -1  -2  -9   25.40    2.09
  -1  -2  -9   20.46    2.05
   1   2   9   20.64    2.77
   1   2   9   20.25    2.69
   1   2   9   24.12    2.06
   1   2   9   24.88    1.92
   1   2   9   20.55    2.01
  -2  -2  -9   20.57    2.04
  -2  -2  -9   20.75    2.32
  -2  -2  -9   20.64    1.85
   2   2   9   20.36    2.73
   2   2   9   20.86    2.50
   2   2   9   16.77    1.79
   2   2   9   18.50    1.64
   2   2   9   22.60    2.26
  -3  -2  -9    1.16    0.87
  -3  -2  -9    0.35    1.20
  -3  -2  -9   -0.21    1.20
   3   2   9    1.02    0.76
   3   2   9    1.68    1.34
   3   2   9    2.15    0.98
   3   2   9    0.02    1.45
   3   2   9   -0.65    1.07
  -4  -2  -9   10.99    1.45
  -4  -2  -9    9.69    1.87
  -4  -2  -9    6.38    1.10
  -4  -2  -9   11.08    1.47
  -4  -2  -9    8.69    1.79
   4   2   9    9.48    1.89
   4   2   9   12.27    1.97
   4   2   9    8.33    1.37
   4   2   9   11.57    1.50
   4   2   9    9.02    1.54
   4   2   9    9.54    1.54
  -5  -2  -9    0.62    1.05
  -5  -2  -9    1.71    1.09
  -5  -2  -9    1.72    1.58
  -5  -2  -9    0.32    0.88
  -5  -2  -9    1.65    1.55
   5   2   9    3.78    1.56
   5   2   9    0.41    1.16
   5   2   9    0.63    1.36
   5   2   9    1.12    1.16
   5   2   9    1.70    1.56
  -6  -2  -9   15.06    2.75
  -6  -2  -9   18.31    2.25
  -6  -2  -9   17.73    1.91
  -6  -2  -9   16.91    2.73
  -6  -2  -9   16.64    2.00
   6   2   9   16.03    2.25
   6   2   9   16.52    2.35
   6   2   9   15.47    2.09
   6   2   9   11.35    2.57
  -7  -2  -9   28.79    3.45
  -7  -2  -9   31.77    2.73
  -7  -2  -9   29.51    2.62
  -7  -2  -9   28.35    3.33
  -7  -2  -9   26.89    2.93
   7   2   9   27.61    2.94
   7   2   9   29.68    3.57
   7   2   9   25.70    2.75
   7   2   9   30.64    2.78
  -8  -2  -9   10.83    2.32
  -8  -2  -9   12.19    2.25
  -8  -2  -9    8.54    1.88
  -8  -2  -9   11.29    1.90
  -8  -2  -9    8.58    2.20
   8   2   9    8.41    2.47
   8   2   9   10.50    2.10
   8   2   9    7.99    2.04
  -9  -2  -9   94.55    6.20
  -9  -2  -9   98.85    6.19
  -9  -2  -9  104.57    6.52
  -9  -2  -9  108.78    5.72
  -9  -2  -9  108.31    5.60
   9   2   9  100.50    5.83
   9   2   9  102.78    6.68
   9   2   9  123.76    5.89
   9   2   9  114.65    6.23
 -10  -2  -9    3.15    1.83
 -10  -2  -9    3.48    2.03
 -10  -2  -9    5.06    2.11
  10   2   9    0.99    1.91
  10   2   9    0.76    2.11
   2  -3  -9   15.11    2.22
   2  -3  -9   14.92    2.54
  -2   3   9   17.55    2.24
  -2   3   9   19.72    3.68
  -2   3   9   11.32    2.14
   1  -3  -9  102.05    5.32
   1  -3  -9  108.46    5.97
  -1   3   9  111.91    5.82
  -1   3   9  102.78    6.42
  -1   3   9  104.89    5.36
  -1   3   9   97.89    6.80
   0  -3  -9    1.31    1.21
   0  -3  -9   -0.80    1.29
   0   3   9   -0.13    1.07
   0   3   9    1.34    1.71
   0   3   9   -0.84    0.88
   0   3   9   -1.53    1.90
  -1  -3  -9   20.21    1.93
  -1  -3  -9   14.71    2.08
  -1  -3  -9   14.64    1.81
   1   3   9   17.22    2.64
   1   3   9   14.12    2.55
  -2  -3  -9   38.61    2.72
  -2  -3  -9   38.67    3.31
  -2  -3  -9   43.32    2.84
  -2  -3  -9   42.51    2.83
   2   3   9   45.07    3.11
   2   3   9   42.53    3.75
   2   3   9   39.48    3.58
  -3  -3  -9    8.09    1.61
  -3  -3  -9   10.55    1.47
  -3  -3  -9    7.80    1.50
  -3  -3  -9    5.84    1.70
   3   3   9    9.04    1.73
   3   3   9    9.58    1.77
   3   3   9   11.56    2.13
  -4  -3  -9   59.77    3.25
  -4  -3  -9   61.90    3.62
  -4  -3  -9   57.63    3.27
  -4  -3  -9   63.57    3.98
  -4  -3  -9   58.09    3.40
  -4  -3  -9   55.02    2.94
  -4  -3  -9   58.15    4.13
   4   3   9   63.50    3.80
   4   3   9   66.98    3.80
   4   3   9   67.06    4.18
   4   3   9   58.22    3.42
   4   3   9   60.02    3.22
   4   3   9   64.86    3.16
  -5  -3  -9   26.31    3.09
  -5  -3  -9   24.71    2.24
  -5  -3  -9   18.51    2.28
  -5  -3  -9   24.24    2.25
  -5  -3  -9   21.42    2.97
  -5  -3  -9   24.43    2.02
  -5  -3  -9   24.32    2.22
   5   3   9   23.61    2.41
   5   3   9   20.81    2.38
   5   3   9   24.76    2.13
   5   3   9   23.43    2.17
   5   3   9   24.15    2.78
  -6  -3  -9  101.60    5.51
  -6  -3  -9  105.36    5.36
  -6  -3  -9  105.43    6.61
  -6  -3  -9  115.41    5.37
  -6  -3  -9  111.21    5.08
  -6  -3  -9  106.92    6.28
   6   3   9  108.52    5.48
   6   3   9  104.29    5.32
   6   3   9  104.13    6.02
   6   3   9  102.33    5.74
  -7  -3  -9    1.90    1.43
  -7  -3  -9   -1.91    1.07
  -7  -3  -9    1.43    1.28
  -7  -3  -9    2.46    1.68
  -7  -3  -9    2.65    1.82
  -7  -3  -9   -1.91    1.24
   7   3   9    2.52    1.60
   7   3   9    1.03    1.42
   7   3   9    0.19    1.55
   7   3   9    2.39    2.01
  -8  -3  -9  119.43    6.71
  -8  -3  -9  125.34    6.36
  -8  -3  -9  125.71    6.21
  -8  -3  -9  140.53    7.34
  -8  -3  -9  134.42    6.22
  -8  -3  -9  120.84    7.13
   8   3   9  135.96    6.54
   8   3   9  134.58    7.53
   8   3   9  116.93    6.47
  -9  -3  -9    6.02    1.84
  -9  -3  -9    8.26    1.69
  -9  -3  -9    5.55    1.73
  -9  -3  -9    9.32    2.28
  -9  -3  -9    4.97    2.05
  -9  -3  -9    8.70    2.15
   9   3   9   10.65    2.04
   9   3   9    6.78    2.00
   9   3   9    8.51    2.39
   9   3   9    6.85    2.19
 -10  -3  -9   10.24    2.44
 -10  -3  -9   15.36    2.78
 -10  -3  -9   11.50    2.23
 -10  -3  -9   14.38    2.47
  10   3   9   14.89    2.50
  10   3   9   14.02    2.54
  10   3   9   16.99    2.89
   2  -4  -9   13.82    2.57
   2  -4  -9   13.30    2.30
  -2   4   9   12.99    3.59
  -2   4   9   10.05    1.97
   1  -4  -9    2.37    1.48
   1  -4  -9   -0.47    1.55
  -1   4   9   -1.17    1.13
  -1   4   9   -0.64    2.21
   0  -4  -9    3.96    1.64
   0  -4  -9    2.89    1.46
   0   4   9    3.47    2.09
   0   4   9    2.45    1.30
   0   4   9    2.92    2.40
  -1  -4  -9   49.16    3.24
  -1  -4  -9   49.34    2.92
  -1  -4  -9   43.64    3.70
   1   4   9   44.97    4.39
   1   4   9   46.00    4.51
  -2  -4  -9   17.44    1.87
  -2  -4  -9   15.79    1.95
  -2  -4  -9   15.38    2.29
   2   4   9   19.16    2.95
   2   4   9   15.77    2.55
  -3  -4  -9   27.34    2.82
  -3  -4  -9   26.42    2.37
  -3  -4  -9   29.78    2.49
   3   4   9   27.40    2.50
   3   4   9   27.75    2.95
   3   4   9   25.85    3.06
  -4  -4  -9   -1.55    1.26
  -4  -4  -9   -1.19    0.95
  -4  -4  -9   -0.56    0.81
  -4  -4  -9   -0.59    0.91
  -4  -4  -9   -1.30    0.95
   4   4   9   -0.52    1.22
   4   4   9    0.76    1.66
   4   4   9   -0.66    0.86
   4   4   9    0.66    1.15
  -5  -4  -9   35.03    2.88
  -5  -4  -9   35.43    2.80
  -5  -4  -9   33.33    2.44
  -5  -4  -9   30.61    3.38
  -5  -4  -9   33.50    2.67
  -5  -4  -9   35.56    2.66
  -5  -4  -9   37.33    3.48
   5   4   9   30.02    3.22
   5   4   9   35.89    2.68
   5   4   9   28.33    2.83
  -6  -4  -9    2.26    1.53
  -6  -4  -9    2.15    1.24
  -6  -4  -9    2.53    1.28
  -6  -4  -9    1.14    1.29
  -6  -4  -9    2.47    1.26
  -6  -4  -9    1.01    1.87
  -6  -4  -9    1.01    1.08
   6   4   9   -0.37    1.28
   6   4   9    1.76    1.58
   6   4   9    0.92    1.22
  -7  -4  -9   39.60    3.14
  -7  -4  -9   33.89    3.16
  -7  -4  -9   32.19    3.82
  -7  -4  -9   38.82    3.64
  -7  -4  -9   36.88    3.16
  -7  -4  -9   33.76    2.83
   7   4   9   39.93    3.44
   7   4   9   34.14    3.15
   7   4   9   39.75    3.41
  -8  -4  -9   17.66    2.83
  -8  -4  -9   15.04    2.34
  -8  -4  -9   12.05    2.36
  -8  -4  -9   17.56    2.21
  -8  -4  -9    9.32    2.03
  -8  -4  -9   15.65    2.10
   8   4   9   15.13    2.37
   8   4   9   13.61    2.23
   8   4   9    9.91    2.09
  -9  -4  -9    6.21    1.89
  -9  -4  -9    7.43    2.17
  -9  -4  -9    9.29    2.29
  -9  -4  -9    6.65    1.90
  -9  -4  -9    5.02    1.71
  -9  -4  -9    5.57    1.65
   9   4   9    7.67    2.19
   9   4   9    1.98    1.88
 -10  -4  -9   90.39    5.34
 -10  -4  -9   85.10    5.62
 -10  -4  -9   80.28    5.66
 -10  -4  -9   83.19    4.94
  10   4   9   79.19    5.21
  10   4   9   77.69    5.23
  10   4   9   95.97    5.45
   1  -5  -9   12.41    2.39
   1  -5  -9    7.05    1.93
  -1   5   9    8.06    1.83
  -1   5   9    9.18    3.29
   0  -5  -9  104.56    5.85
   0  -5  -9   94.10    5.27
   0   5   9   98.18    7.03
   0   5   9   92.41    6.78
   0   5   9   93.39    5.14
  -1  -5  -9    2.79    1.10
  -1  -5  -9    2.95    1.62
  -1  -5  -9    0.18    1.23
   1   5   9   -2.83    2.18
   1   5   9    2.68    1.93
  -2  -5  -9   36.78    3.33
  -2  -5  -9   32.96    2.95
  -2  -5  -9   38.98    2.82
   2   5   9   33.28    3.76
   2   5   9   37.54    4.08
  -3  -5  -9   26.92    2.26
  -3  -5  -9   24.20    2.82
  -3  -5  -9   28.44    2.61
  -3  -5  -9   28.88    2.53
   3   5   9   30.99    3.50
   3   5   9   28.46    2.57
   3   5   9   26.16    3.11
  -4  -5  -9   27.56    2.64
  -4  -5  -9   33.50    2.53
  -4  -5  -9   30.67    2.51
  -4  -5  -9   30.70    2.66
  -4  -5  -9   36.88    3.43
   4   5   9   28.06    3.28
   4   5   9   34.75    2.77
   4   5   9   30.65    2.52
   4   5   9   31.61    3.11
  -5  -5  -9   33.67    2.48
  -5  -5  -9   31.53    2.76
  -5  -5  -9   33.67    3.58
  -5  -5  -9   29.34    2.56
  -5  -5  -9   30.01    2.64
  -5  -5  -9   30.17    2.72
   5   5   9   33.43    2.79
   5   5   9   37.24    2.99
   5   5   9   28.71    3.22
  -6  -5  -9   25.98    2.55
  -6  -5  -9   22.76    2.41
  -6  -5  -9   25.73    2.46
  -6  -5  -9   23.02    2.25
  -6  -5  -9   28.60    2.66
  -6  -5  -9   27.13    3.57
   6   5   9   23.68    2.35
   6   5   9   24.49    2.61
   6   5   9   26.93    3.13
  -7  -5  -9   78.59    5.64
  -7  -5  -9   85.55    4.70
  -7  -5  -9   83.54    4.92
  -7  -5  -9   87.89    4.62
  -7  -5  -9   82.30    4.46
  -7  -5  -9   86.10    4.82
   7   5   9   87.13    5.25
   7   5   9   80.35    4.71
   7   5   9   79.62    4.62
  -8  -5  -9    0.06    1.81
  -8  -5  -9    1.76    1.37
  -8  -5  -9    1.59    1.51
  -8  -5  -9    2.23    1.53
  -8  -5  -9    0.38    1.30
   8   5   9    3.01    1.79
   8   5   9    1.00    1.65
   8   5   9    1.16    1.48
  -9  -5  -9  137.42    7.09
  -9  -5  -9  140.81    7.91
  -9  -5  -9  135.89    6.66
  -9  -5  -9  142.72    7.53
  -9  -5  -9  135.54    6.76
  -9  -5  -9  145.80    7.57
   9   5   9  130.35    7.01
   9   5   9  128.68    6.92
 -10  -5  -9    1.96    1.78
 -10  -5  -9   -0.24    1.62
 -10  -5  -9    0.12    1.65
 -10  -5  -9    1.96    1.57
  10   5   9    3.49    1.93
  10   5   9   -1.05    1.82
   0  -6  -9    1.31    1.54
   0   6   9    1.82    1.46
   0   6   9    1.27    2.60
  -1  -6  -9    2.20    1.35
  -1  -6  -9    2.91    1.77
   1   6   9    4.54    2.85
   1   6   9   -1.12    2.07
  -2  -6  -9   31.31    2.57
  -2  -6  -9   29.43    3.19
  -2  -6  -9   24.78    2.73
   2   6   9   30.42    3.77
   2   6   9   28.72    3.99
  -3  -6  -9    3.13    1.64
  -3  -6  -9    1.46    1.17
  -3  -6  -9    3.68    1.32
  -3  -6  -9    3.48    1.46
   3   6   9    2.15    1.85
   3   6   9    3.39    2.15
  -4  -6  -9   18.27    2.29
  -4  -6  -9   21.33    2.89
  -4  -6  -9   19.71    2.20
  -4  -6  -9   23.97    2.18
   4   6   9   14.72    2.68
   4   6   9   20.90    2.76
   4   6   9   26.20    2.45
   4   6   9   21.62    2.23
  -5  -6  -9    1.64    1.18
  -5  -6  -9    0.01    1.03
  -5  -6  -9    0.98    1.11
  -5  -6  -9    0.52    1.10
  -5  -6  -9    2.48    1.96
   5   6   9   -1.40    1.20
   5   6   9   -0.64    1.69
   5   6   9    1.06    1.04
  -6  -6  -9   41.85    3.34
  -6  -6  -9   40.07    3.00
  -6  -6  -9   43.57    3.43
  -6  -6  -9   47.27    3.14
  -6  -6  -9   41.77    4.36
  -6  -6  -9   39.97    3.32
   6   6   9   41.00    3.19
   6   6   9   45.48    3.26
   6   6   9   37.98    3.29
   6   6   9   41.56    3.90
  -7  -6  -9    9.98    1.73
  -7  -6  -9    6.08    1.63
  -7  -6  -9    8.01    1.74
  -7  -6  -9   10.87    1.82
  -7  -6  -9    5.54    1.67
  -7  -6  -9    9.24    2.68
   7   6   9    9.39    2.22
   7   6   9    6.37    1.93
   7   6   9    7.06    1.61
  -8  -6  -9   54.91    4.20
  -8  -6  -9   51.46    4.92
  -8  -6  -9   62.23    4.18
  -8  -6  -9   63.24    3.95
  -8  -6  -9   49.02    4.13
  -8  -6  -9   58.72    3.66
   8   6   9   51.59    4.13
   8   6   9   53.53    4.20
   8   6   9   59.75    4.63
  -9  -6  -9    1.77    1.49
  -9  -6  -9    3.29    2.02
  -9  -6  -9    0.91    1.49
  -9  -6  -9   -0.63    1.28
  -9  -6  -9    3.20    1.80
   9   6   9    0.99    1.79
   9   6   9   -1.09    1.53
 -10  -6  -9    2.72    1.61
 -10  -6  -9    2.15    1.70
 -10  -6  -9    2.67    1.68
 -10  -6  -9    0.21    1.56
  10   6   9    2.07    1.98
  10   6   9   -1.67    1.71
  -1  -7  -9   49.93    4.10
   1   7   9   46.60    5.63
   1   7   9   53.06    5.70
   1   7   9   56.52    3.81
  -2  -7  -9   -0.14    1.13
  -2  -7  -9   -2.05    1.24
   2   7   9   -2.14    2.04
   2   7   9    3.08    2.70
  -3  -7  -9   37.61    3.79
  -3  -7  -9   32.96    2.90
  -3  -7  -9   37.09    3.22
  -3  -7  -9   33.89    2.91
   3   7   9   36.92    4.23
   3   7   9   35.83    4.04
  -4  -7  -9   14.85    2.75
  -4  -7  -9   13.30    1.91
  -4  -7  -9   10.18    1.76
  -4  -7  -9   12.55    2.11
   4   7   9   12.19    1.98
   4   7   9   16.29    2.65
   4   7   9   11.36    2.68
  -5  -7  -9   53.90    3.38
  -5  -7  -9   52.94    4.96
  -5  -7  -9   44.47    3.67
  -5  -7  -9   49.87    3.48
  -5  -7  -9   50.51    3.75
   5   7   9   47.70    3.45
   5   7   9   52.07    3.39
   5   7   9   50.32    4.41
  -6  -7  -9    5.44    1.62
  -6  -7  -9    4.20    2.48
  -6  -7  -9    5.47    1.56
  -6  -7  -9    6.28    1.64
  -6  -7  -9    6.37    1.60
   6   7   9    4.26    1.52
   6   7   9    3.69    1.85
   6   7   9    2.95    1.60
  -7  -7  -9   48.07    3.83
  -7  -7  -9   49.21    3.74
  -7  -7  -9   48.54    3.88
  -7  -7  -9   48.93    3.31
  -7  -7  -9   48.25    4.87
  -7  -7  -9   48.41    3.74
   7   7   9   43.86    3.71
   7   7   9   46.01    3.55
   7   7   9   43.51    3.80
   7   7   9   43.77    4.12
  -8  -7  -9   32.93    4.08
  -8  -7  -9   34.65    3.22
  -8  -7  -9   32.45    3.35
  -8  -7  -9   35.09    3.27
  -8  -7  -9   30.78    3.30
  -8  -7  -9   32.89    3.06
   8   7   9   34.22    3.27
   8   7   9   34.79    3.44
   8   7   9   38.18    3.86
  -9  -7  -9   -1.65    1.86
  -9  -7  -9    1.47    1.70
  -9  -7  -9   -0.71    1.62
  -9  -7  -9   -1.37    1.38
  -9  -7  -9   -0.32    1.48
   9   7   9   -0.89    1.53
   9   7   9   -1.90    1.66
   9   7   9    2.57    2.08
 -10  -7  -9   94.09    5.96
 -10  -7  -9   97.53    5.68
 -10  -7  -9  106.55    5.69
 -10  -7  -9  112.18    6.73
  10   7   9   90.61    5.70
  10   7   9   94.63    6.00
  -3  -8  -9    7.80    1.82
  -3  -8  -9    8.10    3.85
  -3  -8  -9    5.26    1.78
  -3  -8  -9    6.69    1.64
   3   8   9    7.83    2.88
   3   8   9    5.70    2.53
  -4  -8  -9    0.37    1.27
  -4  -8  -9   -0.22    1.19
  -4  -8  -9    0.45    1.45
   4   8   9   -2.09    1.79
   4   8   9   -1.33    2.02
  -5  -8  -9    3.04    1.65
  -5  -8  -9    2.68    2.56
  -5  -8  -9    4.83    1.48
  -5  -8  -9    5.16    1.55
   5   8   9    1.86    1.51
   5   8   9    4.03    2.05
   5   8   9    5.16    1.71
  -6  -8  -9    6.46    2.72
  -6  -8  -9    1.12    1.32
  -6  -8  -9   -0.21    1.33
  -6  -8  -9    1.30    1.34
  -6  -8  -9    0.01    1.39
   6   8   9    0.74    1.28
   6   8   9    0.72    1.47
   6   8   9    1.19    1.86
  -7  -8  -9   29.11    3.99
  -7  -8  -9   26.74    2.82
  -7  -8  -9   28.46    3.14
  -7  -8  -9   26.62    2.99
  -7  -8  -9   26.75    2.77
   7   8   9   30.55    3.12
   7   8   9   25.43    2.96
   7   8   9   32.99    3.65
  -8  -8  -9    5.53    2.33
  -8  -8  -9    4.39    1.75
  -8  -8  -9    6.31    1.80
  -8  -8  -9    5.46    1.67
  -8  -8  -9    3.64    1.81
  -8  -8  -9    5.50    1.88
   8   8   9    6.29    1.76
   8   8   9    5.52    2.30
   8   8   9    6.21    2.04
  -9  -8  -9   59.05    4.37
  -9  -8  -9   59.72    5.27
  -9  -8  -9   52.24    4.22
  -9  -8  -9   56.76    4.56
  -9  -8  -9   52.41    4.15
   9   8   9   53.80    4.78
   9   8   9   42.45    4.10
   9   8   9   54.27    4.37
  -5  -9  -9    3.47    1.64
  -5  -9  -9    2.85    1.51
  -5  -9  -9    3.77    1.76
   5   9   9    5.96    2.56
   5   9   9    0.86    1.47
  -6  -9  -9   41.66    3.77
  -6  -9  -9   33.88    3.21
  -6  -9  -9   35.33    3.27
   6   9   9   29.61    3.11
   6   9   9   33.68    3.88
  -7  -9  -9   -1.19    1.34
  -7  -9  -9    1.58    1.63
  -7  -9  -9    1.93    1.37
   7   9   9    2.06    2.13
   7   9   9    0.95    1.59
   1   8 -10    2.01    2.02
   1   8 -10   -1.05    2.73
   1   8 -10    2.05    2.06
  -1  -8  10    2.74    2.75
  -1  -8  10    1.85    1.35
  -1  -8  10    2.66    3.16
  -1  -8  10    3.02    1.46
  -1  -8  10    3.50    2.02
   0  -8  10   22.76    3.21
   0  -8  10   18.07    4.44
   3   7 -10   20.04    3.05
   3   7 -10   25.88    3.17
  -3  -7  10   24.25    4.26
  -3  -7  10   25.81    3.36
  -3  -7  10   26.26    2.72
  -3  -7  10   31.72    3.39
   2   7 -10    1.94    1.83
   2   7 -10    6.94    2.19
  -2  -7  10    6.47    1.99
  -2  -7  10    5.08    2.87
  -2  -7  10    5.99    1.62
   1   7 -10   83.49    5.31
   1   7 -10   81.27    5.46
  -1  -7  10   84.58    4.39
  -1  -7  10   70.83    6.92
  -1  -7  10   78.78    4.67
  -1  -7  10   75.12    5.07
  -1  -7  10   78.52    5.25
  -1  -7  10   93.40    6.98
   0   7 -10    0.23    1.89
   0   7 -10    2.88    2.74
   0   7 -10   -0.02    1.67
   0  -7  10    0.24    1.46
   0  -7  10    0.81    1.23
   0  -7  10   -0.98    1.14
   0  -7  10   -0.72    2.76
   0  -7  10   -0.14    1.62
   0  -7  10    0.77    2.36
  -1   7 -10   95.92    6.14
  -1   7 -10   92.88    6.45
  -1   7 -10   94.00    7.99
   1  -7  10   75.55    7.49
   1  -7  10   92.59    6.84
   1  -7  10   90.17    4.91
   1  -7  10   86.76    5.23
   1  -7  10   87.53    5.55
  -2   7 -10    1.89    2.68
  -2   7 -10    5.59    2.91
  -2   7 -10    7.70    2.92
   2  -7  10    4.55    2.48
   2  -7  10    4.61    2.16
   2  -7  10    6.49    1.91
   2  -7  10    4.50    1.81
   2  -7  10   -1.74    2.94
   4   6 -10    9.56    2.36
   4   6 -10   13.98    2.48
   4   6 -10   10.25    2.30
  -4  -6  10   11.13    2.47
  -4  -6  10   10.23    3.25
  -4  -6  10    7.29    1.97
  -4  -6  10    9.57    1.94
   3   6 -10   -0.71    1.44
   3   6 -10    0.53    1.62
  -3  -6  10   -2.57    1.45
  -3  -6  10   -0.50    1.15
  -3  -6  10    0.51    2.38
  -3  -6  10    0.74    1.48
   2   6 -10   39.23    3.63
   2   6 -10   40.98    3.80
  -2  -6  10   35.40    3.15
  -2  -6  10   43.55    3.77
  -2  -6  10   33.04    3.60
  -2  -6  10   43.69    3.89
  -2  -6  10   47.88    5.13
   1   6 -10    3.69    1.77
   1   6 -10    2.18    1.75
  -1  -6  10    0.68    1.20
  -1  -6  10    0.93    2.35
  -1  -6  10   -0.37    1.97
  -1  -6  10    1.88    1.68
  -1  -6  10    2.72    1.47
   0   6 -10   15.46    2.66
   0   6 -10   17.17    2.64
   0  -6  10   22.27    2.49
   0  -6  10   23.66    3.81
   0  -6  10   20.69    3.49
   0  -6  10   20.66    2.21
   0  -6  10   18.72    2.70
   0  -6  10   16.44    2.42
  -1   6 -10   13.59    2.61
  -1   6 -10   14.52    2.76
  -1   6 -10   16.09    3.42
   1  -6  10    9.41    3.11
   1  -6  10   11.90    2.81
   1  -6  10   11.93    1.98
   1  -6  10   17.51    2.56
   1  -6  10   16.69    2.16
   1  -6  10   10.74    2.20
  -2   6 -10    9.28    3.05
  -2   6 -10   11.89    2.77
  -2   6 -10    9.35    2.79
   2  -6  10    7.94    1.74
   2  -6  10    6.85    1.87
   2  -6  10    7.43    2.16
   2  -6  10    3.99    1.75
   2  -6  10    6.22    2.42
   2  -6  10    8.88    3.20
  -3   6 -10   54.96    5.80
  -3   6 -10   53.62    5.71
  -3   6 -10   62.72    5.98
   3  -6  10   63.42    4.89
   3  -6  10   67.76    5.20
   3  -6  10   68.88    6.75
   3  -6  10   65.10    5.02
   3  -6  10   51.70    4.13
  -4   6 -10    5.51    3.08
  -4   6 -10    8.25    3.44
   4  -6  10    5.50    2.33
   4  -6  10    7.35    2.01
   4  -6  10    7.96    2.19
   4   5 -10   11.38    2.38
   4   5 -10   13.02    2.42
   4   5 -10   11.82    2.35
  -4  -5  10   13.54    2.55
  -4  -5  10   14.48    2.12
  -4  -5  10    9.16    2.93
   3   5 -10   29.93    3.10
   3   5 -10   25.06    3.12
   3   5 -10   29.64    3.22
  -3  -5  10   32.80    3.26
  -3  -5  10   28.74    3.31
  -3  -5  10   30.80    2.88
  -3  -5  10   31.94    3.27
  -3  -5  10   26.67    4.03
   2   5 -10   19.05    2.66
   2   5 -10   23.91    2.69
   2   5 -10   22.55    2.56
  -2  -5  10   23.43    2.67
  -2  -5  10   17.87    2.20
  -2  -5  10   22.53    2.78
  -2  -5  10   20.32    3.46
  -2  -5  10   19.18    2.72
   1   5 -10   18.28    2.54
   1   5 -10   15.43    2.35
  -1  -5  10   19.82    3.28
  -1  -5  10   16.10    2.01
  -1  -5  10   16.17    2.49
  -1  -5  10   18.14    2.55
  -1  -5  10   14.56    2.14
   0   5 -10   90.10    5.39
   0   5 -10   90.72    5.60
   0  -5  10   87.24    5.44
   0  -5  10   95.10    5.52
   0  -5  10   95.97    6.39
   0  -5  10   98.00    6.57
   0  -5  10   97.28    4.54
   0  -5  10   81.46    4.79
  -1   5 -10    4.31    1.76
  -1   5 -10    2.91    1.64
   1  -5  10    4.33    2.12
   1  -5  10    1.75    1.53
   1  -5  10    4.07    1.33
   1  -5  10    4.09    2.15
   1  -5  10    2.14    1.27
   1  -5  10    2.77    1.59
  -2   5 -10  141.43    7.74
  -2   5 -10  145.43    8.68
  -2   5 -10  144.05    7.94
   2  -5  10  146.01    8.36
   2  -5  10  142.99    7.16
   2  -5  10  141.16    8.63
   2  -5  10  141.97    6.67
   2  -5  10  130.89    7.25
   2  -5  10  136.24    7.78
  -3   5 -10    4.38    2.36
  -3   5 -10    3.58    2.49
  -3   5 -10    1.81    2.30
   3  -5  10    2.90    1.62
   3  -5  10    3.31    2.80
   3  -5  10    3.43    1.58
   3  -5  10    1.50    1.60
   3  -5  10    3.00    2.03
   3  -5  10    3.39    2.05
  -4   5 -10   12.95    3.25
  -4   5 -10   10.46    3.33
   4  -5  10    6.31    2.26
   4  -5  10   10.28    2.75
   4  -5  10    9.96    2.20
   4  -5  10    7.62    1.92
  -5   5 -10   30.71    3.61
  -5   5 -10   30.16    4.35
  -5   5 -10   33.34    4.67
   5  -5  10   34.37    3.40
   5  -5  10   33.30    4.06
   4   4 -10    1.49    1.70
   4   4 -10   -0.14    1.63
  -4  -4  10   -0.93    1.14
  -4  -4  10    1.55    1.48
  -4  -4  10    2.54    2.47
  -4  -4  10   -0.09    1.57
   3   4 -10   14.33    2.41
   3   4 -10   15.87    2.47
  -3  -4  10   13.02    2.27
  -3  -4  10   18.84    3.43
  -3  -4  10   13.83    2.26
  -3  -4  10   21.83    2.27
  -3  -4  10   17.05    2.19
  -3  -4  10   15.92    2.47
   2   4 -10    0.53    1.37
   2   4 -10    0.36    1.25
   2   4 -10   -0.88    1.33
  -2  -4  10    1.68    1.57
  -2  -4  10    1.83    1.40
  -2  -4  10    0.70    1.46
  -2  -4  10    0.98    1.12
  -2  -4  10    3.08    1.98
   1   4 -10   56.46    3.77
   1   4 -10   51.64    3.58
   1   4 -10   55.53    3.78
  -1  -4  10   50.02    3.26
  -1  -4  10   53.12    4.87
  -1  -4  10   49.76    3.71
  -1  -4  10   49.70    3.66
  -1  -4  10   51.99    4.16
   0   4 -10    9.41    1.98
   0   4 -10   11.02    1.76
   0   4 -10    9.34    2.00
   0  -4  10   12.51    2.64
   0  -4  10    6.91    1.51
   0  -4  10   10.23    2.09
   0  -4  10    7.18    1.89
   0  -4  10   12.33    1.51
   0  -4  10    9.05    1.83
  -1   4 -10   21.24    2.65
  -1   4 -10   29.55    2.64
  -1   4 -10   23.88    2.88
   1  -4  10   31.17    2.52
   1  -4  10   29.62    3.42
   1  -4  10   22.05    2.65
   1  -4  10   26.84    2.91
   1  -4  10   24.91    2.49
   1  -4  10   35.26    3.72
  -2   4 -10    5.87    1.98
  -2   4 -10    3.13    1.76
   2  -4  10    5.90    2.24
   2  -4  10    8.90    1.82
   2  -4  10    4.91    1.76
   2  -4  10    8.71    1.98
   2  -4  10    7.64    2.18
   2  -4  10    7.07    1.52
  -3   4 -10    5.76    2.24
  -3   4 -10    5.15    2.27
  -3   4 -10    6.01    2.23
   3  -4  10    5.22    1.96
   3  -4  10    6.43    2.39
   3  -4  10    6.37    2.05
   3  -4  10    4.96    1.80
   3  -4  10    4.98    1.71
   3  -4  10    4.47    1.55
  -4   4 -10   73.95    6.28
  -4   4 -10   74.90    6.23
   4  -4  10   75.85    4.49
   4  -4  10   76.39    4.77
   4  -4  10   68.37    5.36
   4  -4  10   70.13    6.03
  -5   4 -10    7.10    2.98
  -5   4 -10    8.74    2.23
  -5   4 -10   12.38    3.25
   5  -4  10    3.85    2.22
   5  -4  10    5.10    2.65
   5  -4  10    7.47    1.88
   5  -4  10    8.44    1.93
  -6   4 -10   10.76    3.27
  -6   4 -10   11.18    3.00
   6  -4  10   15.39    2.43
   4   3 -10   33.97    3.55
   4   3 -10   37.54    3.69
  -4  -3  10   33.94    3.68
  -4  -3  10   39.40    3.41
  -4  -3  10   40.59    3.31
  -4  -3  10   29.14    4.25
   3   3 -10   17.43    2.43
   3   3 -10   19.30    2.53
  -3  -3  10   14.29    2.06
  -3  -3  10   15.11    2.28
  -3  -3  10   17.17    2.44
  -3  -3  10   15.53    3.14
  -3  -3  10   16.15    2.44
  -3  -3  10   16.85    2.12
   2   3 -10   45.70    3.53
   2   3 -10   50.04    3.72
  -2  -3  10   57.19    4.98
  -2  -3  10   46.31    3.25
  -2  -3  10   53.51    4.14
  -2  -3  10   51.89    3.75
  -2  -3  10   54.04    3.27
  -2  -3  10   47.56    3.62
   1   3 -10   15.90    2.15
   1   3 -10   14.86    2.17
   1   3 -10   11.89    1.96
  -1  -3  10   14.06    1.71
  -1  -3  10   15.26    2.65
  -1  -3  10   11.73    1.97
  -1  -3  10   15.40    1.90
  -1  -3  10   17.09    2.31
  -1  -3  10   16.07    2.42
   0   3 -10   38.16    3.20
   0   3 -10   35.26    2.91
   0   3 -10   33.03    3.04
   0  -3  10   37.03    3.19
   0  -3  10   32.69    3.00
   0  -3  10   28.18    3.14
   0  -3  10   34.18    2.74
   0  -3  10   32.22    3.56
  -1   3 -10   98.89    5.24
  -1   3 -10   90.59    5.24
  -1   3 -10   96.25    5.39
   1  -3  10   98.86    6.06
   1  -3  10   97.74    4.99
   1  -3  10   94.98    5.47
   1  -3  10   97.69    5.59
   1  -3  10   94.16    4.55
  -2   3 -10   10.16    1.94
  -2   3 -10    9.43    1.90
  -2   3 -10    9.55    1.75
   2  -3  10   11.51    2.34
   2  -3  10    6.03    1.82
   2  -3  10    4.28    1.68
   2  -3  10    8.30    1.59
   2  -3  10   11.37    1.81
  -3   3 -10  186.97    9.11
  -3   3 -10  179.97    9.11
  -3   3 -10  180.56    8.84
   3  -3  10  196.54    9.71
   3  -3  10  179.42    9.60
   3  -3  10  162.77    7.86
   3  -3  10  194.51    8.78
   3  -3  10  188.34    8.78
   3  -3  10  185.38    9.54
  -4   3 -10   -1.07    1.97
  -4   3 -10    0.51    2.15
   4  -3  10   -0.64    1.64
   4  -3  10    1.58    1.35
   4  -3  10    2.42    2.03
   4  -3  10   -1.05    1.16
  -5   3 -10   25.75    3.01
  -5   3 -10   27.89    4.15
  -5   3 -10   34.79    4.25
   5  -3  10   24.51    3.49
   5  -3  10   37.02    3.25
   5  -3  10   24.55    3.77
   5  -3  10   29.09    2.95
  -6   3 -10   30.00    3.99
  -6   3 -10   19.27    2.77
  -6   3 -10   18.77    3.31
   6  -3  10   16.27    2.47
   6  -3  10   15.91    3.46
  -7   3 -10    3.26    2.37
  -7   3 -10    7.96    2.60
   7  -3  10    4.28    1.75
   4   2 -10   11.08    2.34
   4   2 -10   10.86    2.15
  -4  -2  10    9.76    1.87
  -4  -2  10   10.03    3.03
  -4  -2  10    8.59    2.18
  -4  -2  10   11.73    2.05
   3   2 -10    5.69    1.79
   3   2 -10    2.70    1.55
  -3  -2  10    3.86    1.62
  -3  -2  10    2.89    1.49
  -3  -2  10    6.61    1.93
  -3  -2  10    4.45    1.45
  -3  -2  10    5.61    2.35
   2   2 -10   11.40    2.05
   2   2 -10   14.10    2.24
  -2  -2  10   14.91    1.86
  -2  -2  10   15.78    2.74
  -2  -2  10   12.25    2.15
  -2  -2  10   10.92    1.79
  -2  -2  10   12.43    2.22
  -2  -2  10   16.18    2.19
   1   2 -10   -2.09    1.00
   1   2 -10   -0.26    1.25
  -1  -2  10    1.58    1.59
  -1  -2  10    0.87    1.20
  -1  -2  10   -0.46    1.50
  -1  -2  10    1.60    1.07
  -1  -2  10   -1.48    1.22
  -1  -2  10    0.44    1.05
   0   2 -10   79.92    4.53
   0   2 -10   78.57    4.49
   0   2 -10   72.11    4.37
   0  -2  10   78.94    3.98
   0  -2  10   75.64    4.08
   0  -2  10   78.99    4.59
   0  -2  10   71.51    5.11
   0  -2  10   81.95    5.02
   0  -2  10   73.91    4.54
  -1   2 -10   28.13    2.64
  -1   2 -10   23.24    2.58
  -1   2 -10   28.90    2.60
   1  -2  10   26.69    3.12
   1  -2  10   34.91    2.41
   1  -2  10   20.15    2.82
   1  -2  10   27.61    2.67
   1  -2  10   25.62    2.34
   1  -2  10   25.02    2.57
  -2   2 -10   81.86    4.65
  -2   2 -10   77.82    4.65
  -2   2 -10   80.88    4.73
   2  -2  10   81.59    4.90
   2  -2  10   79.48    4.84
   2  -2  10   83.25    5.21
   2  -2  10   82.08    4.24
   2  -2  10   82.67    4.47
  -3   2 -10   -0.37    1.48
  -3   2 -10    1.41    1.38
  -3   2 -10   -0.28    1.27
   3  -2  10    0.80    1.46
   3  -2  10    0.11    1.28
   3  -2  10   -0.42    1.37
   3  -2  10    0.14    1.30
   3  -2  10    0.36    1.32
  -4   2 -10   -0.66    1.57
  -4   2 -10    0.22    1.90
  -4   2 -10   -0.82    1.63
   4  -2  10    0.59    1.24
   4  -2  10   -1.29    1.36
   4  -2  10    3.09    1.45
   4  -2  10    1.25    1.69
  -5   2 -10   42.21    4.08
  -5   2 -10   41.60    4.65
  -5   2 -10   49.10    4.49
  -5   2 -10   43.36    3.61
   5  -2  10   52.69    3.59
   5  -2  10   32.74    3.76
   5  -2  10   41.09    3.53
   5  -2  10   38.13    4.35
  -6   2 -10   12.16    2.27
  -6   2 -10    4.51    2.31
  -6   2 -10    7.47    2.56
   6  -2  10    6.48    2.78
   6  -2  10    7.63    1.88
   6  -2  10    8.85    2.04
  -7   2 -10   18.49    2.65
  -7   2 -10   10.55    2.70
  -7   2 -10   10.67    2.05
   7  -2  10   12.43    2.20
   7  -2  10   18.49    2.62
   4   1 -10    1.98    1.68
   4   1 -10    2.16    1.57
  -4  -1  10    1.78    1.42
  -4  -1  10    1.33    1.38
  -4  -1  10    0.52    2.43
  -4  -1  10    2.98    1.86
   3   1 -10   41.81    3.89
   3   1 -10   48.13    3.97
   3   1 -10   50.33    4.15
  -3  -1  10   42.48    4.73
  -3  -1  10   49.64    3.42
  -3  -1  10   49.95    4.20
  -3  -1  10   43.79    3.47
  -3  -1  10   48.20    3.66
   2   1 -10    4.93    1.67
   2   1 -10    4.53    1.63
  -2  -1  10    5.17    1.41
  -2  -1  10    5.23    1.83
  -2  -1  10    6.74    1.52
  -2  -1  10    4.63    2.24
  -2  -1  10    4.76    1.68
  -2  -1  10    5.91    1.56
   1   1 -10   87.36    5.08
   1   1 -10   92.45    5.27
  -1  -1  10   90.58    5.21
  -1  -1  10   95.91    5.35
  -1  -1  10   88.13    5.15
  -1  -1  10   94.50    4.68
  -1  -1  10   86.33    5.96
  -1  -1  10   99.27    4.81
   0   1 -10    0.43    1.20
   0   1 -10    0.01    1.26
   0  -1  10    0.77    0.98
   0  -1  10   -0.14    1.30
   0  -1  10   -1.35    0.98
   0  -1  10   -0.85    1.03
   0  -1  10    0.12    1.46
   0  -1  10    0.97    0.93
  -1   1 -10  110.63    5.63
  -1   1 -10  111.68    5.73
  -1   1 -10  111.54    5.82
   1  -1  10  107.66    5.83
   1  -1  10  106.96    5.27
   1  -1  10  114.47    5.76
   1  -1  10  117.27    6.10
   1  -1  10  106.69    6.32
  -2   1 -10   90.63    4.84
  -2   1 -10   91.98    5.10
  -2   1 -10   94.07    5.07
   2  -1  10   89.02    5.09
   2  -1  10   98.61    4.67
   2  -1  10   86.05    5.22
   2  -1  10   96.29    4.99
   2  -1  10   85.61    4.54
   2  -1  10   82.74    5.30
  -3   1 -10    0.75    1.39
  -3   1 -10    1.47    1.21
  -3   1 -10    3.12    1.43
   3  -1  10    1.09    1.29
   3  -1  10    0.56    1.18
   3  -1  10    0.41    1.38
   3  -1  10    1.25    1.16
   3  -1  10   -0.63    1.27
  -4   1 -10  182.08    8.58
  -4   1 -10  181.48    8.73
  -4   1 -10  164.54    8.72
   4  -1  10  175.64    8.28
   4  -1  10  169.08    8.19
   4  -1  10  181.50    9.17
   4  -1  10  163.19    7.66
  -5   1 -10    3.26    2.02
  -5   1 -10    4.45    1.50
  -5   1 -10    0.51    1.91
  -5   1 -10    1.58    2.22
   5  -1  10    2.56    1.46
   5  -1  10    0.93    2.03
   5  -1  10    1.11    1.55
   5  -1  10    0.76    1.86
  -6   1 -10   46.39    4.22
  -6   1 -10   41.22    3.62
  -6   1 -10   41.30    4.67
   6  -1  10   45.46    3.74
   6  -1  10   51.08    3.52
   6  -1  10   42.96    4.85
  -7   1 -10    5.04    2.28
  -7   1 -10    5.57    1.61
  -7   1 -10    5.20    1.93
  -7   1 -10    7.78    2.07
   7  -1  10   13.50    3.13
   7  -1  10    4.29    1.93
   7  -1  10    6.86    2.14
  -8   1 -10   14.24    2.77
  -8   1 -10   10.81    2.09
   8  -1  10    7.04    2.05
   8  -1  10    8.97    2.38
   3   0 -10    2.47    1.54
   3   0 -10    1.90    1.54
   3   0 -10    2.44    1.74
   3   0 -10    0.72    1.45
  -3   0  10    5.66    2.53
  -3   0  10    3.66    1.42
  -3   0  10    3.92    1.82
  -3   0  10    3.36    1.40
  -3   0  10    2.02    1.51
   2   0 -10   22.34    2.27
   2   0 -10   19.33    2.51
   2   0 -10   18.37    2.39
   2   0 -10   18.06    2.42
  -2   0  10   17.79    2.20
  -2   0  10   18.44    2.53
  -2   0  10   20.12    2.66
  -2   0  10   21.56    2.58
  -2   0  10   19.48    3.28
  -2   0  10   21.75    2.33
   1   0 -10   -0.20    1.27
   1   0 -10    2.06    1.29
   1   0 -10    1.27    1.07
  -1   0  10    0.26    1.05
  -1   0  10    0.31    1.04
  -1   0  10    1.43    1.60
  -1   0  10   -1.13    1.61
  -1   0  10   -0.72    1.16
  -1   0  10    0.24    1.16
   0   0 -10    2.58    1.32
   0   0 -10    3.98    1.49
   0   0 -10    1.19    0.92
   0   0  10    1.87    1.05
   0   0  10    2.46    1.19
   0   0  10    3.83    1.65
   0   0  10    1.25    1.15
   0   0  10    0.55    1.10
   0   0  10    4.64    1.91
  -1   0 -10   89.33    4.87
  -1   0 -10   82.80    4.75
  -1   0 -10   80.20    4.56
   1   0  10   80.93    4.72
   1   0  10   82.65    5.07
   1   0  10   87.87    5.45
   1   0  10  101.98    4.78
   1   0  10   87.67    4.37
  -2   0 -10   26.63    2.54
  -2   0 -10   27.63    2.70
  -2   0 -10   24.93    2.24
   2   0  10   24.40    2.42
   2   0  10   23.46    2.46
   2   0  10   24.65    2.21
   2   0  10   30.43    3.06
   2   0  10   30.48    2.96
   2   0  10   26.03    2.35
  -3   0 -10  132.86    6.58
  -3   0 -10  125.97    6.59
  -3   0 -10  125.02    6.20
   3   0  10  123.54    6.01
   3   0  10  135.81    6.61
   3   0  10  114.41    6.46
   3   0  10  127.14    5.96
   3   0  10  140.20    6.84
  -4   0 -10    3.22    1.82
  -4   0 -10    4.71    1.71
   4   0  10    3.96    1.61
   4   0  10    6.58    1.72
   4   0  10    3.99    1.38
   4   0  10    4.20    1.55
   4   0  10    4.73    1.46
  -5   0 -10    0.79    1.83
  -5   0 -10    4.47    1.35
  -5   0 -10    2.89    2.13
   5   0  10    4.39    1.63
   5   0  10    2.64    1.59
   5   0  10    1.10    1.76
   5   0  10    0.89    1.32
  -6   0 -10   25.28    3.32
  -6   0 -10   20.47    3.42
  -6   0 -10   25.09    2.66
  -6   0 -10   26.00    2.37
   6   0  10   17.67    2.29
   6   0  10   23.10    3.58
   6   0  10   22.57    2.73
   6   0  10   21.68    2.52
  -7   0 -10    6.58    2.28
  -7   0 -10    4.39    1.72
  -7   0 -10    8.26    2.22
  -7   0 -10    7.48    1.63
   7   0  10    5.24    2.66
   7   0  10    5.59    1.92
   7   0  10    5.47    1.97
  -8   0 -10   11.45    1.99
  -8   0 -10    6.85    2.09
  -8   0 -10    7.69    2.33
  -8   0 -10    7.13    2.05
   8   0  10    8.52    2.01
   8   0  10    4.37    2.13
   8   0  10   10.60    2.89
  -9   0 -10   -0.54    1.83
  -9   0 -10    0.71    1.64
  -9   0 -10    2.96    1.63
   9   0  10    1.13    2.03
   9   0  10    5.63    2.11
   3  -1 -10    9.63    2.29
   3  -1 -10    6.25    1.87
   3  -1 -10    9.37    2.05
  -3   1  10    6.41    2.69
  -3   1  10    7.96    1.70
  -3   1  10    7.39    1.81
  -3   1  10    8.47    2.20
   2  -1 -10   41.38    3.69
   2  -1 -10   42.99    3.47
   2  -1 -10   40.32    3.54
   2  -1 -10   37.43    3.15
  -2   1  10   35.87    3.46
  -2   1  10   39.47    4.50
  -2   1  10   45.02    3.10
  -2   1  10   30.53    3.18
  -2   1  10   41.81    3.34
   1  -1 -10    4.42    1.38
   1  -1 -10    3.05    1.42
   1  -1 -10    3.10    1.52
  -1   1  10    3.97    1.35
  -1   1  10    3.83    1.47
  -1   1  10    4.10    1.98
  -1   1  10    2.81    1.85
  -1   1  10    3.20    1.28
  -1   1  10    3.45    1.41
   0  -1 -10  112.60    5.32
   0  -1 -10  116.31    6.16
   0  -1 -10  109.24    5.80
   0   1  10  114.51    5.96
   0   1  10  122.62    6.96
   0   1  10  116.14    5.58
   0   1  10  111.67    6.44
   0   1  10  121.51    5.96
   0   1  10  114.49    5.41
  -1  -1 -10    3.31    1.35
  -1  -1 -10    1.31    1.00
  -1  -1 -10    1.03    1.23
   1   1  10    0.97    1.15
   1   1  10    1.42    0.96
   1   1  10   -0.84    1.26
   1   1  10    2.20    1.11
   1   1  10    2.85    1.82
  -2  -1 -10  136.15    6.07
  -2  -1 -10  149.96    6.96
  -2  -1 -10  138.17    7.09
   2   1  10  129.95    6.82
   2   1  10  140.99    6.44
   2   1  10  153.63    7.46
   2   1  10  145.73    6.33
   2   1  10  151.02    7.56
   2   1  10  142.54    6.69
  -3  -1 -10   46.58    3.59
  -3  -1 -10   48.35    3.77
  -3  -1 -10   43.96    2.70
   3   1  10   43.01    3.72
   3   1  10   46.33    3.17
   3   1  10   49.90    3.49
   3   1  10   43.90    2.83
   3   1  10   47.45    3.41
  -4  -1 -10   -0.36    1.45
  -4  -1 -10    0.64    1.41
   4   1  10    0.25    1.36
   4   1  10    1.62    1.34
   4   1  10    0.34    1.21
   4   1  10    0.32    1.05
   4   1  10    1.41    1.13
  -5  -1 -10  135.20    7.56
  -5  -1 -10  136.03    6.58
  -5  -1 -10  141.29    7.76
   5   1  10  142.48    6.81
   5   1  10  131.29    6.44
   5   1  10  125.01    7.32
   5   1  10  145.81    6.88
  -6  -1 -10    1.96    2.19
  -6  -1 -10   -0.38    1.86
  -6  -1 -10    1.93    1.36
  -6  -1 -10    3.71    1.32
   6   1  10    2.75    1.59
   6   1  10    1.28    1.88
   6   1  10    1.38    1.41
   6   1  10    2.05    1.54
  -7  -1 -10   70.77    5.08
  -7  -1 -10   59.79    4.15
  -7  -1 -10   62.12    3.72
  -7  -1 -10   62.92    5.16
   7   1  10   59.51    4.09
   7   1  10   60.76    5.46
   7   1  10   60.02    4.15
   7   1  10   64.23    4.25
  -8  -1 -10    3.55    2.07
  -8  -1 -10    1.02    1.62
  -8  -1 -10    2.87    1.88
  -8  -1 -10    4.76    1.63
   8   1  10    0.96    2.20
   8   1  10    2.95    1.92
   8   1  10    0.88    1.68
  -9  -1 -10   14.20    2.28
  -9  -1 -10   11.35    2.44
  -9  -1 -10   13.75    2.64
   9   1  10   10.48    2.37
   9   1  10   15.74    2.77
   2  -2 -10    2.76    1.72
   2  -2 -10   -0.51    1.32
  -2   2  10   -0.23    1.42
  -2   2  10   -1.43    1.02
  -2   2  10   -0.42    2.02
   1  -2 -10   39.83    3.22
   1  -2 -10   43.01    3.81
  -1   2  10   37.51    4.03
  -1   2  10   46.24    3.43
  -1   2  10   43.15    3.56
  -1   2  10   42.83    4.50
   0  -2 -10    2.17    1.19
   0  -2 -10    3.50    1.30
   0  -2 -10    0.35    1.46
   0   2  10    3.85    1.30
   0   2  10    2.00    1.74
   0   2  10   -0.30    1.82
   0   2  10    3.11    1.33
  -1  -2 -10    7.98    1.45
  -1  -2 -10    6.65    1.49
  -1  -2 -10   10.99    1.72
  -1  -2 -10    7.70    1.82
   1   2  10    8.85    1.32
   1   2  10    8.58    1.52
   1   2  10   10.15    2.29
   1   2  10   10.57    2.45
  -2  -2 -10   34.55    3.22
  -2  -2 -10   38.59    2.99
  -2  -2 -10   36.76    2.54
   2   2  10   40.82    2.46
   2   2  10   37.53    3.51
   2   2  10   36.39    2.62
   2   2  10   39.25    3.71
  -3  -2 -10   37.66    3.33
  -3  -2 -10   34.85    2.58
  -3  -2 -10   33.46    2.95
   3   2  10   42.78    3.19
   3   2  10   33.18    3.45
   3   2  10   36.48    3.07
   3   2  10   34.17    2.62
   3   2  10   34.81    2.35
  -4  -2 -10  107.89    5.75
  -4  -2 -10  101.44    4.85
  -4  -2 -10  104.36    5.78
   4   2  10  101.27    4.88
   4   2  10  108.24    5.37
   4   2  10  100.50    5.52
   4   2  10   97.36    5.35
   4   2  10   95.00    5.71
  -5  -2 -10   23.01    2.16
  -5  -2 -10   25.78    3.16
  -5  -2 -10   29.24    3.37
  -5  -2 -10   22.61    2.28
   5   2  10   24.72    2.90
   5   2  10   23.97    2.38
   5   2  10   22.39    2.54
   5   2  10   24.58    2.75
  -6  -2 -10   12.56    1.98
  -6  -2 -10   17.08    1.95
  -6  -2 -10   17.44    2.96
  -6  -2 -10   16.32    2.07
  -6  -2 -10   13.42    2.80
   6   2  10   14.73    2.07
   6   2  10   15.68    2.32
   6   2  10   15.38    2.70
   6   2  10   17.90    2.45
   6   2  10   16.91    2.43
  -7  -2 -10    8.68    2.42
  -7  -2 -10    4.47    2.09
  -7  -2 -10    6.15    1.59
  -7  -2 -10    5.66    1.76
  -7  -2 -10    9.00    1.68
   7   2  10    8.90    1.94
   7   2  10    6.09    2.43
   7   2  10    6.31    1.72
   7   2  10    4.80    1.77
  -8  -2 -10   -0.91    1.32
  -8  -2 -10    0.51    1.51
  -8  -2 -10    0.15    1.64
  -8  -2 -10   -0.66    1.50
   8   2  10    1.21    2.06
   8   2  10   -0.78    1.55
   8   2  10   -1.53    1.44
  -9  -2 -10    2.91    1.56
  -9  -2 -10    4.36    1.67
  -9  -2 -10    2.77    1.91
  -9  -2 -10    2.49    1.64
  -9  -2 -10    2.28    2.03
   9   2  10    4.33    2.11
   9   2  10    1.84    1.69
   9   2  10    5.35    2.42
   2  -3 -10   16.24    2.43
   2  -3 -10   16.81    2.78
  -2   3  10   18.08    3.77
  -2   3  10   19.61    2.51
   1  -3 -10   23.61    2.94
   1  -3 -10   15.92    2.27
  -1   3  10   16.00    3.28
  -1   3  10   23.27    2.43
   0  -3 -10    7.55    1.66
   0  -3 -10    5.96    1.85
   0   3  10    7.89    2.48
   0   3  10    9.35    2.70
   0   3  10    8.50    1.64
  -1  -3 -10  127.30    5.64
  -1  -3 -10  119.40    5.73
  -1  -3 -10  113.28    6.37
   1   3  10  127.89    7.10
   1   3  10  123.87    7.19
  -2  -3 -10   10.28    1.63
  -2  -3 -10   10.27    1.99
  -2  -3 -10   12.18    1.77
   2   3  10    9.82    2.11
   2   3  10    9.28    2.44
  -3  -3 -10  158.53    7.29
  -3  -3 -10  171.11    8.30
  -3  -3 -10  161.86    7.85
  -3  -3 -10  173.73    7.48
   3   3  10  174.56    8.48
   3   3  10  169.07    8.56
   3   3  10  178.36    7.59
  -4  -3 -10   -0.50    1.24
  -4  -3 -10    0.23    1.00
  -4  -3 -10    0.41    1.44
  -4  -3 -10    0.89    1.50
   4   3  10   -0.37    1.23
   4   3  10    2.01    1.49
   4   3  10    1.81    1.77
  -5  -3 -10    8.00    1.63
  -5  -3 -10    7.49    1.65
  -5  -3 -10   10.21    2.31
  -5  -3 -10   10.93    1.65
  -5  -3 -10   14.77    2.55
   5   3  10   10.59    2.03
   5   3  10   10.31    2.26
  -6  -3 -10   63.22    3.46
  -6  -3 -10   59.48    3.59
  -6  -3 -10   57.27    4.87
  -6  -3 -10   57.16    5.11
  -6  -3 -10   47.36    3.56
  -6  -3 -10   56.42    3.66
   6   3  10   58.79    3.87
   6   3  10   64.20    3.71
   6   3  10   52.61    4.04
   6   3  10   55.65    3.64
   6   3  10   58.61    4.40
  -7  -3 -10   -0.58    1.68
  -7  -3 -10    0.05    1.21
  -7  -3 -10    0.28    1.37
  -7  -3 -10    2.84    1.47
  -7  -3 -10    0.79    1.24
  -7  -3 -10    0.60    1.68
   7   3  10   -0.76    1.76
   7   3  10    0.56    1.60
   7   3  10   -1.43    1.31
   7   3  10   -0.09    1.49
  -8  -3 -10   40.08    4.21
  -8  -3 -10   43.48    3.53
  -8  -3 -10   42.41    3.78
  -8  -3 -10   44.15    3.43
  -8  -3 -10   46.72    3.60
  -8  -3 -10   38.99    4.03
   8   3  10   42.73    3.70
   8   3  10   37.40    3.65
   8   3  10   46.02    4.40
  -9  -3 -10    0.09    1.38
  -9  -3 -10    0.63    1.70
  -9  -3 -10   -0.02    1.50
  -9  -3 -10    1.04    1.44
  -9  -3 -10   -0.60    1.74
  -9  -3 -10   -0.85    1.55
   9   3  10    0.42    1.74
   9   3  10    0.79    2.10
   9   3  10    2.09    1.95
 -10  -3 -10   14.99    2.77
 -10  -3 -10   13.25    2.69
  10   3  10   19.44    2.77
   1  -4 -10    1.84    1.54
   1  -4 -10    1.04    1.86
  -1   4  10    1.34    1.25
  -1   4  10    1.52    2.56
   0  -4 -10   57.99    4.29
   0  -4 -10   55.02    3.64
   0   4  10   48.79    3.48
   0   4  10   57.37    5.41
   0   4  10   57.31    5.40
  -1  -4 -10    7.91    1.66
  -1  -4 -10   11.55    2.28
   1   4  10   13.31    3.05
   1   4  10   12.43    2.65
  -2  -4 -10   36.28    2.91
  -2  -4 -10   34.23    2.73
  -2  -4 -10   27.44    3.01
   2   4  10   34.09    3.69
   2   4  10   34.62    3.92
  -3  -4 -10    4.86    1.42
  -3  -4 -10    7.64    1.91
  -3  -4 -10    4.24    1.34
   3   4  10    6.19    1.86
   3   4  10    5.25    1.66
   3   4  10    4.60    2.15
  -4  -4 -10    7.81    1.77
  -4  -4 -10    7.16    1.88
  -4  -4 -10    5.60    1.50
   4   4  10    9.80    1.97
   4   4  10   10.89    2.00
   4   4  10   11.43    2.29
  -5  -4 -10   74.37    4.11
  -5  -4 -10   65.37    3.46
  -5  -4 -10   69.77    3.89
  -5  -4 -10   59.03    3.72
  -5  -4 -10   59.05    3.57
  -5  -4 -10   63.67    4.61
   5   4  10   69.09    4.67
   5   4  10   65.95    4.12
  -6  -4 -10   23.10    2.47
  -6  -4 -10   27.75    2.37
  -6  -4 -10   27.44    2.61
  -6  -4 -10   24.58    2.55
  -6  -4 -10   21.49    2.52
  -6  -4 -10   27.19    3.52
   6   4  10   29.34    2.96
   6   4  10   24.68    3.05
   6   4  10   32.02    2.73
  -7  -4 -10   12.30    2.01
  -7  -4 -10   14.53    2.16
  -7  -4 -10   13.64    2.11
  -7  -4 -10   12.45    1.87
  -7  -4 -10   14.54    2.93
  -7  -4 -10   11.65    2.33
   7   4  10   12.41    2.35
   7   4  10    9.93    2.10
   7   4  10   11.00    2.17
  -8  -4 -10    2.93    1.58
  -8  -4 -10    0.49    1.71
  -8  -4 -10    2.00    1.83
  -8  -4 -10    0.78    1.41
  -8  -4 -10    1.10    1.40
  -8  -4 -10    0.40    1.47
   8   4  10    0.96    1.64
   8   4  10   -1.80    1.66
   8   4  10   -0.63    1.50
  -9  -4 -10    2.11    1.58
  -9  -4 -10    1.27    1.77
  -9  -4 -10    0.85    1.68
  -9  -4 -10    2.52    1.83
  -9  -4 -10   -1.00    1.48
  -9  -4 -10    2.15    1.48
   9   4  10   -0.72    1.81
   9   4  10    1.83    1.81
 -10  -4 -10    6.13    2.02
 -10  -4 -10    3.05    1.96
 -10  -4 -10    4.45    1.99
 -10  -4 -10    6.67    2.03
  10   4  10    6.06    2.15
  10   4  10    7.93    2.07
  10   4  10    3.63    2.03
   0  -5 -10    5.38    2.10
   0  -5 -10    4.97    1.76
   0   5  10    2.96    1.45
   0   5  10    6.71    2.73
   0   5  10    2.22    2.79
  -1  -5 -10   17.87    2.31
  -1  -5 -10   17.65    2.71
   1   5  10   17.11    3.19
   1   5  10   19.73    3.56
  -2  -5 -10   66.23    3.75
  -2  -5 -10   60.12    3.89
  -2  -5 -10   64.03    4.52
   2   5  10   71.08    5.19
   2   5  10   73.27    5.76
  -3  -5 -10    5.23    1.79
  -3  -5 -10    3.67    1.45
  -3  -5 -10    4.16    1.47
   3   5  10    4.58    2.41
   3   5  10    5.32    1.99
  -4  -5 -10  141.39    7.79
  -4  -5 -10  144.55    6.92
  -4  -5 -10  146.98    6.79
   4   5  10  154.70    7.88
   4   5  10  147.93    6.88
   4   5  10  149.89    7.96
  -5  -5 -10   -0.61    1.07
  -5  -5 -10    0.21    1.16
  -5  -5 -10   -0.04    1.10
  -5  -5 -10   -0.26    1.02
  -5  -5 -10   -2.45    1.59
   5   5  10    1.85    1.15
   5   5  10   -0.58    1.30
   5   5  10    0.06    1.64
  -6  -5 -10   18.26    2.30
  -6  -5 -10   20.30    2.26
  -6  -5 -10   13.13    2.78
  -6  -5 -10   22.17    2.18
  -6  -5 -10   15.87    2.13
  -6  -5 -10   20.39    2.35
   6   5  10   21.28    2.95
   6   5  10   18.58    2.43
  -7  -5 -10   15.60    2.30
  -7  -5 -10   20.48    2.28
  -7  -5 -10   18.44    3.33
  -7  -5 -10   20.66    2.52
  -7  -5 -10   19.14    2.43
  -7  -5 -10   16.03    2.22
   7   5  10   20.83    2.64
   7   5  10   21.69    2.86
   7   5  10   19.14    2.42
  -8  -5 -10    2.19    2.09
  -8  -5 -10    1.68    1.37
  -8  -5 -10   -0.10    1.32
  -8  -5 -10    1.36    1.58
  -8  -5 -10   -0.37    1.46
   8   5  10    0.54    1.76
   8   5  10   -0.20    1.71
   8   5  10    1.93    1.70
  -9  -5 -10    8.14    2.12
  -9  -5 -10    9.19    1.99
  -9  -5 -10    8.22    2.35
  -9  -5 -10    7.61    2.12
  -9  -5 -10    8.51    1.95
   9   5  10   10.54    2.38
   9   5  10    7.74    2.16
 -10  -5 -10    0.37    1.68
 -10  -5 -10    1.99    1.61
 -10  -5 -10    0.24    1.76
 -10  -5 -10    1.90    1.91
  10   5  10    1.64    1.92
  10   5  10   -1.98    1.65
  -1  -6 -10   38.24    3.78
  -1  -6 -10   37.27    3.36
   1   6  10   29.36    3.05
   1   6  10   34.76    4.85
   1   6  10   29.88    4.32
  -2  -6 -10    9.28    1.93
  -2  -6 -10   12.24    2.46
  -2  -6 -10   12.40    1.83
   2   6  10   14.25    3.08
   2   6  10   11.11    3.26
  -3  -6 -10   31.35    3.47
  -3  -6 -10   35.51    3.11
  -3  -6 -10   28.55    2.70
   3   6  10   35.66    4.08
   3   6  10   27.30    3.54
  -4  -6 -10    3.79    1.86
  -4  -6 -10    0.01    1.28
  -4  -6 -10   -0.82    1.17
   4   6  10    1.85    1.55
   4   6  10   -1.46    1.55
   4   6  10   -0.12    1.87
  -5  -6 -10    1.60    1.24
  -5  -6 -10    2.09    1.38
  -5  -6 -10    3.84    2.14
  -5  -6 -10   -0.01    1.28
   5   6  10    3.18    1.48
   5   6  10    1.43    1.93
  -6  -6 -10   51.68    3.45
  -6  -6 -10   39.62    3.44
  -6  -6 -10   41.92    3.37
  -6  -6 -10   44.01    3.53
  -6  -6 -10   43.44    4.70
   6   6  10   47.10    3.74
   6   6  10   45.37    3.60
   6   6  10   38.55    4.07
   6   6  10   48.12    3.23
  -7  -6 -10   19.47    3.33
  -7  -6 -10   22.56    2.56
  -7  -6 -10   12.48    2.21
  -7  -6 -10   17.35    2.18
  -7  -6 -10   17.52    2.40
  -7  -6 -10   18.21    2.35
   7   6  10   17.72    2.85
   7   6  10   17.57    2.60
   7   6  10   12.76    2.14
  -8  -6 -10    5.24    1.69
  -8  -6 -10    1.96    1.72
  -8  -6 -10    3.09    1.78
  -8  -6 -10    5.22    2.27
  -8  -6 -10    5.51    1.84
  -8  -6 -10    3.52    1.66
   8   6  10    2.13    1.75
   8   6  10    5.36    1.88
   8   6  10    4.42    2.14
  -9  -6 -10    4.42    1.73
  -9  -6 -10    2.62    1.63
  -9  -6 -10    2.77    1.82
  -9  -6 -10    6.45    2.27
   9   6  10    4.39    1.87
   9   6  10    2.24    1.87
  -2  -7 -10   17.42    2.45
   2   7  10   20.11    4.08
   2   7  10   14.99    3.33
  -3  -7 -10   28.65    3.58
  -3  -7 -10   31.28    2.84
  -3  -7 -10   29.55    3.11
   3   7  10   31.93    3.97
   3   7  10   31.39    4.16
  -4  -7 -10    3.34    2.11
  -4  -7 -10    5.79    1.63
  -4  -7 -10    2.60    1.60
   4   7  10    3.02    2.00
   4   7  10    1.48    2.22
  -5  -7 -10   91.49    4.88
  -5  -7 -10   90.50    5.00
  -5  -7 -10   94.21    6.45
  -5  -7 -10   85.89    5.16
   5   7  10   90.62    5.03
   5   7  10   88.86    5.83
  -6  -7 -10   -0.60    1.24
  -6  -7 -10   -1.93    1.10
  -6  -7 -10    0.58    2.26
  -6  -7 -10   -0.21    1.28
  -6  -7 -10    2.26    1.54
   6   7  10    1.80    1.44
   6   7  10    0.51    1.81
   6   7  10   -1.39    1.37
  -7  -7 -10   18.79    2.47
  -7  -7 -10   15.08    2.38
  -7  -7 -10   21.31    2.69
  -7  -7 -10   25.19    3.82
  -7  -7 -10   20.31    2.54
   7   7  10   20.16    2.46
   7   7  10   23.49    2.74
   7   7  10   20.26    3.16
   7   7  10   20.76    2.78
  -8  -7 -10    5.30    1.88
  -8  -7 -10    5.30    1.80
  -8  -7 -10    4.70    1.70
  -8  -7 -10    2.95    1.65
  -8  -7 -10    4.95    2.36
  -8  -7 -10    6.88    1.86
   8   7  10    2.98    1.71
   8   7  10    3.19    2.17
   8   7  10    2.94    1.93
   8   7  10    2.88    1.67
  -9  -7 -10    7.49    1.94
  -9  -7 -10    4.64    2.23
  -9  -7 -10    1.62    1.81
  -9  -7 -10    5.75    2.12
  -9  -7 -10    5.70    1.84
   9   7  10   10.32    2.43
   9   7  10    5.91    2.33
   9   7  10    2.96    1.94
  -4  -8 -10   26.44    2.72
  -4  -8 -10   27.48    3.08
   4   8  10   21.91    3.68
   4   8  10   30.11    3.81
  -5  -8 -10    1.49    1.45
  -5  -8 -10    1.62    1.62
  -5  -8 -10    3.51    1.58
   5   8  10    5.66    2.48
   5   8  10    1.97    1.66
  -6  -8 -10    0.29    1.30
  -6  -8 -10   -0.06    1.41
  -6  -8 -10    2.80    1.51
  -6  -8 -10    2.78    2.67
   6   8  10    1.74    1.62
   6   8  10   -1.37    1.89
  -7  -8 -10   11.85    2.13
  -7  -8 -10    8.80    1.98
  -7  -8 -10   10.09    2.26
  -7  -8 -10    8.30    2.04
  -7  -8 -10   10.41    2.90
   7   8  10    8.39    1.96
   7   8  10    8.05    2.48
   7   8  10    7.76    2.16
   7   8  10    9.65    2.09
  -8  -8 -10    3.41    1.71
  -8  -8 -10    3.14    1.55
  -8  -8 -10    8.12    2.11
  -8  -8 -10    8.63    2.71
   8   8  10    3.90    1.73
   8   8  10    4.75    2.44
   8   8  10    4.73    1.98
   1   7 -11    4.68    2.16
   1   7 -11    5.65    2.32
  -1  -7  11    5.80    3.12
  -1  -7  11    5.47    1.65
  -1  -7  11    5.82    2.16
   0   7 -11    1.51    2.41
   0   7 -11    5.76    2.15
   0   7 -11    5.12    2.15
   0  -7  11    0.07    1.30
   0  -7  11    1.18    2.79
   0  -7  11    1.86    1.81
   0  -7  11    2.21    1.36
   0  -7  11    2.87    2.57
  -1   7 -11    2.43    2.26
  -1   7 -11    0.62    2.29
  -1   7 -11    5.15    3.01
   1  -7  11    3.88    2.03
   1  -7  11    2.28    1.50
   1  -7  11    3.57    1.69
   1  -7  11   -0.37    2.93
   1  -7  11    1.09    2.49
   2   6 -11    6.99    2.17
   2   6 -11    3.30    1.95
  -2  -6  11    6.16    2.02
  -2  -6  11    4.80    2.13
  -2  -6  11    6.50    1.70
  -2  -6  11    2.18    2.34
   1   6 -11   28.24    3.22
   1   6 -11   27.29    3.36
  -1  -6  11   25.52    4.05
  -1  -6  11   27.20    2.77
  -1  -6  11   21.66    3.04
   0   6 -11    3.15    1.74
   0   6 -11    4.37    2.07
   0  -6  11   -1.21    2.04
   0  -6  11    1.83    1.30
   0  -6  11   -0.98    2.18
   0  -6  11    2.65    1.65
  -1   6 -11   27.10    3.41
  -1   6 -11   16.99    3.03
  -1   6 -11   22.69    3.91
   1  -6  11   17.24    2.25
   1  -6  11   21.29    3.55
   1  -6  11   18.51    3.71
   1  -6  11   17.88    2.51
   1  -6  11   19.59    2.89
  -2   6 -11    0.64    2.10
  -2   6 -11    1.82    2.60
  -2   6 -11    0.16    2.23
   2  -6  11    0.29    2.68
   2  -6  11    2.03    1.78
   2  -6  11    3.11    1.53
   2  -6  11    0.54    1.58
   2  -6  11    0.96    2.17
  -3   6 -11   24.50    4.13
  -3   6 -11   27.20    4.28
   3  -6  11   24.33    2.86
   3  -6  11   16.91    2.93
   3  -6  11   29.89    3.79
   3  -6  11   21.79    3.11
   3   5 -11   25.65    3.18
   3   5 -11   22.06    2.92
   3   5 -11   21.78    2.87
  -3  -5  11   22.80    3.15
  -3  -5  11   20.59    2.60
  -3  -5  11   27.91    3.12
  -3  -5  11   25.45    4.04
   2   5 -11    3.09    1.81
   2   5 -11    1.81    1.69
   2   5 -11    4.53    1.85
  -2  -5  11    2.55    1.82
  -2  -5  11    2.25    2.38
  -2  -5  11    3.59    1.82
  -2  -5  11    2.72    1.46
   1   5 -11    0.19    1.63
   1   5 -11   -1.50    1.51
  -1  -5  11   -0.58    1.19
  -1  -5  11    1.02    1.67
  -1  -5  11   -1.25    1.18
  -1  -5  11    1.41    2.13
  -1  -5  11   -1.01    1.51
   0   5 -11    0.50    1.48
   0   5 -11   -1.48    1.58
   0  -5  11    2.29    1.79
   0  -5  11    2.16    1.29
   0  -5  11    0.88    2.23
   0  -5  11    2.68    1.56
  -1   5 -11    1.92    1.92
  -1   5 -11    2.31    1.82
   1  -5  11    2.78    2.39
   1  -5  11    2.81    1.80
   1  -5  11    5.63    1.69
   1  -5  11    2.88    2.13
   1  -5  11    4.48    1.84
   1  -5  11    2.48    1.29
  -2   5 -11    1.81    1.94
  -2   5 -11    3.24    2.00
   2  -5  11    0.25    1.31
   2  -5  11   -1.50    1.70
   2  -5  11    2.36    2.38
   2  -5  11    2.49    1.74
   2  -5  11    1.59    1.67
   2  -5  11    1.57    1.29
  -3   5 -11   10.07    2.95
  -3   5 -11    8.03    2.90
  -3   5 -11   13.10    3.18
   3  -5  11    6.23    3.08
   3  -5  11   11.77    2.42
   3  -5  11    6.69    2.10
   3  -5  11    9.26    2.42
   3  -5  11   11.42    2.16
   3  -5  11    5.35    2.33
  -4   5 -11    9.58    3.32
  -4   5 -11    4.31    3.10
   4  -5  11    8.17    2.36
   4  -5  11    4.41    1.89
   4  -5  11    9.91    2.19
   3   4 -11    0.42    1.60
   3   4 -11   -1.02    1.46
   3   4 -11    2.78    1.80
  -3  -4  11    0.71    1.35
  -3  -4  11    0.82    2.30
  -3  -4  11   -1.04    1.63
  -3  -4  11    2.92    1.64
   2   4 -11   30.49    3.16
   2   4 -11   32.19    3.28
   2   4 -11   27.15    3.05
  -2  -4  11   29.45    3.22
  -2  -4  11   29.77    2.86
  -2  -4  11   29.65    3.37
  -2  -4  11   24.01    2.99
  -2  -4  11   28.85    3.86
   1   4 -11    1.43    1.47
   1   4 -11    2.02    1.57
   1   4 -11   -0.17    1.51
  -1  -4  11    1.63    1.46
  -1  -4  11    0.06    1.69
  -1  -4  11    3.03    2.23
  -1  -4  11    1.64    1.26
  -1  -4  11    3.02    1.70
   0   4 -11   43.32    3.46
   0   4 -11   47.19    3.86
   0   4 -11   45.64    3.76
   0  -4  11   39.30    4.44
   0  -4  11   40.40    3.82
   0  -4  11   38.16    3.58
   0  -4  11   41.97    3.83
   0  -4  11   45.08    3.17
  -1   4 -11    2.35    1.54
  -1   4 -11    0.21    1.54
   1  -4  11    1.87    1.54
   1  -4  11    5.41    2.13
   1  -4  11    1.08    1.15
   1  -4  11    1.86    1.34
   1  -4  11    0.96    1.63
  -2   4 -11   36.93    3.74
  -2   4 -11   40.80    3.84
   2  -4  11   36.68    3.68
   2  -4  11   44.88    3.99
   2  -4  11   31.12    3.21
   2  -4  11   39.08    3.14
   2  -4  11   45.82    4.58
  -3   4 -11    1.21    1.99
  -3   4 -11    2.17    2.02
   3  -4  11   -0.44    1.51
   3  -4  11    0.01    1.35
   3  -4  11    2.49    1.66
   3  -4  11   -0.38    1.62
   3  -4  11   -1.58    2.05
   3  -4  11    0.91    1.65
  -4   4 -11   47.62    5.13
  -4   4 -11   53.11    5.48
   4  -4  11   57.56    4.90
   4  -4  11   57.23    4.49
   4  -4  11   47.82    3.86
   4  -4  11   51.56    5.24
  -5   4 -11    2.38    2.96
  -5   4 -11    6.13    3.09
   5  -4  11    4.71    1.84
   5  -4  11    1.11    1.62
   5  -4  11    1.08    1.95
   3   3 -11   25.35    3.10
   3   3 -11   27.55    3.21
  -3  -3  11   25.91    3.94
  -3  -3  11   22.07    2.96
  -3  -3  11   27.57    2.89
  -3  -3  11   26.22    2.73
   2   3 -11   16.76    2.64
   2   3 -11   23.13    2.84
   2   3 -11   23.07    2.85
  -2  -3  11   24.95    2.90
  -2  -3  11   24.50    2.56
  -2  -3  11   27.01    3.14
  -2  -3  11   18.65    2.71
  -2  -3  11   24.56    3.52
  -2  -3  11   22.11    2.38
   1   3 -11   11.68    2.07
   1   3 -11   12.49    2.16
   1   3 -11    7.55    1.91
  -1  -3  11    9.96    1.89
  -1  -3  11   11.07    2.18
  -1  -3  11   10.29    1.76
  -1  -3  11   13.37    2.84
  -1  -3  11   10.04    2.09
   0   3 -11   -0.42    1.30
   0   3 -11    0.94    1.35
   0   3 -11    0.41    1.24
   0  -3  11   -2.31    0.89
   0  -3  11    2.30    1.90
   0  -3  11    0.00    1.20
   0  -3  11    1.53    1.33
   0  -3  11   -1.47    1.51
  -1   3 -11    0.43    1.37
  -1   3 -11   -0.41    1.39
  -1   3 -11    1.88    1.43
   1  -3  11    0.00    1.19
   1  -3  11    0.40    1.07
   1  -3  11    0.87    1.47
   1  -3  11   -0.59    1.55
  -2   3 -11    1.54    1.37
  -2   3 -11    0.64    1.49
  -2   3 -11    1.12    1.56
   2  -3  11    0.64    1.17
   2  -3  11    2.49    1.66
   2  -3  11    0.80    1.29
   2  -3  11   -0.57    1.32
   2  -3  11    4.34    2.04
  -3   3 -11    6.20    1.98
  -3   3 -11    5.49    2.10
   3  -3  11    8.58    2.10
   3  -3  11    7.30    2.05
   3  -3  11    8.96    2.12
   3  -3  11    7.01    1.77
   3  -3  11    6.42    2.23
  -4   3 -11    3.07    2.32
  -4   3 -11    7.27    2.41
   4  -3  11    3.19    1.59
   4  -3  11    7.27    2.13
   4  -3  11    8.46    2.60
   4  -3  11    4.94    1.89
  -5   3 -11    0.38    2.59
  -5   3 -11    3.28    2.62
   5  -3  11    6.30    1.94
   5  -3  11    2.42    2.22
   5  -3  11    5.68    1.90
   5  -3  11    3.86    2.65
  -6   3 -11   53.07    5.51
  -6   3 -11   55.72    5.41
  -6   3 -11   59.74    4.66
   6  -3  11   57.72    4.36
   6  -3  11   52.20    5.02
   3   2 -11    7.85    2.07
   3   2 -11    5.93    2.05
  -3  -2  11    5.80    1.97
  -3  -2  11    6.29    2.46
  -3  -2  11    3.62    1.37
  -3  -2  11    6.93    1.81
   2   2 -11   13.40    2.31
   2   2 -11   13.89    2.38
  -2  -2  11   11.75    2.87
  -2  -2  11   10.84    1.84
  -2  -2  11    9.26    2.02
  -2  -2  11   12.37    2.30
  -2  -2  11   10.82    1.93
  -2  -2  11   17.56    2.61
   1   2 -11   19.73    2.56
   1   2 -11   20.06    2.57
   1   2 -11   22.42    2.67
  -1  -2  11   24.09    2.43
  -1  -2  11   16.57    2.94
  -1  -2  11   24.86    2.39
  -1  -2  11   20.16    2.59
  -1  -2  11   21.94    2.92
  -1  -2  11   19.79    2.56
   0   2 -11    2.73    1.33
   0   2 -11   -0.01    1.34
   0   2 -11    0.87    1.27
   0  -2  11    1.31    1.77
   0  -2  11    0.90    1.03
   0  -2  11   -0.61    1.40
   0  -2  11    1.26    1.23
   0  -2  11   -0.48    1.05
   0  -2  11   -0.48    1.24
  -1   2 -11   56.15    3.60
  -1   2 -11   35.55    3.39
  -1   2 -11   43.97    3.30
   1  -2  11   38.99    3.13
   1  -2  11   40.90    2.81
   1  -2  11   45.74    4.08
   1  -2  11   36.89    3.95
   1  -2  11   40.74    3.54
   1  -2  11   39.56    3.41
  -2   2 -11    8.03    1.77
  -2   2 -11    8.65    1.80
  -2   2 -11   10.62    2.10
   2  -2  11    8.77    1.97
   2  -2  11    7.86    1.88
   2  -2  11    5.76    1.93
   2  -2  11    6.20    1.49
   2  -2  11    8.86    1.72
  -3   2 -11   51.89    3.89
  -3   2 -11   57.33    4.25
  -3   2 -11   61.01    4.09
   3  -2  11   51.09    4.48
   3  -2  11   57.79    4.28
   3  -2  11   52.53    4.09
   3  -2  11   53.50    3.49
   3  -2  11   50.03    4.18
  -4   2 -11   -1.35    1.54
  -4   2 -11    0.75    1.78
  -4   2 -11   -1.62    1.84
   4  -2  11   -2.08    1.21
   4  -2  11   -0.58    1.53
   4  -2  11   -1.87    1.33
   4  -2  11   -1.03    1.78
  -5   2 -11  118.23    7.26
  -5   2 -11  104.88    6.73
  -5   2 -11  101.53    7.04
   5  -2  11   90.57    7.01
   5  -2  11   95.16    6.39
   5  -2  11  127.68    6.24
   5  -2  11  115.99    5.92
  -6   2 -11   -1.97    2.18
  -6   2 -11    0.57    1.61
   6  -2  11    3.94    2.61
   6  -2  11   -0.70    1.39
   6  -2  11   -0.58    2.08
   6  -2  11    2.18    1.62
  -7   2 -11   25.24    3.15
  -7   2 -11   27.81    3.85
   7  -2  11   25.75    2.93
   3   1 -11    0.78    1.54
   3   1 -11    3.00    1.73
  -3  -1  11    0.43    1.31
  -3  -1  11    1.59    1.74
  -3  -1  11    1.53    2.36
  -3  -1  11    3.13    1.52
   2   1 -11   19.28    2.61
   2   1 -11   16.02    2.48
  -2  -1  11   14.01    2.91
  -2  -1  11   14.37    2.59
  -2  -1  11   20.13    2.63
  -2  -1  11   17.91    2.28
  -2  -1  11   17.92    2.24
  -2  -1  11   14.48    2.39
   1   1 -11   25.38    2.79
   1   1 -11   26.94    2.97
  -1  -1  11   26.01    3.42
  -1  -1  11   24.96    2.80
  -1  -1  11   28.13    2.57
  -1  -1  11   28.09    3.16
  -1  -1  11   26.46    2.57
  -1  -1  11   28.39    2.93
   0   1 -11   19.35    2.42
   0   1 -11   21.37    2.47
   0   1 -11   20.25    2.53
   0  -1  11   20.39    2.15
   0  -1  11   18.70    2.37
   0  -1  11   19.52    2.89
   0  -1  11   23.52    2.29
   0  -1  11   20.07    2.83
   0  -1  11   18.02    2.30
  -1   1 -11    2.65    1.35
  -1   1 -11    1.31    1.45
  -1   1 -11    2.79    1.37
   1  -1  11    2.11    1.74
   1  -1  11    1.40    1.31
   1  -1  11    2.89    1.22
   1  -1  11    2.22    1.56
   1  -1  11    4.19    1.35
  -2   1 -11   20.91    2.51
  -2   1 -11   12.49    1.90
  -2   1 -11   15.97    2.21
   2  -1  11   15.25    1.97
   2  -1  11   11.31    1.98
   2  -1  11   13.19    2.24
   2  -1  11   18.05    1.97
   2  -1  11   10.65    2.18
   2  -1  11    9.94    1.87
  -3   1 -11    3.00    1.79
  -3   1 -11    1.27    1.31
  -3   1 -11    6.31    1.75
   3  -1  11    0.29    1.58
   3  -1  11    2.71    1.50
   3  -1  11    1.85    1.52
   3  -1  11    1.37    1.29
   3  -1  11    3.97    1.66
  -4   1 -11   37.83    3.62
  -4   1 -11   29.86    3.45
   4  -1  11   39.11    3.45
   4  -1  11   32.20    3.08
   4  -1  11   31.69    3.62
   4  -1  11   40.51    3.55
  -5   1 -11    2.90    2.41
  -5   1 -11    0.45    1.95
   5  -1  11   -1.03    1.66
   5  -1  11    1.02    2.15
   5  -1  11    1.57    1.61
   5  -1  11    1.24    1.44
  -6   1 -11   -1.98    1.28
  -6   1 -11   -2.62    2.22
  -6   1 -11    0.12    1.84
   6  -1  11    0.50    2.34
   6  -1  11   -0.82    1.98
   6  -1  11    2.15    1.59
   6  -1  11   -0.77    1.40
  -7   1 -11   65.75    6.04
  -7   1 -11   82.76    5.11
  -7   1 -11   80.92    5.53
   7  -1  11   81.21    6.17
   7  -1  11   76.60    4.80
  -8   1 -11    8.14    2.50
   8  -1  11    9.24    2.18
   2   0 -11   14.78    2.38
   2   0 -11    9.12    2.13
   2   0 -11   13.78    2.32
  -2   0  11   11.82    1.99
  -2   0  11   16.95    2.42
  -2   0  11   13.41    2.30
  -2   0  11   10.78    2.84
  -2   0  11   14.68    2.11
   1   0 -11   31.81    3.32
   1   0 -11   39.56    3.41
  -1   0  11   40.90    3.46
  -1   0  11   34.61    3.28
  -1   0  11   35.63    3.75
  -1   0  11   43.21    3.29
  -1   0  11   36.63    3.05
  -1   0  11   36.62    4.12
   0   0 -11    3.90    1.58
   0   0 -11    5.39    1.70
   0   0  11    4.15    1.32
   0   0  11    7.65    2.31
   0   0  11    4.87    2.04
   0   0  11    6.05    1.57
   0   0  11    4.10    1.35
   0   0  11    7.38    1.64
  -1   0 -11   16.59    2.27
  -1   0 -11   19.96    2.53
  -1   0 -11   21.72    2.21
   1   0  11   19.22    2.06
   1   0  11   21.88    2.94
   1   0  11   15.87    2.10
   1   0  11   17.70    2.13
   1   0  11   19.28    2.78
  -2   0 -11   17.65    2.37
  -2   0 -11   16.65    2.34
  -2   0 -11   18.26    2.05
   2   0  11   19.58    2.65
   2   0  11   20.08    2.17
   2   0  11   18.58    2.60
   2   0  11   14.03    2.05
   2   0  11   14.68    1.85
  -3   0 -11   30.97    3.12
  -3   0 -11   23.27    2.75
   3   0  11   28.44    2.77
   3   0  11   25.78    2.76
   3   0  11   29.00    3.01
   3   0  11   30.67    3.20
   3   0  11   28.95    2.56
  -4   0 -11   49.33    4.34
  -4   0 -11   57.05    4.15
   4   0  11   42.59    4.03
   4   0  11   56.34    3.74
   4   0  11   49.95    4.12
   4   0  11   51.68    3.89
  -5   0 -11   -1.93    1.74
  -5   0 -11   -3.63    1.64
   5   0  11   -1.01    1.28
   5   0  11   -1.00    1.66
   5   0  11   -0.79    1.37
   5   0  11   -0.94    1.34
  -6   0 -11  158.76    8.64
  -6   0 -11  145.44    8.62
  -6   0 -11  150.93    7.37
   6   0  11  127.94    8.47
   6   0  11  129.45    7.65
   6   0  11  158.92    7.35
   6   0  11  158.60    7.43
  -7   0 -11    0.80    1.96
  -7   0 -11   -0.26    1.42
  -7   0 -11    2.44    2.37
   7   0  11    1.79    1.68
   7   0  11   -0.55    2.16
   7   0  11    2.27    1.57
  -8   0 -11   55.57    5.08
  -8   0 -11   54.78    4.75
  -8   0 -11   56.56    4.56
   8   0  11   63.74    4.65
   2  -1 -11    0.77    1.59
   2  -1 -11    0.61    1.56
   2  -1 -11    5.17    1.66
  -2   1  11    1.29    2.06
  -2   1  11    4.60    1.82
  -2   1  11    2.41    1.33
   1  -1 -11    6.19    1.63
   1  -1 -11   10.28    2.18
   1  -1 -11    8.59    1.90
  -1   1  11    8.43    1.74
  -1   1  11    9.52    2.64
  -1   1  11    7.54    2.20
  -1   1  11    6.67    1.88
  -1   1  11    6.87    1.60
   0  -1 -11    9.34    1.63
   0  -1 -11   10.35    2.09
   0  -1 -11    6.50    1.71
   0   1  11   12.12    1.96
   0   1  11   10.86    2.46
   0   1  11    9.97    1.77
   0   1  11    8.62    2.39
   0   1  11    9.63    1.78
   0   1  11   10.99    1.74
  -1  -1 -11   17.84    2.28
  -1  -1 -11   19.20    2.48
   1   1  11   17.60    1.91
   1   1  11   15.98    2.09
   1   1  11   16.37    2.62
   1   1  11   18.08    2.86
  -2  -1 -11   -1.92    1.18
  -2  -1 -11   -0.52    1.24
   2   1  11   -1.26    0.84
   2   1  11    0.11    1.66
   2   1  11    0.84    1.14
   2   1  11    0.56    1.47
  -3  -1 -11   27.18    2.98
  -3  -1 -11   33.74    3.14
   3   1  11   27.31    2.97
   3   1  11   25.52    2.61
   3   1  11   27.86    2.41
   3   1  11   29.44    3.23
   3   1  11   29.16    2.82
  -4  -1 -11    6.48    2.01
  -4  -1 -11    8.61    2.05
   4   1  11   10.26    2.07
   4   1  11    7.03    1.98
   4   1  11    6.02    1.49
   4   1  11    7.04    1.72
  -5  -1 -11   75.03    5.39
  -5  -1 -11   68.73    4.94
   5   1  11   65.87    4.53
   5   1  11   74.08    4.54
   5   1  11   74.34    4.92
   5   1  11   66.98    4.39
  -6  -1 -11    3.90    2.38
  -6  -1 -11    1.79    1.36
  -6  -1 -11    3.49    2.22
   6   1  11    1.27    1.61
   6   1  11    1.69    2.05
   6   1  11    2.97    1.86
   6   1  11    0.18    1.36
  -7  -1 -11    4.42    1.75
  -7  -1 -11    3.28    2.26
  -7  -1 -11    7.37    2.46
   7   1  11    2.67    1.77
   7   1  11    5.44    1.82
   7   1  11    3.92    2.47
  -8  -1 -11   43.70    3.46
  -8  -1 -11   42.60    4.26
  -8  -1 -11   37.29    3.80
  -8  -1 -11   45.12    4.48
   8   1  11   45.37    3.94
   8   1  11   44.63    4.69
   8   1  11   42.36    3.76
  -9  -1 -11    5.16    2.30
  -9  -1 -11    5.13    1.77
  -9  -1 -11    6.03    2.15
   9   1  11    6.38    2.31
   9   1  11    3.16    1.86
   1  -2 -11    4.62    1.94
   1  -2 -11    6.76    1.77
  -1   2  11    5.41    1.61
  -1   2  11    1.96    2.25
   0  -2 -11   38.82    3.65
   0  -2 -11   45.04    3.36
   0   2  11   47.25    4.63
   0   2  11   39.80    4.33
   0   2  11   48.52    3.62
  -1  -2 -11    7.64    1.50
  -1  -2 -11    7.59    1.95
  -1  -2 -11    7.02    1.60
  -1  -2 -11    7.02    1.69
   1   2  11   11.07    2.43
   1   2  11    6.87    2.32
  -2  -2 -11   40.55    3.58
  -2  -2 -11   34.09    3.12
  -2  -2 -11   39.42    2.87
   2   2  11   38.23    3.96
   2   2  11   40.15    3.76
  -3  -2 -11    5.58    1.74
  -3  -2 -11    4.88    1.66
  -3  -2 -11    5.15    1.35
   3   2  11    4.91    1.77
   3   2  11    5.07    1.41
   3   2  11    6.47    1.81
   3   2  11    3.73    1.97
   3   2  11    6.17    1.26
  -4  -2 -11   55.45    4.11
  -4  -2 -11   57.73    4.24
  -4  -2 -11   58.01    3.32
   4   2  11   60.41    3.40
   4   2  11   54.45    4.00
   4   2  11   55.73    3.74
   4   2  11   55.32    4.06
   4   2  11   58.91    4.59
  -5  -2 -11   29.61    3.39
  -5  -2 -11   27.65    3.40
   5   2  11   30.42    3.24
   5   2  11   29.30    2.98
   5   2  11   28.90    2.71
   5   2  11   24.76    2.88
  -6  -2 -11    7.05    2.45
  -6  -2 -11    5.12    1.58
  -6  -2 -11    2.73    2.28
   6   2  11    9.87    2.01
   6   2  11    4.36    1.83
   6   2  11    6.19    2.11
   6   2  11    6.38    1.93
  -7  -2 -11  124.10    6.55
  -7  -2 -11  121.07    7.49
  -7  -2 -11  127.50    7.46
   7   2  11  127.61    6.55
   7   2  11  107.13    7.25
   7   2  11  127.23    6.47
   7   2  11  127.40    6.79
  -8  -2 -11    3.51    2.20
  -8  -2 -11   -0.50    1.48
  -8  -2 -11    3.93    2.12
  -8  -2 -11    4.46    1.66
   8   2  11   -2.02    1.72
   8   2  11    3.30    2.37
   8   2  11    1.95    1.85
  -9  -2 -11   74.78    5.46
  -9  -2 -11   78.03    5.51
  -9  -2 -11   73.39    4.49
  -9  -2 -11   74.58    4.57
   9   2  11   74.51    5.06
   9   2  11   63.95    5.01
   1  -3 -11    3.61    1.96
   1  -3 -11    4.89    1.71
  -1   3  11    3.91    1.51
  -1   3  11    1.03    2.16
   0  -3 -11    5.74    1.88
   0  -3 -11    5.11    1.60
   0   3  11    5.13    2.60
   0   3  11    4.97    1.53
   0   3  11    4.87    2.45
  -1  -3 -11    2.73    1.31
  -1  -3 -11    1.11    1.63
   1   3  11   -0.17    2.17
   1   3  11    3.14    2.06
  -2  -3 -11    8.02    1.64
  -2  -3 -11    9.00    1.65
  -2  -3 -11    7.33    1.99
   2   3  11    3.59    2.25
   2   3  11   11.20    2.40
  -3  -3 -11    3.63    1.73
  -3  -3 -11    2.99    1.40
  -3  -3 -11   -0.16    1.13
   3   3  11    2.43    1.83
   3   3  11    1.49    1.60
  -4  -3 -11   21.35    2.72
  -4  -3 -11   17.27    2.38
  -4  -3 -11   23.62    2.29
  -4  -3 -11   21.98    2.80
   4   3  11   28.57    3.17
   4   3  11   19.56    2.61
   4   3  11   24.23    2.70
  -5  -3 -11    6.63    2.05
  -5  -3 -11    5.47    2.27
  -5  -3 -11    7.44    1.72
  -5  -3 -11    6.78    1.55
   5   3  11   10.95    2.25
   5   3  11    7.84    1.96
  -6  -3 -11   88.34    4.94
  -6  -3 -11   83.69    6.01
  -6  -3 -11   91.17    4.70
  -6  -3 -11   77.16    5.95
   6   3  11   83.78    5.07
   6   3  11   85.66    5.35
  -7  -3 -11    8.19    1.87
  -7  -3 -11   11.44    2.13
  -7  -3 -11    9.47    1.93
  -7  -3 -11   10.70    2.55
  -7  -3 -11   13.26    3.00
   7   3  11    8.99    2.20
   7   3  11    8.34    2.18
  -8  -3 -11   20.69    2.50
  -8  -3 -11   23.45    3.25
  -8  -3 -11   20.75    2.66
  -8  -3 -11   19.48    2.75
  -8  -3 -11   16.80    3.04
   8   3  11   24.59    2.90
   8   3  11   22.13    2.78
   8   3  11   21.01    2.93
  -9  -3 -11   22.00    3.17
  -9  -3 -11   16.01    2.41
  -9  -3 -11   23.49    3.26
  -9  -3 -11   18.11    2.49
   9   3  11   15.62    2.66
   9   3  11   15.92    2.76
   0  -4 -11   -0.46    1.76
   0  -4 -11   -0.49    1.37
   0   4  11   -0.38    2.50
   0   4  11    2.02    1.42
   0   4  11    1.77    2.34
  -1  -4 -11   39.92    3.36
  -1  -4 -11   42.54    3.95
   1   4  11   40.32    4.75
   1   4  11   34.33    4.21
  -2  -4 -11    5.48    1.60
  -2  -4 -11    6.65    1.52
  -2  -4 -11    4.96    1.94
   2   4  11    7.50    2.74
   2   4  11    3.47    1.96
  -3  -4 -11   51.47    3.42
  -3  -4 -11   51.38    4.28
  -3  -4 -11   51.86    3.38
   3   4  11   45.78    4.52
   3   4  11   49.56    4.36
  -4  -4 -11    0.84    1.50
  -4  -4 -11   -0.84    1.30
  -4  -4 -11    1.81    1.29
   4   4  11    0.25    1.50
   4   4  11    0.77    1.71
   4   4  11   -1.51    1.50
  -5  -4 -11   87.67    4.88
  -5  -4 -11   80.54    5.71
  -5  -4 -11   98.45    4.88
   5   4  11   88.11    5.07
   5   4  11   88.30    5.62
  -6  -4 -11    9.07    2.56
  -6  -4 -11    6.75    1.79
  -6  -4 -11    8.79    1.81
   6   4  11    9.02    2.10
   6   4  11    8.34    2.29
  -7  -4 -11   18.76    2.45
  -7  -4 -11   20.85    2.53
  -7  -4 -11   21.45    2.59
  -7  -4 -11   18.28    3.23
   7   4  11   17.16    2.64
   7   4  11   23.31    3.03
  -8  -4 -11  103.98    5.56
  -8  -4 -11   91.79    5.74
  -8  -4 -11  104.87    6.24
  -8  -4 -11  104.86    5.69
  -8  -4 -11  106.04    5.44
  -8  -4 -11   86.79    6.34
   8   4  11   98.51    5.83
   8   4  11   93.16    5.56
   8   4  11  107.22    5.98
  -9  -4 -11    2.50    1.89
  -9  -4 -11    4.55    1.72
  -9  -4 -11    2.35    1.98
  -9  -4 -11    2.49    1.75
  -9  -4 -11    2.76    1.60
   9   4  11    0.40    1.89
   9   4  11    7.74    2.31
  -1  -5 -11    0.38    1.41
  -1  -5 -11   -0.95    1.69
   1   5  11    2.92    2.32
   1   5  11    0.54    1.32
   1   5  11    3.01    2.88
  -2  -5 -11    3.78    1.55
  -2  -5 -11    3.12    1.93
  -2  -5 -11    2.75    1.34
   2   5  11    1.99    2.57
   2   5  11    0.94    1.81
  -3  -5 -11    0.57    1.32
  -3  -5 -11    1.08    1.36
  -3  -5 -11    1.26    1.78
   3   5  11   -1.02    1.70
   3   5  11   -2.39    1.81
  -4  -5 -11    9.14    2.33
  -4  -5 -11   11.62    2.00
  -4  -5 -11   10.64    1.92
   4   5  11    9.84    2.59
   4   5  11   13.67    2.44
  -5  -5 -11   16.58    2.16
  -5  -5 -11   17.53    2.97
  -5  -5 -11   18.33    2.35
   5   5  11   14.33    2.84
   5   5  11   11.97    2.32
  -6  -5 -11    1.93    1.52
  -6  -5 -11    2.86    1.51
  -6  -5 -11    3.00    2.28
   6   5  11    1.18    1.69
   6   5  11    4.33    2.17
  -7  -5 -11   87.51    4.86
  -7  -5 -11   81.41    4.78
  -7  -5 -11   78.96    4.80
  -7  -5 -11   66.82    6.29
  -7  -5 -11   76.86    4.64
  -7  -5 -11   82.97    4.51
   7   5  11   76.98    5.30
   7   5  11   74.82    4.79
  -8  -5 -11   13.17    2.43
  -8  -5 -11   16.50    3.20
  -8  -5 -11   10.63    2.12
  -8  -5 -11   16.58    2.24
  -8  -5 -11   15.95    2.54
   8   5  11   14.21    2.69
   8   5  11   13.32    2.47
   8   5  11   15.06    2.54
  -9  -5 -11   39.63    3.76
  -9  -5 -11   42.10    4.43
  -9  -5 -11   39.96    3.56
  -9  -5 -11   37.68    3.48
   9   5  11   35.62    3.82
   9   5  11   35.18    3.70
  -2  -6 -11   19.93    2.57
  -2  -6 -11   20.21    3.07
   2   6  11   23.41    4.06
   2   6  11   17.59    3.42
  -3  -6 -11    3.64    1.44
  -3  -6 -11    2.00    1.97
  -3  -6 -11    3.13    1.53
   3   6  11    2.72    2.57
   3   6  11    3.11    2.08
  -4  -6 -11   33.82    3.21
  -4  -6 -11   38.61    4.12
  -4  -6 -11   39.99    3.31
   4   6  11   40.66    4.01
   4   6  11   36.47    4.11
  -5  -6 -11    1.75    2.17
  -5  -6 -11    2.97    1.54
  -5  -6 -11    3.09    1.50
   5   6  11    0.84    1.65
   5   6  11    3.97    2.29
  -6  -6 -11   97.84    5.39
  -6  -6 -11   98.13    6.81
  -6  -6 -11   88.69    5.20
   6   6  11   94.30    6.06
   6   6  11   94.00    5.43
  -7  -6 -11    1.37    1.43
  -7  -6 -11    1.86    1.49
  -7  -6 -11    1.61    1.35
  -7  -6 -11    2.32    1.60
  -7  -6 -11    0.61    2.34
  -7  -6 -11    0.65    1.44
   7   6  11   -2.17    1.52
   7   6  11    1.85    1.54
   7   6  11    2.90    2.18
   7   6  11    1.90    1.51
  -8  -6 -11   22.11    2.85
  -8  -6 -11   26.81    2.79
  -8  -6 -11   26.25    2.99
  -8  -6 -11   24.34    2.92
  -8  -6 -11   21.04    3.59
  -8  -6 -11   21.70    2.84
   8   6  11   28.75    3.50
   8   6  11   18.85    2.75
   8   6  11   29.06    3.29
  -9  -6 -11   61.63    5.51
  -9  -6 -11   55.64    4.28
  -9  -6 -11   58.08    4.46
  -9  -6 -11   61.69    4.79
   9   6  11   59.72    5.02
   9   6  11   59.31    4.71
   9   6  11   51.43    4.58
  -4  -7 -11    0.54    1.40
  -4  -7 -11    0.66    1.33
  -4  -7 -11   -0.25    2.04
   4   7  11   -0.60    2.28
   4   7  11    2.77    2.11
  -5  -7 -11   16.19    3.31
  -5  -7 -11   13.84    2.28
  -5  -7 -11   11.95    2.05
   5   7  11    9.65    2.77
  -6  -7 -11    1.62    1.60
  -6  -7 -11    6.71    2.80
  -6  -7 -11    3.05    1.60
   6   7  11    2.42    1.73
   6   7  11    2.45    2.29
  -7  -7 -11    4.67    1.70
  -7  -7 -11    3.01    1.78
  -7  -7 -11    1.66    2.54
  -7  -7 -11    3.42    1.52
   7   7  11    3.48    2.24
   7   7  11    3.36    1.93
   7   7  11    4.12    1.68
  -8  -7 -11   53.34    4.16
  -8  -7 -11   42.40    4.87
  -8  -7 -11   46.90    3.76
  -8  -7 -11   40.67    3.95
   8   7  11   51.43    4.40
   8   7  11   55.75    4.93
   8   7  11   53.42    4.18
   0   6 -12    0.95    1.98
   0   6 -12    1.04    1.93
   0  -6  12    0.27    1.72
   0  -6  12    0.63    1.46
   0  -6  12   -0.79    2.43
  -1   6 -12   71.94    5.40
  -1   6 -12   78.02    5.67
   1  -6  12   63.44    5.36
   1  -6  12   71.16    4.85
   1  -6  12   79.53    4.44
   1  -6  12   71.24    6.89
   1   5 -12    8.60    2.28
   1   5 -12    8.26    2.24
  -1  -5  12   10.64    3.00
  -1  -5  12    8.20    1.78
  -1  -5  12    7.80    2.27
  -1  -5  12   11.73    2.42
   0   5 -12   50.36    4.42
   0   5 -12   59.75    4.89
   0  -5  12   55.76    5.69
   0  -5  12   54.75    4.78
   0  -5  12   58.52    3.89
  -1   5 -12    6.33    2.28
  -1   5 -12    7.85    2.24
   1  -5  12    7.63    2.99
   1  -5  12   13.97    2.31
   1  -5  12    7.13    2.17
  -2   5 -12   10.43    2.55
  -2   5 -12    7.54    2.47
   2  -5  12   10.18    3.04
   2  -5  12    5.50    1.96
   2  -5  12    7.59    1.88
   2  -5  12   14.36    2.64
  -3   5 -12    6.00    2.64
  -3   5 -12    4.46    2.71
   3  -5  12   10.30    2.34
   3  -5  12    6.20    2.18
   3  -5  12    4.83    1.94
   2   4 -12   -1.38    1.60
   2   4 -12    0.27    1.61
   2   4 -12    0.30    1.60
  -2  -4  12   -0.46    1.69
  -2  -4  12    1.28    2.06
  -2  -4  12    0.70    1.73
  -2  -4  12   -1.11    1.18
   1   4 -12   88.47    5.64
   1   4 -12   93.65    5.81
   1   4 -12   86.63    5.52
  -1  -4  12   92.89    5.76
  -1  -4  12   90.31    6.61
  -1  -4  12   93.06    5.80
  -1  -4  12   95.46    5.25
   0   4 -12    5.69    1.87
   0   4 -12    9.68    2.17
   0   4 -12    7.15    1.93
   0  -4  12    1.79    2.26
   0  -4  12    3.34    1.76
   0  -4  12    5.44    1.65
   0  -4  12    5.81    1.83
   0  -4  12    8.12    2.21
  -1   4 -12    9.01    2.24
  -1   4 -12    5.39    2.00
   1  -4  12    3.45    1.60
   1  -4  12    3.82    1.77
   1  -4  12    7.98    2.09
   1  -4  12    4.22    2.48
  -2   4 -12   66.24    5.00
  -2   4 -12   76.93    5.17
   2  -4  12   73.58    5.02
   2  -4  12   69.96    4.60
   2  -4  12   71.58    4.28
   2  -4  12   74.22    5.81
   2  -4  12   72.12    5.15
  -3   4 -12    2.12    2.14
  -3   4 -12    3.78    2.29
   3  -4  12    4.12    1.59
   3  -4  12   -1.76    1.56
   3  -4  12    1.54    1.75
   3  -4  12    5.31    2.53
  -4   4 -12   66.42    6.04
  -4   4 -12   66.09    5.86
   4  -4  12   52.88    4.96
   4  -4  12   55.85    4.62
   4  -4  12   54.39    4.28
  -5   4 -12    1.27    2.91
  -5   4 -12   -3.48    2.70
   5  -4  12    2.29    2.27
   5  -4  12   -0.02    1.58
   5  -4  12    1.54    1.57
   2   3 -12   14.85    2.60
   2   3 -12   12.72    2.46
   2   3 -12   15.83    2.61
  -2  -3  12   13.01    2.66
  -2  -3  12   15.01    2.62
  -2  -3  12   14.51    2.27
  -2  -3  12   13.06    3.14
   1   3 -12   10.08    2.27
   1   3 -12   13.87    2.38
   1   3 -12   14.93    2.48
  -1  -3  12   12.44    2.40
  -1  -3  12   14.96    2.57
  -1  -3  12   15.81    2.19
   0   3 -12    0.83    1.64
   0   3 -12    3.53    1.74
   0   3 -12    4.64    1.80
   0  -3  12    3.02    1.56
   0  -3  12    3.72    1.39
   0  -3  12    7.55    2.53
   0  -3  12    3.00    1.75
   0  -3  12    3.31    1.98
  -1   3 -12   75.12    4.57
  -1   3 -12   69.75    4.62
  -1   3 -12   67.29    4.49
   1  -3  12   70.50    4.27
   1  -3  12   59.07    4.93
   1  -3  12   61.45    4.58
   1  -3  12   63.38    5.57
  -2   3 -12   22.23    3.02
  -2   3 -12   27.71    2.94
  -2   3 -12   19.28    2.75
   2  -3  12   21.42    2.44
   2  -3  12   18.44    2.79
   2  -3  12   26.58    3.21
   2  -3  12   23.05    3.42
   2  -3  12   28.04    2.88
  -3   3 -12   22.83    3.06
  -3   3 -12   23.96    3.18
   3  -3  12   26.88    3.59
   3  -3  12   24.01    2.61
   3  -3  12   15.50    2.56
   3  -3  12   16.93    2.96
   3  -3  12   23.36    2.92
  -4   3 -12    2.29    2.30
  -4   3 -12    1.24    2.06
   4  -3  12   -0.07    1.76
   4  -3  12    1.38    2.13
   4  -3  12    2.68    1.68
   4  -3  12    0.37    1.66
  -5   3 -12   -0.44    2.28
  -5   3 -12    2.02    2.59
   5  -3  12    0.52    2.15
   5  -3  12    0.69    1.63
   5  -3  12   -1.01    1.52
  -6   3 -12    1.09    2.69
   6  -3  12    3.45    2.23
   6  -3  12    2.29    1.68
   2   2 -12   46.22    4.13
   2   2 -12   47.31    4.18
  -2  -2  12   41.52    4.86
  -2  -2  12   46.20    4.22
  -2  -2  12   47.51    4.30
  -2  -2  12   49.17    3.83
  -2  -2  12   50.15    3.80
   1   2 -12   -0.02    1.54
   1   2 -12    2.03    1.63
   1   2 -12    2.20    1.56
  -1  -2  12    0.13    1.09
  -1  -2  12    0.82    1.59
  -1  -2  12    1.69    1.90
  -1  -2  12    0.68    1.44
  -1  -2  12    1.44    1.24
  -1  -2  12    1.10    1.93
   0   2 -12  122.05    6.74
   0   2 -12  135.89    6.85
   0   2 -12  121.71    6.77
   0  -2  12  124.56    6.15
   0  -2  12  125.96    6.95
   0  -2  12  124.32    7.54
   0  -2  12  117.56    6.20
   0  -2  12  131.53    7.08
   0  -2  12  130.01    6.89
  -1   2 -12   -1.12    1.43
  -1   2 -12   -2.56    1.29
  -1   2 -12   -0.89    1.28
   1  -2  12    2.52    2.02
   1  -2  12   -0.23    1.20
   1  -2  12   -0.74    1.48
   1  -2  12    1.18    1.41
   1  -2  12    0.82    1.18
  -2   2 -12   25.89    2.92
  -2   2 -12   26.47    2.86
  -2   2 -12   21.88    2.87
   2  -2  12   22.72    2.57
   2  -2  12   22.72    2.85
   2  -2  12   28.17    3.46
   2  -2  12   27.73    3.18
  -3   2 -12   47.57    3.98
  -3   2 -12   41.02    4.09
  -3   2 -12   50.77    4.10
   3  -2  12   42.47    4.30
   3  -2  12   55.14    3.72
   3  -2  12   43.07    4.14
   3  -2  12   49.74    3.73
   3  -2  12   45.93    4.04
  -4   2 -12    1.27    1.82
  -4   2 -12    0.51    2.05
   4  -2  12    2.31    1.58
   4  -2  12   -0.39    1.70
   4  -2  12    0.22    1.54
   4  -2  12    1.55    1.54
  -5   2 -12   45.07    5.08
   5  -2  12   47.52    4.04
   5  -2  12   47.24    3.90
   5  -2  12   32.86    4.49
   5  -2  12   38.13    4.25
  -6   2 -12    2.34    2.78
   6  -2  12    0.73    2.27
   6  -2  12    0.55    1.52
   6  -2  12    2.63    1.74
   2   1 -12    3.32    1.89
   2   1 -12    4.22    1.83
  -2  -1  12    6.66    2.65
  -2  -1  12    6.84    2.12
  -2  -1  12    7.39    1.71
  -2  -1  12    5.29    1.79
   1   1 -12   33.01    3.47
   1   1 -12   32.55    3.28
  -1  -1  12   32.11    3.41
  -1  -1  12   31.92    3.75
  -1  -1  12   28.06    2.82
  -1  -1  12   30.47    3.26
  -1  -1  12   36.97    4.26
  -1  -1  12   35.45    3.08
   0   1 -12    2.81    1.69
   0   1 -12    1.09    1.45
   0   1 -12    3.52    1.48
   0  -1  12   -1.43    1.53
   0  -1  12   -0.46    1.10
   0  -1  12   -0.92    1.11
   0  -1  12    0.44    1.46
   0  -1  12   -0.69    1.21
   0  -1  12   -0.14    1.76
  -1   1 -12   -1.00    1.43
  -1   1 -12    1.67    1.60
  -1   1 -12    0.00    1.23
   1  -1  12   -0.39    1.21
   1  -1  12    1.59    1.68
   1  -1  12    2.23    1.80
   1  -1  12   -1.24    1.21
   1  -1  12    0.82    1.13
   1  -1  12   -1.41    1.17
  -2   1 -12   49.04    3.54
  -2   1 -12   52.48    3.75
  -2   1 -12   56.84    3.99
   2  -1  12   52.94    3.49
   2  -1  12   55.34    4.51
   2  -1  12   53.76    3.76
   2  -1  12   41.53    3.88
   2  -1  12   49.14    4.45
  -3   1 -12   16.32    2.68
  -3   1 -12   20.09    2.69
   3  -1  12   22.56    2.98
   3  -1  12   17.58    2.35
   3  -1  12   15.97    2.57
   3  -1  12   18.19    2.74
   3  -1  12   19.92    2.36
  -4   1 -12   36.17    3.69
  -4   1 -12   35.00    3.79
   4  -1  12   37.94    3.60
   4  -1  12   38.47    3.60
   4  -1  12   31.59    3.22
   4  -1  12   27.04    3.50
  -5   1 -12    1.95    2.06
  -5   1 -12    4.50    2.39
   5  -1  12   -1.59    1.74
   5  -1  12   -1.03    1.56
   5  -1  12   -2.59    1.91
   5  -1  12   -0.03    1.63
  -6   1 -12   -0.35    2.56
  -6   1 -12    2.50    2.25
   6  -1  12    2.39    2.03
   6  -1  12    3.76    1.81
   6  -1  12    2.19    1.66
   6  -1  12   -0.02    2.33
  -7   1 -12    3.83    2.57
   7  -1  12    2.24    2.25
   7  -1  12   -0.31    1.65
   1   0 -12   31.45    3.33
   1   0 -12   33.21    3.49
  -1   0  12   32.60    3.09
  -1   0  12   45.09    4.22
  -1   0  12   29.48    3.17
  -1   0  12   40.28    3.56
  -1   0  12   42.29    4.53
   0   0 -12    1.23    1.43
   0   0 -12   -0.52    1.43
   0   0  12    1.80    1.38
   0   0  12    1.04    1.44
   0   0  12    2.06    2.00
   0   0  12    1.75    1.27
   0   0  12   -0.54    1.81
   0   0  12    3.50    1.31
  -1   0 -12  127.26    6.79
  -1   0 -12  118.19    6.57
   1   0  12  115.70    5.98
   1   0  12  143.09    6.37
   1   0  12  136.30    7.56
   1   0  12  119.74    6.96
   1   0  12  115.73    6.56
  -2   0 -12    5.19    1.81
  -2   0 -12    8.86    1.91
   2   0  12    5.66    2.06
   2   0  12    5.31    1.98
   2   0  12    6.52    1.65
   2   0  12    6.97    1.51
  -3   0 -12   59.08    4.21
  -3   0 -12   49.37    4.25
   3   0  12   56.85    4.01
   3   0  12   54.43    3.92
   3   0  12   54.20    4.51
   3   0  12   53.05    4.16
   3   0  12   50.47    3.46
  -4   0 -12   27.00    3.39
  -4   0 -12   31.28    3.36
   4   0  12   24.86    3.09
   4   0  12   28.11    2.85
   4   0  12   25.54    3.12
   4   0  12   26.84    2.90
  -5   0 -12    8.13    2.52
  -5   0 -12    6.58    2.38
   5   0  12    4.95    2.27
   5   0  12    5.98    1.96
   5   0  12    8.72    2.00
   5   0  12    7.50    2.08
  -6   0 -12   28.91    3.81
  -6   0 -12   21.91    3.80
   6   0  12   27.95    3.48
   6   0  12   27.18    3.13
   6   0  12   20.46    3.65
   6   0  12   32.65    3.26
  -7   0 -12    3.75    2.26
  -7   0 -12    1.17    2.42
   7   0  12    0.91    2.02
   7   0  12    0.18    2.23
   7   0  12    3.14    1.79
   7   0  12    2.02    1.74
  -8   0 -12   14.93    2.83
  -8   0 -12   19.14    3.17
   8   0  12   15.93    2.60
   1  -1 -12    9.79    2.28
  -1   1  12    7.41    1.76
  -1   1  12   11.90    2.90
  -1   1  12   11.89    2.77
   0  -1 -12   56.82    4.11
   0  -1 -12   47.39    3.92
   0   1  12   48.65    4.89
   0   1  12   49.31    3.81
   0   1  12   44.67    4.53
  -1  -1 -12    2.98    1.77
  -1  -1 -12    3.77    1.62
   1   1  12    3.99    1.27
   1   1  12    1.78    1.94
   1   1  12    5.94    2.30
   1   1  12    2.03    1.34
  -2  -1 -12    1.59    1.50
  -2  -1 -12    4.95    1.74
   2   1  12    0.92    1.26
   2   1  12    1.83    1.94
   2   1  12    2.45    1.84
   2   1  12    2.79    1.23
  -3  -1 -12   31.95    3.32
  -3  -1 -12   29.32    3.27
   3   1  12   32.66    3.54
   3   1  12   33.53    3.13
   3   1  12   33.40    2.81
   3   1  12   34.18    3.53
  -4  -1 -12   17.20    2.67
  -4  -1 -12   23.34    3.02
   4   1  12   23.86    2.78
   4   1  12   20.27    2.66
   4   1  12   12.49    2.37
   4   1  12   20.19    2.31
  -5  -1 -12   25.24    3.39
  -5  -1 -12   23.59    3.50
   5   1  12   27.59    3.20
   5   1  12   22.43    2.95
   5   1  12   24.19    2.88
   5   1  12   23.18    2.80
  -6  -1 -12   -1.03    2.01
  -6  -1 -12    4.29    2.67
   6   1  12    0.00    1.72
   6   1  12    0.44    1.69
   6   1  12    0.47    1.65
   6   1  12    2.93    2.08
  -7  -1 -12    8.64    2.84
  -7  -1 -12   12.61    2.93
   7   1  12    6.80    2.05
   7   1  12    7.61    2.08
   7   1  12    7.59    2.74
   7   1  12   11.04    2.66
  -8  -1 -12    6.63    2.09
  -8  -1 -12    5.58    2.43
  -8  -1 -12    6.70    2.50
   8   1  12    3.68    1.93
   0  -2 -12   16.51    2.18
   0  -2 -12   15.11    2.58
   0   2  12   13.99    2.95
   0   2  12   14.86    2.20
   0   2  12   17.71    3.24
  -1  -2 -12   -1.13    1.35
   1   2  12   -1.61    1.77
   1   2  12   -0.02    2.09
   1   2  12   -0.21    1.19
  -2  -2 -12  117.01    6.68
  -2  -2 -12  122.45    6.13
  -2  -2 -12  132.09    6.64
   2   2  12  121.84    7.27
   2   2  12  120.33    7.22
  -3  -2 -12    4.09    1.82
  -3  -2 -12    3.00    1.70
   3   2  12    4.08    1.80
   3   2  12    4.66    2.00
  -4  -2 -12   44.46    4.12
  -4  -2 -12   52.32    4.32
   4   2  12   55.18    4.56
   4   2  12   49.25    3.89
  -5  -2 -12    5.99    2.19
  -5  -2 -12    5.81    2.34
   5   2  12    6.09    1.56
   5   2  12    4.03    2.00
   5   2  12    6.57    2.04
  -6  -2 -12    7.94    2.69
  -6  -2 -12   12.38    3.13
   6   2  12   12.42    2.53
   6   2  12   10.78    2.26
   6   2  12   10.67    2.15
   6   2  12    9.17    2.29
  -7  -2 -12    8.39    2.64
  -7  -2 -12    3.10    2.48
   7   2  12    6.00    2.04
   7   2  12    1.75    2.17
   7   2  12    7.29    2.12
   7   2  12    3.78    1.99
  -8  -2 -12    8.45    2.51
  -8  -2 -12   11.52    2.88
  -8  -2 -12    7.65    2.16
   8   2  12   11.49    2.42
   8   2  12   10.86    2.95
   8   2  12    9.24    2.52
   0   3  12    3.30    2.45
  -1  -3 -12   51.21    3.83
  -1  -3 -12   54.36    4.55
   1   3  12   58.96    5.48
   1   3  12   50.82    3.97
   1   3  12   55.86    5.20
  -2  -3 -12    5.10    1.66
  -2  -3 -12    4.01    1.45
  -2  -3 -12    8.19    2.07
   2   3  12    8.51    2.74
   2   3  12    7.42    2.29
  -3  -3 -12    6.61    1.85
  -3  -3 -12    7.65    1.61
  -3  -3 -12   12.77    2.47
   3   3  12   10.36    2.32
   3   3  12   10.89    2.64
  -4  -3 -12    7.75    1.97
  -4  -3 -12    9.97    2.21
  -4  -3 -12   11.45    1.78
   4   3  12    9.39    2.38
  -5  -3 -12    8.70    2.01
  -5  -3 -12    8.99    2.38
   5   3  12    5.94    2.22
   5   3  12   12.17    2.36
  -6  -3 -12    4.31    2.41
  -6  -3 -12    1.94    2.40
  -6  -3 -12    2.51    1.52
   6   3  12    6.73    2.00
   6   3  12    6.97    2.07
  -7  -3 -12   -0.67    2.21
  -7  -3 -12    0.29    1.43
  -7  -3 -12    2.48    2.11
   7   3  12    2.19    1.77
   7   3  12    3.29    2.00
  -8  -3 -12    2.00    1.71
  -8  -3 -12    5.14    1.90
  -8  -3 -12    5.28    2.18
  -8  -3 -12    4.05    2.36
   8   3  12    5.98    2.03
   8   3  12    5.11    2.05
  -1  -4 -12    9.61    2.28
  -1  -4 -12    3.34    1.65
   1   4  12    1.96    2.50
   1   4  12    8.31    2.65
   1   4  12    3.84    1.68
  -2  -4 -12    1.52    1.47
  -2  -4 -12    0.47    1.34
  -2  -4 -12    2.63    1.77
   2   4  12    0.83    2.50
   2   4  12    3.71    2.13
  -3  -4 -12   69.35    4.32
  -3  -4 -12   81.59    4.53
  -3  -4 -12   78.33    5.25
   3   4  12   84.77    5.88
   3   4  12   70.91    5.33
  -4  -4 -12    1.78    1.48
  -4  -4 -12    2.18    1.36
  -4  -4 -12    1.17    1.69
   4   4  12    4.63    2.17
  -5  -4 -12   43.85    4.43
  -5  -4 -12   40.79    3.58
  -5  -4 -12   45.95    3.50
   5   4  12   43.74    4.22
   5   4  12   41.77    3.84
  -6  -4 -12    3.00    2.11
  -6  -4 -12    3.97    1.72
  -6  -4 -12    1.21    1.39
   6   4  12    0.75    1.71
   6   4  12    1.82    1.91
  -7  -4 -12    9.57    2.97
  -7  -4 -12   14.11    2.35
  -7  -4 -12   13.68    2.22
   7   4  12   15.35    2.64
   7   4  12   15.55    2.82
  -8  -4 -12   -2.00    1.30
  -8  -4 -12    5.57    2.30
   8   4  12   -0.25    1.86
   8   4  12   -1.02    1.68
  -3  -5 -12   16.24    2.29
  -3  -5 -12   13.48    2.16
  -3  -5 -12    8.82    2.41
   3   5  12   10.36    2.59
   3   5  12   13.46    3.25
  -4  -5 -12   10.98    2.63
  -4  -5 -12   10.82    2.11
  -4  -5 -12   12.87    2.09
   4   5  12   12.13    2.89
  -5  -5 -12   -1.40    1.66
  -5  -5 -12    0.79    1.38
  -5  -5 -12    2.50    1.51
   5   5  12    0.27    1.83
   5   5  12    0.78    1.97
  -6  -5 -12    0.07    1.40
  -6  -5 -12    6.38    2.66
  -6  -5 -12   -0.36    1.32
   6   5  12    2.70    1.96
   6   5  12   -0.21    1.77
  -7  -5 -12    2.98    2.56
  -7  -5 -12    3.01    1.58
  -7  -5 -12    2.46    1.53
   7   5  12    2.95    1.88
   7   5  12    2.48    2.15
  -8  -5 -12   -0.06    1.39
  -8  -5 -12    0.60    2.16
  -8  -5 -12   -0.21    1.54
   8   5  12    1.02    1.99
   8   5  12    3.20    1.97
  -4  -6 -12   38.99    4.30
  -4  -6 -12   37.98    3.36
  -4  -6 -12   31.23    3.22
   4   6  12   32.94    4.17
  -5  -6 -12    1.38    2.01
  -5  -6 -12   -0.04    1.47
  -5  -6 -12    0.75    1.49
   5   6  12    4.35    2.27
  -6  -6 -12   25.44    4.04
  -6  -6 -12   35.94    3.34
  -6  -6 -12   33.09    3.27
   6   6  12   28.76    3.33
   6   6  12   37.37    4.11
  -7  -6 -12   -0.53    1.51
  -7  -6 -12   -0.46    1.41
  -7  -6 -12    1.12    2.54
   7   6  12    0.51    1.87
   7   6  12    1.05    2.07
   0   4 -13    5.08    2.06
   0   4 -13    6.71    2.20
   0  -4  13    7.62    2.43
   0  -4  13    5.36    1.74
   0  -4  13    8.92    2.89
  -1   4 -13    5.30    2.12
  -1   4 -13    4.73    2.09
   1  -4  13    3.69    2.51
   1  -4  13    9.70    2.40
   1  -4  13    5.18    1.76
  -2   4 -13   22.65    3.28
  -2   4 -13   23.03    3.29
   2  -4  13   27.93    3.21
   2  -4  13   21.40    3.05
   2  -4  13   24.28    3.94
  -3   4 -13    5.52    2.53
  -3   4 -13    4.94    2.40
   3  -4  13    7.56    2.29
   3  -4  13    5.87    1.90
   3  -4  13    6.74    2.21
   0   3 -13   -0.34    1.72
   0   3 -13   -0.04    1.61
   0   3 -13    2.77    1.80
   0  -3  13    3.71    2.36
   0  -3  13   -0.02    1.67
   0  -3  13    0.91    1.39
   0  -3  13    0.75    1.85
  -1   3 -13   22.73    3.13
  -1   3 -13   24.98    3.10
  -1   3 -13   26.15    3.02
   1  -3  13   24.78    3.35
   1  -3  13   23.54    2.77
   1  -3  13   26.22    3.79
  -2   3 -13    9.04    2.27
  -2   3 -13    9.80    2.21
  -2   3 -13    8.57    2.30
   2  -3  13    8.35    2.32
   2  -3  13   10.57    2.18
   2  -3  13    7.32    2.64
  -3   3 -13    5.31    2.16
  -3   3 -13    6.35    2.38
   3  -3  13    4.58    2.07
   3  -3  13    8.80    1.93
   3  -3  13    5.34    2.10
  -4   3 -13   61.96    5.71
   4  -3  13   70.68    4.38
   4  -3  13   59.61    5.25
   4  -3  13   65.15    5.20
   0   2 -13   -2.52    1.32
   0   2 -13   -0.80    1.54
   0   2 -13   -3.19    1.49
   0  -2  13    2.37    2.03
   0  -2  13    0.24    2.07
   0  -2  13   -0.59    1.47
   0  -2  13   -0.20    1.14
  -1   2 -13    7.49    2.00
  -1   2 -13    4.08    1.92
  -1   2 -13    8.18    2.00
   1  -2  13    4.60    1.57
   1  -2  13    4.39    1.85
   1  -2  13    9.24    2.40
   1  -2  13    6.23    1.91
   1  -2  13    4.61    2.37
  -2   2 -13    2.24    1.66
  -2   2 -13    6.24    1.95
  -2   2 -13    5.73    2.07
   2  -2  13    1.22    1.93
   2  -2  13    1.15    1.67
   2  -2  13    3.18    1.58
   2  -2  13    1.56    2.10
  -3   2 -13   38.60    4.00
  -3   2 -13   37.45    3.87
   3  -2  13   46.07    4.49
   3  -2  13   46.51    3.92
   3  -2  13   42.51    3.52
   3  -2  13   37.46    3.86
   3  -2  13   38.03    4.11
  -4   2 -13   16.23    3.17
  -4   2 -13   13.04    2.82
   4  -2  13   17.23    2.81
   4  -2  13   13.77    2.31
   4  -2  13   14.90    2.71
  -5   2 -13   28.23    4.25
   5  -2  13   27.51    3.31
   5  -2  13   32.47    3.91
   5  -2  13   30.27    3.19
   0   1 -13   18.97    2.61
   0   1 -13   19.58    2.85
   0   1 -13   22.53    3.02
   0  -1  13   23.97    2.60
   0  -1  13   20.16    2.53
   0  -1  13   17.79    3.19
   0  -1  13   22.20    2.82
   0  -1  13   26.75    3.59
  -1   1 -13   -1.03    1.53
  -1   1 -13   -0.54    1.59
   1  -1  13    4.60    2.25
   1  -1  13    0.43    1.92
   1  -1  13   -1.06    1.20
   1  -1  13   -1.50    1.34
   1  -1  13    1.01    1.15
  -2   1 -13   62.69    4.41
  -2   1 -13   50.87    4.42
   2  -1  13   56.27    4.23
   2  -1  13   56.13    5.09
   2  -1  13   51.69    4.65
   2  -1  13   60.22    3.87
  -3   1 -13    3.58    1.87
  -3   1 -13    0.43    1.87
   3  -1  13    3.17    1.89
   3  -1  13    2.73    1.53
   3  -1  13   -0.18    1.66
   3  -1  13   -0.14    1.54
  -4   1 -13   35.80    3.76
  -4   1 -13   27.04    3.66
   4  -1  13   27.64    3.43
   4  -1  13   30.84    3.21
   4  -1  13   32.56    3.84
   4  -1  13   30.86    3.37
  -5   1 -13   50.84    4.92
  -5   1 -13   38.41    4.74
   5  -1  13   45.74    4.15
   5  -1  13   52.95    4.15
   5  -1  13   32.51    4.40
   5  -1  13   41.35    4.34
  -6   1 -13    3.31    2.53
  -6   1 -13    0.74    2.57
   6  -1  13   -0.28    2.21
   6  -1  13    2.56    1.76
   6  -1  13    0.73    1.78
   0   0 -13    4.36    1.92
   0   0 -13    3.88    1.90
   0   0  13    0.59    1.45
   0   0  13    2.12    2.17
   0   0  13    0.57    1.42
   0   0  13    4.27    2.24
   0   0  13    3.47    1.49
  -1   0 -13    4.67    1.92
  -1   0 -13    2.07    1.70
   1   0  13    4.09    1.51
   1   0  13    4.22    1.69
   1   0  13    2.57    1.55
   1   0  13    4.11    2.08
   1   0  13    5.90    2.26
  -2   0 -13    0.47    1.66
  -2   0 -13    2.83    1.68
   2   0  13   -0.98    1.78
   2   0  13    1.44    1.87
   2   0  13    2.85    1.53
   2   0  13    1.08    1.26
  -3   0 -13   -0.78    1.67
  -3   0 -13    1.03    1.69
   3   0  13   -0.51    1.40
   3   0  13   -1.08    1.16
   3   0  13   -0.73    1.64
   3   0  13   -0.02    1.67
  -4   0 -13   48.02    4.49
  -4   0 -13   50.73    4.45
   4   0  13   44.01    3.84
   4   0  13   41.41    4.14
   4   0  13   46.17    3.79
   4   0  13   38.05    4.00
  -5   0 -13   23.74    3.46
  -5   0 -13   23.93    3.68
   5   0  13   13.11    2.89
   5   0  13   23.30    3.06
   5   0  13   20.44    2.94
   5   0  13   20.18    2.79
  -6   0 -13   48.96    5.20
  -6   0 -13   50.85    5.57
   6   0  13   48.00    4.21
   6   0  13   53.17    5.31
   6   0  13   46.94    4.03
   6   0  13   43.94    4.42
  -7   0 -13    1.51    2.30
  -7   0 -13    1.16    2.67
   7   0  13    1.61    2.18
   7   0  13    2.81    1.96
   7   0  13    0.94    1.73
  -1  -1 -13   20.68    2.76
  -1  -1 -13   20.34    2.89
   1   1  13   20.62    2.65
   1   1  13   20.01    3.36
   1   1  13   17.44    3.16
  -2  -1 -13   -0.12    1.62
  -2  -1 -13    0.08    1.60
   2   1  13    1.27    1.89
   2   1  13   -0.15    1.85
  -3  -1 -13   77.49    5.17
  -3  -1 -13   80.36    5.26
   3   1  13   81.25    5.39
   3   1  13   76.68    4.46
   3   1  13   81.63    5.47
  -4  -1 -13    1.14    1.92
  -4  -1 -13    1.42    1.68
   4   1  13   -0.42    1.22
   4   1  13    0.30    1.51
   4   1  13    0.74    1.67
  -5  -1 -13   48.88    4.77
  -5  -1 -13   42.65    4.71
   5   1  13   49.96    4.44
   5   1  13   53.97    4.56
   5   1  13   54.12    4.26
   5   1  13   47.99    3.95
  -6  -1 -13   33.11    4.61
  -6  -1 -13   34.11    4.41
   6   1  13   31.92    3.94
   6   1  13   27.31    3.39
   6   1  13   34.47    3.68
   6   1  13   34.35    3.49
  -7  -1 -13    2.22    2.67
  -7  -1 -13    0.66    2.40
   7   1  13    0.65    1.86
   7   1  13    3.58    1.86
   7   1  13    1.71    2.35
   7   1  13   -0.15    1.94
  -1  -2 -13    2.25    1.73
   1   2  13   -0.25    1.95
   1   2  13   -3.63    1.14
   1   2  13    1.33    2.28
  -2  -2 -13   17.88    2.74
  -2  -2 -13   15.72    2.41
   2   2  13   11.37    2.67
   2   2  13   10.27    2.60
  -3  -2 -13   -0.94    1.50
  -3  -2 -13   -0.71    1.62
   3   2  13   -1.54    1.73
   3   2  13   -1.00    1.84
  -4  -2 -13    0.87    1.83
  -4  -2 -13   -1.88    1.63
   4   2  13    0.63    1.84
  -5  -2 -13   48.19    4.54
  -5  -2 -13   41.78    4.53
   5   2  13   38.85    3.97
   5   2  13   49.58    4.10
  -6  -2 -13   21.44    3.59
  -6  -2 -13   16.30    3.57
   6   2  13   16.80    2.82
   6   2  13   17.25    2.76
  -7  -2 -13   55.15    5.60
  -7  -2 -13   59.18    5.81
   7   2  13   64.32    4.99
   7   2  13   66.03    4.89
  -2  -3 -13   23.51    3.16
  -2  -3 -13   19.23    2.53
   2   3  13   19.68    3.24
   2   3  13   17.67    3.37
  -3  -3 -13    4.86    2.08
  -3  -3 -13    3.76    1.74
   3   3  13    4.27    2.07
   3   3  13    4.79    2.39
  -4  -3 -13   84.23    5.76
  -4  -3 -13   85.26    5.14
   4   3  13   90.24    5.93
  -5  -3 -13    1.29    2.01
  -5  -3 -13    0.37    1.57
   5   3  13    1.52    1.94
   5   3  13    4.47    2.02
  -6  -3 -13   60.99    5.70
  -6  -3 -13   65.05    4.37
   6   3  13   70.68    4.66
   6   3  13   68.55    5.37
  -7  -3 -13   16.94    2.60
  -7  -3 -13   22.34    3.72
   7   3  13   23.83    3.22
   7   3  13   15.14    2.66
  -3  -4 -13   25.12    2.84
  -3  -4 -13   23.40    3.38
  -3  -4 -13   29.46    2.87
   3   4  13   28.04    3.61
   3   4  13   21.41    3.62
  -4  -4 -13    0.51    1.88
  -4  -4 -13    1.47    1.47
  -4  -4 -13    1.03    1.64
   4   4  13    3.20    2.41
  -5  -4 -13    3.14    1.65
  -5  -4 -13    6.49    2.34
   5   4  13   11.76    2.70
  -6  -4 -13   25.72    4.00
  -6  -4 -13   34.04    3.33
   6   4  13   28.13    3.66
   6   4  13   24.13    3.21
  -7  -4 -13    7.99    2.05
  -7  -4 -13    9.79    3.06
   7   4  13    5.58    2.28
   7   4  13    9.99    2.57
  -5  -5 -13   64.38    5.76
  -5  -5 -13   70.06    4.47
  -5  -5 -13   69.39    4.34
   5   5  13   58.74    5.34
  -6  -5 -13    3.06    2.52
  -6  -5 -13    2.03    1.53
  -6  -5 -13    5.93    1.83
   6   5  13    2.22    2.21
   6   5  13    0.62    1.94
  -2   2 -14    3.48    1.91
   2  -2  14   -0.01    2.04
   2  -2  14    4.61    2.26
  -3   2 -14    8.60    2.63
  -3   2 -14   14.51    2.79
   3  -2  14   12.51    2.51
   3  -2  14   10.89    2.58
  -2   1 -14   48.14    4.35
  -2   1 -14   47.53    4.39
   2  -1  14   50.62    4.81
   2  -1  14   48.57    3.95
   2  -1  14   50.11    5.02
  -3   1 -14   -0.06    2.00
  -3   1 -14   -0.46    1.70
   3  -1  14   -0.54    1.43
   3  -1  14    2.44    2.04
  -4   1 -14   20.64    3.43
  -4   1 -14   26.30    3.45
   4  -1  14   21.29    2.94
   4  -1  14   16.15    2.83
  -2   0 -14   -2.28    1.70
  -2   0 -14    0.68    1.76
   2   0  14    0.31    1.56
   2   0  14    1.21    2.00
   2   0  14    0.26    1.32
   2   0  14   -2.80    1.63
  -3   0 -14   -0.28    1.93
  -3   0 -14    2.51    1.83
   3   0  14   -0.08    1.92
   3   0  14   -0.13    1.67
   3   0  14    0.93    1.43
  -4   0 -14    1.13    1.93
  -4   0 -14    0.56    2.16
   4   0  14    3.34    1.97
   4   0  14    4.26    1.74
   4   0  14    2.43    2.00
  -5   0 -14    0.59    2.18
  -5   0 -14    0.53    2.43
   5   0  14   -0.57    1.76
   5   0  14   -1.83    1.59
   5   0  14    0.53    1.73
  -3  -1 -14   34.32    3.81
  -3  -1 -14   37.38    3.93
   3   1  14   44.43    4.50
  -4  -1 -14   -0.76    1.63
  -4  -1 -14   -2.74    1.92
   4   1  14    2.01    1.82
  -5  -1 -14   21.22    3.69
  -5  -1 -14   28.47    3.71
   5   1  14   21.34    3.16
   5   1  14   20.83    2.98
  -6  -1 -14    2.17    2.77
  -6  -1 -14    3.43    2.56
   6   1  14    3.32    2.06
   6   1  14    3.54    2.04
   3   2  14    1.49    1.96
  -4  -2 -14    2.25    2.05
  -4  -2 -14    1.38    1.73
   4   2  14   -2.62    1.61
  -5  -2 -14    3.06    2.50
  -5  -2 -14    3.02    2.05
   5   2  14    0.86    1.91
  -6  -2 -14    0.90    2.35
  -6  -2 -14    1.65    2.72
   6   2  14    2.74    2.07
   6   2  14    1.36    1.93
   0   0   0    0.00    0.00
;
_shelx_hkl_checksum              26870
loop_
_space_group_symop_operation_xyz
'x, y, z'
'-x, -y, -z'
loop_
_atom_site_label
_atom_site_type_symbol
_atom_site_fract_x
_atom_site_fract_y
_atom_site_fract_z
_atom_site_U_iso_or_equiv
_atom_site_adp_type
_atom_site_occupancy
_atom_site_site_symmetry_order
_atom_site_calc_flag
_atom_site_refinement_flags_posn
_atom_site_refinement_flags_occupancy
Re1 Re 0.56454(4) 0.68218(4) 1.28579(3) 0.01173(7) Uani 1 1 d . .
Re2 Re -0.01282(4) 0.99728(4) 1.24244(3) 0.01376(8) Uani 1 1 d . .
Xe1 Xe 1.0000 0.5000 0.5000 0.01827(14) Uani 1 2 d S P
Xe2 Xe 0.65366(8) 0.66971(7) 0.86172(5) 0.01729(10) Uani 1 1 d . .
F1 F 0.5730(7) 0.5901(6) 1.0992(5) 0.0174(9) Uani 1 1 d . .
F2 F 0.2542(7) 0.8410(7) 1.3071(5) 0.0202(9) Uani 1 1 d . .
F3 F 0.4682(7) 0.5121(6) 1.3535(5) 0.0187(9) Uani 1 1 d . .
F4 F 0.5942(8) 0.8678(7) 1.1836(5) 0.0219(10) Uani 1 1 d . .
F5 F 0.1868(8) 1.0498(8) 1.1083(5) 0.0277(11) Uani 1 1 d . .
F6 F 0.1381(9) 0.7667(7) 1.1138(6) 0.0304(12) Uani 1 1 d . .
O3 O 0.8242(9) 0.5275(9) 1.2379(7) 0.0239(12) Uani 1 1 d . .
O5 O -0.2110(9) 1.1103(8) 1.1866(7) 0.0236(12) Uani 1 1 d . .
O4 O -0.0786(9) 1.1755(8) 1.3750(6) 0.0197(11) Uani 1 1 d . .
O1 O 0.7377(10) 0.7307(8) 0.6636(6) 0.0230(12) Uani 1 1 d . .
O2 O 0.5026(9) 0.7911(9) 1.4480(6) 0.0209(11) Uani 1 1 d . .
F7 F -0.1216(8) 0.8745(8) 1.3708(6) 0.0320(12) Uani 1 1 d . .
loop_
_atom_site_aniso_label
_atom_site_aniso_U_11
_atom_site_aniso_U_22
_atom_site_aniso_U_33
_atom_site_aniso_U_23
_atom_site_aniso_U_13
_atom_site_aniso_U_12
Re1 0.00972(13) 0.01366(13) 0.01137(13) 0.00236(9) -0.00453(10) -0.00511(10)
Re2 0.01159(13) 0.01393(14) 0.01505(14) 0.00155(10) -0.00629(10) -0.00486(11)
Xe1 0.0251(3) 0.0185(3) 0.0170(3) 0.0065(2) -0.0105(3) -0.0136(3)
Xe2 0.0170(2) 0.0198(2) 0.0170(2) 0.00309(17) -0.00726(17) -0.01003(19)
F1 0.021(2) 0.019(2) 0.011(2) 0.0011(16) -0.0058(17) -0.0097(19)
F2 0.012(2) 0.023(2) 0.021(2) 0.0037(19) -0.0068(18) -0.0042(18)
F3 0.023(2) 0.019(2) 0.017(2) 0.0059(17) -0.0072(18) -0.013(2)
F4 0.025(2) 0.022(2) 0.024(2) 0.0085(19) -0.009(2) -0.016(2)
F5 0.027(3) 0.038(3) 0.020(2) 0.007(2) -0.004(2) -0.021(2)
F6 0.033(3) 0.017(2) 0.036(3) -0.005(2) -0.019(2) -0.003(2)
O3 0.017(3) 0.025(3) 0.026(3) 0.008(2) -0.010(2) -0.006(2)
O5 0.020(3) 0.020(3) 0.033(3) 0.002(2) -0.015(3) -0.009(2)
O4 0.021(3) 0.016(3) 0.021(3) 0.000(2) -0.011(2) -0.006(2)
O1 0.034(3) 0.021(3) 0.016(3) 0.009(2) -0.009(2) -0.016(3)
O2 0.021(3) 0.029(3) 0.018(3) 0.002(2) -0.009(2) -0.016(3)
F7 0.022(3) 0.033(3) 0.042(3) 0.019(3) -0.011(2) -0.017(2)
loop_
_atom_type_symbol
_atom_type_description
_atom_type_scat_dispersion_real
_atom_type_scat_dispersion_imag
_atom_type_scat_source
O O 0.0106 0.0060 'International Tables Vol C Tables 4.2.6.8 and 6.1.1.4'
F F 0.0171 0.0103 'International Tables Vol C Tables 4.2.6.8 and 6.1.1.4'
Xe Xe -0.4205 1.9578 'International Tables Vol C Tables 4.2.6.8 and 6.1.1.4'
Re Re -1.0185 7.2310 'International Tables Vol C Tables 4.2.6.8 and 6.1.1.4'
loop_
_geom_angle_atom_site_label_1
_geom_angle_atom_site_label_2
_geom_angle_atom_site_label_3
_geom_angle
_geom_angle_site_symmetry_1
_geom_angle_site_symmetry_3
O2 Re1 O3 101.6(3) . .
O2 Re1 F4 96.4(3) . .
O3 Re1 F4 97.5(3) . .
O2 Re1 F3 96.4(2) . .
O3 Re1 F3 96.3(3) . .
F4 Re1 F3 158.8(2) . .
O2 Re1 F1 167.7(2) . .
O3 Re1 F1 90.7(3) . .
F4 Re1 F1 81.5(2) . .
F3 Re1 F1 82.36(19) . .
O2 Re1 F2 90.2(2) . .
O3 Re1 F2 168.1(3) . .
F4 Re1 F2 82.7(2) . .
F3 Re1 F2 80.5(2) . .
F1 Re1 F2 77.54(19) . .
O5 Re2 O4 100.2(3) . .
O5 Re2 F7 99.2(3) . .
O4 Re2 F7 94.3(3) . .
O5 Re2 F5 98.7(3) . .
O4 Re2 F5 91.6(3) . .
F7 Re2 F5 159.8(2) . .
O5 Re2 F6 98.4(3) . .
O4 Re2 F6 161.2(2) . .
F7 Re2 F6 85.1(3) . .
F5 Re2 F6 83.2(2) . .
O5 Re2 F2 177.6(2) . .
O4 Re2 F2 82.0(2) . .
F7 Re2 F2 81.4(2) . .
F5 Re2 F2 80.3(2) . .
F6 Re2 F2 79.3(2) . .
O1 Xe1 O1 180.0 . 2_766
O1 Xe1 F7 109.24(18) . 2_667
O1 Xe1 F7 70.76(18) 2_766 2_667
O1 Xe1 F7 70.76(18) . 1_654
O1 Xe1 F7 109.24(18) 2_766 1_654
F7 Xe1 F7 180.0 2_667 1_654
O1 Xe1 O3 76.9(2) . 2_767
O1 Xe1 O3 103.1(2) 2_766 2_767
F7 Xe1 O3 63.67(16) 2_667 2_767
F7 Xe1 O3 116.33(16) 1_654 2_767
O1 Xe1 O3 103.1(2) . 1_554
O1 Xe1 O3 76.9(2) 2_766 1_554
F7 Xe1 O3 116.33(16) 2_667 1_554
F7 Xe1 O3 63.67(16) 1_654 1_554
O3 Xe1 O3 180.0 2_767 1_554
O1 Xe1 O4 61.08(19) . 2_677
O1 Xe1 O4 118.92(19) 2_766 2_677
F7 Xe1 O4 117.47(15) 2_667 2_677
F7 Xe1 O4 62.53(15) 1_654 2_677
O3 Xe1 O4 53.86(15) 2_767 2_677
O3 Xe1 O4 126.14(15) 1_554 2_677
O1 Xe1 O4 118.92(19) . 1_644
O1 Xe1 O4 61.08(19) 2_766 1_644
F7 Xe1 O4 62.53(15) 2_667 1_644
F7 Xe1 O4 117.47(15) 1_654 1_644
O3 Xe1 O4 126.14(15) 2_767 1_644
O3 Xe1 O4 53.86(15) 1_554 1_644
O4 Xe1 O4 180.00(10) 2_677 1_644
O1 Xe1 F3 62.56(18) . 2_667
O1 Xe1 F3 117.44(18) 2_766 2_667
F7 Xe1 F3 75.94(12) 2_667 2_667
F7 Xe1 F3 104.06(12) 1_654 2_667
O3 Xe1 F3 107.24(13) 2_767 2_667
O3 Xe1 F3 72.76(13) 1_554 2_667
O4 Xe1 F3 123.27(13) 2_677 2_667
O4 Xe1 F3 56.73(13) 1_644 2_667
O1 Xe1 F3 117.44(18) . 1_654
O1 Xe1 F3 62.56(18) 2_766 1_654
F7 Xe1 F3 104.06(12) 2_667 1_654
F7 Xe1 F3 75.94(12) 1_654 1_654
O3 Xe1 F3 72.76(13) 2_767 1_654
O3 Xe1 F3 107.24(13) 1_554 1_654
O4 Xe1 F3 56.73(13) 2_677 1_654
O4 Xe1 F3 123.27(13) 1_644 1_654
F3 Xe1 F3 180.0 2_667 1_654
O1 Xe1 Xe2 149.11(15) . 2_766
O1 Xe1 Xe2 30.89(15) 2_766 2_766
F7 Xe1 Xe2 101.40(11) 2_667 2_766
F7 Xe1 Xe2 78.60(11) 1_654 2_766
O3 Xe1 Xe2 121.91(10) 2_767 2_766
O3 Xe1 Xe2 58.09(10) 1_554 2_766
O4 Xe1 Xe2 107.96(10) 2_677 2_766
O4 Xe1 Xe2 72.04(10) 1_644 2_766
F3 Xe1 Xe2 123.67(8) 2_667 2_766
F3 Xe1 Xe2 56.33(8) 1_654 2_766
O1 Xe1 Xe2 30.89(15) . .
O1 Xe1 Xe2 149.11(15) 2_766 .
F7 Xe1 Xe2 78.60(11) 2_667 .
F7 Xe1 Xe2 101.40(11) 1_654 .
O3 Xe1 Xe2 58.09(10) 2_767 .
O3 Xe1 Xe2 121.91(10) 1_554 .
O4 Xe1 Xe2 72.04(10) 2_677 .
O4 Xe1 Xe2 107.96(10) 1_644 .
F3 Xe1 Xe2 56.33(8) 2_667 .
F3 Xe1 Xe2 123.67(8) 1_654 .
Xe2 Xe1 Xe2 180.0 2_766 .
O1 Xe2 F1 176.7(2) . .
O1 Xe2 F5 77.3(2) . 2_677
F1 Xe2 F5 100.92(14) . 2_677
O1 Xe2 F6 116.1(2) . 2_667
F1 Xe2 F6 62.78(15) . 2_667
F5 Xe2 F6 127.77(15) 2_677 2_667
O1 Xe2 O5 75.8(2) . 2_577
F1 Xe2 O5 107.47(16) . 2_577
F5 Xe2 O5 110.36(15) 2_677 2_577
F6 Xe2 O5 121.82(15) 2_667 2_577
O1 Xe2 F1 113.17(19) . 2_667
F1 Xe2 F1 68.92(15) . 2_667
F5 Xe2 F1 168.17(12) 2_677 2_667
F6 Xe2 F1 53.97(13) 2_667 2_667
O5 Xe2 F1 68.73(13) 2_577 2_667
O1 Xe2 F3 67.11(19) . 2_667
F1 Xe2 F3 114.94(13) . 2_667
F5 Xe2 F3 143.89(12) 2_677 2_667
F6 Xe2 F3 75.97(13) 2_667 2_667
O5 Xe2 F3 56.04(14) 2_577 2_667
F1 Xe2 F3 46.05(11) 2_667 2_667
O1 Xe2 O3 79.0(2) . 2_767
F1 Xe2 O3 97.74(15) . 2_767
F5 Xe2 O3 65.30(15) 2_677 2_767
F6 Xe2 O3 68.40(15) 2_667 2_767
O5 Xe2 O3 154.72(16) 2_577 2_767
F1 Xe2 O3 120.81(14) 2_667 2_767
F3 Xe2 O3 111.52(14) 2_667 2_767
O1 Xe2 F4 61.58(19) . 2_677
F1 Xe2 F4 119.87(14) . 2_677
F5 Xe2 F4 57.37(13) 2_677 2_677
F6 Xe2 F4 174.47(13) 2_667 2_677
O5 Xe2 F4 53.22(13) 2_577 2_677
F1 Xe2 F4 121.56(12) 2_667 2_677
F3 Xe2 F4 98.55(12) 2_667 2_677
O3 Xe2 F4 114.98(13) 2_767 2_677
O1 Xe2 Xe1 33.47(18) . .
F1 Xe2 Xe1 144.65(11) . .
F5 Xe2 Xe1 92.34(9) 2_677 .
F6 Xe2 Xe1 83.15(10) 2_667 .
O5 Xe2 Xe1 98.07(11) 2_577 .
F1 Xe2 Xe1 99.47(8) 2_667 .
F3 Xe2 Xe1 60.90(8) 2_667 .
O3 Xe2 Xe1 58.46(11) 2_767 .
F4 Xe2 Xe1 94.91(8) 2_677 .
Re1 F1 Xe2 134.8(2) . .
Re1 F2 Re2 158.3(2) . .
Re2 O4 O1 114.8(3) . 2_677
Xe2 O1 Xe1 115.6(3) . .
Re1 O2 F7 130.0(3) . 2_578
loop_
_geom_bond_atom_site_label_1
_geom_bond_atom_site_label_2
_geom_bond_distance
_geom_bond_site_symmetry_2
Re1 O2 1.673(6) .
Re1 O3 1.676(6) .
Re1 F4 1.852(5) .
Re1 F3 1.859(4) .
Re1 F1 2.007(4) .
Re1 F2 2.048(4) .
Re2 O5 1.661(6) .
Re2 O4 1.750(5) .
Re2 F7 1.815(5) .
Re2 F5 1.863(5) .
Re2 F6 1.883(5) .
Re2 F2 2.174(5) .
Xe1 O1 2.135(6) .
Xe1 O1 2.135(6) 2_766
Xe1 F7 3.119(5) 2_667
Xe1 F7 3.119(5) 1_654
Xe1 O3 3.324(6) 2_767
Xe1 O3 3.324(6) 1_554
Xe1 O4 3.330(6) 2_677
Xe1 O4 3.330(6) 1_644
Xe1 F3 3.429(5) 2_667
Xe1 F3 3.429(5) 1_654
Xe1 Xe2 3.4893(5) 2_766
Xe1 Xe2 3.4893(5) .
Xe2 O1 1.987(6) .
Xe2 F1 2.392(4) .
Xe2 F5 3.114(5) 2_677
Xe2 F6 3.168(5) 2_667
Xe2 O5 3.239(6) 2_577
Xe2 F1 3.248(4) 2_667
Xe2 F3 3.266(5) 2_667
Xe2 O3 3.311(6) 2_767
Xe2 F4 3.419(5) 2_677
O4 O1 2.962(8) 2_677
O2 F7 2.882(8) 2_578
