#------------------------------------------------------------------------------
#$Date: 2015-08-20 02:18:11 +0300 (Thu, 20 Aug 2015) $
#$Revision: 153526 $
#$URL: svn://www.crystallography.net/cod/cif/4/12/42/4124281.cif $
#------------------------------------------------------------------------------
#
# This file is available in the Crystallography Open Database (COD),
# http://www.crystallography.net/
#
# All data on this site have been placed in the public domain by the
# contributors.
#
data_4124281
loop_
_publ_author_name
'Zhu, Dianhu'
'Gu, Yang'
'Lu, Long'
'Shen, Qilong'
_publ_section_title
;
 N-Difluoromethylthiophthalimide: A Shelf-Stable, Electrophilic Reagent
 for Difluoromethylthiolation.
;
_journal_name_full               'Journal of the American Chemical Society'
_journal_page_first              150818092125007
_journal_paper_doi               10.1021/jacs.5b03170
_journal_year                    2015
_chemical_formula_sum            'C9 H5 F2 N O2 S'
_chemical_formula_weight         229.20
_chemical_name_systematic
; 
 ? 
;
_space_group_crystal_system      monoclinic
_space_group_IT_number           14
_space_group_name_Hall           '-P 2ybc'
_space_group_name_H-M_alt        'P 1 21/c 1'
_symmetry_space_group_name_Hall  '-P 2ybc'
_symmetry_space_group_name_H-M   'P 1 21/c 1'
_atom_sites_solution_hydrogens   geom
_audit_creation_method           SHELXL-2013
_cell_angle_alpha                90
_cell_angle_beta                 91.445(3)
_cell_angle_gamma                90
_cell_formula_units_Z            4
_cell_length_a                   8.8060(13)
_cell_length_b                   7.9706(12)
_cell_length_c                   13.1908(18)
_cell_measurement_reflns_used    1665
_cell_measurement_temperature    293(2)
_cell_measurement_theta_max      50.532
_cell_measurement_theta_min      5.973
_cell_volume                     925.6(2)
_computing_cell_refinement       'Bruker SMART'
_computing_data_collection       'Bruker SMART'
_computing_data_reduction        'Bruker SHELXTL'
_computing_molecular_graphics    'Bruker SHELXTL'
_computing_publication_material  'Bruker SHELXTL'
_computing_structure_refinement  'SHELXL-2013 (Sheldrick, 2013)'
_computing_structure_solution    'Bruker SHELXTL'
_diffrn_ambient_temperature      293(2)
_diffrn_measured_fraction_theta_full 0.998
_diffrn_measured_fraction_theta_max 0.998
_diffrn_measurement_device_type  'CCD area detector'
_diffrn_measurement_method       'phi and omega scans'
_diffrn_radiation_type           MoK\a
_diffrn_radiation_wavelength     0.71073
_diffrn_reflns_av_R_equivalents  0.0384
_diffrn_reflns_av_unetI/netI     0.0374
_diffrn_reflns_laue_measured_fraction_full 0.998
_diffrn_reflns_laue_measured_fraction_max 0.998
_diffrn_reflns_limit_h_max       7
_diffrn_reflns_limit_h_min       -10
_diffrn_reflns_limit_k_max       9
_diffrn_reflns_limit_k_min       -9
_diffrn_reflns_limit_l_max       15
_diffrn_reflns_limit_l_min       -16
_diffrn_reflns_number            5333
_diffrn_reflns_point_group_measured_fraction_full 0.998
_diffrn_reflns_point_group_measured_fraction_max 0.998
_diffrn_reflns_theta_full        25.242
_diffrn_reflns_theta_max         25.990
_diffrn_reflns_theta_min         2.314
_exptl_absorpt_coefficient_mu    0.357
_exptl_absorpt_correction_T_max  0.7457
_exptl_absorpt_correction_T_min  0.6271
_exptl_absorpt_correction_type   multi-scan
_exptl_absorpt_process_details   sadabs
_exptl_crystal_colour            colorless
_exptl_crystal_density_diffrn    1.645
_exptl_crystal_description       prismatic
_exptl_crystal_F_000             464
_exptl_crystal_size_max          0.211
_exptl_crystal_size_mid          0.175
_exptl_crystal_size_min          0.113
_refine_diff_density_max         0.297
_refine_diff_density_min         -0.240
_refine_diff_density_rms         0.052
_refine_ls_extinction_method     none
_refine_ls_goodness_of_fit_ref   1.066
_refine_ls_hydrogen_treatment    constr
_refine_ls_matrix_type           full
_refine_ls_number_parameters     136
_refine_ls_number_reflns         1814
_refine_ls_number_restraints     0
_refine_ls_restrained_S_all      1.066
_refine_ls_R_factor_all          0.0509
_refine_ls_R_factor_gt           0.0407
_refine_ls_shift/su_max          0.001
_refine_ls_shift/su_mean         0.000
_refine_ls_structure_factor_coef Fsqd
_refine_ls_weighting_details
'w=1/[\s^2^(Fo^2^)+(0.0573P)^2^+0.1630P] where P=(Fo^2^+2Fc^2^)/3'
_refine_ls_weighting_scheme      calc
_refine_ls_wR_factor_gt          0.1029
_refine_ls_wR_factor_ref         0.1096
_reflns_Friedel_coverage         0.000
_reflns_number_gt                1474
_reflns_number_total             1814
_reflns_threshold_expression     'I > 2\s(I)'
_cod_data_source_file            ja5b03170_si_002.cif
_cod_data_source_block           cd214330
_cod_database_code               4124281
_shelx_space_group_comment
; 
The symmetry employed for this shelxl refinement is uniquely defined 
by the following loop, which should always be used as a source of 
symmetry information in preference to the above space-group names. 
They are only intended as comments. 
;
_shelxl_version_number           2013-4
_shelx_res_file
; 
TITL cd214330 in P2(1)/c 
CELL 0.71073   8.8060   7.9706  13.1908  90.000  91.445  90.000 
ZERR    4.00   0.0013   0.0012   0.0018   0.000   0.003   0.000 
LATT 1 
SYMM -X, 0.5+Y, 0.5-Z 
SFAC C  H  N  O  F  S 
UNIT 36 20 4 8 8 4 
OMIT  -3.00  52.00 
L.S. 10 
ACTA 
BOND $H 
FMAP 2 
PLAN 20 
wpdb -1 
mpla c3 > c8 
mpla n1 c1 > c4 
htab 
conf 
EQIV $1 x, -y+1/2, z+1/2 
HTAB C9 O2_$1 
WGHT    0.057300    0.163000 
FVAR       0.26255 
MOLE 1 
S1    6   -0.297788   -0.001319    0.694057    11.00000    0.04724    0.04806 = 
         0.05295   -0.00497    0.01777   -0.00625 
F1    5   -0.388421    0.297238    0.743658    11.00000    0.09471    0.06882 = 
         0.10777   -0.02032    0.00808    0.02057 
F2    5   -0.451320    0.095681    0.841069    11.00000    0.07492    0.12156 = 
         0.08807   -0.02688    0.05027   -0.01742 
N1    3   -0.140031    0.083979    0.646789    11.00000    0.03814    0.04316 = 
         0.04087    0.00216    0.01000    0.00138 
O1    4    0.038717   -0.049472    0.749712    11.00000    0.06036    0.07687 = 
         0.05590    0.02235    0.00446    0.01037 
O2    4   -0.250025    0.244158    0.517955    11.00000    0.04825    0.07202 = 
         0.05597    0.01320   -0.00132    0.00822 
C1    1    0.008754    0.042203    0.680156    11.00000    0.04551    0.04344 = 
         0.04118   -0.00230    0.00694    0.00425 
C2    1   -0.138966    0.192121    0.561417    11.00000    0.04431    0.04003 = 
         0.03819   -0.00226    0.00598    0.00226 
C3    1    0.022977    0.221174    0.541867    11.00000    0.04419    0.03801 = 
         0.03813   -0.00559    0.00942    0.00029 
C4    1    0.110819    0.132905    0.611846    11.00000    0.04092    0.04032 = 
         0.04062   -0.00679    0.00846    0.00140 
C5    1    0.266801    0.138904    0.611271    11.00000    0.04398    0.05927 = 
         0.05977   -0.00614    0.00581    0.00405 
AFIX  43 
H5    2    0.325795    0.079272    0.658332    11.00000   -1.20000 
AFIX   0 
C6    1    0.332305    0.236870    0.538128    11.00000    0.04343    0.06365 = 
         0.08019   -0.01428    0.02195   -0.00874 
AFIX  43 
H6    2    0.437610    0.242982    0.535635    11.00000   -1.20000 
AFIX   0 
C7    1    0.245040    0.325880    0.468666    11.00000    0.06256    0.05355 = 
         0.06453   -0.00518    0.03125   -0.00940 
AFIX  43 
H7    2    0.292525    0.391743    0.420654    11.00000   -1.20000 
AFIX   0 
C8    1    0.088259    0.319106    0.469016    11.00000    0.06021    0.04385 = 
         0.04721    0.00086    0.01633   -0.00117 
AFIX  43 
H8    2    0.029213    0.378440    0.421843    11.00000   -1.20000 
AFIX   0 
C9    1   -0.337442    0.155870    0.787506    11.00000    0.03711    0.07955 = 
         0.05139   -0.01395    0.00991    0.00364 
AFIX  13 
H9    2   -0.247864    0.177832    0.831081    11.00000   -1.20000 
AFIX   0 
HKLF 4 
  
REM  cd214330 in P2(1)/c 
REM R1 =  0.0407 for    1474 Fo > 4sig(Fo)  and  0.0509 for all    1814 data 
REM    136 parameters refined using      0 restraints 
  
END 
  
WGHT      0.0567      0.1672 
  
REM Instructions for potential hydrogen bonds 
HTAB C9 O2_$1 
  
REM Highest difference peak  0.297,  deepest hole -0.240,  1-sigma level  0.052 
Q1    1  -0.2825  0.2740  0.7885  11.00000  0.05    0.30 
Q2    1   0.5209  0.0133  0.4869  11.00000  0.05    0.17 
Q3    1  -0.2992  0.0966  0.7443  11.00000  0.05    0.17 
Q4    1   0.2440  0.1691  0.7684  11.00000  0.05    0.16 
Q5    1  -0.2786 -0.1130  0.7344  11.00000  0.05    0.16 
Q6    1   0.0753  0.1959  0.5872  11.00000  0.05    0.16 
Q7    1   0.3089  0.2598  0.3172  11.00000  0.05    0.15 
Q8    1   0.3293 -0.0173  0.5214  11.00000  0.05    0.15 
Q9    1  -0.4616  0.2303  0.7538  11.00000  0.05    0.14 
Q10   1   0.0782  0.1049  0.6586  11.00000  0.05    0.13 
Q11   1   0.1572  0.2982  0.3193  11.00000  0.05    0.13 
Q12   1   0.1668  0.1195  0.5985  11.00000  0.05    0.13 
Q13   1  -0.2354  0.2462  0.5512  11.00000  0.05    0.13 
Q14   1   0.4953  0.2461  0.6027  11.00000  0.05    0.13 
Q15   1   0.0564  0.3002  0.5239  11.00000  0.05    0.13 
Q16   1   0.3380  0.2513  0.7344  11.00000  0.05    0.13 
Q17   1  -0.3507  0.0583  0.8513  11.00000  0.05    0.12 
Q18   1   0.5494  0.0793  0.5005  11.00000  0.05    0.12 
Q19   1  -0.1404  0.0919  0.6040  11.00000  0.05    0.12 
Q20   1  -0.3146 -0.1438  0.8062  11.00000  0.05    0.12 
;
_shelx_res_checksum              45830
_shelx_hkl_file
; 
  -1   0   0  104.87    2.52 
  -1   0   0  102.03    2.35 
  -2   0   0   88.77    2.07 
  -2   0   0   88.24    2.22 
  -3   0   0  377.16    8.45 
  -4   0   0   31.50    0.92 
  -5   0   0   73.93    2.13 
  -5   0   0   76.42    1.97 
  -6   0   0    0.24    0.17 
  -6   0   0    0.41    0.15 
  -7   0   0   59.81    1.94 
  -7   0   0   60.86    1.76 
  -8   0   0    1.86    0.32 
  -8   0   0    2.18    0.31 
  -9   0   0    1.23    0.27 
  -9   0   0    1.01    0.30 
 -10   0   0   -0.09    0.20 
 -10   0   0    0.32    0.24 
 -11   0   0    0.18    0.28 
 -11   1   0    1.17    0.35 
 -10   1   0    0.17    0.22 
 -10   1   0   -0.06    0.19 
  -9   1   0    2.63    0.42 
  -9   1   0    1.98    0.34 
  -8   1   0    0.88    0.22 
  -8   1   0    0.86    0.23 
  -7   1   0    0.20    0.13 
  -7   1   0    0.28    0.24 
  -6   1   0    0.32    0.14 
  -6   1   0    0.06    0.14 
  -5   1   0    8.06    0.41 
  -5   1   0    7.96    0.44 
  -4   1   0  107.05    2.77 
  -4   1   0  108.37    2.65 
  -3   1   0   11.66    0.43 
  -3   1   0   11.16    0.43 
  -2   1   0   65.34    1.64 
  -1   1   0   22.73    0.61 
   0  -1   0   -0.01    0.03 
   0  -1   0   -0.02    0.03 
  -1  -1   0   23.81    0.69 
  -2  -1   0   59.99    1.57 
  -2  -1   0   57.98    1.41 
  -3  -1   0   11.23    0.41 
  -3  -1   0   12.15    0.50 
  -4  -1   0  108.43    2.59 
  -4  -1   0  105.06    2.83 
  -5  -1   0    8.94    0.51 
  -5  -1   0    8.22    0.41 
  -6  -1   0   -0.09    0.13 
  -6  -1   0   -0.06    0.10 
  -7  -1   0    0.15    0.16 
  -7  -1   0    0.19    0.14 
  -8  -1   0    0.76    0.20 
  -8  -1   0    0.55    0.21 
  -9  -1   0    1.76    0.31 
  -9  -1   0    2.79    0.44 
 -10  -1   0   -0.15    0.20 
 -10  -1   0   -0.18    0.19 
 -11   2   0   -0.33    0.25 
 -10   2   0    8.28    0.65 
 -10   2   0    8.32    0.67 
  -9   2   0    2.38    0.38 
  -8   2   0   17.64    0.87 
  -8   2   0   17.79    0.85 
  -7   2   0   28.40    1.06 
  -7   2   0   26.00    1.05 
  -6   2   0   17.23    0.75 
  -6   2   0   17.98    0.75 
  -5   2   0   25.87    0.90 
  -5   2   0   27.20    0.93 
  -4   2   0   24.41    0.80 
  -3   2   0   18.18    0.60 
  -2   2   0   20.26    0.62 
   0  -2   0   45.86    1.27 
   0  -2   0   45.25    1.17 
  -1  -2   0   12.53    0.42 
  -1  -2   0   13.08    0.51 
   1   2   0   13.05    0.31 
  -2  -2   0   20.87    0.74 
  -2  -2   0   21.54    0.63 
  -3  -2   0   16.95    0.55 
  -3  -2   0   16.93    0.67 
  -4  -2   0   22.82    0.86 
  -4  -2   0   21.21    0.70 
  -5  -2   0   26.40    0.86 
  -5  -2   0   26.15    1.02 
  -6  -2   0   17.39    0.67 
  -6  -2   0   16.94    0.82 
  -7  -2   0   25.33    1.08 
  -7  -2   0   24.00    0.89 
  -8  -2   0   18.67    0.79 
  -8  -2   0   16.36    0.90 
  -9  -2   0    2.54    0.36 
  -9  -2   0    2.39    0.43 
 -10  -2   0    9.17    0.72 
 -11   3   0    0.18    0.33 
 -10   3   0    1.34    0.36 
  -9   3   0    0.41    0.23 
  -9   3   0    0.30    0.20 
  -8   3   0    0.08    0.16 
  -8   3   0    0.03    0.15 
  -7   3   0   33.26    1.21 
  -7   3   0   34.12    1.25 
  -6   3   0    0.11    0.14 
  -6   3   0    0.10    0.13 
  -5   3   0    1.39    0.21 
  -4   3   0    0.65    0.14 
  -3   3   0   78.83    2.08 
  -2   3   0    1.71    0.18 
   0  -3   0    0.10    0.08 
   0  -3   0    0.10    0.09 
  -1  -3   0    4.75    0.27 
  -1  -3   0    4.50    0.32 
   1   3   0    4.71    0.15 
  -2  -3   0    2.04    0.19 
  -2  -3   0    1.56    0.23 
  -3  -3   0   76.54    1.96 
  -3  -3   0   78.24    2.22 
  -4  -3   0    0.49    0.17 
  -4  -3   0    0.82    0.15 
  -5  -3   0    1.06    0.26 
  -5  -3   0    1.53    0.21 
  -6  -3   0   -0.05    0.11 
  -6  -3   0   -0.05    0.10 
  -7  -3   0   31.51    1.29 
  -7  -3   0   32.23    1.10 
  -8  -3   0   -0.01    0.20 
  -8  -3   0   -0.01    0.15 
  -9  -3   0    0.31    0.23 
  -9  -3   0    0.16    0.22 
 -10  -3   0    1.21    0.36 
 -10   4   0    3.45    0.55 
  -9   4   0    1.11    0.29 
  -9   4   0    0.86    0.31 
  -8   4   0    4.46    0.53 
  -8   4   0    5.32    0.48 
  -7   4   0    7.08    0.55 
  -7   4   0    7.47    0.48 
  -6   4   0    3.09    0.31 
  -5   4   0    0.57    0.16 
  -4   4   0   31.65    1.03 
  -3   4   0  119.03    3.06 
  -2   4   0   23.99    0.82 
   1  -4   0    1.33    0.23 
   0  -4   0   68.06    1.83 
   0  -4   0   66.87    1.96 
  -1  -4   0    1.20    0.19 
  -1  -4   0    0.74    0.19 
   1   4   0    0.91    0.07 
  -2  -4   0   24.96    0.85 
  -2  -4   0   25.74    0.98 
  -3  -4   0  127.53    3.13 
  -3  -4   0  127.10    3.49 
  -4  -4   0   31.26    1.20 
  -4  -4   0   30.47    0.99 
  -5  -4   0    0.76    0.17 
  -5  -4   0    0.52    0.19 
  -6  -4   0    2.71    0.40 
  -6  -4   0    2.95    0.32 
  -7  -4   0    7.30    0.59 
  -7  -4   0    8.04    0.50 
  -8  -4   0    4.86    0.57 
  -8  -4   0    4.97    0.47 
  -9  -4   0    0.66    0.27 
 -10  -4   0    2.72    0.50 
 -10   5   0    0.19    0.33 
  -9   5   0    0.13    0.27 
  -9   5   0   -0.37    0.16 
  -8   5   0    0.20    0.18 
  -8   5   0    0.01    0.22 
  -7   5   0   11.35    0.63 
  -6   5   0    1.26    0.24 
  -5   5   0   16.33    0.69 
  -4   5   0    0.83    0.18 
  -3   5   0    0.22    0.12 
  -2   5   0   23.38    0.86 
   1  -5   0   24.26    0.98 
   0  -5   0    0.03    0.12 
  -1  -5   0   22.15    0.96 
  -1  -5   0   24.62    0.89 
   1   5   0   23.22    0.57 
  -2  -5   0   23.56    0.88 
  -2  -5   0   24.03    1.02 
  -3  -5   0    0.32    0.14 
  -3  -5   0    0.10    0.12 
  -4  -5   0    0.65    0.18 
  -4  -5   0    0.64    0.19 
  -5  -5   0   15.86    0.86 
  -5  -5   0   15.33    0.69 
  -6  -5   0    1.29    0.26 
  -6  -5   0    1.23    0.30 
  -7  -5   0   10.60    0.74 
  -7  -5   0    9.54    0.57 
  -8  -5   0    0.08    0.20 
  -9  -5   0    0.04    0.20 
 -10  -5   0    0.49    0.30 
  -9   6   0    0.33    0.34 
  -9   6   0    0.95    0.31 
  -8   6   0    1.13    0.34 
  -8   6   0    1.25    0.28 
  -7   6   0    0.53    0.20 
  -6   6   0    0.29    0.15 
  -5   6   0   18.58    0.80 
  -4   6   0    0.09    0.12 
  -3   6   0   11.68    0.59 
  -2   6   0   27.01    1.00 
  -1   6   0    0.24    0.19 
   0  -6   0   12.76    0.73 
  -1  -6   0    0.83    0.24 
  -1  -6   0    1.04    0.25 
  -2  -6   0   21.50    0.93 
  -2  -6   0   26.66    1.11 
  -3  -6   0   12.04    0.65 
  -3  -6   0   11.77    0.73 
  -4  -6   0   -0.05    0.15 
  -4  -6   0    0.00    0.15 
  -5  -6   0   19.37    0.85 
  -5  -6   0   17.90    0.98 
  -6  -6   0    0.12    0.19 
  -6  -6   0    0.15    0.21 
  -7  -6   0    0.49    0.26 
  -8  -6   0    1.17    0.33 
  -9  -6   0    0.62    0.33 
  -8   7   0   -0.04    0.19 
  -8   7   0    0.17    0.30 
  -7   7   0    2.08    0.34 
  -6   7   0    0.72    0.21 
  -5   7   0    6.07    0.46 
  -4   7   0    1.09    0.23 
  -3   7   0    2.67    0.35 
  -2   7   0    1.18    0.24 
  -1   7   0    0.01    0.32 
   0  -7   0   -0.11    0.17 
  -1  -7   0    0.11    0.19 
  -2  -7   0    1.07    0.29 
  -2  -7   0    1.06    0.27 
  -3  -7   0    2.78    0.44 
  -3  -7   0    3.37    0.44 
  -4  -7   0    0.77    0.26 
  -4  -7   0    1.14    0.29 
  -5  -7   0    7.33    0.57 
  -5  -7   0    6.66    0.69 
  -6  -7   0    0.30    0.22 
  -7  -7   0    1.39    0.37 
  -8  -7   0    0.03    0.24 
  -7   8   0    0.90    0.27 
  -6   8   0    0.02    0.16 
  -5   8   0    8.21    0.57 
  -4   8   0    4.01    0.45 
  -3   8   0    4.47    0.47 
  -2   8   0   12.91    0.71 
  -1   8   0   11.11    0.81 
   0  -8   0    2.23    0.44 
  -1  -8   0    4.15    0.58 
  -2  -8   0   12.83    0.85 
  -3  -8   0    4.12    0.53 
  -3  -8   0    4.43    0.58 
  -4  -8   0    3.45    0.50 
  -4  -8   0    3.21    0.51 
  -5  -8   0    7.72    0.78 
  -6  -8   0   -0.02    0.22 
  -7  -8   0    1.10    0.40 
  -6   9   0    0.80    0.31 
  -5   9   0    1.76    0.36 
  -4   9   0   -0.20    0.16 
  -3   9   0    0.77    0.23 
  -2   9   0    0.61    0.22 
   0   9   0   -0.57    0.37 
   0   9   0   -0.49    0.37 
  -1  -9   0    2.47    0.52 
  -2  -9   0    0.21    0.25 
  -3  -9   0    0.65    0.30 
  -4  -9   0    0.18    0.25 
  -5  -9   0    1.43    0.47 
  -6  -9   0    0.83    0.49 
  -4  10   0    0.17    0.34 
  -3  10   0    0.03    0.28 
  -2  10   0    1.19    0.33 
  -1  10   0    0.81    0.27 
   0  10   0    3.10    0.71 
  -1 -10   0   -0.19    0.36 
   1  10   0    0.29    0.25 
  -2 -10   0    0.50    0.37 
  -3 -10   0    0.15    0.39 
  -4 -10   0    0.55    0.47 
  -4 -10   1    0.26    0.46 
  -3 -10   1   -0.31    0.37 
  -2 -10   1    0.60    0.46 
  -1 -10   1    0.94    0.47 
   0  10  -1   -0.91    0.47 
  -1  10  -1    3.42    0.49 
  -2  10  -1    2.04    0.42 
  -3  10  -1    1.00    0.35 
  -6  -9   1    0.71    0.48 
  -5  -9   1    1.72    0.46 
  -4  -9   1    1.12    0.37 
  -3  -9   1    5.62    0.70 
  -2  -9   1    0.22    0.32 
  -1  -9   1    1.04    0.41 
   0  -9   1    4.44    0.64 
  -1   9  -1    7.20    0.73 
  -2   9  -1    1.21    0.26 
  -3   9  -1    0.33    0.18 
  -4   9  -1    4.70    0.52 
  -5   9  -1   -0.07    0.21 
  -6   9  -1    1.54    0.36 
  -7  -8   1   -0.15    0.30 
  -6  -8   1    1.45    0.41 
  -5  -8   1    1.48    0.39 
  -4  -8   1    0.11    0.18 
  -3  -8   1    1.73    0.37 
  -2  -8   1    0.30    0.28 
  -1  -8   1    0.57    0.31 
   0  -8   1    0.29    0.23 
  -1   8  -1   -0.30    0.32 
  -3   8  -1    1.12    0.23 
  -4   8  -1    0.09    0.14 
  -5   8  -1    0.22    0.18 
  -6   8  -1    1.20    0.27 
  -7   8  -1    1.06    0.27 
  -8  -7   1    2.28    0.50 
  -7  -7   1    2.42    0.47 
  -6  -7   1    0.75    0.28 
  -5  -7   1    5.03    0.63 
  -4  -7   1    9.97    0.62 
  -4  -7   1    8.97    0.69 
  -3  -7   1    2.21    0.41 
  -3  -7   1    2.64    0.39 
  -2  -7   1    6.57    0.63 
  -1  -7   1   19.81    1.02 
   0  -7   1    0.10    0.19 
   1  -7   1    1.83    0.38 
  -2   7  -1   32.63    1.22 
  -3   7  -1    1.73    0.28 
  -4   7  -1   13.30    0.67 
  -5   7  -1    1.84    0.30 
  -6   7  -1    2.07    0.31 
  -7   7  -1    4.20    0.45 
  -8   7  -1    0.17    0.31 
  -8   7  -1   -0.04    0.19 
  -9  -6   1    0.47    0.29 
  -8  -6   1   -0.03    0.21 
  -7  -6   1    1.49    0.35 
  -6  -6   1    0.27    0.21 
  -5  -6   1    0.16    0.17 
  -5  -6   1    0.23    0.18 
  -4  -6   1    0.78    0.24 
  -4  -6   1    0.79    0.20 
  -3  -6   1    0.05    0.15 
  -3  -6   1    0.06    0.16 
  -2  -6   1    5.03    0.52 
  -2  -6   1    6.50    0.46 
  -1  -6   1   17.58    0.88 
   0  -6   1   11.57    0.69 
   1  -6   1    0.23    0.18 
  -2   6  -1    5.41    0.47 
  -3   6  -1    0.36    0.14 
  -4   6  -1    1.24    0.23 
  -5   6  -1    1.32    0.24 
  -6   6  -1   12.95    0.65 
  -7   6  -1    4.29    0.43 
  -8   6  -1    0.22    0.17 
  -8   6  -1    0.06    0.25 
  -9   6  -1    0.56    0.36 
 -10  -5   1   -0.14    0.28 
  -9  -5   1    3.07    0.52 
  -8  -5   1    3.49    0.53 
  -7  -5   1    0.21    0.21 
  -6  -5   1   37.25    1.54 
  -6  -5   1   38.32    1.25 
  -5  -5   1   -0.05    0.11 
  -5  -5   1    0.13    0.17 
  -4  -5   1   18.77    0.93 
  -3  -5   1   84.24    2.52 
  -3  -5   1   80.40    2.20 
   2   5  -1    1.40    0.10 
  -2  -5   1    1.55    0.30 
  -2  -5   1    1.41    0.23 
   1   5  -1   23.54    0.62 
  -1  -5   1   23.96    1.00 
  -1  -5   1   23.27    0.87 
   0  -5   1    7.64    0.51 
   1  -5   1    2.17    0.31 
  -3   5  -1   12.68    0.58 
  -4   5  -1   50.90    1.53 
  -5   5  -1    0.49    0.13 
  -6   5  -1    1.41    0.23 
  -7   5  -1    9.29    0.66 
  -7   5  -1    9.04    0.54 
  -8   5  -1    0.26    0.18 
  -8   5  -1   -0.21    0.19 
  -9   5  -1    3.98    0.58 
 -10   5  -1    0.03    0.33 
 -10  -4   1    0.93    0.34 
  -9  -4   1    0.09    0.20 
  -8  -4   1    1.38    0.34 
  -7  -4   1    6.04    0.43 
  -7  -4   1    6.56    0.62 
  -6  -4   1    1.98    0.26 
  -6  -4   1    2.04    0.36 
  -5  -4   1    0.37    0.16 
  -5  -4   1    0.29    0.13 
  -4  -4   1    3.88    0.43 
  -4  -4   1    4.19    0.29 
  -3  -4   1    3.73    0.39 
   2   4  -1    0.18    0.05 
  -2  -4   1    0.16    0.13 
  -2  -4   1    0.49    0.12 
   1   4  -1   64.10    1.48 
  -1  -4   1   65.13    1.74 
  -1  -4   1   66.08    1.94 
   0  -4   1    3.28    0.32 
   1  -4   1    6.93    0.43 
  -3   4  -1    0.95    0.17 
  -4   4  -1   14.09    0.58 
  -5   4  -1   15.93    0.65 
  -6   4  -1    0.64    0.16 
  -6   4  -1    0.76    0.23 
  -7   4  -1    0.17    0.18 
  -7   4  -1    0.18    0.13 
  -8   4  -1    0.17    0.21 
  -8   4  -1    0.20    0.16 
  -9   4  -1    0.12    0.23 
 -10   4  -1    0.01    0.26 
 -11  -3   1    2.83    0.57 
 -10  -3   1    3.31    0.54 
  -9  -3   1    6.78    0.69 
  -8  -3   1   15.94    0.92 
  -7  -3   1    0.21    0.18 
  -7  -3   1    0.16    0.14 
  -6  -3   1   13.30    0.74 
  -6  -3   1   12.49    0.55 
  -5  -3   1    2.14    0.34 
  -5  -3   1    2.28    0.23 
  -4  -3   1    2.79    0.22 
  -4  -3   1    2.44    0.33 
  -3  -3   1   64.76    1.93 
  -3  -3   1   64.37    1.64 
   2   3  -1   21.50    0.54 
  -2  -3   1   21.65    0.83 
   1   3  -1  202.67    4.36 
  -1  -3   1  201.08    4.65 
  -1  -3   1  201.85    5.05 
   0  -3   1    7.74    0.41 
   1  -3   1   81.25    2.19 
  -2   3  -1   78.68    2.04 
  -3   3  -1    2.51    0.20 
  -4   3  -1   51.22    1.43 
  -5   3  -1    0.71    0.16 
  -5   3  -1    0.59    0.18 
  -6   3  -1   27.84    1.06 
  -6   3  -1   26.76    0.96 
  -7   3  -1    6.63    0.44 
  -7   3  -1    6.63    0.51 
  -8   3  -1    0.34    0.20 
  -8   3  -1    0.58    0.19 
  -9   3  -1    6.14    0.62 
  -9   3  -1    7.78    0.58 
 -10   3  -1    0.22    0.27 
 -11   3  -1    3.38    0.58 
 -11  -2   1    0.23    0.31 
 -10  -2   1    0.84    0.32 
  -9  -2   1    5.28    0.59 
  -9  -2   1    4.71    0.45 
  -8  -2   1    1.81    0.29 
  -8  -2   1    1.28    0.30 
  -7  -2   1    0.34    0.13 
  -7  -2   1    0.98    0.25 
  -6  -2   1    2.79    0.37 
  -5  -2   1   34.93    1.10 
  -5  -2   1   45.83    1.41 
  -4  -2   1    0.96    0.21 
  -4  -2   1    1.04    0.14 
  -3  -2   1   34.86    1.14 
  -3  -2   1   33.88    0.92 
   2   2  -1   35.47    0.83 
  -2  -2   1   36.53    1.12 
  -2  -2   1   35.41    0.92 
   1   2  -1    4.45    0.15 
  -1  -2   1    2.96    0.17 
  -1  -2   1    4.02    0.26 
   0  -2   1  334.18    8.00 
   1  -2   1    2.71    0.20 
  -2   2  -1  100.21    2.48 
  -3   2  -1   14.28    0.48 
  -4   2  -1    0.08    0.08 
  -4   2  -1    0.15    0.10 
  -5   2  -1    5.27    0.37 
  -5   2  -1    5.05    0.32 
  -6   2  -1    1.47    0.25 
  -6   2  -1    1.15    0.22 
  -7   2  -1    9.45    0.58 
  -7   2  -1    9.15    0.56 
  -8   2  -1    0.27    0.17 
  -8   2  -1    0.23    0.16 
  -9   2  -1    3.04    0.44 
  -9   2  -1    4.48    0.62 
 -10   2  -1    0.72    0.28 
 -11   2  -1    0.67    0.34 
 -11  -1   1    0.60    0.30 
 -10  -1   1    1.02    0.34 
  -9  -1   1    3.97    0.53 
  -9  -1   1    4.44    0.43 
  -8  -1   1    0.11    0.14 
  -8  -1   1   -0.06    0.14 
  -7  -1   1    0.35    0.15 
  -7  -1   1    0.33    0.17 
  -6  -1   1  163.04    4.34 
  -6  -1   1  162.56    3.91 
  -5  -1   1    0.27    0.14 
  -5  -1   1    0.08    0.08 
  -4  -1   1    1.64    0.23 
  -3  -1   1   88.77    2.35 
  -3  -1   1   87.02    2.08 
  -2  -1   1   24.97    0.64 
  -2  -1   1   24.43    0.80 
   1   1  -1   24.91    0.58 
  -1  -1   1   24.05    0.73 
  -1  -1   1   24.30    0.60 
   0  -1   1  100.28    2.50 
  -1   1  -1  366.49    8.66 
  -2   1  -1  229.54    5.22 
  -2   1  -1  231.11    5.47 
  -3   1  -1   16.03    0.52 
  -3   1  -1   15.96    0.56 
  -4   1  -1    2.70    0.22 
  -4   1  -1    2.73    0.24 
  -5   1  -1   46.72    1.37 
  -5   1  -1   45.38    1.38 
  -6   1  -1   55.83    1.63 
  -6   1  -1   55.21    1.69 
  -7   1  -1   39.22    1.32 
  -8   1  -1    2.39    0.34 
  -8   1  -1    2.64    0.37 
  -9   1  -1    8.38    0.61 
  -9   1  -1    7.96    0.57 
 -10   1  -1    0.48    0.25 
 -11   1  -1    0.01    0.25 
 -11   0   1    0.12    0.29 
 -10   0   1   -0.09    0.18 
 -10   0   1   -0.06    0.20 
  -9   0   1    0.02    0.15 
  -9   0   1   -0.05    0.18 
  -8   0   1   -0.08    0.13 
  -8   0   1    0.25    0.16 
  -7   0   1    0.13    0.12 
  -7   0   1   -0.01    0.11 
  -6   0   1   -0.08    0.10 
  -6   0   1    0.07    0.14 
  -5   0   1    0.03    0.08 
  -4   0   1    0.02    0.10 
  -4   0   1   -0.02    0.07 
  -3   0   1    0.08    0.08 
  -3   0   1   -0.01    0.05 
  -2   0   1    0.02    0.06 
  -2   0   1    0.00    0.03 
   1   0  -1   -0.28    0.03 
  -1   0   1   -0.38    0.03 
   0   0  -1   -0.06    0.01 
   0   0  -1   -0.07    0.01 
   0   0  -1   -0.08    0.01 
   0   0   1   -0.08    0.01 
   0   0   1   -0.02    0.01 
  -1   0  -1    0.02    0.02 
  -1   0  -1    0.01    0.02 
   1   0   1    0.03    0.01 
  -2   0  -1    0.01    0.05 
  -3   0  -1   -0.15    0.06 
  -4   0  -1   -0.04    0.08 
  -4   0  -1    0.02    0.08 
  -5   0  -1    0.18    0.11 
  -5   0  -1    0.02    0.10 
  -6   0  -1   -0.11    0.14 
  -6   0  -1   -0.01    0.10 
  -7   0  -1    0.11    0.12 
  -7   0  -1   -0.14    0.16 
  -8   0  -1   -0.06    0.12 
  -8   0  -1   -0.04    0.13 
  -9   0  -1   -0.16    0.14 
  -9   0  -1   -0.12    0.18 
 -10   0  -1    0.01    0.20 
 -11   0  -1    0.04    0.25 
 -11   1   1    0.87    0.41 
 -11   1   1    0.54    0.30 
 -10   1   1    1.00    0.32 
 -10   1   1    1.07    0.30 
  -9   1   1    4.61    0.47 
  -9   1   1    4.23    0.53 
  -8   1   1   -0.03    0.13 
  -8   1   1   -0.13    0.23 
  -7   1   1    0.13    0.17 
  -7   1   1    0.26    0.14 
  -6   1   1  168.71    4.43 
  -6   1   1  168.85    4.10 
  -5   1   1    0.04    0.11 
  -5   1   1    0.12    0.09 
  -4   1   1    2.12    0.21 
  -4   1   1    2.06    0.22 
  -3   1   1   88.55    2.27 
  -2   1   1   26.28    0.77 
  -1   1   1   24.20    0.67 
   0  -1  -1   92.54    2.02 
   0  -1  -1   90.36    2.12 
   0  -1  -1   90.14    2.25 
   0   1   1   88.79    2.01 
  -1  -1  -1  359.20    7.88 
  -1  -1  -1  347.73    8.39 
  -2  -1  -1  212.87    4.85 
  -2  -1  -1  215.29    5.17 
  -3  -1  -1   14.04    0.54 
  -3  -1  -1   15.83    0.52 
  -4  -1  -1    2.88    0.22 
  -4  -1  -1    2.59    0.25 
  -5  -1  -1   45.52    1.43 
  -5  -1  -1   45.51    1.31 
  -6  -1  -1   55.26    1.60 
  -6  -1  -1   56.33    1.75 
  -7  -1  -1   38.34    1.39 
  -7  -1  -1   38.62    1.26 
  -8  -1  -1    2.43    0.37 
  -8  -1  -1    2.35    0.33 
  -9  -1  -1    7.66    0.53 
  -9  -1  -1    8.07    0.61 
 -10  -1  -1    0.12    0.21 
 -11  -1  -1    0.29    0.30 
 -11   2   1    0.31    0.28 
 -10   2   1    0.74    0.28 
 -10   2   1    1.13    0.32 
  -9   2   1    4.53    0.49 
  -8   2   1    2.48    0.36 
  -8   2   1    1.57    0.31 
  -7   2   1    1.08    0.23 
  -7   2   1    1.15    0.25 
  -6   2   1    2.55    0.32 
  -6   2   1    2.76    0.32 
  -5   2   1   51.46    1.53 
  -4   2   1    1.27    0.18 
  -3   2   1   34.69    1.01 
  -2   2   1   36.00    1.01 
  -1   2   1    4.41    0.22 
   0  -2  -1  310.75    6.99 
   0  -2  -1  308.79    7.43 
  -1  -2  -1    2.80    0.21 
  -1  -2  -1    2.72    0.18 
  -2  -2  -1   99.59    2.57 
  -2  -2  -1   98.64    2.38 
  -3  -2  -1   13.84    0.50 
  -3  -2  -1   12.94    0.56 
  -4  -2  -1    0.17    0.09 
  -4  -2  -1    0.06    0.10 
  -5  -2  -1    4.88    0.38 
  -5  -2  -1    4.88    0.32 
  -6  -2  -1    1.22    0.22 
  -6  -2  -1    1.21    0.26 
  -7  -2  -1    8.31    0.49 
  -7  -2  -1    8.20    0.57 
  -8  -2  -1    0.05    0.15 
  -8  -2  -1    0.12    0.16 
  -9  -2  -1    3.32    0.42 
  -9  -2  -1    2.56    0.42 
 -10  -2  -1    0.71    0.30 
 -11   3   1    3.14    0.55 
 -10   3   1    4.01    0.54 
  -9   3   1    7.98    0.63 
  -9   3   1    7.06    0.63 
  -8   3   1   16.95    0.85 
  -8   3   1   18.41    0.90 
  -7   3   1    0.61    0.20 
  -7   3   1    0.34    0.16 
  -6   3   1   13.32    0.63 
  -5   3   1    2.17    0.26 
  -4   3   1    3.03    0.25 
  -3   3   1   67.55    1.83 
  -2   3   1   21.04    0.70 
   0  -3  -1    7.22    0.37 
   0  -3  -1    7.97    0.41 
  -1  -3  -1   79.22    2.00 
  -1  -3  -1   77.78    2.15 
  -2  -3  -1   78.78    2.00 
  -2  -3  -1   78.75    2.18 
  -3  -3  -1    2.60    0.24 
  -3  -3  -1    2.50    0.28 
  -4  -3  -1   52.05    1.46 
  -4  -3  -1   51.43    1.64 
  -5  -3  -1    0.46    0.13 
  -5  -3  -1    0.89    0.22 
  -6  -3  -1   24.85    1.06 
  -6  -3  -1   25.84    0.92 
  -7  -3  -1    5.96    0.50 
  -7  -3  -1    6.38    0.45 
  -8  -3  -1    0.14    0.19 
  -8  -3  -1    0.36    0.19 
  -9  -3  -1    6.36    0.63 
  -9  -3  -1    6.08    0.55 
 -10   4   1    1.52    0.37 
 -10   4   1    0.95    0.36 
  -9   4   1    0.00    0.22 
  -9   4   1    0.29    0.19 
  -8   4   1    1.77    0.31 
  -8   4   1    0.93    0.28 
  -7   4   1    7.34    0.49 
  -6   4   1    1.75    0.26 
  -5   4   1    0.38    0.13 
  -4   4   1    3.33    0.29 
  -3   4   1    3.67    0.29 
  -2   4   1    0.13    0.10 
   0  -4  -1    3.19    0.32 
   0  -4  -1    3.83    0.32 
  -1  -4  -1    5.84    0.40 
  -1  -4  -1    5.89    0.37 
  -2  -4  -1   13.80    0.59 
  -2  -4  -1   13.53    0.65 
  -3  -4  -1    1.31    0.26 
  -3  -4  -1    1.31    0.21 
  -4  -4  -1   13.27    0.58 
  -4  -4  -1   13.20    0.70 
  -5  -4  -1   17.39    0.71 
  -5  -4  -1   15.74    0.80 
  -6  -4  -1    0.71    0.22 
  -6  -4  -1    0.43    0.18 
  -7  -4  -1    0.20    0.17 
  -7  -4  -1    0.10    0.16 
  -8  -4  -1    0.22    0.18 
  -8  -4  -1    0.04    0.17 
  -9  -4  -1    0.19    0.21 
  -9  -4  -1   -0.36    0.21 
 -10   5   1    0.02    0.29 
 -10   5   1   -0.05    0.29 
  -9   5   1    3.47    0.53 
  -9   5   1    3.61    0.48 
  -8   5   1    4.00    0.52 
  -8   5   1    3.80    0.45 
  -7   5   1    0.28    0.17 
  -6   5   1   37.19    1.29 
  -5   5   1    0.04    0.10 
  -4   5   1   17.98    0.74 
  -3   5   1   85.51    2.35 
  -2   5   1    1.36    0.22 
   0  -5  -1    6.07    0.45 
   0  -5  -1    6.54    0.43 
  -1  -5  -1    1.97    0.29 
  -1  -5  -1    2.01    0.31 
  -2  -5  -1    0.18    0.14 
  -2  -5  -1    0.07    0.14 
  -3  -5  -1   12.76    0.69 
  -3  -5  -1   13.48    0.63 
  -4  -5  -1   50.98    1.56 
  -4  -5  -1   51.54    1.76 
  -5  -5  -1    0.30    0.17 
  -5  -5  -1    0.27    0.15 
  -6  -5  -1    0.98    0.28 
  -6  -5  -1    1.37    0.26 
  -7  -5  -1    8.60    0.56 
  -7  -5  -1    8.16    0.65 
  -8  -5  -1    0.31    0.24 
  -8  -5  -1    0.03    0.19 
  -9  -5  -1    3.01    0.50 
  -9   6   1    0.64    0.27 
  -9   6   1    0.47    0.34 
  -8   6   1    0.09    0.17 
  -7   6   1    2.03    0.33 
  -6   6   1    0.38    0.16 
  -5   6   1    0.28    0.15 
  -4   6   1    1.35    0.25 
  -3   6   1    0.02    0.11 
  -2   6   1    5.44    0.39 
  -1   6   1   34.94    1.25 
   0  -6  -1   10.55    0.65 
  -1  -6  -1    0.70    0.22 
  -1  -6  -1    0.61    0.20 
  -2  -6  -1    2.75    0.39 
  -2  -6  -1    2.53    0.36 
  -3  -6  -1    0.12    0.15 
  -3  -6  -1    0.21    0.16 
  -4  -6  -1    1.08    0.28 
  -4  -6  -1    1.37    0.28 
  -5  -6  -1    1.45    0.30 
  -5  -6  -1    0.83    0.26 
  -6  -6  -1   13.65    0.86 
  -6  -6  -1   13.82    0.75 
  -7  -6  -1    4.50    0.50 
  -7  -6  -1    3.54    0.52 
  -8  -6  -1   -0.03    0.19 
  -9  -6  -1    0.38    0.29 
  -8   7   1    2.78    0.43 
  -7   7   1    2.62    0.38 
  -6   7   1    1.23    0.26 
  -5   7   1    5.23    0.43 
  -4   7   1   10.11    0.59 
  -3   7   1    2.68    0.34 
  -2   7   1    8.44    0.53 
  -1   7   1   44.37    1.56 
   0  -7  -1    0.45    0.23 
  -1  -7  -1    1.58    0.33 
  -1  -7  -1    2.05    0.37 
  -2  -7  -1   31.33    1.36 
  -2  -7  -1   33.58    1.30 
  -3  -7  -1    1.65    0.34 
  -3  -7  -1    1.28    0.31 
  -4  -7  -1   12.19    0.74 
  -4  -7  -1   13.12    0.83 
  -5  -7  -1    1.61    0.35 
  -5  -7  -1    1.84    0.38 
  -6  -7  -1    2.84    0.48 
  -6  -7  -1    2.78    0.45 
  -7  -7  -1    4.09    0.58 
  -8  -7  -1    0.17    0.26 
  -7   8   1    0.08    0.21 
  -6   8   1    1.87    0.33 
  -5   8   1    1.74    0.32 
  -4   8   1    0.33    0.17 
  -3   8   1    1.91    0.31 
  -2   8   1    0.55    0.18 
   0   8   1    0.03    0.34 
   0   8   1    0.14    0.33 
  -1  -8  -1    0.10    0.17 
  -2  -8  -1    0.32    0.26 
  -2  -8  -1    0.20    0.21 
  -3  -8  -1    1.18    0.33 
  -3  -8  -1    0.83    0.29 
  -4  -8  -1    0.01    0.23 
  -4  -8  -1   -0.19    0.16 
  -5  -8  -1    0.17    0.19 
  -5  -8  -1   -0.03    0.25 
  -6  -8  -1    0.86    0.30 
  -7  -8  -1    0.91    0.37 
  -6   9   1    0.42    0.32 
  -5   9   1    1.40    0.34 
  -4   9   1    1.42    0.33 
  -3   9   1    5.49    0.54 
  -2   9   1    0.28    0.18 
  -1   9   1    1.37    0.28 
   0   9   1   11.92    0.93 
  -1  -9  -1    3.55    0.54 
  -2  -9  -1    1.62    0.38 
  -3  -9  -1    0.12    0.22 
  -3  -9  -1   -0.02    0.30 
  -4  -9  -1    3.60    0.58 
  -4  -9  -1    4.65    0.65 
  -5  -9  -1   -0.11    0.24 
  -6  -9  -1    0.62    0.47 
  -3  10   1    0.19    0.29 
  -2  10   1    0.16    0.24 
  -1  10   1    1.07    0.32 
   0  10   1   -0.23    0.50 
   1  10   1    2.94    0.76 
  -2 -10  -1    1.84    0.50 
  -3 -10  -1    0.83    0.46 
  -3 -10   2    0.01    0.43 
  -2 -10   2    2.26    0.64 
  -1 -10   2    0.27    0.42 
   0  10  -2    0.43    0.49 
   0  10  -2    0.37    0.50 
  -2  10  -2    2.52    0.43 
  -3  10  -2    0.77    0.32 
  -6  -9   2    0.24    0.45 
  -5  -9   2    0.47    0.38 
  -4  -9   2    0.87    0.32 
  -3  -9   2    0.55    0.39 
  -2  -9   2   -0.33    0.28 
  -1  -9   2    0.16    0.34 
   0  -9   2    0.03    0.29 
  -1   9  -2    0.04    0.42 
  -3   9  -2    1.14    0.26 
  -4   9  -2    0.57    0.23 
  -5   9  -2    0.69    0.26 
  -6   9  -2    0.88    0.32 
  -7  -8   2    4.17    0.70 
  -6  -8   2    0.05    0.24 
  -5  -8   2    2.73    0.50 
  -4  -8   2    1.51    0.38 
  -3  -8   2    3.49    0.58 
  -2  -8   2   18.43    1.08 
  -1  -8   2    0.18    0.25 
   0  -8   2    1.34    0.37 
  -1   8  -2    0.19    0.12 
   1  -8   2   -0.27    0.20 
  -3   8  -2    2.46    0.34 
  -4   8  -2    1.11    0.24 
  -5   8  -2    9.66    0.60 
  -6   8  -2    0.09    0.16 
  -7   8  -2   -0.02    0.21 
  -8  -7   2    0.36    0.31 
  -7  -7   2    2.55    0.51 
  -6  -7   2    0.22    0.20 
  -5  -7   2    0.12    0.20 
  -4  -7   2    0.44    0.21 
  -3  -7   2    0.30    0.22 
  -2  -7   2    2.90    0.47 
  -1  -7   2    3.28    0.48 
   0  -7   2    0.36    0.24 
   1  -7   2    1.37    0.33 
  -2   7  -2    4.09    0.49 
  -3   7  -2    0.31    0.14 
  -4   7  -2    1.58    0.27 
  -5   7  -2    5.86    0.44 
  -6   7  -2    4.43    0.42 
  -7   7  -2    0.13    0.17 
  -7   7  -2    0.44    0.19 
  -8   7  -2    0.43    0.34 
  -9  -6   2    1.63    0.45 
  -8  -6   2    0.64    0.30 
  -7  -6   2    4.49    0.62 
  -6  -6   2    0.39    0.22 
  -5  -6   2    0.30    0.21 
  -4  -6   2   13.52    0.84 
  -4  -6   2   15.25    0.69 
  -3  -6   2   17.80    0.78 
  -3  -6   2   20.10    0.99 
  -2  -6   2   52.75    1.85 
   1   6  -2    0.61    0.12 
  -1  -6   2    0.59    0.23 
   0   6  -2   12.43    0.46 
   0  -6   2   13.37    0.75 
   1  -6   2   27.88    1.15 
  -2   6  -2    2.82    0.39 
  -3   6  -2   31.74    1.11 
  -4   6  -2    0.16    0.12 
  -5   6  -2    9.43    0.52 
  -6   6  -2    5.05    0.38 
  -7   6  -2    0.41    0.23 
  -7   6  -2    0.53    0.18 
  -8   6  -2    1.57    0.40 
  -9   6  -2    0.90    0.41 
 -10  -5   2    0.73    0.39 
  -9  -5   2    0.74    0.30 
  -8  -5   2    1.41    0.36 
  -7  -5   2    8.15    0.68 
  -6  -5   2    2.53    0.45 
  -5  -5   2    6.57    0.61 
  -5  -5   2    6.01    0.39 
  -4  -5   2    0.60    0.22 
  -4  -5   2    0.80    0.18 
   3   5  -2    3.02    0.17 
  -3  -5   2    3.04    0.30 
  -3  -5   2    2.99    0.40 
   2   5  -2    1.09    0.11 
  -2  -5   2    1.28    0.28 
   1   5  -2   20.26    0.59 
  -1  -5   2   20.79    0.92 
   0  -5   2    3.79    0.39 
   1  -5   2    2.60    0.33 
  -2   5  -2    3.25    0.36 
  -3   5  -2   36.60    1.17 
  -4   5  -2    1.48    0.23 
  -5   5  -2    0.32    0.13 
  -6   5  -2    9.17    0.61 
  -6   5  -2    9.17    0.49 
  -7   5  -2    3.71    0.50 
  -7   5  -2    3.76    0.37 
  -8   5  -2    1.07    0.33 
  -9   5  -2    0.06    0.25 
 -10   5  -2    0.47    0.40 
 -10  -4   2    2.54    0.50 
  -9  -4   2    8.69    0.82 
  -8  -4   2    1.83    0.40 
  -7  -4   2    5.65    0.61 
  -6  -4   2   31.98    1.35 
  -6  -4   2   30.68    1.01 
  -5  -4   2    0.19    0.16 
  -5  -4   2    0.28    0.12 
  -4  -4   2   12.18    0.70 
  -4  -4   2   12.83    0.52 
   3   4  -2    0.01    0.05 
  -3  -4   2    0.05    0.13 
  -3  -4   2    0.13    0.09 
   2   4  -2   22.28    0.59 
  -2  -4   2   21.62    0.73 
  -2  -4   2   21.78    0.92 
   1   4  -2   61.14    1.43 
  -1  -4   2   60.46    1.84 
   0  -4   2    2.53    0.30 
   1  -4   2   55.89    1.68 
  -2   4  -2    5.35    0.38 
  -3   4  -2   25.48    0.84 
  -4   4  -2    8.75    0.43 
  -5   4  -2   19.72    0.73 
  -6   4  -2   12.23    0.58 
  -6   4  -2   13.16    0.72 
  -7   4  -2    8.15    0.60 
  -7   4  -2    7.20    0.45 
  -8   4  -2    3.94    0.40 
  -8   4  -2    4.64    0.55 
  -9   4  -2   -0.03    0.22 
 -10   4  -2    6.55    0.73 
 -11  -3   2   -0.03    0.30 
 -10  -3   2    0.73    0.29 
  -9  -3   2    1.99    0.41 
  -8  -3   2    3.04    0.48 
  -7  -3   2    2.45    0.27 
  -7  -3   2    2.56    0.42 
  -6  -3   2    2.81    0.41 
  -6  -3   2    3.06    0.27 
  -5  -3   2   17.32    0.59 
  -5  -3   2   13.46    0.76 
  -4  -3   2    2.27    0.33 
  -4  -3   2    2.65    0.21 
   3   3  -2    1.60    0.12 
  -3  -3   2    1.47    0.26 
  -3  -3   2    1.81    0.16 
   2   3  -2   87.00    1.96 
  -2  -3   2   86.12    2.43 
  -2  -3   2   87.08    2.10 
   1   3  -2   37.55    0.92 
  -1  -3   2   37.47    1.21 
   0  -3   2    0.01    0.09 
   1  -3   2  114.75    2.97 
  -3   3  -2   19.72    0.64 
  -4   3  -2   14.94    0.54 
  -5   3  -2    1.90    0.30 
  -5   3  -2    2.16    0.22 
  -6   3  -2    0.87    0.22 
  -6   3  -2    0.81    0.19 
  -7   3  -2   -0.10    0.11 
  -7   3  -2    0.14    0.16 
  -8   3  -2    2.66    0.42 
  -8   3  -2    2.68    0.36 
  -9   3  -2    0.46    0.25 
 -10   3  -2    0.15    0.27 
 -11   3  -2    0.02    0.35 
 -11  -2   2    0.29    0.31 
 -10  -2   2    0.37    0.27 
  -9  -2   2    1.87    0.38 
  -8  -2   2    0.89    0.23 
  -8  -2   2    0.75    0.24 
  -7  -2   2   43.77    1.29 
  -7  -2   2   42.76    1.60 
  -6  -2   2    4.67    0.47 
  -6  -2   2    4.81    0.31 
  -5  -2   2   71.14    1.78 
  -5  -2   2   68.86    2.13 
  -4  -2   2  322.20    7.33 
  -4  -2   2  331.21    8.08 
   3   2  -2   26.23    0.66 
  -3  -2   2   25.85    0.94 
  -3  -2   2   25.26    0.70 
   2   2  -2  105.97    2.35 
  -2  -2   2  106.24    2.44 
  -2  -2   2  105.19    2.80 
   1   2  -2  438.08    9.53 
  -1  -2   2  455.35   10.69 
   0  -2   2 1000.00   23.53 
   1  -2   2   40.47    1.13 
  -2   2  -2    2.29    0.15 
  -3   2  -2  170.82    4.17 
  -3   2  -2  173.76    4.08 
  -4   2  -2   17.22    0.58 
  -4   2  -2   16.73    0.67 
  -5   2  -2   12.78    0.60 
  -5   2  -2   13.21    0.53 
  -6   2  -2   13.29    0.66 
  -6   2  -2   12.46    0.58 
  -7   2  -2    2.23    0.33 
  -7   2  -2    2.10    0.31 
  -8   2  -2    2.82    0.40 
  -8   2  -2    0.49    0.24 
  -9   2  -2    1.99    0.36 
 -10   2  -2   -0.17    0.20 
 -11   2  -2    1.29    0.41 
 -11  -1   2    0.23    0.27 
 -10  -1   2    1.25    0.35 
  -9  -1   2    0.03    0.18 
  -9  -1   2    0.25    0.17 
  -8  -1   2   13.26    0.80 
  -7  -1   2    0.16    0.11 
  -7  -1   2    0.08    0.14 
  -6  -1   2    2.04    0.34 
  -6  -1   2    2.90    0.26 
  -5  -1   2    0.96    0.15 
  -5  -1   2    0.59    0.19 
  -4  -1   2   78.04    2.23 
  -4  -1   2   78.47    1.90 
  -3  -1   2  153.53    3.93 
  -3  -1   2  155.05    3.51 
   2   1  -2   37.94    0.91 
  -2  -1   2   39.04    0.92 
  -2  -1   2   39.23    1.16 
   1   1  -2    3.20    0.14 
  -1  -1   2    3.10    0.21 
  -1   1  -2  476.58   10.40 
   1  -1   2  459.90   11.08 
  -2   1  -2  180.77    4.30 
  -2   1  -2  180.68    4.15 
  -3   1  -2  148.32    3.62 
  -3   1  -2  150.85    3.54 
  -4   1  -2    6.02    0.30 
  -4   1  -2    5.88    0.35 
  -5   1  -2    4.51    0.31 
  -5   1  -2    4.94    0.34 
  -6   1  -2   11.42    0.59 
  -6   1  -2   11.51    0.57 
  -6   1  -2   14.32    0.65 
  -7   1  -2   22.81    0.93 
  -7   1  -2   23.03    0.93 
  -8   1  -2    1.72    0.32 
  -8   1  -2    2.00    0.34 
  -9   1  -2    0.18    0.19 
 -10   1  -2   -0.05    0.18 
 -11   1  -2    0.06    0.28 
 -11   0   2   -0.01    0.23 
 -10   0   2    4.54    0.59 
  -9   0   2    9.33    0.69 
  -9   0   2    8.78    0.55 
  -8   0   2    0.28    0.16 
  -8   0   2    0.03    0.15 
  -7   0   2    5.62    0.51 
  -7   0   2    5.05    0.36 
  -6   0   2    6.36    0.37 
  -6   0   2    6.00    0.47 
  -4   0   2    0.02    0.06 
  -4   0   2    0.02    0.12 
  -3   0   2   30.76    0.98 
  -3   0   2   30.37    0.81 
   2   0  -2  286.40    6.11 
  -2   0   2  284.03    6.86 
   1   0  -2   57.91    1.31 
  -1   0   2   58.56    1.50 
   0   0  -2   57.52    1.33 
   0   0  -2   56.26    1.29 
   0   0   2   57.40    1.42 
  -1   0  -2  315.63    7.04 
  -2   0  -2    0.77    0.08 
  -2   0  -2    0.81    0.12 
  -3   0  -2  355.55    8.46 
  -3   0  -2  354.77    8.02 
  -4   0  -2   26.27    0.84 
  -4   0  -2   26.62    0.85 
  -5   0  -2   31.40    1.02 
  -5   0  -2   31.72    1.04 
  -6   0  -2   55.28    1.67 
  -6   0  -2   61.12    1.76 
  -7   0  -2   10.38    0.59 
  -7   0  -2    8.86    0.53 
  -8   0  -2   37.18    1.32 
  -8   0  -2   38.28    1.40 
  -9   0  -2    0.03    0.17 
 -10   0  -2    5.05    0.55 
 -11   0  -2    0.41    0.29 
 -11   1   2    0.73    0.30 
 -10   1   2    0.67    0.28 
 -10   1   2    1.00    0.30 
  -9   1   2    0.11    0.16 
  -9   1   2    0.20    0.19 
  -8   1   2   14.29    0.69 
  -7   1   2   -0.14    0.10 
  -7   1   2    0.04    0.13 
  -6   1   2    2.34    0.34 
  -6   1   2    2.57    0.28 
  -5   1   2    0.65    0.18 
  -5   1   2    0.60    0.14 
  -4   1   2   77.21    2.12 
  -3   1   2  152.27    3.79 
  -2   1   2   41.85    1.15 
   1  -1  -2    2.98    0.12 
   1  -1  -2    3.25    0.17 
  -1   1   2    2.98    0.16 
   0  -1  -2  139.05    3.17 
   0   1   2  136.96    3.32 
  -1  -1  -2  422.23    9.98 
  -1  -1  -2  420.99    9.39 
  -2  -1  -2  175.84    4.07 
  -2  -1  -2  177.97    4.29 
  -3  -1  -2  148.25    3.47 
  -3  -1  -2  145.93    3.64 
  -4  -1  -2    5.52    0.32 
  -4  -1  -2    5.75    0.33 
  -5  -1  -2    4.53    0.31 
  -5  -1  -2    4.10    0.32 
  -6  -1  -2   11.07    0.55 
  -6  -1  -2   11.52    0.58 
  -7  -1  -2   20.77    0.84 
  -7  -1  -2   20.39    0.88 
  -8  -1  -2    1.79    0.31 
  -8  -1  -2    2.14    0.33 
  -9  -1  -2   -0.06    0.15 
 -10  -1  -2    0.28    0.26 
 -11  -1  -2    0.10    0.26 
 -11   2   2    0.50    0.32 
 -11   2   2    0.49    0.32 
 -10   2   2    0.58    0.26 
 -10   2   2    0.76    0.24 
  -9   2   2    3.05    0.41 
  -9   2   2    2.44    0.51 
  -9   2   2    2.43    0.40 
  -8   2   2    0.95    0.26 
  -8   2   2    0.81    0.22 
  -7   2   2   44.74    1.43 
  -7   2   2   44.52    1.56 
  -6   2   2    4.62    0.37 
  -6   2   2    4.69    0.36 
  -5   2   2   74.16    2.10 
  -4   2   2  346.08    8.37 
  -3   2   2   25.65    0.82 
  -2   2   2  106.21    2.67 
   1  -2  -2  401.30    9.03 
  -1   2   2  401.54    9.51 
   0  -2  -2  794.51   17.62 
  -1  -2  -2   38.90    0.86 
  -1  -2  -2   38.58    1.09 
  -1  -2  -2   35.96    1.02 
  -2  -2  -2    2.47    0.22 
  -2  -2  -2    2.47    0.19 
  -3  -2  -2  163.13    3.85 
  -3  -2  -2  162.65    4.09 
  -4  -2  -2   16.70    0.68 
  -4  -2  -2   17.33    0.64 
  -5  -2  -2   13.75    0.59 
  -5  -2  -2   12.94    0.62 
  -6  -2  -2   12.79    0.64 
  -6  -2  -2   10.84    0.56 
  -7  -2  -2    2.20    0.34 
  -7  -2  -2    2.34    0.32 
  -8  -2  -2    3.19    0.41 
  -8  -2  -2    3.71    0.42 
  -9  -2  -2    2.26    0.37 
  -9  -2  -2    2.40    0.39 
 -10  -2  -2    0.18    0.23 
 -11  -2  -2    1.19    0.39 
 -11   3   2    0.22    0.34 
 -10   3   2    0.20    0.21 
 -10   3   2    0.46    0.28 
  -9   3   2    2.20    0.41 
  -9   3   2    2.38    0.39 
  -8   3   2    3.33    0.42 
  -8   3   2    3.38    0.44 
  -7   3   2    2.96    0.38 
  -7   3   2    2.79    0.36 
  -6   3   2    2.63    0.32 
  -5   3   2   17.48    0.73 
  -4   3   2    2.36    0.25 
  -3   3   2    1.38    0.18 
  -2   3   2   87.96    2.29 
   1  -3  -2   34.95    1.10 
  -1   3   2   38.20    1.08 
   0  -3  -2    0.19    0.09 
   0  -3  -2    0.06    0.08 
  -1  -3  -2  112.86    2.75 
  -1  -3  -2  109.81    2.91 
  -2  -3  -2    9.87    0.48 
  -2  -3  -2    9.77    0.44 
  -3  -3  -2   21.49    0.82 
  -3  -3  -2   20.42    0.74 
  -4  -3  -2   14.25    0.60 
  -4  -3  -2   14.42    0.66 
  -5  -3  -2    1.96    0.29 
  -5  -3  -2    2.15    0.28 
  -6  -3  -2    0.92    0.23 
  -6  -3  -2    0.96    0.21 
  -7  -3  -2    0.38    0.18 
  -7  -3  -2    0.07    0.14 
  -8  -3  -2    2.41    0.36 
  -8  -3  -2    2.06    0.36 
  -9  -3  -2    1.01    0.29 
  -9  -3  -2    1.03    0.30 
 -10  -3  -2    0.14    0.26 
 -10   4   2    3.42    0.55 
 -10   4   2    2.08    0.43 
  -9   4   2   10.08    0.70 
  -9   4   2    8.71    0.66 
  -8   4   2    1.76    0.35 
  -8   4   2    1.91    0.34 
  -7   4   2    4.93    0.45 
  -6   4   2   32.05    1.16 
  -5   4   2    0.12    0.10 
  -4   4   2   11.83    0.54 
  -3   4   2    0.00    0.10 
  -2   4   2   21.78    0.77 
   1  -4  -2   62.24    1.76 
  -1   4   2   60.75    1.72 
   0  -4  -2    2.50    0.29 
   0  -4  -2    2.10    0.27 
  -1  -4  -2   52.51    1.52 
  -1  -4  -2   51.96    1.61 
  -2  -4  -2    2.84    0.32 
  -2  -4  -2    2.70    0.29 
  -3  -4  -2   25.39    0.90 
  -3  -4  -2   24.79    0.98 
  -4  -4  -2    8.98    0.55 
  -4  -4  -2    8.70    0.49 
  -5  -4  -2   19.88    0.91 
  -5  -4  -2   19.59    0.81 
  -6  -4  -2   12.27    0.70 
  -6  -4  -2   12.56    0.65 
  -7  -4  -2    6.79    0.50 
  -7  -4  -2    6.94    0.54 
  -8  -4  -2    4.97    0.55 
  -8  -4  -2    4.29    0.48 
  -9  -4  -2   -0.07    0.23 
  -9  -4  -2    0.25    0.20 
 -10   5   2    1.46    0.42 
 -10   5   2    1.05    0.36 
  -9   5   2    1.28    0.31 
  -9   5   2    0.54    0.30 
  -8   5   2    1.29    0.29 
  -7   5   2    7.63    0.53 
  -6   5   2    3.00    0.36 
  -5   5   2    5.74    0.40 
  -4   5   2    0.56    0.16 
  -3   5   2    2.72    0.29 
  -2   5   2    1.20    0.20 
  -1   5   2   20.50    0.81 
   0  -5  -2    3.86    0.38 
   0  -5  -2    3.65    0.38 
  -1  -5  -2    2.94    0.36 
  -1  -5  -2    3.41    0.36 
  -2  -5  -2    2.18    0.33 
  -2  -5  -2    2.65    0.33 
  -3  -5  -2   33.05    1.28 
  -3  -5  -2   35.98    1.21 
  -4  -5  -2    1.65    0.28 
  -4  -5  -2    1.59    0.30 
  -5  -5  -2    0.34    0.17 
  -5  -5  -2    0.09    0.15 
  -6  -5  -2    8.12    0.61 
  -6  -5  -2    8.24    0.55 
  -7  -5  -2    3.49    0.48 
  -7  -5  -2    4.37    0.48 
  -8  -5  -2    0.65    0.28 
  -8  -5  -2    0.76    0.28 
  -9  -5  -2   -0.08    0.23 
  -9   6   2    2.38    0.49 
  -9   6   2    2.58    0.44 
  -8   6   2    0.44    0.22 
  -7   6   2    6.46    0.50 
  -6   6   2    0.46    0.16 
  -5   6   2    0.60    0.18 
  -4   6   2   14.35    0.70 
  -3   6   2   19.89    0.82 
  -2   6   2   55.65    1.72 
  -1   6   2    0.57    0.19 
   0  -6  -2   12.03    0.68 
   0  -6  -2   12.31    0.69 
  -1  -6  -2   26.51    1.14 
  -1  -6  -2   27.74    1.10 
  -2  -6  -2    1.81    0.32 
  -2  -6  -2    1.55    0.30 
  -3  -6  -2   32.69    1.31 
  -3  -6  -2   31.45    1.20 
  -4  -6  -2    0.21    0.18 
  -4  -6  -2    0.09    0.15 
  -5  -6  -2   10.08    0.69 
  -5  -6  -2   10.27    0.64 
  -6  -6  -2    4.50    0.55 
  -6  -6  -2    5.32    0.53 
  -7  -6  -2    0.40    0.24 
  -7  -6  -2    0.39    0.25 
  -8  -6  -2    1.53    0.38 
  -8  -6  -2    1.70    0.41 
  -9  -6  -2    0.68    0.33 
  -8   7   2    0.18    0.23 
  -7   7   2    2.67    0.39 
  -6   7   2    0.24    0.16 
  -5   7   2    0.18    0.15 
  -4   7   2    0.32    0.17 
  -3   7   2    0.39    0.17 
  -2   7   2    2.32    0.33 
  -1   7   2    3.09    0.36 
   0   7   2    0.56    0.38 
  -1  -7  -2    1.51    0.33 
  -1  -7  -2    1.05    0.27 
  -2  -7  -2    2.72    0.42 
  -2  -7  -2    2.67    0.42 
  -3  -7  -2    0.00    0.15 
  -3  -7  -2   -0.15    0.18 
  -4  -7  -2    1.56    0.34 
  -4  -7  -2    1.29    0.31 
  -5  -7  -2    5.78    0.62 
  -5  -7  -2    4.69    0.54 
  -6  -7  -2    3.98    0.55 
  -6  -7  -2    4.35    0.54 
  -7  -7  -2    0.39    0.22 
  -7  -7  -2    0.34    0.31 
  -8  -7  -2    0.46    0.30 
  -7   8   2    4.49    0.55 
  -6   8   2    0.20    0.19 
  -5   8   2    2.59    0.39 
  -4   8   2    1.69    0.31 
  -3   8   2    3.45    0.42 
  -2   8   2   18.44    0.88 
  -1   8   2    0.32    0.13 
   0   8   2    2.45    0.53 
  -1  -8  -2   -0.06    0.16 
  -2  -8  -2    0.33    0.18 
  -2  -8  -2    0.06    0.23 
  -3  -8  -2    2.82    0.47 
  -3  -8  -2    2.02    0.40 
  -4  -8  -2    0.76    0.33 
  -4  -8  -2    0.71    0.27 
  -5  -8  -2    8.83    0.76 
  -5  -8  -2    8.35    0.70 
  -6  -8  -2   -0.28    0.30 
  -6  -8  -2    0.07    0.21 
  -7  -8  -2   -0.05    0.26 
  -6   9   2    0.18    0.31 
  -5   9   2    0.36    0.25 
  -4   9   2    0.59    0.25 
  -3   9   2    0.52    0.21 
  -2   9   2    0.20    0.17 
  -1   9   2    0.44    0.21 
   0   9   2   -0.14    0.49 
   1   9   2   -0.04    0.50 
   1   9   2   -0.08    0.51 
  -2  -9  -2   -0.09    0.17 
  -3  -9  -2    1.05    0.34 
  -3  -9  -2    0.66    0.37 
  -4  -9  -2    0.71    0.31 
  -4  -9  -2    0.26    0.33 
  -5  -9  -2    1.00    0.37 
  -5  -9  -2    0.80    0.44 
  -6  -9  -2    0.64    0.43 
  -3  10   2    0.28    0.32 
  -2  10   2    2.93    0.50 
  -1  10   2    0.27    0.26 
   0  10   2    1.15    0.40 
   1  10   2   18.75    1.31 
   2  10   2   -0.04    0.47 
  -3 -10  -2    0.10    0.38 
  -3 -10   3    0.06    0.43 
  -2 -10   3   -0.04    0.44 
  -1 -10   3    0.16    0.42 
   0 -10   3    0.16    0.41 
  -1  10  -3   -0.68    0.52 
  -2  10  -3    0.46    0.26 
  -3  10  -3    0.96    0.33 
  -6  -9   3   -0.05    0.44 
  -5  -9   3    3.14    0.66 
  -4  -9   3    2.09    0.57 
  -3  -9   3    0.82    0.43 
  -2  -9   3    3.89    0.65 
  -1  -9   3    4.31    0.66 
   0  -9   3    0.17    0.30 
  -1   9  -3   -0.08    0.41 
  -1   9  -3    0.00    0.41 
  -2   9  -3    3.77    0.47 
  -3   9  -3    0.03    0.16 
  -4   9  -3    0.50    0.21 
  -5   9  -3    1.68    0.35 
  -7  -8   3    0.05    0.38 
  -6  -8   3    0.97    0.40 
  -5  -8   3    0.72    0.34 
  -4  -8   3    2.02    0.50 
  -3  -8   3    0.18    0.30 
  -2  -8   3   -0.03    0.24 
  -1  -8   3    3.41    0.54 
   0  -8   3    0.74    0.33 
   1  -8   3    1.04    0.35 
  -2   8  -3    4.62    0.55 
  -3   8  -3    1.30    0.26 
  -4   8  -3    0.24    0.16 
  -5   8  -3    0.51    0.20 
  -6   8  -3    1.67    0.30 
  -7   8  -3   -0.08    0.26 
  -8  -7   3    2.35    0.59 
  -7  -7   3    5.53    0.74 
  -6  -7   3    2.64    0.52 
  -5  -7   3    3.36    0.54 
  -4  -7   3    0.33    0.22 
  -3  -7   3    7.03    0.69 
  -2  -7   3    3.64    0.53 
  -1  -7   3   25.60    1.20 
   0  -7   3   15.29    0.87 
   1  -7   3    9.64    0.68 
  -3   7  -3    6.28    0.44 
  -4   7  -3    8.06    0.50 
  -5   7  -3    4.75    0.39 
  -6   7  -3    4.75    0.39 
  -7   7  -3    0.65    0.24 
  -8   7  -3    0.02    0.25 
  -9  -6   3    0.38    0.33 
  -8  -6   3    0.37    0.27 
  -7  -6   3    0.75    0.28 
  -6  -6   3    0.52    0.24 
  -5  -6   3    2.83    0.49 
  -4  -6   3    1.19    0.31 
  -3  -6   3    1.73    0.36 
   2   6  -3    6.19    0.29 
  -2  -6   3    5.71    0.57 
   1   6  -3    0.01    0.08 
  -1  -6   3    0.06    0.16 
   0   6  -3   15.30    0.55 
   0  -6   3   15.49    0.81 
   1  -6   3    0.09    0.17 
  -2   6  -3    1.08    0.30 
  -2   6  -3    1.01    0.31 
  -3   6  -3    4.83    0.35 
  -4   6  -3    0.36    0.14 
  -5   6  -3    0.97    0.21 
  -6   6  -3    0.60    0.21 
  -6   6  -3    0.75    0.19 
  -7   6  -3    0.26    0.19 
  -8   6  -3    0.29    0.26 
  -9   6  -3    0.26    0.34 
 -10  -5   3    2.11    0.54 
  -9  -5   3    0.35    0.26 
  -8  -5   3    8.60    0.81 
  -7  -5   3    0.81    0.27 
  -6  -5   3   -0.12    0.15 
  -5  -5   3   25.47    1.21 
   4   5  -3    0.10    0.08 
  -4  -5   3    0.20    0.16 
  -4  -5   3    0.26    0.13 
   3   5  -3   41.67    1.05 
  -3  -5   3   41.19    1.23 
  -3  -5   3   41.80    1.56 
   2   5  -3    4.10    0.22 
  -2  -5   3    4.48    0.46 
   1   5  -3   29.43    0.83 
  -1  -5   3   30.73    1.18 
   0   5  -3   11.97    0.44 
   0  -5   3   10.74    0.62 
   1  -5   3   10.15    0.58 
  -3   5  -3    0.21    0.11 
  -4   5  -3   33.84    1.09 
  -5   5  -3    2.73    0.27 
  -6   5  -3    2.22    0.37 
  -6   5  -3    2.80    0.28 
  -7   5  -3    7.08    0.64 
  -7   5  -3    6.95    0.45 
  -8   5  -3    4.77    0.60 
  -9   5  -3    0.42    0.33 
 -10   5  -3    2.90    0.59 
 -10  -4   3   -0.25    0.22 
  -9  -4   3    0.17    0.20 
  -8  -4   3    1.65    0.38 
  -7  -4   3    3.15    0.49 
  -6  -4   3    4.21    0.52 
  -5  -4   3    3.23    0.44 
  -5  -4   3    3.16    0.25 
   4   4  -3    2.39    0.16 
  -4  -4   3    2.14    0.35 
  -4  -4   3    2.43    0.22 
   3   4  -3    0.94    0.12 
  -3  -4   3    0.98    0.25 
  -3  -4   3    0.99    0.16 
   2   4  -3    9.43    0.35 
  -2  -4   3   10.27    0.59 
   1   4  -3   22.97    0.66 
  -1  -4   3   23.58    0.94 
   0  -4   3   26.25    0.98 
   1  -4   3   39.49    1.29 
  -3   4  -3    0.08    0.09 
  -4   4  -3    9.21    0.43 
  -5   4  -3    4.83    0.46 
  -5   4  -3    5.30    0.33 
  -6   4  -3    0.13    0.14 
  -6   4  -3    0.21    0.13 
  -7   4  -3    5.00    0.54 
  -7   4  -3    5.01    0.36 
  -8   4  -3    2.56    0.43 
  -9   4  -3   -0.26    0.23 
 -10   4  -3    0.63    0.37 
 -11  -3   3    2.30    0.56 
 -10  -3   3    4.60    0.65 
  -9  -3   3    1.43    0.38 
  -8  -3   3   18.73    1.05 
  -7  -3   3   13.09    0.83 
  -6  -3   3   59.41    2.03 
  -6  -3   3   57.48    1.54 
  -5  -3   3    1.67    0.18 
  -5  -3   3    0.69    0.19 
   4   3  -3   28.03    0.74 
  -4  -3   3   27.30    1.11 
  -4  -3   3   27.06    0.78 
   3   3  -3  100.30    2.30 
  -3  -3   3  102.13    2.40 
  -3  -3   3  102.12    2.86 
   2   3  -3   11.32    0.38 
  -2  -3   3   10.89    0.39 
  -2  -3   3   11.13    0.58 
   1   3  -3   16.16    0.50 
  -1  -3   3   16.53    0.69 
   0  -3   3   90.29    2.43 
   1  -3   3   23.00    0.80 
  -2   3  -3  134.29    3.34 
  -2   3  -3  134.12    3.34 
  -3   3  -3   44.11    1.21 
  -4   3  -3    0.06    0.08 
  -4   3  -3    0.06    0.10 
  -5   3  -3   29.80    0.92 
  -5   3  -3   27.72    1.05 
  -6   3  -3    6.17    0.46 
  -6   3  -3    5.89    0.37 
  -7   3  -3   11.63    0.70 
  -7   3  -3   11.75    0.60 
  -8   3  -3    0.05    0.17 
  -9   3  -3    1.30    0.34 
 -10   3  -3    0.81    0.36 
 -11   3  -3   -0.15    0.33 
 -11  -2   3   -0.16    0.28 
 -10  -2   3    0.40    0.27 
  -9  -2   3    0.08    0.23 
  -8  -2   3    0.09    0.17 
  -7  -2   3    2.06    0.37 
  -7  -2   3    2.37    0.25 
  -6  -2   3   22.23    1.03 
  -6  -2   3   23.27    0.74 
  -5  -2   3   18.93    0.89 
  -5  -2   3   18.96    0.60 
  -4  -2   3    0.99    0.11 
  -4  -2   3    0.97    0.23 
   3   2  -3    0.92    0.11 
  -3  -2   3    0.83    0.20 
  -3  -2   3    1.00    0.09 
   2   2  -3   14.04    0.43 
  -2  -2   3   13.88    0.38 
  -2  -2   3   13.27    0.60 
   1   2  -3  305.07    6.64 
  -1  -2   3  310.70    7.47 
   0  -2   3  462.04   11.00 
   1  -2   3    1.16    0.14 
  -2   2  -3   21.71    0.71 
  -2   2  -3   22.03    0.64 
  -3   2  -3    2.84    0.17 
  -3   2  -3    3.01    0.27 
  -4   2  -3    3.69    0.32 
  -4   2  -3    3.61    0.22 
  -5   2  -3   26.85    0.98 
  -5   2  -3   26.20    0.84 
  -6   2  -3    1.27    0.22 
  -6   2  -3    0.96    0.22 
  -7   2  -3    7.03    0.51 
  -7   2  -3    6.50    0.46 
  -8   2  -3   12.00    0.72 
  -9   2  -3    0.71    0.27 
 -10   2  -3    0.03    0.25 
 -11   2  -3    0.11    0.29 
 -11  -1   3    1.13    0.41 
 -10  -1   3   11.45    0.86 
  -9  -1   3    0.61    0.27 
  -8  -1   3    0.85    0.19 
  -8  -1   3    0.52    0.22 
  -7  -1   3   32.64    1.03 
  -7  -1   3   32.14    1.33 
  -6  -1   3   46.35    1.62 
  -6  -1   3   46.55    1.29 
  -5  -1   3   38.63    1.39 
  -5  -1   3   40.53    1.08 
  -4  -1   3   13.03    0.64 
  -4  -1   3   12.92    0.42 
   3   1  -3  305.82    6.66 
  -3  -1   3  312.67    6.88 
  -3  -1   3  307.77    7.57 
   2   1  -3   39.06    0.96 
  -2  -1   3   38.58    1.18 
   1   1  -3   10.80    0.35 
  -1  -1   3   11.13    0.45 
   0   1  -3  316.54    6.82 
   0   1  -3  294.02    6.57 
  -1   1  -3  394.01    8.78 
   1  -1   3  393.37    9.34 
  -2   1  -3  236.35    5.38 
  -2   1  -3  235.11    5.59 
  -3   1  -3    3.01    0.23 
  -3   1  -3    2.51    0.15 
  -4   1  -3   39.29    1.18 
  -4   1  -3   39.90    1.11 
  -5   1  -3   32.25    1.01 
  -5   1  -3   32.36    1.08 
  -6   1  -3    7.91    0.49 
  -7   1  -3   13.00    0.68 
  -7   1  -3   13.57    0.66 
  -8   1  -3    0.64    0.23 
  -9   1  -3    5.66    0.55 
 -10   1  -3    2.99    0.47 
 -11   1  -3    0.12    0.29 
 -11   0   3   -0.14    0.23 
 -10   0   3   -0.24    0.20 
  -9   0   3    0.14    0.20 
  -8   0   3    0.00    0.15 
  -8   0   3   -0.03    0.11 
  -7   0   3   -0.10    0.09 
  -7   0   3    0.06    0.14 
  -6   0   3    0.21    0.13 
  -6   0   3   -0.03    0.09 
  -5   0   3   -0.06    0.08 
  -5   0   3   -0.34    0.19 
  -4   0   3    0.00    0.07 
  -4   0   3   -0.05    0.11 
  -3   0   3   -0.11    0.09 
   2   0  -3    0.01    0.04 
  -2   0   3   -0.01    0.07 
   1   0  -3    0.01    0.04 
   1   0  -3    0.04    0.04 
  -1   0   3    0.00    0.06 
   0   0  -3   -0.07    0.03 
   0   0  -3   -0.06    0.03 
   0   0   3   -0.03    0.04 
  -1   0  -3   -0.06    0.04 
  -2   0  -3   -0.11    0.05 
  -3   0  -3   -0.02    0.06 
  -3   0  -3    0.02    0.08 
  -4   0  -3    0.00    0.08 
  -4   0  -3    0.08    0.08 
  -5   0  -3    0.00    0.08 
  -5   0  -3   -0.03    0.10 
  -6   0  -3   -0.03    0.10 
  -6   0  -3   -0.03    0.12 
  -7   0  -3   -0.12    0.15 
  -7   0  -3   -0.06    0.11 
  -8   0  -3    0.18    0.15 
  -9   0  -3    0.08    0.18 
 -10   0  -3    0.04    0.21 
 -11   0  -3   -0.16    0.27 
 -11   1   3    1.09    0.35 
 -10   1   3   11.48    0.83 
  -9   1   3    1.21    0.28 
  -9   1   3    1.16    0.31 
  -8   1   3    0.50    0.19 
  -6   1   3   44.92    1.54 
  -6   1   3   44.25    1.32 
  -5   1   3   39.55    1.34 
  -4   1   3   12.19    0.56 
  -3   1   3  304.44    7.37 
   2  -1  -3   37.44    0.91 
  -2   1   3   37.62    1.07 
   1  -1  -3   10.27    0.37 
   1  -1  -3    9.91    0.31 
  -1   1   3   10.20    0.37 
   0  -1  -3  202.01    4.36 
   0   1   3  201.23    4.81 
  -2  -1  -3  224.08    5.38 
  -2  -1  -3  224.74    5.14 
  -3  -1  -3    2.60    0.20 
  -3  -1  -3    2.60    0.23 
  -4  -1  -3   39.26    1.15 
  -4  -1  -3   39.46    1.17 
  -5  -1  -3   29.26    0.98 
  -5  -1  -3   29.72    0.99 
  -6  -1  -3    8.19    0.48 
  -6  -1  -3    7.46    0.45 
  -7  -1  -3   12.99    0.67 
  -7  -1  -3   12.12    0.63 
  -8  -1  -3    0.52    0.20 
  -8  -1  -3    0.71    0.26 
  -9  -1  -3    6.05    0.55 
 -10  -1  -3    2.39    0.42 
 -11  -1  -3    0.39    0.31 
 -11   2   3    0.34    0.28 
 -10   2   3    0.41    0.38 
 -10   2   3    0.88    0.30 
  -9   2   3    0.38    0.20 
  -9   2   3   -0.41    0.22 
  -8   2   3    0.01    0.16 
  -8   2   3    0.11    0.15 
  -7   2   3    2.18    0.36 
  -7   2   3    2.10    0.30 
  -6   2   3   23.38    0.96 
  -5   2   3   18.21    0.77 
  -4   2   3    1.07    0.19 
  -3   2   3    0.84    0.16 
  -2   2   3   14.21    0.52 
   1  -2  -3  297.63    6.79 
  -1   2   3  298.93    7.13 
   0  -2  -3  420.89    8.91 
   0  -2  -3  414.10    9.40 
   0   2   3  418.76    9.90 
  -1  -2  -3    1.15    0.08 
  -1  -2  -3    1.01    0.15 
  -1  -2  -3    1.25    0.15 
  -2  -2  -3   21.90    0.73 
  -2  -2  -3   22.85    0.74 
  -3  -2  -3    2.76    0.24 
  -3  -2  -3    2.72    0.25 
  -4  -2  -3    3.61    0.28 
  -4  -2  -3    3.05    0.27 
  -5  -2  -3   24.80    0.89 
  -5  -2  -3   24.27    0.90 
  -6  -2  -3    1.26    0.25 
  -6  -2  -3    1.41    0.26 
  -7  -2  -3    6.76    0.47 
  -7  -2  -3    6.10    0.49 
  -8  -2  -3   10.31    0.63 
  -8  -2  -3    9.81    0.62 
  -9  -2  -3    0.65    0.25 
 -10  -2  -3   -0.11    0.22 
 -11  -2  -3    0.05    0.30 
 -11   3   3    2.94    0.89 
 -10   3   3    4.10    0.53 
  -9   3   3    1.61    0.33 
  -9   3   3    1.27    0.33 
  -8   3   3   20.77    0.92 
  -8   3   3   19.03    0.98 
  -7   3   3   13.09    0.72 
  -6   3   3   62.56    1.93 
  -5   3   3    1.26    0.22 
  -4   3   3   29.85    1.01 
  -3   3   3  102.28    2.67 
  -2   3   3   11.94    0.50 
   1  -3  -3   17.39    0.66 
  -1   3   3   16.99    0.61 
   0  -3  -3   89.95    2.31 
  -1  -3  -3   21.89    0.77 
  -1  -3  -3   22.64    0.51 
  -1  -3  -3   22.37    0.80 
  -2  -3  -3   56.84    1.62 
  -2  -3  -3   61.68    1.33 
  -2  -3  -3   59.29    1.70 
  -3  -3  -3   45.00    1.40 
  -3  -3  -3   46.14    1.36 
  -4  -3  -3    0.00    0.12 
  -4  -3  -3   -0.05    0.08 
  -5  -3  -3   28.74    1.04 
  -5  -3  -3   25.15    0.96 
  -6  -3  -3    5.12    0.40 
  -6  -3  -3    5.02    0.45 
  -7  -3  -3   10.86    0.63 
  -7  -3  -3   11.58    0.66 
  -8  -3  -3   -0.06    0.15 
  -8  -3  -3   -0.17    0.15 
  -9  -3  -3    1.51    0.35 
 -10  -3  -3    0.32    0.28 
 -11  -3  -3    0.09    0.34 
 -10   4   3    0.09    0.25 
 -10   4   3    0.06    0.26 
  -9   4   3    0.01    0.18 
  -9   4   3    0.17    0.21 
  -8   4   3    1.85    0.34 
  -8   4   3    1.89    0.35 
  -7   4   3    3.44    0.41 
  -6   4   3    4.75    0.40 
  -5   4   3    2.67    0.31 
  -4   4   3    2.42    0.27 
  -3   4   3    1.02    0.19 
  -2   4   3    9.94    0.47 
   1  -4  -3   22.89    0.88 
  -1   4   3   22.91    0.81 
   0  -4  -3   24.92    0.91 
  -1  -4  -3   39.64    1.27 
  -1  -4  -3   41.25    1.33 
  -2  -4  -3   30.40    1.09 
  -2  -4  -3   29.92    1.03 
  -3  -4  -3    0.01    0.11 
  -3  -4  -3   -0.08    0.09 
  -4  -4  -3    8.43    0.53 
  -4  -4  -3    8.44    0.50 
  -5  -4  -3    4.84    0.43 
  -5  -4  -3    5.31    0.44 
  -6  -4  -3    0.38    0.19 
  -6  -4  -3   -0.01    0.13 
  -7  -4  -3    5.21    0.50 
  -7  -4  -3    4.51    0.48 
  -8  -4  -3    2.79    0.42 
  -8  -4  -3    2.69    0.41 
  -9  -4  -3   -0.10    0.20 
 -10  -4  -3    0.06    0.31 
 -10   5   3    2.38    0.50 
 -10   5   3    2.25    0.50 
  -9   5   3   -0.07    0.24 
  -9   5   3    0.18    0.19 
  -8   5   3    8.59    0.61 
  -7   5   3    0.96    0.24 
  -6   5   3   -0.09    0.12 
  -5   5   3   26.79    1.02 
  -4   5   3    0.10    0.11 
  -3   5   3   39.56    1.29 
  -2   5   3    4.46    0.33 
   1  -5  -3   25.24    1.01 
  -1   5   3   25.36    0.92 
   0  -5  -3   11.75    0.63 
  -1  -5  -3   10.37    0.59 
  -1  -5  -3   11.30    0.63 
  -2  -5  -3    9.71    0.58 
  -2  -5  -3    8.89    0.54 
  -3  -5  -3    0.09    0.14 
  -3  -5  -3    0.07    0.12 
  -4  -5  -3   35.04    1.34 
  -4  -5  -3   36.35    1.27 
  -5  -5  -3    2.20    0.33 
  -5  -5  -3    2.45    0.37 
  -6  -5  -3    2.26    0.36 
  -6  -5  -3    2.82    0.41 
  -7  -5  -3    7.65    0.58 
  -7  -5  -3    6.49    0.60 
  -8  -5  -3    3.60    0.50 
  -8  -5  -3    3.62    0.49 
  -9  -5  -3    0.88    0.33 
  -9   6   3    0.47    0.28 
  -9   6   3    0.48    0.34 
  -8   6   3    0.18    0.19 
  -7   6   3    0.72    0.22 
  -6   6   3    0.38    0.19 
  -5   6   3    2.38    0.32 
  -4   6   3    1.15    0.23 
  -3   6   3    1.92    0.29 
  -2   6   3    4.54    0.38 
  -1   6   3   -0.06    0.14 
   0  -6  -3   15.23    0.80 
  -1  -6  -3    0.17    0.13 
  -1  -6  -3    0.21    0.17 
  -2  -6  -3    0.87    0.24 
  -2  -6  -3    0.72    0.23 
  -3  -6  -3    4.66    0.48 
  -3  -6  -3    4.19    0.47 
  -4  -6  -3    0.20    0.17 
  -4  -6  -3    0.26    0.19 
  -5  -6  -3    0.76    0.26 
  -5  -6  -3    0.79    0.26 
  -6  -6  -3    0.99    0.29 
  -6  -6  -3    0.59    0.25 
  -7  -6  -3    0.27    0.22 
  -7  -6  -3    0.39    0.26 
  -8  -6  -3    0.46    0.28 
  -8  -6  -3    0.28    0.23 
  -8   7   3    2.38    0.45 
  -7   7   3    4.07    0.49 
  -6   7   3    2.79    0.38 
  -5   7   3    3.07    0.38 
  -4   7   3    0.50    0.18 
  -3   7   3    6.60    0.48 
  -2   7   3    3.66    0.40 
  -1   7   3   29.34    1.15 
   0  -7  -3   15.55    0.88 
  -1  -7  -3    9.10    0.66 
  -1  -7  -3    9.90    0.67 
  -2  -7  -3    8.55    0.64 
  -2  -7  -3    7.96    0.62 
  -3  -7  -3    6.02    0.60 
  -3  -7  -3    6.70    0.61 
  -4  -7  -3    8.38    0.63 
  -4  -7  -3    8.06    0.64 
  -5  -7  -3    3.87    0.52 
  -5  -7  -3    4.49    0.55 
  -6  -7  -3    4.56    0.57 
  -6  -7  -3    3.57    0.52 
  -7  -7  -3    0.78    0.30 
  -7  -7  -3    1.03    0.36 
  -8  -7  -3    0.09    0.26 
  -7   8   3    0.54    0.30 
  -6   8   3    1.09    0.29 
  -5   8   3    0.80    0.23 
  -4   8   3    2.21    0.36 
  -3   8   3    0.19    0.16 
  -2   8   3    0.12    0.14 
  -1   8   3    2.98    0.42 
  -1  -8  -3    1.37    0.37 
   1   8   3    1.69    0.54 
  -2  -8  -3    2.24    0.44 
  -2  -8  -3    2.49    0.44 
  -3  -8  -3    1.31    0.34 
  -3  -8  -3    1.04    0.34 
  -4  -8  -3    0.12    0.25 
  -4  -8  -3    0.20    0.21 
  -5  -8  -3    0.37    0.30 
  -5  -8  -3    0.31    0.25 
  -6  -8  -3    2.22    0.48 
  -6  -8  -3    1.43    0.38 
  -7  -8  -3    0.26    0.28 
  -7  -8  -3    0.09    0.42 
  -5   9   3    3.38    0.49 
  -4   9   3    2.25    0.40 
  -3   9   3    1.07    0.28 
  -2   9   3    3.26    0.44 
  -1   9   3    4.80    0.55 
   0   9   3    0.50    0.27 
   1   9   3    0.07    0.53 
  -2  -9  -3    2.93    0.48 
  -2  -9  -3    3.94    0.63 
  -3  -9  -3    0.23    0.32 
  -3  -9  -3    0.07    0.20 
  -4  -9  -3    0.34    0.27 
  -4  -9  -3    0.37    0.36 
  -5  -9  -3    0.82    0.37 
  -5  -9  -3    1.40    0.48 
  -3  10   3    0.21    0.32 
  -2  10   3    0.06    0.27 
  -1  10   3   -0.17    0.32 
   0  10   3   -0.05    0.33 
   2  10   3   -1.19    0.59 
  -3 -10  -3    0.16    0.38 
  -3 -10  -3    0.39    0.47 
  -3 -10   4    0.86    0.53 
  -2 -10   4    1.21    0.55 
  -1 -10   4    1.27    0.54 
   0 -10   4    0.03    0.39 
  -1  10  -4    2.13    0.68 
  -2  10  -4    1.55    0.32 
  -5  -9   4    0.63    0.52 
  -4  -9   4    0.20    0.41 
  -3  -9   4    0.09    0.36 
  -2  -9   4    0.20    0.36 
  -1  -9   4    0.29    0.35 
   0  -9   4    0.22    0.33 
   1  -9   4    1.99    0.49 
  -2   9  -4   11.67    0.89 
  -3   9  -4    0.26    0.18 
  -4   9  -4    0.25    0.18 
  -7  -8   4    0.91    0.52 
  -6  -8   4    1.44    0.42 
  -5  -8   4    0.16    0.34 
  -4  -8   4    8.79    0.87 
  -3  -8   4    0.29    0.33 
  -2  -8   4    0.85    0.36 
  -1  -8   4    6.29    0.68 
   0  -8   4    0.96    0.35 
   1  -8   4   16.99    0.99 
  -2   8  -4    0.27    0.39 
  -3   8  -4    0.37    0.18 
  -4   8  -4    3.06    0.39 
  -5   8  -4   -0.20    0.15 
  -6   8  -4    4.80    0.59 
  -7   8  -4   -0.10    0.28 
  -8  -7   4    0.27    0.42 
  -7  -7   4    4.60    0.71 
  -6  -7   4    0.67    0.31 
  -5  -7   4    4.38    0.62 
  -4  -7   4    2.27    0.48 
  -3  -7   4   -0.28    0.18 
  -2  -7   4    5.37    0.61 
  -1  -7   4    1.22    0.32 
   0   7  -4    5.14    0.34 
   0  -7   4    4.91    0.55 
   1  -7   4    0.23    0.23 
  -2   7  -4   -0.49    0.26 
  -2   7  -4   -0.45    0.26 
  -3   7  -4   11.27    0.60 
  -4   7  -4    2.72    0.34 
  -5   7  -4    0.16    0.16 
  -6   7  -4    0.07    0.16 
  -7   7  -4    0.91    0.28 
  -8   7  -4    0.21    0.30 
  -9  -6   4    3.90    0.74 
  -8  -6   4    1.49    0.41 
  -7  -6   4    0.71    0.30 
  -6  -6   4    4.88    0.63 
  -5  -6   4    1.06    0.32 
  -4  -6   4    0.22    0.23 
   3   6  -4   15.42    0.52 
  -3  -6   4   14.90    0.90 
   2   6  -4   15.65    0.54 
  -2  -6   4   15.71    0.88 
   1   6  -4    3.37    0.26 
  -1  -6   4    2.93    0.42 
   0   6  -4    2.67    0.25 
   0  -6   4    2.80    0.39 
   1  -6   4    6.59    0.52 
   2  -6   4   13.09    0.73 
  -3   6  -4    3.87    0.30 
  -4   6  -4   17.93    0.73 
  -5   6  -4    6.33    0.58 
  -5   6  -4    6.42    0.41 
  -6   6  -4    4.76    0.54 
  -7   6  -4    0.20    0.17 
  -8   6  -4    1.75    0.38 
  -9   6  -4    1.22    0.44 
 -10  -5   4    0.38    0.44 
  -9  -5   4    0.02    0.25 
  -8  -5   4   -0.21    0.17 
  -7  -5   4    1.25    0.35 
  -6  -5   4   -0.03    0.16 
  -5  -5   4   10.07    0.72 
   4   5  -4    0.56    0.12 
  -4  -5   4    0.60    0.25 
   3   5  -4    0.33    0.10 
  -3  -5   4    0.74    0.25 
   2   5  -4    0.49    0.12 
  -2  -5   4    0.69    0.23 
   1   5  -4    4.07    0.25 
  -1  -5   4    3.46    0.41 
   0   5  -4    0.25    0.11 
   0  -5   4    0.02    0.15 
   1  -5   4    0.03    0.14 
   2  -5   4    5.06    0.41 
  -3   5  -4    1.33    0.20 
  -4   5  -4    2.17    0.25 
  -5   5  -4    8.32    0.57 
  -5   5  -4    8.66    0.46 
  -6   5  -4   11.10    0.53 
  -6   5  -4   11.13    0.70 
  -7   5  -4    0.58    0.22 
  -8   5  -4    0.33    0.23 
  -9   5  -4    0.22    0.30 
 -10  -4   4   -0.01    0.27 
  -9  -4   4    3.87    0.61 
  -8  -4   4    3.11    0.51 
  -7  -4   4   36.03    1.56 
  -6  -4   4   22.11    1.11 
  -5  -4   4    1.32    0.31 
   4   4  -4   53.89    1.34 
  -4  -4   4   53.78    1.87 
  -4  -4   4   53.44    1.39 
   3   4  -4    1.65    0.16 
  -3  -4   4    1.48    0.31 
   2   4  -4   78.99    1.89 
  -2  -4   4   80.33    2.39 
   1   4  -4   62.77    1.57 
  -1  -4   4   64.71    1.96 
   0   4  -4  159.81    3.61 
   0  -4   4  157.83    4.14 
   1  -4   4   34.71    1.17 
   2  -4   4   20.35    0.79 
  -3   4  -4    4.36    0.28 
  -4   4  -4   16.30    0.75 
  -4   4  -4   17.95    0.64 
  -5   4  -4    3.79    0.28 
  -5   4  -4    3.24    0.39 
  -6   4  -4    0.37    0.16 
  -6   4  -4    0.25    0.15 
  -7   4  -4    2.66    0.41 
  -8   4  -4   -0.04    0.18 
  -9   4  -4    2.34    0.48 
 -10   4  -4    0.49    0.39 
 -11  -3   4    2.52    0.65 
 -10  -3   4    0.49    0.33 
  -9  -3   4    1.37    0.38 
  -8  -3   4    2.64    0.47 
  -7  -3   4    0.16    0.20 
  -6  -3   4    1.30    0.31 
  -5  -3   4    1.05    0.27 
  -5  -3   4    1.09    0.13 
   4   3  -4   45.53    1.18 
  -4  -3   4   46.57    1.63 
  -4  -3   4   47.62    1.17 
   3   3  -4   12.10    0.43 
  -3  -3   4   11.85    0.65 
  -3  -3   4   13.09    0.39 
   2   3  -4   15.44    0.51 
  -2  -3   4   16.37    0.74 
   1   3  -4  104.24    2.43 
  -1  -3   4  106.41    2.86 
   0   3  -4   45.58    1.18 
   0  -3   4   45.03    1.39 
   1  -3   4    7.10    0.38 
  -2   3  -4    2.48    0.25 
   2  -3   4    2.58    0.24 
  -3   3  -4   16.45    0.68 
  -3   3  -4   17.19    0.57 
  -4   3  -4   46.91    1.44 
  -4   3  -4   45.38    1.26 
  -5   3  -4    2.71    0.34 
  -5   3  -4    2.78    0.23 
  -6   3  -4   16.26    0.64 
  -6   3  -4   15.23    0.78 
  -7   3  -4    9.31    0.63 
  -8   3  -4    0.82    0.28 
  -9   3  -4   -0.03    0.21 
 -10   3  -4   -0.15    0.27 
 -11  -2   4    0.64    0.40 
 -10  -2   4   -0.06    0.21 
  -9  -2   4   12.94    0.89 
  -8  -2   4    0.38    0.22 
  -7  -2   4    0.37    0.20 
  -6  -2   4   28.35    0.83 
  -6  -2   4   28.00    1.21 
  -5  -2   4    5.20    0.49 
  -5  -2   4    5.64    0.25 
   4   2  -4   54.72    1.33 
  -4  -2   4   52.64    1.28 
  -4  -2   4   54.01    1.75 
   3   2  -4   60.76    1.45 
  -3  -2   4   58.68    1.82 
   2   2  -4   19.97    0.59 
  -2  -2   4   19.51    0.78 
   1   2  -4  363.60    8.09 
   1   2  -4  360.62    7.86 
  -1  -2   4  366.82    8.80 
   0   2  -4  196.89    4.21 
   0   2  -4  193.07    4.30 
   0  -2   4  177.81    4.66 
  -1   2  -4   62.73    1.58 
   1  -2   4   62.15    1.66 
  -2   2  -4   20.84    0.62 
  -2   2  -4   20.81    0.62 
  -3   2  -4   53.03    1.49 
  -3   2  -4   53.46    1.36 
  -4   2  -4    7.35    0.31 
  -4   2  -4    7.20    0.42 
  -5   2  -4    1.42    0.17 
  -5   2  -4    1.14    0.21 
  -6   2  -4   47.40    1.56 
  -6   2  -4   50.00    1.45 
  -7   2  -4    0.62    0.22 
  -8   2  -4    8.93    0.62 
  -9   2  -4    0.00    0.20 
 -10   2  -4    1.68    0.41 
 -11   2  -4    0.45    0.38 
 -11  -1   4    0.78    0.36 
 -10  -1   4    3.06    0.55 
  -9  -1   4    2.58    0.47 
  -8  -1   4    0.46    0.21 
  -7  -1   4    3.34    0.46 
  -7  -1   4    3.34    0.28 
  -6  -1   4   20.43    0.68 
  -6  -1   4   20.93    0.97 
  -5  -1   4    0.41    0.18 
  -5  -1   4    0.85    0.13 
   4   1  -4    4.14    0.22 
  -4  -1   4    3.18    0.37 
  -4  -1   4    4.25    0.20 
   3   1  -4    0.06    0.05 
  -3  -1   4   -0.07    0.09 
  -3  -1   4    0.09    0.04 
   2   1  -4   30.63    0.81 
  -2  -1   4   30.44    1.01 
   1   1  -4   16.20    0.50 
   1   1  -4   16.37    0.42 
  -1  -1   4   16.93    0.61 
   0   1  -4  167.88    3.70 
   0   1  -4  161.08    3.62 
   0  -1   4  159.98    3.98 
  -1   1  -4  104.76    2.47 
   1  -1   4  103.84    2.56 
  -2   1  -4   17.43    0.59 
  -3   1  -4   19.55    0.69 
  -3   1  -4   18.94    0.53 
  -4   1  -4    0.06    0.08 
  -4   1  -4    0.02    0.08 
  -5   1  -4    5.74    0.36 
  -5   1  -4    5.41    0.38 
  -6   1  -4    0.90    0.19 
  -6   1  -4    1.06    0.24 
  -7   1  -4   13.41    0.71 
  -8   1  -4    0.08    0.16 
  -9   1  -4    0.33    0.23 
 -10   1  -4    0.29    0.27 
 -11   1  -4    0.18    0.32 
 -11   0   4    3.72    0.64 
 -10   0   4    0.26    0.23 
  -9   0   4   19.49    1.09 
  -8   0   4   12.84    0.60 
  -8   0   4   11.80    0.78 
  -7   0   4    1.28    0.31 
  -7   0   4    1.48    0.23 
  -6   0   4   17.13    0.85 
  -6   0   4   18.31    0.66 
  -5   0   4    0.11    0.26 
  -5   0   4    0.09    0.09 
   3   0  -4  103.38    2.35 
  -3   0   4  102.68    2.76 
   2   0  -4   74.52    1.73 
  -2   0   4   74.37    2.01 
   1   0  -4   14.76    0.46 
   1   0  -4   15.67    0.44 
  -1   0   4   15.29    0.54 
   0   0  -4  204.17    4.56 
   0   0  -4  209.28    4.73 
   0   0   4  214.63    5.03 
  -1   0  -4    7.32    0.31 
   1   0   4    7.45    0.24 
  -2   0  -4   17.64    0.59 
  -3   0  -4  341.40    7.77 
  -4   0  -4   13.25    0.56 
  -4   0  -4   13.29    0.46 
  -5   0  -4   33.26    1.00 
  -5   0  -4   33.09    1.10 
  -6   0  -4    4.35    0.39 
  -6   0  -4    4.36    0.33 
  -7   0  -4   23.28    0.95 
  -8   0  -4   11.48    0.67 
  -9   0  -4    3.77    0.48 
 -10   0  -4    0.14    0.24 
 -11   0  -4    5.01    0.63 
 -11   1   4    0.00    0.29 
 -10   1   4    3.68    0.54 
  -9   1   4    3.39    0.53 
  -8   1   4    0.47    0.18 
  -7   1   4    0.10    0.16 
  -6   1   4   21.00    0.95 
  -5   1   4    0.54    0.19 
  -4   1   4    4.17    0.34 
  -3   1   4    0.02    0.09 
   2  -1  -4   32.13    0.82 
  -2   1   4   31.39    0.96 
   1  -1  -4   16.45    0.54 
   1  -1  -4   15.69    0.47 
  -1   1   4   17.29    0.55 
   0  -1  -4  163.95    3.77 
   0  -1  -4  161.66    3.57 
  -1  -1  -4   97.81    2.30 
  -1  -1  -4   88.04    2.13 
   1   1   4   97.92    2.30 
  -2  -1  -4   16.78    0.50 
  -2  -1  -4   16.77    0.59 
  -3  -1  -4   18.80    0.67 
  -3  -1  -4   18.10    0.57 
  -4  -1  -4   -0.04    0.07 
  -4  -1  -4    0.03    0.09 
  -5  -1  -4    5.39    0.34 
  -5  -1  -4    5.55    0.37 
  -6  -1  -4    0.62    0.18 
  -6  -1  -4    0.57    0.18 
  -7  -1  -4   12.29    0.65 
  -7  -1  -4   12.65    0.64 
  -8  -1  -4    0.08    0.16 
  -9  -1  -4    0.08    0.18 
 -10  -1  -4    0.81    0.31 
 -11  -1  -4    0.07    0.30 
 -11   2   4    0.95    0.37 
  -8   2   4    0.14    0.16 
  -8   2   4    0.09    0.17 
  -7   2   4    0.53    0.22 
  -7   2   4    0.42    0.17 
  -6   2   4   29.40    1.15 
  -5   2   4    4.38    0.36 
  -4   2   4   53.28    1.60 
  -3   2   4   65.00    1.82 
  -2   2   4   20.80    0.70 
   1  -2  -4  342.87    7.75 
   1  -2  -4  328.43    7.29 
  -1   2   4  350.87    8.14 
   0  -2  -4  196.18    4.17 
   0  -2  -4  194.20    4.49 
   0   2   4  186.13    4.64 
  -1  -2  -4   61.08    1.40 
  -1  -2  -4   60.55    1.61 
  -2  -2  -4    7.11    0.34 
  -2  -2  -4    6.58    0.36 
  -3  -2  -4   52.33    1.48 
  -3  -2  -4   53.77    1.50 
  -4  -2  -4    7.17    0.41 
  -4  -2  -4    7.21    0.39 
  -5  -2  -4    1.27    0.21 
  -5  -2  -4    1.15    0.23 
  -6  -2  -4   47.80    1.51 
  -6  -2  -4   47.80    1.52 
  -7  -2  -4    0.57    0.23 
  -7  -2  -4    0.23    0.18 
  -8  -2  -4    8.37    0.58 
  -9  -2  -4    0.59    0.26 
 -10  -2  -4    1.68    0.40 
 -11  -2  -4    0.38    0.36 
 -10   3   4    0.41    0.28 
 -10   3   4    0.06    0.21 
  -9   3   4    1.75    0.35 
  -9   3   4    1.14    0.32 
  -8   3   4    2.81    0.44 
  -8   3   4    3.63    0.42 
  -7   3   4    0.27    0.17 
  -6   3   4    0.86    0.23 
  -5   3   4    1.36    0.23 
  -4   3   4   49.09    1.51 
  -3   3   4   12.53    0.55 
  -2   3   4   15.83    0.61 
   1  -3  -4  100.33    2.57 
  -1   3   4   99.50    2.58 
   0  -3  -4   46.02    1.06 
   0  -3  -4   46.31    1.36 
   0   3   4   45.67    1.30 
  -1  -3  -4   10.81    0.51 
  -1  -3  -4   10.77    0.30 
  -2  -3  -4    2.36    0.13 
  -2  -3  -4    2.03    0.25 
  -2  -3  -4    2.17    0.24 
  -3  -3  -4   17.43    0.69 
  -3  -3  -4   17.17    0.71 
  -4  -3  -4   42.61    1.37 
  -4  -3  -4   45.48    1.38 
  -5  -3  -4    2.95    0.35 
  -5  -3  -4    2.72    0.31 
  -6  -3  -4   15.84    0.75 
  -6  -3  -4   15.60    0.75 
  -7  -3  -4    8.66    0.57 
  -7  -3  -4    7.72    0.56 
  -8  -3  -4    1.26    0.31 
  -9  -3  -4    0.07    0.22 
 -10  -3  -4   -0.09    0.25 
 -10   4   4   -0.05    0.25 
 -10   4   4   -0.10    0.25 
  -9   4   4    4.73    0.60 
  -9   4   4    4.15    0.51 
  -8   4   4    2.59    0.42 
  -7   4   4   43.28    1.56 
  -6   4   4   23.91    1.00 
  -5   4   4    1.83    0.28 
  -4   4   4   49.63    1.53 
  -3   4   4    1.32    0.21 
  -2   4   4   82.03    2.24 
   1  -4  -4   59.89    1.77 
  -1   4   4   60.91    1.71 
   0  -4  -4  165.31    4.01 
   0   4   4  156.02    4.04 
  -1  -4  -4   32.54    1.13 
  -1  -4  -4   32.58    1.11 
  -2  -4  -4   19.98    0.82 
  -2  -4  -4   19.98    0.81 
  -3  -4  -4    4.65    0.17 
  -3  -4  -4    4.34    0.36 
  -3  -4  -4    3.92    0.36 
  -4  -4  -4   15.89    0.74 
  -4  -4  -4   16.65    0.76 
  -5  -4  -4    4.51    0.42 
  -5  -4  -4    3.86    0.42 
  -6  -4  -4    0.20    0.17 
  -6  -4  -4    0.55    0.18 
  -7  -4  -4    3.58    0.45 
  -7  -4  -4    3.32    0.41 
  -8  -4  -4   -0.16    0.18 
  -9  -4  -4    2.68    0.47 
 -10  -4  -4    0.26    0.34 
 -10   5   4    0.30    0.38 
 -10   5   4    0.08    0.33 
  -9   5   4    0.28    0.27 
  -9   5   4    0.32    0.26 
  -8   5   4    0.36    0.19 
  -7   5   4    1.26    0.27 
  -6   5   4    0.12    0.14 
  -5   5   4    8.98    0.53 
  -4   5   4    0.50    0.17 
  -3   5   4    0.42    0.16 
  -2   5   4    0.32    0.14 
   1  -5  -4    3.92    0.41 
  -1   5   4    3.90    0.32 
   0  -5  -4    0.00    0.13 
   0   5   4    0.19    0.13 
  -1  -5  -4   -0.02    0.13 
  -1  -5  -4   -0.06    0.12 
   1   5   4    0.02    0.15 
  -2  -5  -4    4.91    0.45 
  -2  -5  -4    5.18    0.46 
  -3  -5  -4    0.95    0.23 
  -3  -5  -4    0.68    0.20 
  -4  -5  -4    1.77    0.30 
  -4  -5  -4    1.76    0.31 
  -5  -5  -4    6.84    0.51 
  -5  -5  -4    7.54    0.54 
  -6  -5  -4   11.63    0.70 
  -6  -5  -4   11.06    0.69 
  -7  -5  -4    0.14    0.22 
  -7  -5  -4    0.29    0.20 
  -8  -5  -4    0.24    0.26 
  -9  -5  -4    0.21    0.29 
  -9   6   4    4.10    0.59 
  -8   6   4    1.79    0.36 
  -7   6   4    1.55    0.31 
  -6   6   4    5.61    0.46 
  -5   6   4    0.43    0.17 
  -4   6   4    0.50    0.16 
  -3   6   4   15.14    0.72 
  -2   6   4   14.66    0.69 
   1  -6  -4    3.29    0.45 
  -1   6   4    3.84    0.38 
   0  -6  -4    2.16    0.37 
   0   6   4    2.58    0.32 
   1   6   4   14.09    0.77 
   1   6   4   14.12    0.77 
  -2  -6  -4   12.34    0.71 
  -2  -6  -4   12.04    0.70 
  -3  -6  -4    3.36    0.43 
  -3  -6  -4    4.61    0.49 
  -4  -6  -4   16.52    0.87 
  -4  -6  -4   17.46    0.88 
  -5  -6  -4    6.15    0.57 
  -5  -6  -4    6.26    0.58 
  -6  -6  -4    5.48    0.56 
  -6  -6  -4    4.39    0.54 
  -7  -6  -4    0.49    0.22 
  -7  -6  -4    0.48    0.29 
  -8  -6  -4    1.93    0.43 
  -9  -6  -4    1.39    0.45 
  -8   7   4   -0.15    0.25 
  -7   7   4    4.80    0.55 
  -6   7   4    0.73    0.23 
  -5   7   4    4.51    0.46 
  -4   7   4    2.28    0.35 
  -3   7   4   -0.25    0.10 
  -2   7   4    4.77    0.46 
  -1   7   4    1.18    0.28 
   0  -7  -4    4.57    0.57 
   0   7   4    5.25    0.44 
  -1  -7  -4   -0.01    0.19 
   1   7   4    0.20    0.37 
  -2  -7  -4   -0.06    0.17 
  -2  -7  -4    0.13    0.16 
  -3  -7  -4   10.24    0.70 
  -3  -7  -4    9.63    0.68 
  -4  -7  -4    1.84    0.39 
  -4  -7  -4    2.58    0.42 
  -5  -7  -4    0.40    0.22 
  -5  -7  -4    0.25    0.25 
  -6  -7  -4    0.17    0.21 
  -6  -7  -4   -0.03    0.25 
  -7  -7  -4    1.10    0.31 
  -7  -7  -4    0.81    0.37 
  -8  -7  -4    0.19    0.37 
  -7   8   4    1.58    0.44 
  -6   8   4    1.11    0.31 
  -5   8   4   -0.02    0.15 
  -4   8   4   11.44    0.70 
  -3   8   4    0.89    0.24 
  -2   8   4    1.13    0.29 
  -1   8   4    6.98    0.56 
   0   8   4    1.17    0.30 
  -1  -8  -4   16.58    1.00 
  -2  -8  -4    0.13    0.18 
  -2  -8  -4    0.71    0.30 
   2   8   4    0.53    0.31 
  -3  -8  -4    0.37    0.28 
  -3  -8  -4    0.63    0.23 
  -4  -8  -4    3.18    0.50 
  -4  -8  -4    2.64    0.51 
  -5  -8  -4    0.18    0.30 
  -5  -8  -4   -0.12    0.18 
  -6  -8  -4    5.54    0.70 
  -6  -8  -4    4.72    0.63 
  -7  -8  -4    0.19    0.30 
  -7  -8  -4    0.27    0.39 
  -5   9   4    0.49    0.32 
  -4   9   4   -0.08    0.20 
  -3   9   4    0.13    0.19 
  -2   9   4    0.27    0.26 
  -1   9   4    0.83    0.31 
   0   9   4    0.19    0.27 
   1   9   4    2.65    0.52 
  -2  -9  -4    5.11    0.72 
   2   9   4    9.14    0.89 
  -3  -9  -4   -0.01    0.20 
  -3  -9  -4   -0.01    0.33 
  -4  -9  -4   -0.03    0.34 
  -4  -9  -4   -0.10    0.21 
  -5  -9  -4    1.22    0.42 
  -5  -9  -4    1.29    0.48 
  -3  10   4    0.45    0.36 
  -2  10   4    0.88    0.38 
  -1  10   4    0.92    0.40 
   0  10   4    0.11    0.34 
   1  10   4    2.30    0.48 
  -2 -10   5    0.14    0.48 
  -1 -10   5    0.37    0.48 
   0 -10   5    0.08    0.42 
  -1  10  -5   -0.91    0.51 
  -2  10  -5    0.61    0.25 
  -5  -9   5    3.46    0.74 
  -4  -9   5    0.30    0.46 
  -3  -9   5    2.20    0.56 
  -2  -9   5    7.11    0.83 
  -1  -9   5    0.37    0.35 
   0  -9   5    5.17    0.70 
   1  -9   5    0.89    0.39 
  -2   9  -5    0.83    0.48 
  -3   9  -5    1.96    0.33 
  -4   9  -5    0.05    0.25 
  -5   9  -5    0.56    0.32 
  -7  -8   5    0.12    0.47 
  -6  -8   5    0.83    0.45 
  -5  -8   5    0.28    0.38 
  -4  -8   5    1.25    0.46 
  -3  -8   5    2.11    0.50 
  -2  -8   5    0.33    0.29 
  -1  -8   5    1.07    0.34 
   0  -8   5    0.06    0.25 
   1  -8   5    1.01    0.35 
  -3   8  -5    3.32    0.38 
  -4   8  -5    1.34    0.27 
  -5   8  -5    0.15    0.17 
  -6   8  -5    0.16    0.21 
  -8  -7   5    3.10    0.72 
  -7  -7   5    2.22    0.52 
  -6  -7   5   -0.10    0.23 
  -5  -7   5    4.10    0.66 
  -4  -7   5    0.66    0.33 
  -3  -7   5    0.70    0.28 
  -2  -7   5    4.25    0.56 
  -1  -7   5    7.50    0.67 
   0   7  -5    0.47    0.13 
   0  -7   5    0.46    0.25 
  -1   7  -5    0.16    0.10 
   1  -7   5   -0.02    0.20 
   2  -7   5    3.94    0.49 
  -3   7  -5    8.58    0.51 
  -4   7  -5    0.44    0.16 
  -5   7  -5    2.18    0.36 
  -6   7  -5    0.85    0.25 
  -7   7  -5    1.34    0.33 
  -8   7  -5    0.34    0.33 
  -9  -6   5   -0.08    0.43 
  -8  -6   5    0.23    0.28 
  -7  -6   5    1.27    0.37 
  -6  -6   5    0.47    0.22 
  -5  -6   5    4.12    0.61 
  -4  -6   5    0.57    0.27 
   3   6  -5    4.04    0.26 
  -3  -6   5    4.37    0.56 
   2   6  -5    4.08    0.27 
  -2  -6   5    4.32    0.52 
   1   6  -5   -0.02    0.10 
  -1  -6   5   -0.12    0.16 
   0   6  -5    0.59    0.15 
   0  -6   5    0.31    0.20 
   1  -6   5    4.43    0.47 
   2  -6   5    0.07    0.17 
  -3   6  -5    1.82    0.23 
  -4   6  -5    0.22    0.12 
  -4   6  -5    0.06    0.12 
  -5   6  -5    1.60    0.32 
  -5   6  -5    1.97    0.26 
  -6   6  -5    0.08    0.16 
  -7   6  -5   -0.02    0.13 
  -9   6  -5    0.49    0.36 
  -9  -5   5    1.78    0.50 
  -8  -5   5    2.23    0.47 
  -7  -5   5    4.52    0.63 
  -6  -5   5   10.36    0.78 
   5   5  -5    4.57    0.26 
  -5  -5   5    4.35    0.57 
   4   5  -5   34.22    0.95 
  -4  -5   5   33.73    1.45 
   3   5  -5    7.92    0.36 
  -3  -5   5    8.27    0.62 
   2   5  -5   43.04    1.16 
  -2  -5   5   42.65    1.58 
   1   5  -5    0.02    0.08 
  -1  -5   5   -0.01    0.14 
   0   5  -5   23.65    0.78 
   0  -5   5   22.13    0.97 
   1  -5   5    9.91    0.58 
   2  -5   5    0.43    0.19 
  -3   5  -5   11.59    0.53 
  -4   5  -5    0.76    0.22 
  -4   5  -5    0.72    0.18 
  -5   5  -5   22.99    0.83 
  -5   5  -5   23.48    1.03 
  -6   5  -5    1.54    0.31 
  -7   5  -5    6.28    0.64 
  -8   5  -5    0.76    0.27 
  -9   5  -5    0.41    0.33 
 -10  -4   5    3.30    0.65 
  -9  -4   5    1.48    0.40 
  -8  -4   5    0.79    0.31 
  -7  -4   5    0.76    0.28 
  -6  -4   5    0.24    0.19 
   5   4  -5    2.11    0.21 
  -5  -4   5    2.37    0.42 
   4   4  -5    3.29    0.22 
  -4  -4   5    3.27    0.45 
   3   4  -5    3.51    0.23 
  -3  -4   5    3.67    0.43 
   2   4  -5   25.02    0.76 
  -2  -4   5   25.92    1.07 
   1   4  -5   84.80    2.03 
  -1  -4   5   80.64    2.41 
   0   4  -5  130.68    3.05 
   0  -4   5  129.42    3.48 
   1  -4   5   36.25    1.21 
  -2   4  -5    1.53    0.23 
  -3   4  -5    1.04    0.16 
  -3   4  -5    0.85    0.19 
  -4   4  -5    0.07    0.10 
  -4   4  -5    0.02    0.10 
  -5   4  -5    8.58    0.41 
  -5   4  -5    8.75    0.56 
  -6   4  -5    4.57    0.50 
  -7   4  -5    5.90    0.59 
  -8   4  -5   -0.03    0.14 
  -9   4  -5    0.50    0.31 
 -10   4  -5    0.83    0.42 
 -10  -3   5    4.64    0.72 
  -9  -3   5   -0.01    0.22 
  -8  -3   5    0.04    0.18 
  -7  -3   5   22.49    1.16 
  -6  -3   5    3.79    0.51 
   5   3  -5   83.83    2.01 
  -5  -3   5   83.81    2.63 
   4   3  -5    8.55    0.36 
  -4  -3   5    7.80    0.58 
   3   3  -5   24.94    0.74 
  -3  -3   5   24.63    1.03 
   2   3  -5   22.28    0.68 
  -2  -3   5   21.21    0.90 
   1   3  -5    2.10    0.20 
  -1  -3   5    2.47    0.29 
   0   3  -5  315.36    6.95 
   0   3  -5  315.33    7.14 
   0  -3   5  319.76    7.76 
  -1   3  -5    0.25    0.11 
   1  -3   5    0.16    0.11 
  -2   3  -5   87.79    2.25 
   2  -3   5   86.41    2.30 
  -3   3  -5   39.71    1.23 
  -3   3  -5   38.15    1.07 
  -4   3  -5    0.20    0.09 
  -4   3  -5    0.36    0.12 
  -5   3  -5   17.50    0.60 
  -5   3  -5   15.93    0.76 
  -6   3  -5    6.54    0.49 
  -7   3  -5    2.85    0.41 
  -8   3  -5    1.79    0.38 
  -9   3  -5   -0.07    0.22 
 -10   3  -5    0.74    0.39 
 -11  -2   5   -0.18    0.38 
 -10  -2   5    0.09    0.26 
  -9  -2   5    0.25    0.23 
  -8  -2   5    0.54    0.22 
  -7  -2   5   29.63    1.34 
  -6  -2   5    1.36    0.31 
  -5  -2   5    1.83    0.34 
   4   2  -5    3.64    0.23 
  -4  -2   5    3.74    0.41 
   3   2  -5    0.03    0.06 
  -3  -2   5   -0.09    0.10 
   2   2  -5    0.02    0.05 
  -2  -2   5   -0.06    0.09 
   1   2  -5   25.38    0.76 
   1   2  -5   26.60    0.67 
  -1  -2   5   25.17    0.90 
   0   2  -5   58.75    1.48 
   0   2  -5   58.93    1.45 
  -1   2  -5    0.31    0.09 
   1  -2   5    0.10    0.09 
  -2   2  -5   85.41    2.16 
   2  -2   5   84.68    2.15 
  -3   2  -5    5.17    0.34 
  -3   2  -5    5.60    0.23 
  -4   2  -5    0.46    0.09 
  -4   2  -5    0.17    0.12 
  -5   2  -5    9.22    0.53 
  -5   2  -5   10.12    0.41 
  -6   2  -5    1.65    0.28 
  -7   2  -5    1.21    0.28 
  -8   2  -5    0.09    0.19 
  -9   2  -5    0.30    0.23 
 -10   2  -5   -0.01    0.24 
 -11  -1   5    0.28    0.38 
 -10  -1   5   10.31    0.85 
  -9  -1   5    0.57    0.28 
  -8  -1   5    4.15    0.57 
  -7  -1   5   38.96    1.57 
  -6  -1   5    3.38    0.24 
  -6  -1   5    3.36    0.45 
  -5  -1   5    1.08    0.13 
  -5  -1   5    0.72    0.21 
   4   1  -5   27.32    0.80 
  -4  -1   5   28.25    0.71 
  -4  -1   5   27.96    1.09 
   3   1  -5  246.79    5.46 
  -3  -1   5  250.66    6.25 
   2   1  -5   11.98    0.42 
  -2  -1   5   10.89    0.54 
   1   1  -5   49.48    1.28 
   1   1  -5   51.08    1.21 
  -1  -1   5   52.00    1.47 
   0   1  -5   12.53    0.45 
   0   1  -5   13.58    0.42 
   0  -1   5   13.26    0.49 
  -1   1  -5   57.94    1.48 
   1  -1   5   58.10    1.49 
  -2   1  -5   17.03    0.60 
  -3   1  -5    8.13    0.41 
  -4   1  -5   19.19    0.75 
  -5   1  -5   17.92    0.59 
  -5   1  -5   16.73    0.73 
  -6   1  -5    5.76    0.44 
  -7   1  -5    3.38    0.42 
  -8   1  -5    7.52    0.57 
  -9   1  -5    0.86    0.30 
 -10   1  -5    2.15    0.45 
 -11   1  -5    0.33    0.35 
 -11   0   5    0.11    0.32 
 -10   0   5    0.18    0.24 
  -9   0   5    0.09    0.19 
  -8   0   5    0.00    0.18 
  -7   0   5    0.01    0.13 
  -7   0   5    0.04    0.17 
  -6   0   5    0.24    0.13 
  -6   0   5    0.03    0.10 
  -5   0   5    0.06    0.09 
  -5   0   5   -0.11    0.25 
   4   0  -5   -0.03    0.05 
  -4   0   5   -0.06    0.13 
   3   0  -5    0.04    0.06 
  -3   0   5   -0.13    0.10 
   2   0  -5   -0.05    0.05 
   2   0  -5   -0.03    0.05 
  -2   0   5   -0.02    0.09 
   1   0  -5   -0.08    0.05 
   1   0  -5   -0.03    0.06 
  -1   0   5   -0.16    0.07 
   0   0  -5    0.00    0.05 
   0   0  -5    0.01    0.05 
   0   0   5   -0.01    0.05 
  -1   0  -5   -0.06    0.06 
  -2   0  -5   -0.03    0.06 
  -3   0  -5   -0.03    0.07 
  -4   0  -5   -0.14    0.08 
  -5   0  -5    0.08    0.10 
  -5   0  -5   -0.04    0.09 
  -6   0  -5   -0.01    0.11 
  -7   0  -5    0.17    0.15 
  -8   0  -5    0.10    0.16 
  -9   0  -5    0.05    0.17 
 -10   0  -5    0.02    0.23 
 -11   0  -5   -0.01    0.32 
 -11   1   5    0.02    0.31 
 -10   1   5   10.62    0.83 
  -9   1   5    1.14    0.31 
  -8   1   5    4.11    0.39 
  -6   1   5    3.41    0.29 
  -6   1   5    2.88    0.40 
  -5   1   5    0.58    0.17 
  -4   1   5   25.85    0.98 
   3  -1  -5  250.65    5.54 
  -3   1   5  257.22    6.28 
   2  -1  -5   11.67    0.45 
   2  -1  -5   11.94    0.40 
  -2   1   5   12.05    0.50 
   1  -1  -5   50.39    1.31 
   1  -1  -5   48.52    1.21 
  -1   1   5   50.12    1.36 
   0  -1  -5   13.51    0.49 
   0  -1  -5   13.30    0.43 
   0   1   5   12.39    0.43 
  -1  -1  -5   56.12    1.38 
  -1  -1  -5   56.66    1.50 
   1   1   5   58.37    1.44 
  -2  -1  -5   17.61    0.63 
   2   1   5   17.01    0.48 
  -3  -1  -5    8.14    0.30 
  -3  -1  -5    8.49    0.44 
  -4  -1  -5   19.15    0.60 
  -4  -1  -5   18.19    0.72 
  -5  -1  -5   16.55    0.60 
  -5  -1  -5   16.47    0.71 
  -6  -1  -5    5.23    0.45 
  -7  -1  -5    3.77    0.43 
  -8  -1  -5    7.83    0.56 
  -9  -1  -5    0.99    0.31 
 -10  -1  -5    2.37    0.44 
 -11  -1  -5   -0.01    0.34 
 -11   2   5    0.58    0.40 
 -10   2   5   -0.41    0.44 
  -9   2   5   -0.13    0.34 
  -9   2   5    0.28    0.20 
  -8   2   5   -0.22    0.12 
  -8   2   5    0.03    0.18 
  -7   2   5   30.98    1.31 
  -7   2   5   30.97    1.07 
  -6   2   5    1.55    0.30 
  -5   2   5    1.25    0.24 
  -4   2   5    3.96    0.33 
  -3   2   5    0.04    0.10 
   2  -2  -5    0.00    0.05 
   2  -2  -5    0.09    0.09 
  -2   2   5   -0.01    0.08 
   1  -2  -5   24.94    0.68 
   1  -2  -5   25.71    0.83 
  -1   2   5   24.96    0.79 
   0  -2  -5   55.71    1.55 
   0   2   5   58.88    1.53 
  -1  -2  -5    0.04    0.08 
  -1  -2  -5    0.04    0.06 
   1   2   5    0.15    0.07 
  -3  -2  -5    5.03    0.29 
  -3  -2  -5    4.94    0.34 
  -4  -2  -5    0.26    0.12 
  -4  -2  -5    0.37    0.14 
  -5  -2  -5    9.65    0.47 
  -5  -2  -5    9.90    0.54 
  -6  -2  -5    1.49    0.27 
  -6  -2  -5    1.06    0.23 
  -7  -2  -5    0.69    0.22 
  -8  -2  -5    0.10    0.18 
  -9  -2  -5    0.37    0.24 
 -10  -2  -5    0.48    0.31 
 -10   3   5    0.12    0.24 
  -9   3   5    0.27    0.22 
  -9   3   5    0.06    0.20 
  -8   3   5    0.12    0.17 
  -8   3   5    0.05    0.16 
  -7   3   5   25.36    1.13 
  -6   3   5    3.00    0.39 
  -5   3   5   83.89    2.43 
  -4   3   5    8.05    0.47 
  -3   3   5   24.54    0.88 
   2  -3  -5   22.06    0.83 
  -2   3   5   22.27    0.78 
   1  -3  -5    2.14    0.27 
   1  -3  -5    2.21    0.14 
  -1   3   5    2.32    0.23 
   0  -3  -5  306.18    6.49 
   0  -3  -5  301.08    7.02 
   0   3   5  298.71    7.27 
  -1  -3  -5    0.04    0.10 
  -1  -3  -5    0.35    0.08 
   1   3   5    0.11    0.11 
  -2  -3  -5   80.25    1.82 
  -2  -3  -5   79.51    2.17 
  -2  -3  -5   79.75    2.17 
  -3  -3  -5   37.48    1.18 
  -3  -3  -5   37.85    1.24 
  -4  -3  -5    0.03    0.11 
  -4  -3  -5    0.18    0.13 
  -5  -3  -5   15.70    0.76 
  -5  -3  -5   16.84    0.71 
  -6  -3  -5    5.91    0.46 
  -6  -3  -5    6.00    0.44 
  -7  -3  -5    2.57    0.39 
  -8  -3  -5    1.77    0.36 
  -9  -3  -5    0.19    0.23 
 -10  -3  -5    1.42    0.42 
 -10   4   5    4.05    0.67 
  -9   4   5    1.55    0.35 
  -9   4   5    1.47    0.37 
  -8   4   5    1.27    0.31 
  -7   4   5    0.59    0.23 
  -6   4   5    0.25    0.15 
  -5   4   5    2.02    0.30 
  -4   4   5    3.17    0.34 
  -3   4   5    3.53    0.32 
   2  -4  -5   26.34    1.02 
  -2   4   5   26.98    0.94 
   1  -4  -5   82.35    2.29 
  -1   4   5   81.10    2.22 
   0  -4  -5  128.72    3.29 
   0   4   5  125.73    3.27 
  -1  -4  -5   37.57    0.87 
  -1  -4  -5   37.58    1.26 
  -2  -4  -5    1.43    0.24 
  -2  -4  -5    1.51    0.10 
  -2  -4  -5    1.88    0.29 
  -3  -4  -5    0.95    0.21 
  -3  -4  -5    0.81    0.20 
  -4  -4  -5    0.19    0.15 
  -4  -4  -5    0.01    0.12 
  -5  -4  -5    8.40    0.56 
  -5  -4  -5    7.64    0.52 
  -6  -4  -5    5.16    0.46 
  -6  -4  -5    4.24    0.49 
  -7  -4  -5    6.28    0.59 
  -8  -4  -5   -0.10    0.21 
  -9  -4  -5    0.15    0.30 
 -10  -4  -5    0.55    0.38 
  -9   5   5    2.17    0.44 
  -9   5   5    2.34    0.45 
  -8   5   5    2.89    0.45 
  -7   5   5    4.49    0.50 
  -6   5   5   12.86    0.72 
  -5   5   5    5.76    0.44 
  -4   5   5   32.18    1.17 
  -3   5   5    7.96    0.48 
  -2   5   5   43.57    1.39 
   1  -5  -5   -0.04    0.10 
  -1   5   5    0.04    0.11 
   0   5   5   21.94    0.84 
  -1  -5  -5    9.82    0.59 
  -2  -5  -5    0.61    0.20 
  -2  -5  -5    0.44    0.18 
  -3  -5  -5    9.18    0.58 
  -3  -5  -5   10.88    0.62 
  -4  -5  -5    0.80    0.21 
  -4  -5  -5    0.47    0.21 
  -5  -5  -5   21.38    0.95 
  -5  -5  -5   21.76    0.98 
  -6  -5  -5    1.36    0.33 
  -6  -5  -5    1.16    0.27 
  -7  -5  -5    6.86    0.66 
  -8  -5  -5    0.40    0.30 
  -9  -5  -5    0.69    0.38 
  -9   6   5   -0.30    0.31 
  -8   6   5   -0.04    0.21 
  -7   6   5    1.11    0.28 
  -6   6   5    0.35    0.19 
  -5   6   5    3.46    0.40 
  -4   6   5    0.49    0.17 
  -3   6   5    3.91    0.40 
  -2   6   5    4.27    0.41 
   1  -6  -5    0.09    0.15 
  -1   6   5    0.19    0.14 
   0  -6  -5    0.10    0.18 
   0   6   5    0.51    0.18 
  -1  -6  -5    4.37    0.50 
  -2  -6  -5    0.16    0.18 
  -2  -6  -5    0.08    0.13 
   2   6   5    0.28    0.17 
  -3  -6  -5    1.50    0.30 
  -3  -6  -5    1.36    0.32 
  -4  -6  -5    0.04    0.20 
  -4  -6  -5    0.12    0.17 
  -5  -6  -5    1.52    0.31 
  -5  -6  -5    1.39    0.33 
  -6  -6  -5    0.03    0.19 
  -6  -6  -5   -0.04    0.19 
  -7  -6  -5    0.34    0.28 
  -8  -6  -5    0.69    0.33 
  -9  -6  -5    0.23    0.39 
  -8   7   5    3.71    0.59 
  -7   7   5    2.06    0.38 
  -6   7   5    0.05    0.16 
  -5   7   5    3.67    0.44 
  -4   7   5    0.19    0.14 
  -3   7   5    0.45    0.23 
  -2   7   5    4.88    0.47 
  -1   7   5    6.26    0.47 
   0  -7  -5    0.63    0.26 
   0   7   5    0.65    0.23 
  -1  -7  -5    0.08    0.22 
  -2  -7  -5    3.59    0.52 
  -3  -7  -5    8.28    0.62 
  -3  -7  -5    8.14    0.71 
  -4  -7  -5    0.43    0.26 
  -4  -7  -5    0.49    0.22 
  -5  -7  -5    1.94    0.37 
  -5  -7  -5    1.65    0.41 
  -6  -7  -5    0.97    0.30 
  -6  -7  -5    1.50    0.42 
  -7  -7  -5    1.71    0.45 
  -8  -7  -5    0.80    0.44 
  -7   8   5   -0.08    0.32 
  -6   8   5    0.59    0.29 
  -5   8   5    0.33    0.19 
  -4   8   5    1.97    0.34 
  -3   8   5    2.03    0.40 
  -2   8   5    0.11    0.20 
  -1   8   5    0.88    0.29 
   0  -8  -5    0.21    0.28 
   0   8   5    0.15    0.22 
  -1  -8  -5    1.17    0.37 
   1   8   5    1.81    0.34 
  -2  -8  -5    2.62    0.50 
   2   8   5    4.60    0.66 
  -3  -8  -5    3.62    0.51 
  -3  -8  -5    2.93    0.53 
  -4  -8  -5    0.47    0.23 
  -4  -8  -5    1.19    0.39 
  -5  -8  -5    0.09    0.20 
  -5  -8  -5    0.37    0.33 
  -6  -8  -5    0.50    0.40 
  -6  -8  -5    0.06    0.25 
  -5   9   5    3.59    0.54 
  -4   9   5    0.57    0.30 
  -3   9   5    2.24    0.45 
  -2   9   5    8.00    0.65 
  -1   9   5    0.22    0.29 
   0   9   5    4.76    0.56 
  -1  -9  -5    1.29    0.47 
   1   9   5    1.44    0.38 
  -2  -9  -5    1.06    0.45 
   2   9   5    1.14    0.63 
  -3  -9  -5    1.54    0.51 
   3   9   5    1.88    0.68 
  -4  -9  -5   -0.02    0.37 
  -4  -9  -5    0.14    0.24 
  -5  -9  -5    0.59    0.37 
  -5  -9  -5    1.00    0.48 
  -2  10   5    0.01    0.34 
  -1  10   5    0.31    0.35 
   0  10   5    0.44    0.33 
   1  10   5    0.35    0.36 
  -2 -10  -5    0.10    0.47 
   2  10   5    0.84    0.40 
   0 -10   6    0.18    0.46 
  -4  -9   6    0.26    0.48 
  -3  -9   6    0.03    0.38 
  -2  -9   6    0.11    0.36 
  -1  -9   6    1.60    0.48 
   0  -9   6    0.45    0.38 
   1  -9   6   -0.06    0.30 
  -2   9  -6   -0.28    0.46 
  -3   9  -6   -0.05    0.20 
  -4   9  -6   -0.01    0.21 
  -6  -8   6    3.61    0.76 
  -5  -8   6    0.69    0.45 
  -4  -8   6    1.07    0.46 
  -3  -8   6    8.62    0.85 
  -2  -8   6    0.13    0.29 
  -1  -8   6    5.58    0.66 
   0  -8   6    1.72    0.41 
   1  -8   6    0.80    0.33 
  -3   8  -6    0.52    0.16 
  -4   8  -6    2.16    0.37 
  -5   8  -6    0.19    0.18 
  -6   8  -6    1.00    0.35 
  -8  -7   6   -0.17    0.43 
  -7  -7   6    1.76    0.53 
  -6  -7   6    1.05    0.44 
  -5  -7   6   -0.32    0.27 
  -4  -7   6    1.54    0.45 
  -3  -7   6    3.20    0.54 
  -2  -7   6    0.28    0.25 
   1   7  -6    1.97    0.24 
  -1  -7   6    1.44    0.36 
   0   7  -6    0.67    0.16 
   0  -7   6    0.39    0.24 
  -1   7  -6    6.32    0.41 
   1  -7   6    7.35    0.60 
   2  -7   6    4.51    0.51 
  -3   7  -6    0.50    0.17 
  -4   7  -6    0.89    0.23 
  -5   7  -6    1.43    0.31 
  -6   7  -6    0.84    0.28 
  -7   7  -6    0.02    0.22 
  -8  -6   6    8.12    0.93 
  -7  -6   6    0.06    0.24 
  -6  -6   6    5.99    0.76 
  -5  -6   6    1.27    0.38 
   4   6  -6    3.67    0.24 
  -4  -6   6    3.15    0.52 
   3   6  -6    9.46    0.43 
  -3  -6   6    9.75    0.75 
   2   6  -6    1.13    0.19 
  -2  -6   6    0.89    0.28 
   1   6  -6   27.03    0.91 
  -1  -6   6   31.07    1.29 
   0   6  -6    0.41    0.13 
   0  -6   6    0.44    0.22 
  -1   6  -6   22.31    0.81 
   1  -6   6   22.07    1.02 
   2  -6   6   -0.14    0.16 
  -3   6  -6    3.21    0.39 
  -4   6  -6   14.23    0.79 
  -4   6  -6   16.34    0.68 
  -5   6  -6    0.76    0.22 
  -6   6  -6    2.85    0.43 
  -7   6  -6    0.60    0.24 
  -8   6  -6   -0.10    0.20 
  -9  -5   6    2.11    0.57 
  -8  -5   6    0.17    0.22 
  -7  -5   6    1.37    0.38 
  -6  -5   6    0.96    0.36 
   5   5  -6    2.79    0.24 
  -5  -5   6    3.16    0.52 
   4   5  -6    0.08    0.08 
  -4  -5   6   -0.03    0.19 
   3   5  -6    0.84    0.16 
  -3  -5   6    0.65    0.25 
   2   5  -6    0.52    0.13 
  -2  -5   6    0.12    0.18 
   1   5  -6    3.72    0.30 
  -1  -5   6    3.02    0.41 
   0   5  -6   39.06    1.16 
   0  -5   6   39.89    1.42 
   1  -5   6   -0.04    0.15 
  -2   5  -6    0.24    0.14 
   2  -5   6    0.02    0.14 
  -3   5  -6   15.45    0.73 
  -4   5  -6    6.12    0.48 
  -4   5  -6    7.68    0.42 
  -5   5  -6    0.29    0.17 
  -6   5  -6    0.04    0.14 
  -7   5  -6    0.29    0.20 
  -8   5  -6    1.63    0.38 
  -9   5  -6    1.13    0.42 
 -10  -4   6    2.77    0.67 
  -9  -4   6    2.27    0.50 
  -8  -4   6    2.76    0.51 
  -7  -4   6    0.01    0.19 
  -6  -4   6    9.99    0.76 
   5   4  -6    3.74    0.25 
  -5  -4   6    3.25    0.49 
   4   4  -6    0.12    0.09 
  -4  -4   6    0.10    0.17 
   3   4  -6   65.02    1.69 
  -3  -4   6   68.99    2.20 
   2   4  -6    5.57    0.32 
  -2  -4   6    7.09    0.52 
   1   4  -6    5.08    0.32 
  -1  -4   6    7.18    0.49 
   0   4  -6    9.71    0.42 
   0   4  -6    7.88    0.41 
   0  -4   6    8.83    0.53 
  -1   4  -6   17.28    0.66 
  -2   4  -6   59.16    1.68 
   2  -4   6   58.65    1.74 
  -3   4  -6    0.05    0.09 
  -3   4  -6    0.42    0.12 
  -4   4  -6   19.25    0.66 
  -4   4  -6   19.30    0.84 
  -5   4  -6    5.09    0.49 
  -6   4  -6    4.15    0.48 
  -7   4  -6    3.58    0.46 
  -8   4  -6    1.16    0.30 
  -9   4  -6    0.60    0.29 
 -10   4  -6   -0.05    0.33 
 -10  -3   6    0.83    0.40 
  -9  -3   6   -0.06    0.19 
  -8  -3   6    3.98    0.59 
  -7  -3   6    0.80    0.29 
  -6  -3   6   18.17    1.01 
   5   3  -6    0.59    0.12 
  -5  -3   6    0.51    0.23 
   4   3  -6    9.12    0.40 
  -4  -3   6    9.13    0.63 
   3   3  -6   12.70    0.49 
  -3  -3   6   13.51    0.73 
   2   3  -6    2.36    0.22 
  -2  -3   6    1.80    0.29 
   1   3  -6    0.20    0.07 
   1   3  -6    0.15    0.09 
  -1  -3   6    0.21    0.14 
   0   3  -6   77.21    1.89 
   0   3  -6   76.28    1.92 
   0  -3   6   75.30    2.14 
  -1   3  -6   26.06    0.83 
   1  -3   6   26.25    0.90 
  -2   3  -6   14.73    0.61 
   2  -3   6   15.99    0.60 
  -3   3  -6   20.65    0.64 
  -3   3  -6   20.53    0.80 
  -4   3  -6    8.48    0.50 
  -4   3  -6    8.84    0.35 
  -5   3  -6   14.39    0.72 
  -6   3  -6    4.12    0.46 
  -7   3  -6    0.27    0.16 
  -8   3  -6    1.07    0.28 
  -9   3  -6    0.01    0.23 
 -10   3  -6    0.58    0.37 
 -10  -2   6    1.07    0.40 
  -9  -2   6    7.32    0.79 
  -8  -2   6    4.54    0.61 
  -7  -2   6    3.15    0.50 
  -6  -2   6   25.60    1.20 
   5   2  -6    0.65    0.13 
  -5  -2   6    0.49    0.22 
   4   2  -6  112.42    2.56 
  -4  -2   6  104.03    3.11 
   3   2  -6   13.12    0.48 
  -3  -2   6   12.29    0.67 
   2   2  -6   91.00    2.17 
  -2  -2   6   88.82    2.52 
   1   2  -6   60.75    1.53 
   1   2  -6   59.69    1.42 
  -1  -2   6   58.96    1.75 
   0   2  -6   33.37    0.95 
   0   2  -6   33.03    0.90 
   0  -2   6   31.64    1.04 
  -1   2  -6    2.42    0.21 
   1  -2   6    2.91    0.23 
  -2   2  -6   67.01    1.79 
   2  -2   6   68.59    1.75 
  -3   2  -6    0.15    0.11 
  -3   2  -6    0.05    0.06 
  -4   2  -6    4.31    0.20 
  -4   2  -6    4.44    0.34 
  -5   2  -6    1.89    0.28 
  -6   2  -6    0.72    0.20 
  -7   2  -6   42.51    1.53 
  -8   2  -6    0.11    0.20 
  -9   2  -6    2.14    0.42 
 -10   2  -6    2.43    0.50 
 -11  -1   6    0.59    0.50 
 -10  -1   6    0.38    0.28 
  -9  -1   6    0.52    0.27 
  -8  -1   6    1.62    0.37 
  -7  -1   6    0.85    0.29 
  -6  -1   6    0.00    0.16 
   5   1  -6   54.08    1.40 
  -5  -1   6   53.63    1.85 
   4   1  -6    0.08    0.07 
  -4  -1   6   -0.09    0.12 
   3   1  -6    3.13    0.22 
  -3  -1   6    2.74    0.33 
   2   1  -6   24.85    0.76 
  -2  -1   6   26.22    0.95 
   1   1  -6    0.09    0.07 
   1   1  -6    0.06    0.06 
  -1  -1   6   -0.07    0.09 
   0   1  -6    0.00    0.06 
   0   1  -6   -0.01    0.05 
   0  -1   6    0.06    0.09 
  -1   1  -6    5.00    0.27 
   1  -1   6    5.21    0.26 
  -2   1  -6    0.79    0.15 
  -3   1  -6   47.22    1.37 
  -4   1  -6    9.03    0.48 
  -5   1  -6    0.30    0.12 
  -6   1  -6   11.48    0.62 
  -7   1  -6    2.64    0.39 
  -8   1  -6    0.55    0.24 
  -9   1  -6    0.38    0.25 
 -10   1  -6    0.04    0.27 
 -11   0   6    1.03    0.52 
 -10   0   6    7.01    0.82 
  -9   0   6   17.53    1.07 
  -8   0   6    8.98    0.71 
  -7   0   6   65.05    2.26 
  -6   0   6   59.09    2.01 
  -6   0   6   59.33    1.56 
  -5   0   6  106.56    2.55 
   4   0  -6   14.04    0.51 
  -4   0   6   14.33    0.71 
   2   0  -6   41.15    1.11 
   2   0  -6   42.43    1.09 
  -2   0   6   43.55    1.33 
   1   0  -6  323.72    7.26 
   1   0  -6  326.75    7.05 
  -1   0   6  318.93    7.81 
   0   0  -6   43.42    1.16 
   0   0  -6   44.23    1.15 
   0   0   6   44.29    1.23 
  -1   0  -6   83.16    2.07 
  -1   0  -6   81.70    1.99 
   1   0   6   83.79    2.07 
  -2   0  -6   14.09    0.55 
  -3   0  -6   43.79    1.29 
  -4   0  -6   57.94    1.66 
  -5   0  -6    2.88    0.32 
  -6   0  -6   21.33    0.90 
  -7   0  -6    2.60    0.36 
  -8   0  -6    0.61    0.24 
  -9   0  -6    0.78    0.28 
 -10   0  -6    0.25    0.28 
 -11   1   6    0.57    0.47 
 -10   1   6    0.55    0.27 
  -9   1   6    1.19    0.33 
  -8   1   6    1.53    0.55 
  -7   1   6   -0.09    0.21 
  -7   1   6    1.31    0.23 
  -6   1   6   -0.02    0.13 
  -5   1   6   49.83    1.69 
  -4   1   6    0.05    0.14 
   3  -1  -6    2.91    0.20 
  -3   1   6    3.30    0.31 
   2  -1  -6   24.78    0.77 
   2  -1  -6   23.90    0.71 
  -2   1   6   24.25    0.84 
   1  -1  -6    0.13    0.07 
   1  -1  -6    0.12    0.08 
  -1   1   6    0.06    0.08 
   0  -1  -6    0.01    0.07 
   0  -1  -6    0.00    0.06 
   0   1   6    0.10    0.07 
  -1  -1  -6    5.16    0.31 
  -1  -1  -6    5.09    0.26 
   1   1   6    5.25    0.23 
  -2  -1  -6    0.87    0.17 
   2   1   6    0.88    0.08 
  -3  -1  -6   49.85    1.45 
  -4  -1  -6    8.34    0.47 
  -4  -1  -6    8.32    0.31 
  -5  -1  -6    0.35    0.15 
  -6  -1  -6   12.51    0.66 
  -7  -1  -6    2.59    0.38 
  -8  -1  -6    0.34    0.23 
  -9  -1  -6    0.11    0.23 
 -10  -1  -6    0.20    0.29 
 -10   2   6    0.28    0.39 
  -9   2   6    9.32    0.92 
  -9   2   6    7.35    0.75 
  -8   2   6    4.88    0.61 
  -7   2   6    3.44    0.49 
  -6   2   6   29.64    1.23 
  -5   2   6    0.64    0.21 
  -4   2   6   96.33    2.69 
   3  -2  -6   13.50    0.47 
  -3   2   6   13.62    0.61 
   2  -2  -6   94.51    2.44 
   2  -2  -6   94.84    2.21 
  -2   2   6   96.59    2.53 
   1  -2  -6   59.85    1.64 
   1  -2  -6   59.00    1.44 
  -1   2   6   60.15    1.63 
   0  -2  -6   31.89    0.98 
   0  -2  -6   28.91    0.81 
   0   2   6   29.93    0.89 
  -1  -2  -6    2.61    0.27 
   1   2   6    2.59    0.19 
  -2  -2  -6   66.41    1.82 
  -2  -2  -6   64.13    1.59 
   2   2   6   66.47    1.69 
  -3  -2  -6    0.20    0.11 
   3   2   6    0.54    0.16 
  -4  -2  -6    4.83    0.38 
  -4  -2  -6    4.49    0.28 
  -5  -2  -6    1.87    0.21 
  -5  -2  -6    1.59    0.27 
  -6  -2  -6    0.74    0.23 
  -7  -2  -6   41.18    1.47 
  -8  -2  -6    0.07    0.19 
  -9  -2  -6    2.33    0.42 
 -10  -2  -6    2.22    0.46 
 -10   3   6    0.08    0.29 
  -9   3   6    0.09    0.23 
  -8   3   6    4.27    0.57 
  -7   3   6    1.16    0.28 
  -6   3   6   19.84    0.94 
  -5   3   6    0.61    0.21 
  -4   3   6    9.16    0.53 
  -3   3   6   13.64    0.62 
   2  -3  -6    2.02    0.27 
  -2   3   6    1.68    0.22 
   1  -3  -6    0.01    0.04 
   1  -3  -6    0.29    0.13 
  -1   3   6    0.05    0.10 
   0  -3  -6   74.79    2.08 
   0  -3  -6   77.10    1.76 
   0   3   6   75.58    2.02 
  -1  -3  -6   27.24    0.72 
  -1  -3  -6   27.38    0.96 
   1   3   6   25.38    0.83 
  -2  -3  -6   15.02    0.47 
  -2  -3  -6   13.51    0.65 
   2   3   6   15.15    0.57 
  -3  -3  -6   18.24    0.80 
  -3  -3  -6   19.59    0.73 
  -3  -3  -6   20.57    0.60 
  -4  -3  -6    9.32    0.55 
  -4  -3  -6    8.42    0.46 
  -5  -3  -6   13.79    0.62 
  -5  -3  -6   13.74    0.72 
  -6  -3  -6    4.34    0.48 
  -7  -3  -6    0.52    0.22 
  -8  -3  -6    0.94    0.30 
  -9  -3  -6    0.23    0.26 
 -10  -3  -6    0.15    0.32 
 -10   4   6    3.78    0.71 
  -9   4   6    2.10    0.39 
  -9   4   6    2.64    0.49 
  -8   4   6    2.52    0.43 
  -7   4   6    0.22    0.16 
  -6   4   6   10.30    0.64 
  -5   4   6    3.45    0.40 
  -4   4   6    0.17    0.15 
  -3   4   6   64.80    1.90 
   2  -4  -6    5.43    0.42 
  -2   4   6    6.23    0.38 
   1  -4  -6    4.72    0.44 
  -1   4   6    5.52    0.36 
   0  -4  -6    8.19    0.29 
   0  -4  -6    9.18    0.53 
   0   4   6    7.49    0.41 
  -1  -4  -6   16.75    0.76 
  -1  -4  -6   17.45    0.48 
   1   4   6   17.27    0.67 
  -2  -4  -6   57.36    1.31 
  -2  -4  -6   53.65    1.71 
  -3  -4  -6    0.08    0.14 
  -3  -4  -6    0.07    0.12 
  -4  -4  -6   19.45    0.81 
  -4  -4  -6   18.67    0.87 
  -5  -4  -6    5.20    0.43 
  -5  -4  -6    6.64    0.57 
  -6  -4  -6    3.86    0.48 
  -7  -4  -6    4.78    0.55 
  -8  -4  -6    1.35    0.37 
  -9  -4  -6    0.60    0.34 
 -10  -4  -6    0.30    0.39 
  -9   5   6    3.47    0.59 
  -8   5   6   -0.30    0.17 
  -7   5   6    1.61    0.33 
  -6   5   6    0.72    0.23 
  -5   5   6    2.22    0.34 
  -4   5   6    0.08    0.14 
  -3   5   6    0.75    0.20 
   2  -5  -6    0.67    0.22 
  -2   5   6    0.57    0.17 
   1  -5  -6    3.78    0.44 
  -1   5   6    3.39    0.34 
   0  -5  -6   39.50    1.42 
   0   5   6   40.35    1.29 
  -1  -5  -6    0.26    0.14 
   1   5   6    0.30    0.13 
  -2  -5  -6    0.11    0.18 
   2   5   6    0.32    0.28 
  -3  -5  -6   13.87    0.76 
  -3  -5  -6   14.02    0.70 
  -4  -5  -6    7.58    0.57 
  -4  -5  -6    7.22    0.50 
  -5  -5  -6    0.30    0.17 
  -5  -5  -6    0.03    0.18 
  -6  -5  -6    0.31    0.23 
  -7  -5  -6   -0.06    0.23 
  -8  -5  -6    1.34    0.41 
  -9  -5  -6    1.37    0.46 
  -8   6   6    7.67    0.73 
  -7   6   6    0.16    0.20 
  -6   6   6    6.48    0.52 
  -5   6   6    1.17    0.26 
  -4   6   6    3.28    0.40 
  -3   6   6   10.09    0.60 
  -2   6   6    1.23    0.26 
   1  -6  -6   28.95    1.24 
  -1   6   6   30.52    1.11 
   0  -6  -6    0.67    0.22 
   0   6   6    0.66    0.20 
  -1  -6  -6   20.86    1.01 
   1   6   6   21.52    0.89 
  -2  -6  -6   -0.12    0.16 
   2   6   6   -0.35    0.30 
  -3  -6  -6    3.00    0.39 
  -3  -6  -6    2.93    0.44 
  -4  -6  -6   15.58    0.82 
  -4  -6  -6   15.64    0.87 
  -5  -6  -6    0.81    0.30 
  -5  -6  -6    0.77    0.25 
  -6  -6  -6    2.49    0.46 
  -7  -6  -6    0.27    0.29 
  -8  -6  -6    0.18    0.33 
  -8   7   6   -0.06    0.34 
  -7   7   6    1.17    0.35 
  -6   7   6    1.17    0.29 
  -5   7   6    0.18    0.17 
  -4   7   6    1.33    0.31 
  -3   7   6    3.72    0.45 
  -2   7   6   -0.04    0.17 
   1  -7  -6    2.45    0.42 
  -1   7   6    2.29    0.35 
   0  -7  -6    0.98    0.32 
   0   7   6    1.22    0.28 
  -1  -7  -6    6.36    0.67 
   1   7   6    6.08    0.48 
  -2  -7  -6    5.11    0.62 
  -3  -7  -6    0.17    0.26 
   3   7   6   -0.26    0.41 
   3   7   6   -0.15    0.41 
  -4  -7  -6    0.69    0.33 
  -4  -7  -6    0.95    0.28 
  -5  -7  -6    0.19    0.28 
  -5  -7  -6    0.40    0.22 
  -6  -7  -6    0.61    0.33 
  -7  -7  -6    0.25    0.35 
  -6   8   6    4.00    0.57 
  -5   8   6    1.04    0.28 
  -4   8   6    1.20    0.34 
  -3   8   6    8.14    0.63 
  -2   8   6   -0.04    0.21 
  -1   8   6    6.66    0.54 
   0  -8  -6    2.45    0.52 
   0   8   6    2.86    0.42 
  -1  -8  -6    0.92    0.37 
   1   8   6    0.87    0.28 
  -2  -8  -6    2.95    0.54 
   2   8   6    3.60    0.47 
  -3  -8  -6    0.19    0.32 
   3   8   6    0.18    0.52 
  -4  -8  -6    2.04    0.39 
  -4  -8  -6    2.40    0.52 
   4   8   6    0.35    0.34 
  -5  -8  -6   -0.20    0.33 
  -5  -8  -6    0.26    0.21 
  -6  -8  -6    1.02    0.47 
  -4   9   6    0.08    0.30 
  -3   9   6    0.01    0.29 
  -2   9   6   -0.02    0.27 
  -1   9   6    1.09    0.36 
   0   9   6    0.09    0.28 
  -1  -9  -6   -0.04    0.36 
   1   9   6    0.45    0.30 
  -2  -9  -6    0.49    0.39 
   2   9   6    0.82    0.34 
  -3  -9  -6    0.13    0.39 
   3   9   6   -0.50    0.60 
  -4  -9  -6    0.16    0.39 
   4   9   6   -0.95    0.63 
   0  10   6    0.42    0.36 
  -4  -9   7    1.11    0.56 
  -3  -9   7   -0.02    0.41 
  -2  -9   7    1.44    0.52 
  -1  -9   7    1.62    0.51 
   0  -9   7    1.22    0.45 
   1  -9   7    4.07    0.65 
  -2   9  -7   -0.29    0.53 
  -4   9  -7    0.46    0.28 
  -6  -8   7   -0.24    0.45 
  -5  -8   7   -0.06    0.42 
  -4  -8   7    0.57    0.42 
  -3  -8   7    0.41    0.35 
  -2  -8   7    0.53    0.37 
  -1  -8   7    0.25    0.30 
   0  -8   7    0.27    0.28 
   1  -8   7   -0.09    0.26 
  -2   8  -7    0.44    0.19 
  -2   8  -7    0.08    0.33 
  -2   8  -7    0.23    0.15 
  -3   8  -7   -0.03    0.14 
  -4   8  -7   -0.11    0.14 
  -5   8  -7    0.09    0.19 
  -6   8  -7   -0.07    0.29 
  -7  -7   7    3.22    0.74 
  -6  -7   7    2.90    0.65 
  -5  -7   7    0.79    0.42 
  -4  -7   7   11.26    0.92 
  -3  -7   7    0.66    0.32 
  -2  -7   7    5.22    0.64 
   1   7  -7    5.57    0.36 
  -1  -7   7    4.34    0.57 
   0   7  -7    0.86    0.19 
   0  -7   7    0.75    0.29 
  -1   7  -7    7.84    0.47 
   1  -7   7    8.07    0.65 
  -2   7  -7    0.96    0.23 
   2  -7   7    1.26    0.34 
  -3   7  -7    1.85    0.32 
  -4   7  -7    3.91    0.48 
  -5   7  -7    1.81    0.34 
  -6   7  -7    1.55    0.36 
  -7   7  -7   -0.08    0.26 
  -8  -6   7    1.75    0.58 
  -7  -6   7    0.39    0.39 
  -6  -6   7   -0.20    0.31 
  -5  -6   7    3.76    0.61 
   4   6  -7    0.80    0.15 
  -4  -6   7    0.39    0.28 
   3   6  -7    3.41    0.29 
  -3  -6   7    3.55    0.54 
   2   6  -7    1.57    0.22 
  -2  -6   7    1.22    0.33 
   1   6  -7   13.75    0.60 
  -1  -6   7   13.69    0.83 
   0   6  -7   31.98    1.04 
   0  -6   7   31.83    1.32 
  -1   6  -7    6.08    0.40 
  -1   6  -7    6.95    0.43 
   1  -6   7    6.66    0.55 
  -2   6  -7    4.44    0.42 
   2  -6   7    4.80    0.47 
  -3   6  -7    6.38    0.48 
  -4   6  -7   -0.14    0.11 
  -5   6  -7    0.31    0.19 
  -6   6  -7    0.27    0.17 
  -7   6  -7    0.98    0.30 
  -8   6  -7    0.37    0.34 
  -9  -5   7    5.48    0.86 
  -8  -5   7    4.41    0.69 
  -7  -5   7   11.42    1.01 
   6   5  -7    0.33    0.11 
  -6  -5   7    0.19    0.27 
   5   5  -7   22.79    0.77 
  -5  -5   7   22.93    1.22 
   4   5  -7    0.75    0.15 
  -4  -5   7    0.92    0.32 
   3   5  -7    3.13    0.27 
  -3  -5   7    2.17    0.40 
   2   5  -7   44.49    1.26 
  -2  -5   7   42.92    1.63 
   1   5  -7   15.12    0.62 
  -1  -5   7   16.52    0.86 
   0   5  -7   18.62    0.70 
   0   5  -7   19.21    0.72 
   0  -5   7   17.86    0.87 
  -1   5  -7   -0.07    0.08 
  -1   5  -7    0.00    0.11 
   1  -5   7   -0.10    0.16 
  -2   5  -7    0.57    0.16 
   2  -5   7    0.22    0.18 
  -3   5  -7    3.77    0.39 
  -4   5  -7    3.79    0.43 
  -5   5  -7    1.99    0.33 
  -6   5  -7    4.70    0.54 
  -7   5  -7    1.15    0.29 
  -8   5  -7    1.40    0.37 
  -9   5  -7    0.68    0.39 
  -9  -4   7    0.96    0.39 
  -8  -4   7    0.85    0.35 
  -7  -4   7    0.05    0.25 
   6   4  -7   -0.02    0.08 
  -6  -4   7    0.11    0.22 
   5   4  -7    2.92    0.27 
  -5  -4   7    2.81    0.47 
   4   4  -7    1.05    0.17 
  -4  -4   7    1.32    0.32 
   3   4  -7    0.15    0.08 
  -3  -4   7    0.00    0.16 
   2   4  -7   41.67    1.23 
  -2  -4   7   47.05    1.60 
   1   4  -7    2.28    0.19 
   1   4  -7    2.26    0.26 
  -1  -4   7    2.13    0.34 
   0   4  -7    2.50    0.23 
   0   4  -7    1.90    0.25 
   0  -4   7    2.67    0.33 
  -1   4  -7    2.33    0.25 
  -1   4  -7    2.44    0.27 
   1  -4   7    2.48    0.30 
  -2   4  -7    3.31    0.32 
   2  -4   7    3.72    0.33 
  -3   4  -7    1.01    0.20 
  -4   4  -7    7.75    0.51 
  -5   4  -7    3.68    0.43 
  -6   4  -7    5.80    0.56 
  -7   4  -7    1.02    0.28 
  -8   4  -7    1.67    0.36 
  -9   4  -7    0.03    0.23 
 -10  -3   7    1.70    0.58 
  -9  -3   7    4.45    0.66 
  -8  -3   7    0.33    0.23 
  -7  -3   7    9.36    0.77 
  -6  -3   7    0.20    0.21 
   5   3  -7    0.25    0.09 
  -5  -3   7    0.19    0.20 
   4   3  -7   44.91    1.26 
  -4  -3   7   46.96    1.70 
   3   3  -7    2.99    0.26 
  -3  -3   7    3.86    0.44 
   2   3  -7   21.80    0.74 
  -2  -3   7   21.68    0.94 
   1   3  -7    0.21    0.08 
   1   3  -7    0.17    0.10 
  -1  -3   7    0.11    0.16 
   0   3  -7   14.87    0.53 
   0   3  -7   14.71    0.58 
  -1   3  -7   39.68    1.18 
  -1   3  -7   39.86    1.16 
   1  -3   7   40.48    1.25 
  -2   3  -7    9.73    0.49 
   2  -3   7   10.67    0.47 
  -3   3  -7   42.17    1.31 
  -3   3  -7   40.26    1.11 
  -4   3  -7   11.80    0.61 
  -5   3  -7   12.25    0.67 
  -6   3  -7    0.63    0.21 
  -7   3  -7    3.32    0.44 
  -8   3  -7    2.36    0.39 
  -9   3  -7    1.26    0.31 
 -10   3  -7    0.50    0.37 
 -10  -2   7    0.22    0.37 
  -9  -2   7    1.04    0.36 
  -8  -2   7    0.03    0.19 
  -7  -2   7    0.74    0.31 
  -6  -2   7    3.54    0.52 
   5   2  -7    0.42    0.12 
  -5  -2   7    0.39    0.21 
   4   2  -7   13.23    0.52 
  -4  -2   7   13.91    0.78 
   3   2  -7    0.36    0.11 
  -3  -2   7    0.53    0.21 
   2   2  -7   21.29    0.71 
  -2  -2   7   21.56    0.88 
   1   2  -7    6.33    0.35 
   1   2  -7    6.86    0.27 
  -1  -2   7    7.07    0.44 
   0   2  -7   56.87    1.45 
   0   2  -7   57.00    1.50 
   0  -2   7   56.36    1.64 
  -1   2  -7    1.30    0.18 
  -1   2  -7    1.36    0.19 
   1  -2   7    1.22    0.17 
  -2   2  -7   20.48    0.74 
   2  -2   7   20.89    0.65 
  -3   2  -7    6.68    0.41 
  -4   2  -7    0.16    0.10 
  -5   2  -7   15.74    0.75 
  -6   2  -7    0.66    0.20 
  -7   2  -7    0.14    0.15 
  -8   2  -7    0.23    0.15 
  -9   2  -7   -0.04    0.21 
 -10   2  -7    0.24    0.34 
 -10  -1   7    1.33    0.42 
  -9  -1   7    3.69    0.58 
  -8  -1   7    0.22    0.20 
  -7  -1   7   18.74    1.04 
  -6  -1   7   32.03    1.39 
   5   1  -7    0.70    0.13 
  -5  -1   7    0.92    0.26 
   4   1  -7   67.07    1.65 
  -4  -1   7   62.39    2.06 
   3   1  -7    6.16    0.32 
  -3  -1   7    6.82    0.48 
   2   1  -7   13.48    0.52 
   2   1  -7   13.52    0.40 
  -2  -1   7   14.28    0.66 
   1   1  -7   23.54    0.66 
   1   1  -7   24.73    0.76 
  -1  -1   7   21.40    0.83 
   0   1  -7    8.36    0.35 
   0   1  -7    8.18    0.39 
   0  -1   7    8.67    0.42 
  -1   1  -7  136.04    3.19 
  -1   1  -7  136.02    3.25 
   1  -1   7  136.82    3.37 
  -2   1  -7    1.17    0.19 
  -3   1  -7    4.11    0.31 
  -4   1  -7    0.90    0.19 
  -5   1  -7    5.86    0.42 
  -6   1  -7    5.88    0.44 
  -7   1  -7    0.14    0.14 
  -8   1  -7    6.30    0.61 
  -9   1  -7    0.19    0.24 
 -10   1  -7    1.27    0.41 
 -10   0   7    0.17    0.28 
  -9   0   7    0.19    0.23 
  -8   0   7    0.25    0.19 
  -7   0   7    0.08    0.17 
  -6   0   7   -0.08    0.19 
   4   0  -7   -0.05    0.07 
  -4   0   7   -0.33    0.23 
   3   0  -7   -0.08    0.06 
  -3   0   7    0.06    0.19 
  -3   0   7    0.15    0.12 
   2   0  -7   -0.04    0.06 
   2   0  -7    0.00    0.07 
  -2   0   7    0.11    0.11 
   1   0  -7   -0.01    0.07 
   1   0  -7    0.00    0.06 
  -1   0   7    0.05    0.09 
   0   0  -7    0.09    0.08 
   0   0  -7   -0.04    0.06 
   0   0   7    0.07    0.12 
  -1   0  -7   -0.05    0.07 
  -1   0  -7    0.00    0.07 
   1   0   7   -0.07    0.07 
  -2   0  -7    0.03    0.09 
  -3   0  -7   -0.04    0.08 
  -4   0  -7    0.06    0.08 
  -5   0  -7   -0.05    0.08 
  -6   0  -7    0.14    0.11 
  -7   0  -7    0.23    0.17 
  -8   0  -7   -0.20    0.16 
  -9   0  -7   -0.21    0.19 
 -10   0  -7    0.03    0.29 
 -10   1   7    1.39    0.44 
  -9   1   7    4.13    0.61 
  -7   1   7   20.30    1.05 
  -6   1   7   30.67    1.32 
  -5   1   7    0.82    0.24 
   4  -1  -7   70.08    1.74 
  -4   1   7   69.31    2.14 
   3  -1  -7    6.28    0.31 
  -3   1   7    6.69    0.44 
   2  -1  -7   12.82    0.48 
   2  -1  -7   13.33    0.52 
  -2   1   7   13.60    0.59 
   1  -1  -7   23.66    0.78 
   1  -1  -7   23.93    0.73 
  -1   1   7   24.46    0.81 
   0  -1  -7    8.09    0.40 
   0  -1  -7    8.59    0.37 
   0   1   7    8.06    0.36 
  -1  -1  -7  131.72    3.06 
  -1  -1  -7  135.25    3.26 
   1   1   7  132.79    3.26 
  -2  -1  -7    1.35    0.21 
  -2  -1  -7    1.42    0.18 
   2   1   7    1.17    0.11 
  -3  -1  -7    4.08    0.35 
  -4  -1  -7    0.72    0.18 
  -5  -1  -7    6.52    0.45 
  -6  -1  -7    5.27    0.48 
  -7  -1  -7    0.20    0.19 
  -8  -1  -7    6.37    0.59 
  -9  -1  -7    0.10    0.24 
 -10  -1  -7    1.14    0.42 
 -10   2   7    0.78    0.37 
  -9   2   7    1.64    0.48 
  -8   2   7    0.14    0.18 
  -7   2   7    0.82    0.27 
  -6   2   7    3.62    0.48 
  -5   2   7    0.26    0.17 
  -4   2   7   13.22    0.68 
   3  -2  -7    0.50    0.12 
  -3   2   7    0.57    0.17 
   2  -2  -7   21.39    0.65 
   2  -2  -7   21.00    0.78 
  -2   2   7   21.73    0.80 
   1  -2  -7    6.20    0.39 
   1  -2  -7    7.42    0.32 
  -1   2   7    7.08    0.38 
   0  -2  -7   56.43    1.62 
   0  -2  -7   58.49    1.44 
  -1  -2  -7    1.13    0.20 
  -1  -2  -7    0.96    0.14 
   1   2   7    1.30    0.14 
  -2  -2  -7   20.65    0.82 
   2   2   7   21.69    0.65 
  -3  -2  -7    4.87    0.38 
   3   2   7    6.18    0.28 
  -4  -2  -7    0.04    0.10 
  -5  -2  -7   15.67    0.77 
  -6  -2  -7    0.37    0.19 
  -7  -2  -7    0.30    0.22 
  -8  -2  -7    0.09    0.20 
  -9  -2  -7   -0.02    0.23 
 -10  -2  -7    0.48    0.34 
 -10   3   7    0.14    0.51 
  -9   3   7    6.06    0.74 
  -8   3   7    0.48    0.22 
  -7   3   7    9.96    0.70 
  -6   3   7   -0.17    0.14 
  -5   3   7    0.25    0.18 
  -4   3   7   46.51    1.54 
  -3   3   7    3.33    0.33 
   2  -3  -7   22.25    0.66 
   2  -3  -7   22.16    0.87 
  -2   3   7   21.18    0.81 
   1  -3  -7    0.16    0.07 
   1  -3  -7    0.14    0.12 
  -1   3   7    0.12    0.10 
   0  -3  -7   14.14    0.66 
   0  -3  -7   14.92    0.47 
   0   3   7   13.78    0.56 
  -1  -3  -7   40.59    1.32 
  -1  -3  -7   40.84    1.05 
  -2  -3  -7   10.34    0.40 
  -2  -3  -7   10.05    0.55 
   2   3   7   10.08    0.44 
  -3  -3  -7   42.54    1.13 
  -3  -3  -7   41.67    1.40 
   3   3   7   42.56    1.22 
  -4  -3  -7   11.05    0.63 
  -4  -3  -7   11.01    0.51 
  -5  -3  -7   10.22    0.62 
  -6  -3  -7    0.49    0.21 
  -7  -3  -7    2.68    0.44 
  -8  -3  -7    1.72    0.38 
  -9  -3  -7    0.90    0.36 
 -10  -3  -7    0.13    0.34 
  -9   4   7    0.54    0.31 
  -8   4   7    0.51    0.26 
  -7   4   7    0.15    0.17 
  -6   4   7    0.10    0.19 
  -5   4   7    3.42    0.41 
  -4   4   7    1.28    0.26 
  -3   4   7    0.28    0.15 
   2  -4  -7   46.54    1.53 
  -2   4   7   45.61    1.43 
   1  -4  -7    2.02    0.15 
   1  -4  -7    2.12    0.30 
  -1   4   7    2.05    0.26 
   0  -4  -7    2.26    0.31 
   0  -4  -7    2.36    0.16 
   0   4   7    2.46    0.26 
  -1  -4  -7    2.27    0.31 
  -1  -4  -7    2.82    0.17 
   1   4   7    2.41    0.25 
  -2  -4  -7    2.47    0.34 
  -2  -4  -7    3.05    0.19 
   2   4   7    2.06    0.23 
  -3  -4  -7    0.88    0.24 
   3   4   7    2.04    0.32 
  -4  -4  -7    7.73    0.56 
  -4  -4  -7    8.68    0.50 
  -5  -4  -7    4.46    0.51 
  -6  -4  -7    6.54    0.63 
  -7  -4  -7    0.95    0.33 
  -8  -4  -7    1.60    0.41 
  -9  -4  -7   -0.02    0.30 
  -9   5   7    5.61    0.77 
  -8   5   7    4.44    0.60 
  -7   5   7   11.18    0.74 
  -6   5   7    0.05    0.17 
  -5   5   7   23.45    1.04 
  -4   5   7    0.72    0.22 
  -3   5   7    2.30    0.32 
   2  -5  -7   41.40    1.51 
  -2   5   7   41.63    1.37 
   1  -5  -7   14.45    0.78 
  -1   5   7   16.09    0.71 
   0  -5  -7   18.11    0.88 
   0   5   7   18.87    0.76 
  -1  -5  -7    0.03    0.12 
   1   5   7    0.05    0.12 
  -2  -5  -7    0.15    0.14 
   2   5   7    0.39    0.15 
  -3  -5  -7    3.35    0.45 
  -4  -5  -7    2.95    0.35 
  -4  -5  -7    2.71    0.42 
  -5  -5  -7    1.87    0.36 
  -6  -5  -7    4.73    0.59 
  -7  -5  -7    1.39    0.40 
  -8  -5  -7    0.19    0.32 
  -9  -5  -7    0.84    0.46 
  -8   6   7    2.04    0.49 
  -7   6   7    0.92    0.29 
  -6   6   7   -0.05    0.15 
  -5   6   7    2.87    0.42 
  -4   6   7    1.04    0.27 
  -3   6   7    3.00    0.38 
  -2   6   7    1.27    0.27 
   1  -6  -7   13.18    0.80 
  -1   6   7   14.24    0.70 
   0  -6  -7   30.54    1.30 
   0   6   7   33.21    1.17 
  -1  -6  -7    6.64    0.62 
   1   6   7    6.33    0.45 
  -2  -6  -7    3.69    0.51 
   2   6   7    5.16    0.40 
  -3  -6  -7    6.25    0.63 
  -4  -6  -7   -0.08    0.19 
   4   6   7    0.02    0.28 
  -5  -6  -7    0.47    0.27 
  -6  -6  -7   -0.11    0.23 
  -7  -6  -7    1.18    0.40 
  -8  -6  -7    0.68    0.39 
  -7   7   7    4.13    0.61 
  -6   7   7    3.52    0.48 
  -5   7   7    1.22    0.34 
  -4   7   7   11.10    0.70 
  -3   7   7    0.75    0.26 
  -2   7   7    5.70    0.53 
   1  -7  -7    6.00    0.65 
  -1   7   7    5.36    0.50 
   0  -7  -7    0.79    0.24 
   0   7   7    0.89    0.27 
  -1  -7  -7    7.25    0.71 
   1   7   7    8.21    0.56 
  -2  -7  -7    1.44    0.38 
   2   7   7    1.30    0.28 
  -3  -7  -7    1.79    0.44 
   3   7   7    3.76    0.56 
  -4  -7  -7    3.50    0.56 
  -5  -7  -7    1.95    0.47 
  -6  -7  -7    1.52    0.46 
  -7  -7  -7    0.26    0.40 
  -6   8   7    0.06    0.31 
  -5   8   7    0.19    0.29 
  -4   8   7    0.80    0.32 
  -3   8   7    0.30    0.27 
  -2   8   7    0.31    0.25 
  -1   8   7    0.28    0.25 
   0  -8  -7    0.37    0.35 
   0   8   7    0.52    0.27 
  -1  -8  -7    0.10    0.31 
   1   8   7    0.29    0.24 
  -2  -8  -7    0.67    0.37 
   2   8   7    0.72    0.27 
  -3  -8  -7    0.02    0.32 
   3   8   7    0.38    0.24 
  -4  -8  -7   -0.05    0.34 
   4   8   7   -0.95    0.54 
  -5  -8  -7   -0.03    0.37 
  -6  -8  -7    0.15    0.42 
  -4   9   7    1.25    0.42 
  -3   9   7    0.12    0.33 
  -2   9   7    1.82    0.45 
  -1   9   7    1.07    0.39 
   0   9   7    0.98    0.36 
  -1  -9  -7    3.24    0.66 
   1   9   7    4.86    0.60 
  -2  -9  -7   -0.02    0.40 
   2   9   7    0.13    0.30 
  -3  -9  -7    2.55    0.65 
   3   9   7    2.86    0.49 
  -4  -9  -7   -0.09    0.40 
  -3  -9   8    0.31    0.51 
  -2  -9   8   -0.15    0.38 
  -1  -9   8    1.30    0.49 
   0  -9   8    0.22    0.40 
   1  -9   8    0.24    0.41 
  -5  -8   8    0.72    0.54 
  -4  -8   8    0.25    0.39 
  -3  -8   8    3.67    0.64 
  -2  -8   8    1.73    0.48 
  -1  -8   8    5.02    0.66 
   0  -8   8    1.85    0.45 
   1  -8   8    0.33    0.30 
  -2   8  -8    0.66    0.20 
  -3   8  -8    2.85    0.41 
  -4   8  -8    1.94    0.35 
  -5   8  -8    0.85    0.31 
  -7  -7   8    0.18    0.47 
  -6  -7   8    2.15    0.61 
  -5  -7   8    0.68    0.43 
  -4  -7   8    0.69    0.39 
  -3  -7   8    0.12    0.29 
   2   7  -8    0.16    0.13 
  -2  -7   8   -0.14    0.23 
   1   7  -8    1.30    0.22 
  -1  -7   8    1.26    0.37 
   0   7  -8    3.03    0.35 
   0  -7   8    2.54    0.45 
  -1   7  -8    0.32    0.14 
   1  -7   8    0.35    0.28 
  -2   7  -8    0.57    0.18 
  -2   7  -8    0.58    0.19 
  -3   7  -8    0.20    0.14 
  -4   7  -8    0.46    0.20 
  -5   7  -8    0.23    0.20 
  -6   7  -8    0.12    0.21 
  -8  -6   8    6.00    0.91 
  -7  -6   8    6.76    0.90 
  -6  -6   8    2.83    0.62 
   5   6  -8    2.79    0.28 
  -5  -6   8    1.96    0.49 
   4   6  -8    1.14    0.19 
  -4  -6   8    1.38    0.40 
   3   6  -8    6.11    0.37 
  -3  -6   8    6.43    0.69 
   2   6  -8    8.85    0.46 
  -2  -6   8    8.42    0.69 
   1   6  -8    0.20    0.12 
  -1  -6   8    0.45    0.25 
   0   6  -8   14.36    0.65 
   0  -6   8   15.99    0.88 
  -1   6  -8   -0.04    0.11 
  -1   6  -8    0.19    0.12 
   1  -6   8    0.05    0.20 
  -2   6  -8    4.76    0.42 
   2  -6   8    3.02    0.41 
  -3   6  -8    0.06    0.12 
  -4   6  -8    0.26    0.17 
  -5   6  -8    3.14    0.44 
  -6   6  -8   -0.01    0.15 
  -7   6  -8    0.82    0.30 
  -9  -5   8    1.37    0.62 
  -8  -5   8    4.65    0.81 
  -7  -5   8    0.72    0.42 
   6   5  -8    1.71    0.22 
  -6  -5   8    1.78    0.48 
   5   5  -8    0.45    0.12 
  -5  -5   8    0.34    0.28 
   4   5  -8    3.99    0.29 
  -4  -5   8    4.61    0.60 
   3   5  -8    1.82    0.23 
  -3  -5   8    1.57    0.37 
   2   5  -8    0.10    0.10 
  -2  -5   8    0.00    0.19 
   1   5  -8   27.14    0.94 
  -1  -5   8   27.19    1.18 
   0   5  -8   23.17    0.81 
   0   5  -8   23.98    0.86 
   0  -5   8   23.55    1.04 
  -1   5  -8    0.66    0.17 
  -1   5  -8    1.05    0.21 
  -2   5  -8    4.61    0.36 
   2  -5   8    4.58    0.42 
  -3   5  -8    0.01    0.11 
  -4   5  -8   -0.05    0.12 
  -5   5  -8    2.22    0.37 
  -6   5  -8    0.55    0.21 
  -7   5  -8    0.62    0.22 
  -8   5  -8    0.05    0.21 
  -9  -4   8    0.17    0.36 
  -8  -4   8    2.15    0.55 
  -7  -4   8    8.67    0.88 
   6   4  -8    4.32    0.30 
  -6  -4   8    3.92    0.60 
   5   4  -8    6.98    0.38 
  -5  -4   8    6.94    0.70 
   4   4  -8    8.53    0.43 
  -4  -4   8    8.70    0.68 
   3   4  -8    9.10    0.45 
  -3  -4   8   10.28    0.70 
   2   4  -8   14.21    0.59 
  -2  -4   8   14.57    0.80 
   1   4  -8    4.75    0.33 
  -1  -4   8    4.37    0.45 
   0   4  -8   23.80    0.82 
   0   4  -8   24.08    0.75 
   0  -4   8   17.20    0.86 
  -1   4  -8   14.94    0.62 
  -1   4  -8   14.53    0.64 
   1  -4   8   15.50    0.71 
  -2   4  -8    4.71    0.36 
   2  -4   8    5.15    0.38 
  -3   4  -8    9.97    0.55 
  -4   4  -8    9.14    0.56 
  -5   4  -8   16.71    0.84 
  -6   4  -8    0.12    0.16 
  -7   4  -8    9.79    0.70 
  -8   4  -8    0.18    0.19 
  -9   4  -8   -0.23    0.24 
 -10  -3   8    0.29    0.50 
  -9  -3   8    0.29    0.31 
  -8  -3   8    2.72    0.58 
  -7  -3   8    2.08    0.45 
   6   3  -8    0.45    0.12 
  -6  -3   8    0.76    0.30 
   5   3  -8    0.55    0.13 
  -5  -3   8    0.46    0.25 
   4   3  -8    5.81    0.34 
  -4  -3   8    5.83    0.58 
   3   3  -8   -0.02    0.06 
  -3  -3   8   -0.16    0.13 
   2   3  -8    5.64    0.33 
  -2  -3   8    5.12    0.47 
   1   3  -8    1.61    0.15 
   1   3  -8    1.54    0.21 
  -1  -3   8    1.99    0.30 
   0   3  -8    7.35    0.40 
   0   3  -8    7.70    0.36 
   0  -3   8    7.22    0.47 
  -1   3  -8   14.27    0.60 
  -1   3  -8   13.09    0.56 
   1  -3   8   14.29    0.61 
  -2   3  -8    6.55    0.40 
   2  -3   8    6.99    0.38 
  -3   3  -8    4.69    0.35 
  -4   3  -8    5.45    0.41 
  -5   3  -8    0.11    0.13 
  -6   3  -8    0.40    0.17 
  -7   3  -8    0.69    0.24 
  -8   3  -8    1.25    0.31 
  -9   3  -8    0.50    0.25 
 -10  -2   8   12.95    1.17 
  -9  -2   8   -0.09    0.24 
  -8  -2   8    0.48    0.29 
  -7  -2   8   15.93    1.02 
   6   2  -8    3.76    0.27 
  -6  -2   8    3.56    0.54 
   5   2  -8   41.93    1.21 
  -5  -2   8   42.16    1.65 
   4   2  -8    4.39    0.29 
  -4  -2   8    4.49    0.50 
   3   2  -8   65.98    1.72 
  -3  -2   8   65.05    2.09 
   2   2  -8   28.72    0.92 
  -2  -2   8   31.09    1.14 
   1   2  -8   87.19    2.15 
   1   2  -8   86.67    2.03 
  -1  -2   8   80.82    2.39 
   0   2  -8   23.30    0.79 
   0   2  -8   23.04    0.72 
   0  -2   8   22.97    0.85 
  -1   2  -8    0.49    0.15 
  -1   2  -8    0.57    0.14 
   1  -2   8    0.79    0.16 
  -2   2  -8   36.36    1.14 
   2  -2   8   37.90    1.04 
  -3   2  -8    1.27    0.23 
  -4   2  -8   12.84    0.63 
  -5   2  -8    0.07    0.10 
  -6   2  -8    2.69    0.37 
  -7   2  -8    0.23    0.16 
  -8   2  -8    0.82    0.24 
  -9   2  -8    0.64    0.26 
 -10   2  -8    0.40    0.38 
 -10  -1   8    0.14    0.37 
  -9  -1   8    0.49    0.28 
  -8  -1   8    0.17    0.24 
  -7  -1   8    0.57    0.30 
  -6  -1   8   59.17    2.13 
   5   1  -8    7.41    0.39 
  -5  -1   8    8.78    0.64 
   4   1  -8    0.42    0.11 
  -4  -1   8    0.99    0.26 
   3   1  -8   21.28    0.73 
  -3  -1   8   23.24    0.98 
   2   1  -8   22.40    0.62 
   2   1  -8   21.86    0.75 
  -2  -1   8   22.50    0.91 
   1   1  -8    3.28    0.21 
   1   1  -8    3.62    0.27 
   0   1  -8    2.66    0.26 
   0   1  -8    2.77    0.21 
   0  -1   8    3.08    0.27 
  -1   1  -8    0.20    0.10 
  -1   1  -8    0.24    0.12 
   1  -1   8    0.15    0.11 
  -2   1  -8    2.62    0.27 
  -3   1  -8   11.05    0.54 
  -4   1  -8    0.71    0.18 
  -5   1  -8    0.38    0.16 
  -6   1  -8    0.01    0.12 
  -7   1  -8    0.00    0.12 
  -8   1  -8    0.02    0.12 
  -9   1  -8    0.06    0.24 
 -10   1  -8    0.56    0.38 
 -10   0   8    4.51    0.74 
  -9   0   8    2.65    0.50 
  -8   0   8   15.35    0.99 
  -7   0   8    4.11    0.58 
  -6   0   8   30.97    1.39 
   5   0  -8   31.08    0.96 
  -5   0   8   32.65    1.32 
   4   0  -8   14.80    0.57 
   3   0  -8    5.07    0.30 
   2   0  -8   28.48    0.88 
   2   0  -8   29.59    0.86 
   1   0  -8    9.51    0.41 
   1   0  -8   10.54    0.45 
   0   0  -8    3.79    0.26 
   0   0  -8    3.87    0.27 
   0   0   8    4.13    0.33 
  -1   0  -8   30.70    0.98 
  -1   0  -8   31.16    0.95 
   1   0   8   32.12    0.93 
  -2   0  -8   75.67    2.03 
  -2   0  -8   75.50    1.93 
  -3   0  -8   28.79    0.99 
  -4   0  -8    2.21    0.29 
  -5   0  -8    3.41    0.38 
  -6   0  -8   23.25    0.98 
  -7   0  -8   23.89    1.04 
  -8   0  -8    0.10    0.20 
  -9   0  -8    0.20    0.25 
 -10   0  -8    2.30    0.50 
 -10   1   8    0.29    0.40 
  -9   1   8    1.09    0.35 
  -8   1   8    0.43    0.29 
  -7   1   8    1.01    0.50 
  -6   1   8    0.65    0.27 
  -5   1   8    8.39    0.62 
   4  -1  -8    0.80    0.16 
  -4   1   8    0.67    0.22 
   3  -1  -8   20.32    0.69 
  -3   1   8   22.00    0.91 
   2  -1  -8   21.93    0.75 
   2  -1  -8   22.31    0.71 
  -2   1   8   21.25    0.84 
   1  -1  -8    3.47    0.24 
   1  -1  -8    3.19    0.25 
  -1   1   8    3.19    0.27 
   0  -1  -8    2.83    0.25 
   0  -1  -8    3.26    0.29 
   0   1   8    2.84    0.23 
  -1  -1  -8    0.20    0.12 
  -1  -1  -8    0.04    0.08 
   1   1   8    0.22    0.10 
  -2  -1  -8    2.74    0.25 
  -2  -1  -8    2.67    0.30 
   2   1   8    2.71    0.17 
  -3  -1  -8    9.64    0.52 
  -4  -1  -8    0.45    0.15 
  -5  -1  -8    0.34    0.15 
  -6  -1  -8   -0.12    0.13 
  -7  -1  -8   -0.07    0.18 
  -8  -1  -8   -0.03    0.21 
  -9  -1  -8    0.05    0.24 
 -10  -1  -8    0.53    0.38 
 -10   2   8   14.51    1.15 
  -9   2   8   -0.75    0.53 
  -8   2   8    0.12    0.19 
  -7   2   8   16.92    1.02 
  -6   2   8    3.34    0.50 
  -5   2   8   42.18    1.56 
  -4   2   8    3.68    0.40 
   3  -2  -8   65.34    1.65 
  -3   2   8   65.43    1.96 
   2  -2  -8   32.37    0.93 
   2  -2  -8   32.92    1.08 
  -2   2   8   32.41    1.10 
   1  -2  -8   87.44    2.10 
   1  -2  -8   88.06    2.32 
  -1   2   8   86.06    2.34 
   0  -2  -8   23.43    0.86 
   0  -2  -8   23.38    0.72 
   0   2   8   21.60    0.75 
  -1  -2  -8    0.87    0.15 
  -1  -2  -8    0.71    0.17 
   1   2   8    0.82    0.14 
  -2  -2  -8   37.44    1.25 
  -2  -2  -8   37.10    1.05 
   2   2   8   37.85    1.04 
  -3  -2  -8    1.80    0.27 
  -3  -2  -8    2.13    0.23 
   3   2   8    2.02    0.16 
  -4  -2  -8   12.76    0.67 
  -5  -2  -8    0.13    0.12 
  -6  -2  -8    3.20    0.43 
  -7  -2  -8    0.12    0.22 
  -8  -2  -8    0.68    0.30 
  -9  -2  -8    0.48    0.32 
 -10  -2  -8    0.66    0.41 
 -10   3   8    0.59    0.85 
 -10   3   8    1.25    0.57 
  -9   3   8    0.36    0.33 
  -8   3   8    3.28    0.54 
  -7   3   8    1.49    0.40 
  -6   3   8    0.10    0.22 
  -5   3   8    0.72    0.24 
  -4   3   8    5.47    0.44 
  -3   3   8   -0.03    0.12 
   2  -3  -8    6.00    0.30 
   2  -3  -8    5.59    0.42 
  -2   3   8    4.94    0.37 
   1  -3  -8    1.54    0.17 
   1  -3  -8    1.57    0.26 
  -1   3   8    1.72    0.23 
   0  -3  -8    7.07    0.46 
   0   3   8    7.07    0.38 
  -1  -3  -8   12.93    0.64 
  -1  -3  -8   13.16    0.48 
   1   3   8   13.46    0.53 
  -2  -3  -8    5.76    0.43 
  -2  -3  -8    7.57    0.35 
   2   3   8    6.55    0.34 
  -3  -3  -8    4.32    0.44 
  -3  -3  -8    5.27    0.30 
   3   3   8    4.68    0.30 
  -4  -3  -8    4.41    0.47 
  -4  -3  -8    5.26    0.31 
  -5  -3  -8    0.02    0.15 
  -6  -3  -8    0.29    0.21 
  -7  -3  -8    0.18    0.26 
  -8  -3  -8    0.69    0.31 
  -9  -3  -8    0.59    0.36 
  -9   4   8    0.16    0.35 
  -8   4   8    1.77    0.40 
  -7   4   8    6.88    0.68 
  -6   4   8    3.75    0.49 
  -5   4   8    6.92    0.53 
  -4   4   8    7.78    0.54 
  -3   4   8   10.07    0.58 
   2  -4  -8   14.48    0.74 
  -2   4   8   14.03    0.65 
   1  -4  -8    5.16    0.47 
   1  -4  -8    4.94    0.26 
  -1   4   8    5.02    0.36 
   0  -4  -8   22.98    0.98 
   0  -4  -8   24.05    0.68 
   0   4   8   23.91    0.86 
  -1  -4  -8   14.85    0.48 
  -1  -4  -8   14.29    0.73 
   1   4   8   14.03    0.60 
  -2  -4  -8    3.71    0.43 
   2   4   8    4.47    0.31 
  -3  -4  -8    8.79    0.57 
   3   4   8    9.33    0.46 
  -4  -4  -8    8.14    0.59 
  -5  -4  -8   14.88    0.85 
  -6  -4  -8    0.21    0.24 
  -7  -4  -8    9.18    0.79 
  -8  -4  -8    0.13    0.31 
  -9  -4  -8   -0.08    0.36 
  -9   5   8    1.36    0.54 
  -8   5   8    5.01    0.66 
  -7   5   8    0.16    0.21 
  -6   5   8    2.18    0.41 
  -5   5   8    0.21    0.20 
  -4   5   8    4.79    0.48 
  -3   5   8    1.73    0.29 
   2  -5  -8   -0.06    0.13 
  -2   5   8    0.00    0.14 
   1  -5  -8   26.18    1.13 
  -1   5   8   25.98    0.98 
   0  -5  -8   25.98    1.11 
   0   5   8   24.38    0.93 
  -1  -5  -8    0.88    0.23 
   1   5   8    1.13    0.21 
  -2  -5  -8    4.00    0.47 
   2   5   8    4.43    0.36 
  -3  -5  -8    0.10    0.15 
   3   5   8    0.41    0.12 
  -4  -5  -8    0.19    0.22 
  -5  -5  -8    2.19    0.41 
  -6  -5  -8    0.37    0.29 
  -7  -5  -8    0.85    0.36 
  -8  -5  -8   -0.13    0.32 
  -8   6   8    6.18    0.76 
  -7   6   8    5.53    0.63 
  -6   6   8    1.77    0.42 
  -5   6   8    2.29    0.42 
  -4   6   8    1.05    0.28 
  -3   6   8    5.51    0.50 
   2  -6  -8    9.88    0.70 
  -2   6   8    9.62    0.58 
   1  -6  -8    0.40    0.20 
  -1   6   8    0.37    0.20 
   0  -6  -8   16.18    0.89 
   0   6   8   15.79    0.75 
  -1  -6  -8   -0.01    0.16 
   1   6   8    0.05    0.16 
  -2  -6  -8    4.25    0.53 
   2   6   8    4.84    0.40 
  -3  -6  -8    0.03    0.19 
   3   6   8    0.30    0.17 
  -4  -6  -8    0.05    0.23 
  -5  -6  -8    3.57    0.56 
  -6  -6  -8    0.07    0.26 
  -7  -6  -8    1.42    0.48 
  -7   7   8    0.30    0.35 
  -6   7   8    1.89    0.45 
  -5   7   8    0.93    0.33 
  -4   7   8    0.63    0.28 
  -3   7   8    0.04    0.22 
  -2   7   8    0.17    0.21 
   1  -7  -8    1.02    0.30 
  -1   7   8    1.33    0.31 
   0  -7  -8    2.42    0.44 
   0   7   8    3.04    0.41 
  -1  -7  -8    0.35    0.19 
   1   7   8    0.53    0.23 
  -2  -7  -8    0.73    0.34 
   2   7   8    0.74    0.24 
  -3  -7  -8   -0.02    0.28 
   3   7   8    0.34    0.24 
  -4  -7  -8    0.37    0.32 
  -5  -7  -8   -0.02    0.33 
  -6  -7  -8   -0.15    0.34 
  -5   8   8    1.14    0.41 
  -4   8   8    0.12    0.28 
  -3   8   8    4.64    0.55 
  -2   8   8    1.63    0.38 
  -1   8   8    5.32    0.57 
   0  -8  -8    1.08    0.32 
   0   8   8    1.24    0.34 
  -1  -8  -8    0.09    0.33 
   1   8   8    0.56    0.27 
  -2  -8  -8    0.46    0.36 
   2   8   8    1.04    0.33 
  -3  -8  -8    2.84    0.59 
   3   8   8    3.54    0.49 
  -4  -8  -8    1.34    0.48 
  -5  -8  -8    0.27    0.45 
  -3   9   8    0.11    0.32 
  -2   9   8    0.19    0.35 
  -1   9   8    0.73    0.38 
   0  -9  -8    0.34    0.48 
   0   9   8    0.03    0.34 
  -1  -9  -8   -0.08    0.42 
   1   9   8    0.09    0.32 
  -2  -9  -8    0.13    0.46 
   2   9   8    0.78    0.39 
  -3  -9  -8    1.20    0.52 
   3   9   8    0.99    0.41 
  -2  -9   9    1.30    0.54 
  -1  -9   9    0.37    0.46 
   0  -9   9   -0.02    0.46 
  -5  -8   9    0.38    0.49 
  -4  -8   9    1.11    0.50 
  -3  -8   9   -0.03    0.38 
  -2  -8   9    0.04    0.35 
  -1  -8   9    2.70    0.54 
   0  -8   9    0.86    0.39 
  -1   8  -9   -0.01    0.14 
  -2   8  -9    1.58    0.28 
  -3   8  -9    0.41    0.19 
  -6  -7   9    6.61    0.93 
  -5  -7   9    0.61    0.45 
  -4  -7   9    0.98    0.45 
  -3  -7   9    4.82    0.68 
   2   7  -9    0.92    0.19 
  -2  -7   9    0.46    0.32 
   1   7  -9   13.25    0.65 
  -1  -7   9   14.05    0.92 
   0   7  -9    2.31    0.31 
   0  -7   9    2.49    0.46 
  -1   7  -9    1.00    0.24 
  -2   7  -9    1.69    0.28 
  -3   7  -9    1.39    0.29 
  -4   7  -9    2.55    0.40 
  -5   7  -9    0.29    0.18 
  -6   7  -9    3.10    0.52 
  -7  -6   9    0.36    0.48 
  -6  -6   9    0.06    0.38 
   5   6  -9    0.06    0.11 
  -5  -6   9   -0.22    0.28 
   4   6  -9    1.66    0.23 
  -4  -6   9    1.38    0.41 
   3   6  -9    0.27    0.12 
  -3  -6   9   -0.15    0.23 
   2   6  -9    0.41    0.15 
  -2  -6   9    0.67    0.31 
   1   6  -9    0.06    0.12 
  -1  -6   9    0.19    0.22 
   0   6  -9    0.24    0.14 
   0  -6   9    0.31    0.23 
  -1   6  -9    0.98    0.21 
   1  -6   9    0.37    0.23 
  -2   6  -9    0.86    0.21 
  -2   6  -9    1.17    0.23 
  -3   6  -9    0.12    0.16 
  -4   6  -9    0.71    0.22 
  -5   6  -9    1.13    0.29 
  -6   6  -9    0.21    0.19 
  -7   6  -9    0.03    0.24 
  -8  -5   9    1.48    0.62 
  -7  -5   9    0.30    0.40 
   6   5  -9   14.33    0.61 
  -6  -5   9   12.75    1.01 
   5   5  -9   -0.03    0.09 
  -5  -5   9   -0.08    0.26 
   4   5  -9    8.94    0.46 
  -4  -5   9    7.89    0.75 
   3   5  -9    0.82    0.18 
  -3  -5   9    0.56    0.29 
   2   5  -9    6.18    0.40 
  -2  -5   9    5.98    0.59 
   1   5  -9   25.31    0.92 
  -1  -5   9   23.87    1.12 
   0   5  -9   10.74    0.55 
   0  -5   9    9.32    0.64 
  -1   5  -9   30.17    1.04 
  -1   5  -9   31.21    1.10 
   1  -5   9   29.97    1.18 
  -2   5  -9    0.05    0.11 
  -2   5  -9    0.11    0.12 
  -3   5  -9    0.11    0.13 
  -4   5  -9    3.38    0.42 
  -5   5  -9    0.03    0.14 
  -6   5  -9    0.88    0.27 
  -7   5  -9    0.76    0.27 
  -8   5  -9    1.65    0.47 
  -9  -4   9    0.28    0.49 
  -8  -4   9    0.26    0.39 
  -7  -4   9    0.75    0.41 
   6   4  -9    0.03    0.09 
  -6  -4   9    0.04    0.27 
   5   4  -9    0.43    0.13 
  -5  -4   9    0.93    0.34 
   4   4  -9   12.69    0.56 
  -4  -4   9   12.72    0.84 
   3   4  -9    1.15    0.20 
  -3  -4   9    1.13    0.33 
   2   4  -9    2.89    0.31 
  -2  -4   9    2.78    0.42 
   1   4  -9    4.95    0.35 
  -1  -4   9    4.43    0.47 
   0   4  -9    0.81    0.17 
   0   4  -9    0.94    0.20 
   0  -4   9    0.56    0.23 
  -1   4  -9   18.75    0.72 
  -1   4  -9   18.06    0.77 
   1  -4   9   18.72    0.81 
  -2   4  -9    3.23    0.35 
  -2   4  -9    3.04    0.33 
  -3   4  -9   11.83    0.61 
  -4   4  -9    4.81    0.46 
  -5   4  -9   -0.10    0.12 
  -6   4  -9    0.17    0.14 
  -7   4  -9    0.81    0.25 
  -8   4  -9    0.06    0.22 
  -9  -3   9    4.52    0.79 
  -8  -3   9    3.32    0.65 
  -7  -3   9    4.92    0.68 
   6   3  -9    2.39    0.28 
  -6  -3   9    1.99    0.45 
   5   3  -9    0.97    0.16 
  -5  -3   9    0.89    0.32 
   4   3  -9    1.68    0.23 
  -4  -3   9    1.99    0.39 
   3   3  -9    7.32    0.41 
  -3  -3   9    8.71    0.63 
   2   3  -9    5.49    0.35 
  -2  -3   9    5.14    0.49 
   1   3  -9    0.24    0.10 
  -1  -3   9    0.24    0.18 
   0   3  -9    0.71    0.15 
   0   3  -9    0.58    0.15 
   0  -3   9    0.76    0.21 
  -1   3  -9    6.41    0.41 
  -1   3  -9    6.61    0.38 
   1  -3   9    7.23    0.44 
  -2   3  -9    3.82    0.34 
  -3   3  -9    8.85    0.50 
  -4   3  -9   20.82    0.89 
  -5   3  -9   -0.12    0.12 
  -6   3  -9   10.65    0.67 
  -7   3  -9    2.31    0.39 
  -8   3  -9    2.20    0.42 
  -9   3  -9    0.41    0.32 
 -10  -2   9    0.52    0.54 
  -9  -2   9    0.10    0.31 
  -8  -2   9   -0.04    0.33 
  -7  -2   9    9.62    0.87 
   6   2  -9    0.72    0.16 
  -6  -2   9    0.39    0.28 
   5   2  -9    2.71    0.28 
  -5  -2   9    2.75    0.47 
   4   2  -9    3.92    0.29 
  -4  -2   9    4.46    0.52 
   3   2  -9    8.38    0.43 
  -3  -2   9    8.02    0.59 
   2   2  -9   14.12    0.59 
  -2  -2   9   14.26    0.73 
   1   2  -9   11.31    0.42 
   1   2  -9   10.89    0.51 
   0   2  -9    1.54    0.19 
   0   2  -9    1.59    0.22 
   0  -2   9    1.56    0.24 
  -1   2  -9   16.70    0.63 
  -1   2  -9   16.82    0.69 
   1  -2   9   17.15    0.66 
  -2   2  -9    0.40    0.14 
  -2   2  -9    0.27    0.13 
  -3   2  -9    4.85    0.35 
  -4   2  -9    0.22    0.13 
  -5   2  -9    7.56    0.51 
  -6   2  -9    4.82    0.49 
  -7   2  -9    1.30    0.28 
  -8   2  -9    0.01    0.16 
  -9   2  -9    0.15    0.23 
 -10  -1   9    0.43    0.51 
  -9  -1   9    6.55    0.83 
  -8  -1   9    1.22    0.42 
  -7  -1   9    2.16    0.49 
   6   1  -9   20.87    0.75 
  -6  -1   9   20.20    1.11 
   5   1  -9    0.08    0.09 
  -5  -1   9    0.00    0.20 
   4   1  -9   74.80    1.91 
  -4  -1   9   72.30    2.35 
   3   1  -9   32.43    0.96 
  -3  -1   9   26.76    1.15 
   2   1  -9   11.50    0.41 
   2   1  -9   10.32    0.49 
  -2  -1   9   11.96    0.64 
   1   1  -9   14.07    0.59 
   1   1  -9   14.87    0.51 
  -1  -1   9   12.07    0.62 
   0   1  -9   -0.05    0.09 
   0   1  -9   -0.04    0.08 
   0  -1   9   -0.08    0.11 
  -1   1  -9   51.59    1.48 
  -1   1  -9   52.64    1.49 
   1  -1   9   55.33    1.49 
  -2   1  -9    3.82    0.34 
  -2   1  -9    4.15    0.32 
  -3   1  -9    0.06    0.08 
  -4   1  -9   19.74    0.82 
  -5   1  -9    5.93    0.44 
  -6   1  -9    1.46    0.28 
  -7   1  -9    2.87    0.41 
  -8   1  -9    0.62    0.21 
  -9   1  -9    0.84    0.29 
 -10   0   9   -0.18    0.44 
  -9   0   9   -0.06    0.21 
  -8   0   9    0.14    0.30 
  -7   0   9    0.22    0.23 
  -6   0   9   -0.02    0.20 
   5   0  -9   -0.06    0.10 
  -5   0   9    0.11    0.19 
   4   0  -9    0.09    0.11 
  -4   0   9   -0.06    0.18 
   3   0  -9    0.11    0.10 
   2   0  -9    0.02    0.08 
   2   0  -9   -0.08    0.08 
  -2   0   9    0.04    0.24 
   1   0  -9    0.04    0.09 
   1   0  -9   -0.02    0.08 
  -1   0   9    0.00    0.15 
   0   0  -9   -0.06    0.08 
   0   0  -9   -0.02    0.09 
   0   0   9   -0.05    0.11 
  -1   0  -9   -0.01    0.10 
  -1   0  -9   -0.06    0.09 
   1   0   9    0.03    0.11 
  -2   0  -9   -0.04    0.09 
  -2   0  -9    0.02    0.10 
  -3   0  -9    0.04    0.09 
  -4   0  -9   -0.03    0.09 
  -5   0  -9    0.02    0.10 
  -6   0  -9   -0.13    0.10 
  -7   0  -9    0.15    0.14 
  -8   0  -9   -0.03    0.13 
  -9   0  -9   -0.13    0.23 
 -10   1   9    0.65    0.51 
  -9   1   9    4.74    0.69 
  -8   1   9    1.45    0.43 
   5  -1  -9   -0.08    0.10 
  -5   1   9    0.20    0.19 
   4  -1  -9   74.40    1.88 
  -4   1   9   71.29    2.30 
   3  -1  -9   33.20    1.00 
  -3   1   9   33.54    1.25 
   2  -1  -9   11.70    0.53 
   2  -1  -9   10.44    0.47 
  -2   1   9   11.81    0.61 
   1  -1  -9   14.07    0.56 
   1  -1  -9   14.39    0.60 
   0  -1  -9    0.16    0.11 
   0  -1  -9    0.27    0.12 
   0   1   9    0.06    0.10 
  -1  -1  -9   55.24    1.46 
  -1  -1  -9   51.87    1.55 
   1   1   9   51.78    1.46 
  -2  -1  -9    5.01    0.38 
  -2  -1  -9    4.37    0.31 
  -3  -1  -9    0.08    0.09 
  -3  -1  -9    0.02    0.11 
  -4  -1  -9   18.64    0.83 
  -5  -1  -9    5.70    0.44 
  -6  -1  -9    0.72    0.21 
  -7  -1  -9    1.59    0.32 
  -8  -1  -9    0.81    0.31 
  -9  -1  -9    0.22    0.31 
 -10   2   9    0.92    0.55 
  -8   2   9   -0.15    0.31 
  -7   2   9    9.01    0.82 
  -6   2   9    0.53    0.29 
  -5   2   9    2.44    0.41 
   4  -2  -9    4.72    0.31 
  -4   2   9    4.55    0.46 
   3  -2  -9    8.28    0.40 
   3  -2  -9    7.72    0.47 
  -3   2   9    8.02    0.52 
   2  -2  -9   14.89    0.65 
   2  -2  -9   13.58    0.54 
  -2   2   9   13.78    0.65 
   1  -2  -9   10.81    0.46 
   1  -2  -9   10.68    0.55 
  -1   2   9   11.30    0.53 
   0  -2  -9    1.51    0.19 
   0  -2  -9    1.34    0.24 
   0   2   9    1.50    0.20 
  -1  -2  -9   18.50    0.78 
  -1  -2  -9   17.65    0.64 
   1   2   9   17.73    0.63 
  -2  -2  -9    0.51    0.14 
  -2  -2  -9    0.17    0.12 
   2   2   9    0.56    0.12 
  -3  -2  -9    5.24    0.34 
  -3  -2  -9    4.53    0.43 
  -4  -2  -9    0.32    0.14 
  -5  -2  -9    8.53    0.57 
  -6  -2  -9    4.94    0.52 
  -7  -2  -9    0.26    0.24 
  -8  -2  -9   -0.06    0.24 
  -9  -2  -9    0.08    0.28 
  -9   3   9    5.95    0.82 
  -8   3   9    5.27    0.75 
  -7   3   9    4.62    0.64 
  -6   3   9    2.15    0.42 
  -5   3   9    1.32    0.31 
  -4   3   9    1.73    0.32 
   3  -3  -9    8.24    0.39 
   3  -3  -9    8.06    0.52 
  -3   3   9    8.71    0.53 
   2  -3  -9    5.70    0.32 
   2  -3  -9    6.25    0.45 
  -2   3   9    6.41    0.43 
   1  -3  -9    0.55    0.13 
   1  -3  -9    0.51    0.16 
  -1   3   9    0.41    0.16 
   0  -3  -9    0.75    0.19 
   0  -3  -9    0.64    0.13 
   0   3   9    0.93    0.18 
  -1  -3  -9    6.27    0.33 
  -1  -3  -9    6.34    0.45 
   1   3   9    6.57    0.36 
  -2  -3  -9    3.35    0.40 
  -2  -3  -9    4.07    0.28 
   2   3   9    3.54    0.26 
  -3  -3  -9    8.66    0.57 
  -3  -3  -9    9.89    0.44 
  -4  -3  -9   23.63    1.03 
  -4  -3  -9   21.30    0.76 
  -5  -3  -9    0.20    0.16 
  -6  -3  -9   10.72    0.73 
  -7  -3  -9    3.30    0.50 
  -8  -3  -9    1.71    0.43 
  -9  -3  -9    0.78    0.42 
  -9   4   9   -0.12    0.40 
  -8   4   9    0.09    0.28 
  -7   4   9    0.41    0.33 
  -6   4   9   -0.11    0.22 
  -5   4   9    0.45    0.25 
  -4   4   9   14.66    0.77 
  -3   4   9    1.30    0.26 
   2  -4  -9    2.52    0.22 
   2  -4  -9    2.95    0.39 
  -2   4   9    2.53    0.33 
   1  -4  -9    4.45    0.47 
   1  -4  -9    4.40    0.26 
  -1   4   9    4.60    0.36 
   0  -4  -9    0.68    0.20 
   0  -4  -9    0.84    0.14 
   0   4   9    0.83    0.19 
  -1  -4  -9   17.98    0.87 
  -1  -4  -9   18.59    0.60 
  -2  -4  -9    2.97    0.40 
   2   4   9    3.44    0.29 
  -3  -4  -9    9.44    0.61 
  -4  -4  -9    4.89    0.54 
  -5  -4  -9   -0.14    0.18 
  -6  -4  -9   -0.04    0.20 
  -7  -4  -9    0.32    0.28 
  -8  -4  -9    0.30    0.36 
  -8   5   9    1.62    0.50 
  -7   5   9    0.05    0.31 
  -6   5   9   12.67    0.84 
  -5   5   9   -0.05    0.18 
  -4   5   9    9.40    0.63 
  -3   5   9    1.18    0.27 
   2  -5  -9    5.87    0.59 
  -2   5   9    6.19    0.45 
   1  -5  -9   25.92    1.15 
  -1   5   9   25.94    0.99 
   0  -5  -9    8.28    0.61 
   0   5   9    9.39    0.53 
  -1  -5  -9   32.47    1.32 
   1   5   9   32.96    1.13 
  -2  -5  -9    0.35    0.19 
   2   5   9    0.21    0.14 
  -3  -5  -9   -0.05    0.12 
  -4  -5  -9    2.02    0.38 
  -5  -5  -9    0.13    0.21 
  -6  -5  -9    1.04    0.38 
  -7  -5  -9    0.95    0.39 
  -8  -5  -9    1.72    0.54 
  -7   6   9    0.38    0.37 
  -6   6   9    0.03    0.28 
  -5   6   9   -0.16    0.23 
  -4   6   9    1.85    0.36 
  -3   6   9    0.05    0.18 
   2  -6  -9    0.52    0.23 
  -2   6   9    0.37    0.20 
   1  -6  -9   -0.03    0.15 
  -1   6   9    0.00    0.16 
   0  -6  -9    0.09    0.15 
   0   6   9    0.13    0.17 
  -1  -6  -9    0.84    0.26 
   1   6   9    1.16    0.26 
  -2  -6  -9    0.98    0.27 
   2   6   9    1.41    0.27 
  -3  -6  -9    0.13    0.17 
  -4  -6  -9    0.82    0.33 
  -5  -6  -9    1.30    0.42 
  -6  -6  -9    0.24    0.33 
  -7  -6  -9    0.03    0.40 
  -6   7   9    5.18    0.67 
  -5   7   9    0.34    0.32 
  -4   7   9    0.98    0.32 
  -3   7   9    3.28    0.46 
  -2   7   9    0.70    0.26 
   1  -7  -9   14.57    0.93 
  -1   7   9   13.26    0.76 
   0  -7  -9    2.52    0.44 
   0   7   9    3.01    0.41 
  -1  -7  -9    1.24    0.33 
   1   7   9    0.84    0.27 
  -2  -7  -9    1.09    0.32 
   2   7   9    1.32    0.31 
  -3  -7  -9    1.01    0.40 
  -4  -7  -9    1.61    0.47 
  -5  -7  -9   -0.05    0.38 
  -6  -7  -9    2.85    0.64 
  -5   8   9    0.37    0.36 
  -4   8   9    0.89    0.37 
  -3   8   9    0.09    0.27 
  -2   8   9    0.24    0.28 
   1  -8  -9    2.76    0.52 
  -1   8   9    3.01    0.49 
   0  -8  -9    1.09    0.36 
   0   8   9    0.92    0.34 
  -1  -8  -9    0.14    0.21 
   1   8   9    0.13    0.27 
  -2  -8  -9    1.15    0.46 
   2   8   9    1.35    0.37 
  -3  -8  -9    0.44    0.42 
  -4  -8  -9    0.27    0.46 
  -2   9   9    1.44    0.43 
  -1   9   9    0.75    0.42 
   0  -9  -9   -0.15    0.37 
   0   9   9    0.18    0.36 
  -1  -9  -9    0.95    0.54 
   1   9   9    1.95    0.49 
  -4  -8  10    1.53    0.58 
  -3  -8  10    0.14    0.45 
  -2  -8  10    2.04    0.56 
  -1  -8  10    1.12    0.45 
  -1   8 -10    0.47    0.20 
  -2   8 -10    1.03    0.28 
  -3   8 -10   -0.04    0.16 
  -6  -7  10   -0.42    0.41 
  -5  -7  10    0.08    0.42 
  -4  -7  10    0.68    0.44 
   3   7 -10    0.00    0.12 
  -3  -7  10   -0.06    0.30 
   2   7 -10    0.45    0.17 
  -2  -7  10    0.24    0.31 
   1   7 -10    1.24    0.24 
  -1  -7  10    1.94    0.45 
   0   7 -10    7.86    0.52 
  -1   7 -10    0.48    0.17 
  -2   7 -10    0.10    0.13 
  -3   7 -10    0.26    0.15 
  -4   7 -10    0.02    0.20 
  -5   7 -10    0.54    0.27 
  -7  -6  10    6.17    0.93 
  -6  -6  10   -0.26    0.39 
   5   6 -10    7.81    0.44 
  -5  -6  10    6.62    0.84 
   4   6 -10    0.23    0.12 
  -4  -6  10    0.23    0.31 
   3   6 -10    1.09    0.21 
  -3  -6  10    0.69    0.34 
   2   6 -10    4.12    0.40 
  -2  -6  10    4.51    0.59 
   1   6 -10    0.24    0.14 
  -1  -6  10    0.47    0.26 
   0   6 -10   13.29    0.68 
   0  -6  10   13.91    0.86 
  -1   6 -10    2.41    0.33 
  -2   6 -10    0.50    0.18 
  -3   6 -10    6.94    0.49 
  -3   6 -10    7.46    0.53 
  -4   6 -10    0.27    0.18 
  -5   6 -10    1.04    0.28 
  -6   6 -10    3.41    0.50 
  -8  -5  10    0.38    0.53 
  -7  -5  10    2.62    0.67 
   6   5 -10    0.50    0.15 
  -6  -5  10    0.25    0.36 
   5   5 -10    0.56    0.15 
  -5  -5  10    0.14    0.33 
   4   5 -10    0.01    0.10 
  -4  -5  10    0.03    0.25 
   3   5 -10    0.59    0.16 
  -3  -5  10    0.60    0.30 
   2   5 -10    1.26    0.22 
  -2  -5  10    1.42    0.35 
   1   5 -10    0.10    0.12 
  -1  -5  10    0.38    0.26 
   0   5 -10    0.41    0.15 
   0  -5  10    0.17    0.18 
  -1   5 -10    0.17    0.13 
  -2   5 -10    1.96    0.28 
  -2   5 -10    1.90    0.30 
  -3   5 -10    0.38    0.17 
  -4   5 -10   -0.06    0.12 
  -5   5 -10    0.04    0.15 
  -6   5 -10    0.08    0.17 
  -7   5 -10    0.14    0.20 
  -8  -4  10    2.01    0.62 
  -7  -4  10   15.07    1.12 
   6   4 -10    0.33    0.13 
  -6  -4  10    0.62    0.36 
   5   4 -10    7.60    0.43 
  -5  -4  10    9.05    0.82 
   4   4 -10    4.81    0.34 
  -4  -4  10    5.14    0.62 
   3   4 -10    0.63    0.17 
  -3  -4  10    0.83    0.31 
   2   4 -10   22.22    0.86 
  -2  -4  10   23.70    1.09 
   1   4 -10    1.86    0.27 
  -1  -4  10    2.06    0.36 
   0   4 -10    1.95    0.29 
   0  -4  10    2.42    0.37 
  -1   4 -10    2.05    0.29 
  -1   4 -10    2.03    0.27 
  -2   4 -10    2.36    0.29 
  -2   4 -10    2.03    0.30 
  -3   4 -10    0.13    0.12 
  -4   4 -10    0.81    0.21 
  -5   4 -10    0.44    0.18 
  -6   4 -10    0.12    0.15 
  -7   4 -10   -0.12    0.16 
  -8   4 -10    0.46    0.30 
  -9  -3  10    1.62    0.63 
  -8  -3  10    0.29    0.42 
  -7  -3  10    0.14    0.34 
   6   3 -10   -0.06    0.09 
  -6  -3  10    0.00    0.25 
   5   3 -10    9.91    0.50 
  -5  -3  10   10.77    0.80 
   4   3 -10    6.68    0.40 
  -4  -3  10    6.15    0.63 
   3   3 -10   16.44    0.68 
  -3  -3  10   16.04    0.90 
   2   3 -10    1.89    0.26 
  -2  -3  10    2.35    0.38 
   0   3 -10    1.11    0.21 
   0  -3  10    1.30    0.27 
  -1   3 -10    3.42    0.36 
  -1   3 -10    3.63    0.31 
  -2   3 -10    2.77    0.34 
  -2   3 -10    2.84    0.32 
  -3   3 -10    1.98    0.29 
  -4   3 -10    1.15    0.25 
  -5   3 -10    0.02    0.13 
  -6   3 -10    0.53    0.20 
  -7   3 -10   -0.12    0.15 
  -8   3 -10    0.16    0.22 
  -9  -2  10    2.80    0.71 
  -8  -2  10    1.41    0.53 
  -7  -2  10    0.41    0.35 
   6   2 -10    0.28    0.11 
  -6  -2  10    0.23    0.27 
   5   2 -10    0.33    0.12 
  -5  -2  10    0.45    0.25 
   4   2 -10    2.51    0.28 
  -4  -2  10    2.50    0.43 
   3   2 -10    3.33    0.32 
  -3  -2  10    3.30    0.44 
   2   2 -10   14.35    0.62 
  -2  -2  10   13.77    0.74 
   1   2 -10    1.15    0.21 
  -1  -2  10    1.33    0.28 
   0   2 -10   17.87    0.64 
   0   2 -10   16.81    0.71 
   0  -2  10   18.06    0.76 
  -1   2 -10   11.43    0.52 
  -1   2 -10   10.96    0.56 
  -2   2 -10    1.76    0.28 
  -2   2 -10    1.82    0.26 
  -3   2 -10   26.59    0.98 
  -4   2 -10    0.04    0.12 
  -5   2 -10    7.47    0.52 
  -6   2 -10    2.75    0.39 
  -7   2 -10    5.59    0.57 
  -8   2 -10    0.16    0.19 
  -9   2 -10    0.07    0.30 
  -9  -1  10   -0.29    0.43 
  -8  -1  10    1.20    0.47 
  -7  -1  10    3.36    0.59 
   6   1 -10    4.55    0.33 
  -6  -1  10    4.57    0.62 
   5   1 -10    0.97    0.18 
  -5  -1  10    0.83    0.33 
   4   1 -10   15.33    0.63 
  -4  -1  10   15.16    0.87 
   3   1 -10    3.79    0.33 
  -3  -1  10    4.64    0.49 
   2   1 -10    3.75    0.33 
  -2  -1  10    3.93    0.42 
   1   1 -10    7.55    0.37 
   1   1 -10    6.50    0.41 
  -1  -1  10    7.15    0.48 
   0   1 -10    1.62    0.21 
   0   1 -10    2.07    0.28 
   0  -1  10    2.04    0.26 
  -1   1 -10    0.12    0.11 
  -1   1 -10    0.17    0.12 
  -2   1 -10    0.47    0.16 
  -2   1 -10    0.30    0.15 
  -3   1 -10    5.62    0.39 
  -4   1 -10   -0.07    0.11 
  -5   1 -10    0.26    0.14 
  -6   1 -10    3.94    0.46 
  -7   1 -10    0.19    0.15 
  -8   1 -10    1.68    0.34 
  -9   1 -10   -0.01    0.25 
  -9   0  10    3.12    0.70 
  -8   0  10    0.15    0.35 
  -7   0  10   10.90    0.88 
  -6   0  10    3.32    0.55 
   5   0 -10   89.45    2.27 
  -5   0  10   87.46    2.82 
   4   0 -10   37.97    1.14 
  -4   0  10   36.21    1.46 
   3   0 -10   15.69    0.63 
  -3   0  10   15.94    0.82 
   2   0 -10   88.22    2.22 
   2   0 -10   88.31    2.23 
  -2   0  10   86.08    2.54 
   1   0 -10    4.62    0.32 
   1   0 -10    4.59    0.33 
  -1   0  10    4.69    0.38 
   0   0 -10    2.97    0.29 
   0   0 -10    2.47    0.28 
   0   0  10    2.92    0.29 
  -1   0 -10   15.71    0.66 
  -1   0 -10   15.24    0.64 
  -2   0 -10   32.19    1.02 
  -2   0 -10   26.58    1.01 
  -3   0 -10    6.10    0.42 
  -3   0 -10    6.47    0.42 
  -4   0 -10    0.01    0.12 
  -5   0 -10    1.32    0.26 
  -6   0 -10    0.55    0.20 
  -7   0 -10    0.72    0.21 
  -8   0 -10    0.44    0.20 
  -9   0 -10    0.42    0.30 
  -9   1  10    0.51    0.45 
  -8   1  10    1.14    0.47 
   5  -1 -10    1.31    0.23 
  -5   1  10   -0.03    0.20 
   4  -1 -10   15.29    0.63 
  -4   1  10   14.97    0.84 
   3  -1 -10    3.99    0.30 
   3  -1 -10    4.65    0.34 
  -3   1  10    4.66    0.46 
   2  -1 -10    3.77    0.33 
   2  -1 -10    3.85    0.28 
  -2   1  10    3.85    0.39 
   1  -1 -10    6.42    0.37 
   1  -1 -10    6.24    0.40 
   0  -1 -10    2.03    0.27 
   0  -1 -10    2.04    0.25 
   0   1  10    1.55    0.23 
  -1  -1 -10    0.14    0.12 
  -1  -1 -10    0.18    0.14 
   1   1  10    0.33    0.14 
  -2  -1 -10    0.48    0.16 
  -2  -1 -10    0.37    0.14 
  -3  -1 -10    5.21    0.37 
  -3  -1 -10    5.81    0.42 
  -4  -1 -10    0.10    0.12 
  -5  -1 -10    0.43    0.17 
  -6  -1 -10    4.56    0.49 
  -7  -1 -10    0.32    0.16 
  -8  -1 -10    0.91    0.27 
  -9  -1 -10   -0.01    0.32 
  -8   2  10    1.48    0.53 
  -7   2  10    0.70    0.36 
  -6   2  10    0.51    0.29 
  -5   2  10    0.32    0.24 
   4  -2 -10    2.54    0.28 
  -4   2  10    2.66    0.41 
   3  -2 -10    3.64    0.28 
   3  -2 -10    3.45    0.36 
  -3   2  10    3.71    0.41 
   2  -2 -10   14.55    0.67 
   2  -2 -10   13.90    0.56 
  -2   2  10   13.53    0.68 
   1  -2 -10    1.06    0.23 
   1  -2 -10    0.91    0.17 
  -1   2  10    1.20    0.22 
   0  -2 -10   15.90    0.74 
   0  -2 -10   16.93    0.64 
   0   2  10   17.62    0.68 
  -1  -2 -10   10.60    0.58 
  -1  -2 -10   10.11    0.48 
   1   2  10   11.40    0.48 
  -2  -2 -10    1.43    0.23 
  -2  -2 -10    1.37    0.26 
  -3  -2 -10   30.28    0.97 
  -3  -2 -10   28.63    1.14 
  -4  -2 -10    0.20    0.15 
  -4  -2 -10    0.25    0.15 
  -5  -2 -10    8.54    0.59 
  -6  -2 -10    2.33    0.38 
  -7  -2 -10    4.88    0.56 
  -8  -2 -10    0.56    0.30 
  -9  -2 -10    0.56    0.36 
  -9   3  10    0.19    0.44 
  -8   3  10    0.40    0.41 
  -7   3  10    0.46    0.35 
  -6   3  10   -0.01    0.24 
  -5   3  10    9.82    0.69 
  -4   3  10    6.75    0.54 
   3  -3 -10   17.12    0.63 
   3  -3 -10   17.21    0.81 
  -3   3  10   16.61    0.80 
   2  -3 -10    1.97    0.22 
   2  -3 -10    1.94    0.30 
  -2   3  10    2.47    0.32 
   1  -3 -10   10.28    0.46 
   1  -3 -10   10.18    0.59 
  -1   3  10   10.39    0.54 
   0  -3 -10    1.09    0.23 
   0  -3 -10    1.38    0.20 
  -1  -3 -10    3.63    0.41 
   1   3  10    4.01    0.30 
  -2  -3 -10    2.47    0.27 
  -2  -3 -10    3.11    0.39 
  -3  -3 -10    2.67    0.38 
  -3  -3 -10    2.51    0.28 
  -4  -3 -10    1.48    0.25 
  -4  -3 -10    1.35    0.29 
  -5  -3 -10   -0.13    0.12 
  -6  -3 -10    0.17    0.17 
  -7  -3 -10    0.26    0.27 
  -8  -3 -10    0.46    0.34 
  -8   4  10    1.67    0.56 
  -7   4  10   15.61    1.03 
  -6   4  10    0.69    0.33 
  -5   4  10    7.33    0.61 
  -4   4  10    5.38    0.52 
  -3   4  10    0.53    0.22 
   2  -4 -10   22.68    0.74 
   2  -4 -10   23.40    1.04 
  -2   4  10   21.95    0.93 
   1  -4 -10    2.26    0.36 
  -1   4  10    2.61    0.32 
   0  -4 -10    2.37    0.23 
   0  -4 -10    1.90    0.33 
   0   4  10    2.02    0.27 
  -1  -4 -10    2.04    0.33 
   1   4  10    1.92    0.24 
  -2  -4 -10    1.90    0.33 
  -3  -4 -10    0.00    0.12 
  -4  -4 -10    0.68    0.22 
  -5  -4 -10    0.62    0.22 
  -6  -4 -10   -0.10    0.24 
  -7  -4 -10    0.04    0.30 
  -8  -4 -10    0.55    0.42 
  -8   5  10    0.08    0.40 
  -7   5  10    1.94    0.50 
  -6   5  10    0.03    0.28 
  -5   5  10    0.50    0.28 
  -4   5  10   -0.10    0.20 
  -3   5  10    0.52    0.22 
   2  -5 -10    1.54    0.33 
  -2   5  10    1.54    0.30 
   1  -5 -10    0.15    0.17 
  -1   5  10    0.23    0.17 
   0  -5 -10    0.50    0.22 
   0   5  10    0.16    0.16 
  -1  -5 -10    0.05    0.14 
   1   5  10    0.12    0.15 
  -2  -5 -10    1.95    0.37 
  -3  -5 -10    0.06    0.14 
  -4  -5 -10   -0.05    0.13 
  -5  -5 -10   -0.01    0.22 
  -6  -5 -10    0.00    0.27 
  -7  -5 -10    0.29    0.35 
  -7   6  10    5.85    0.75 
  -6   6  10   -0.08    0.30 
  -5   6  10    8.52    0.70 
  -4   6  10    0.33    0.26 
  -3   6  10    1.07    0.30 
   2  -6 -10    4.03    0.54 
  -2   6  10    4.46    0.46 
   1  -6 -10   -0.05    0.17 
  -1   6  10   -0.09    0.17 
   0  -6 -10   12.46    0.81 
   0   6  10   12.19    0.66 
  -1  -6 -10    2.01    0.39 
   1   6  10    2.36    0.34 
  -2  -6 -10    0.65    0.24 
  -3  -6 -10    6.98    0.71 
  -4  -6 -10   -0.02    0.18 
  -5  -6 -10    1.18    0.45 
  -6  -6 -10    1.86    0.51 
  -6   7  10    0.60    0.40 
  -5   7  10    0.40    0.35 
  -4   7  10    0.69    0.34 
  -3   7  10    0.09    0.23 
  -2   7  10    0.45    0.26 
   1  -7 -10    1.68    0.38 
  -1   7  10    1.80    0.35 
   0  -7 -10    8.17    0.81 
   0   7  10    7.55    0.57 
  -1  -7 -10    0.44    0.23 
   1   7  10    0.50    0.24 
  -2  -7 -10    0.04    0.17 
  -3  -7 -10    0.16    0.23 
  -4  -7 -10    0.21    0.38 
  -5  -7 -10    0.47    0.43 
  -4   8  10    0.61    0.38 
  -3   8  10    0.34    0.34 
  -2   8  10    1.78    0.42 
   1  -8 -10    1.02    0.38 
  -1   8  10    1.46    0.39 
   0  -8 -10    8.01    0.88 
   0   8  10    8.36    0.67 
  -1  -8 -10    0.46    0.32 
   1   8  10    0.36    0.32 
  -2  -8 -10    1.18    0.45 
  -3  -8 -10    0.37    0.46 
  -2  -8  11    0.06    0.45 
  -1   8 -11    0.21    0.20 
  -2   8 -11   -0.12    0.19 
  -5  -7  11   -0.14    0.48 
  -4  -7  11    0.45    0.46 
   3   7 -11    4.10    0.42 
  -3  -7  11    3.47    0.66 
   2   7 -11   -0.12    0.12 
  -2  -7  11   -0.18    0.30 
   1   7 -11    0.43    0.17 
   0   7 -11    4.52    0.48 
  -1   7 -11    2.13    0.33 
  -2   7 -11    1.92    0.35 
  -3   7 -11    0.04    0.14 
  -4   7 -11    0.64    0.24 
   6   6 -11    0.00    0.16 
  -6  -6  11   -0.29    0.46 
   5   6 -11    1.69    0.26 
  -5  -6  11    1.78    0.56 
   4   6 -11    0.89    0.19 
  -4  -6  11    0.93    0.42 
   3   6 -11    0.29    0.13 
  -3  -6  11    0.33    0.31 
   2   6 -11    0.25    0.14 
  -2  -6  11    0.66    0.32 
   1   6 -11    0.19    0.12 
  -1  -6  11    0.46    0.29 
   0   6 -11    0.36    0.16 
  -1   6 -11    0.18    0.13 
  -2   6 -11    2.44    0.34 
  -3   6 -11    0.53    0.19 
  -4   6 -11    0.35    0.21 
  -5   6 -11    0.36    0.22 
  -6   6 -11    0.15    0.27 
   7   5 -11   -0.07    0.13 
  -7  -5  11    0.16    0.49 
   6   5 -11    3.07    0.34 
  -6  -5  11    4.41    0.75 
   5   5 -11    5.21    0.37 
  -5  -5  11    3.59    0.63 
   4   5 -11    0.43    0.15 
  -4  -5  11    0.46    0.33 
   3   5 -11    3.14    0.35 
  -3  -5  11    3.35    0.55 
   2   5 -11   -0.04    0.11 
  -2  -5  11   -0.14    0.21 
   1   5 -11    6.25    0.45 
  -1  -5  11    7.52    0.66 
   0   5 -11    7.46    0.50 
  -1   5 -11    1.83    0.30 
  -2   5 -11    9.88    0.60 
  -3   5 -11   -0.06    0.12 
  -3   5 -11    0.25    0.15 
  -4   5 -11    1.00    0.25 
  -5   5 -11    1.29    0.29 
  -6   5 -11    1.05    0.28 
  -7   5 -11    0.26    0.31 
  -8  -4  11    0.62    0.53 
   7   4 -11    0.76    0.19 
  -7  -4  11    0.58    0.45 
   6   4 -11    0.05    0.12 
  -6  -4  11    0.58    0.38 
   5   4 -11    2.08    0.29 
  -5  -4  11    2.29    0.50 
   4   4 -11    0.21    0.13 
  -4  -4  11    0.43    0.29 
   3   4 -11    0.20    0.12 
  -3  -4  11    0.43    0.28 
   2   4 -11    1.76    0.27 
  -2  -4  11    1.84    0.38 
   1   4 -11    0.84    0.21 
  -1  -4  11    0.29    0.21 
   0   4 -11    4.05    0.42 
  -1   4 -11    1.77    0.29 
  -2   4 -11    0.11    0.12 
  -2   4 -11    0.23    0.13 
  -3   4 -11    0.01    0.10 
  -3   4 -11   -0.03    0.11 
  -4   4 -11    0.25    0.15 
  -5   4 -11    0.16    0.13 
  -6   4 -11    0.92    0.26 
  -7   4 -11    0.44    0.24 
  -8  -3  11    3.29    0.73 
   7   3 -11    8.23    0.48 
  -7  -3  11    8.45    0.91 
   6   3 -11   28.89    1.00 
  -6  -3  11   26.86    1.43 
   5   3 -11    6.57    0.41 
  -5  -3  11    6.75    0.73 
   4   3 -11    1.08    0.21 
  -4  -3  11    1.40    0.38 
   3   3 -11   10.11    0.53 
  -3  -3  11    8.61    0.68 
   2   3 -11    2.78    0.32 
  -2  -3  11    2.93    0.42 
   1   3 -11   15.62    0.69 
  -1  -3  11   12.48    0.74 
   0   3 -11    6.27    0.44 
  -1   3 -11   21.15    0.80 
  -1   3 -11   21.92    0.87 
  -2   3 -11    3.22    0.37 
  -2   3 -11    3.02    0.32 
  -3   3 -11    1.43    0.28 
  -3   3 -11    1.67    0.28 
  -4   3 -11    9.79    0.59 
  -5   3 -11    0.28    0.15 
  -6   3 -11    0.49    0.21 
  -7   3 -11    1.20    0.33 
  -8   3 -11    0.23    0.28 
  -9  -2  11    0.07    0.47 
  -8  -2  11    0.14    0.42 
  -7  -2  11    0.46    0.38 
   6   2 -11    0.23    0.12 
  -6  -2  11    0.09    0.27 
   5   2 -11    0.95    0.19 
  -5  -2  11    1.08    0.36 
   4   2 -11    0.40    0.14 
  -4  -2  11    0.40    0.25 
   3   2 -11    3.98    0.37 
  -3  -2  11    4.06    0.49 
   2   2 -11   11.13    0.56 
  -2  -2  11   11.61    0.69 
   1   2 -11    0.08    0.09 
  -1  -2  11    0.55    0.22 
   0   2 -11    3.68    0.38 
  -1   2 -11    3.05    0.31 
  -1   2 -11    3.37    0.37 
  -2   2 -11    2.26    0.32 
  -2   2 -11    2.86    0.31 
  -3   2 -11    4.49    0.41 
  -3   2 -11    5.37    0.46 
  -4   2 -11    0.08    0.12 
  -5   2 -11    0.26    0.16 
  -6   2 -11    1.78    0.32 
  -7   2 -11    0.64    0.21 
  -8   2 -11    0.30    0.22 
  -9  -1  11    3.75    0.81 
  -8  -1  11    7.74    0.93 
  -7  -1  11    0.63    0.38 
  -6  -1  11    0.60    0.31 
   5   1 -11    1.46    0.22 
  -5  -1  11    1.70    0.39 
   4   1 -11    5.24    0.36 
  -4  -1  11    5.92    0.60 
   3   1 -11   42.74    1.30 
  -3  -1  11   42.63    1.59 
   2   1 -11    3.18    0.34 
  -2  -1  11    3.01    0.40 
   1   1 -11    3.44    0.35 
  -1  -1  11    3.12    0.37 
   0   1 -11   12.36    0.56 
   0   1 -11   12.66    0.61 
  -1   1 -11    0.10    0.13 
  -1   1 -11    0.57    0.17 
  -2   1 -11   12.57    0.63 
  -3   1 -11    2.45    0.33 
  -3   1 -11    2.57    0.34 
  -4   1 -11   18.46    0.83 
  -5   1 -11    0.06    0.13 
  -6   1 -11    0.51    0.19 
  -7   1 -11    3.72    0.48 
  -8   1 -11    0.04    0.19 
  -9   0  11   -0.06    0.50 
  -8   0  11   -0.07    0.36 
  -7   0  11    0.18    0.32 
   6   0 -11   -0.01    0.12 
  -6   0  11    0.28    0.27 
   5   0 -11    0.13    0.15 
  -5   0  11    0.08    0.21 
   4   0 -11    0.03    0.13 
  -4   0  11    0.13    0.20 
   3   0 -11    0.06    0.12 
  -3   0  11    0.05    0.19 
   2   0 -11    0.06    0.11 
  -2   0  11    0.01    0.15 
   1   0 -11   -0.08    0.12 
   1   0 -11    0.11    0.11 
  -1   0  11   -0.01    0.14 
   0   0 -11   -0.05    0.10 
   0   0 -11   -0.09    0.10 
   0   0  11   -0.10    0.14 
  -1   0 -11    0.03    0.11 
  -1   0 -11   -0.03    0.11 
  -2   0 -11    0.08    0.12 
  -2   0 -11   -0.06    0.09 
  -3   0 -11   -0.11    0.10 
  -3   0 -11    0.18    0.15 
  -4   0 -11   -0.07    0.11 
  -5   0 -11    0.11    0.13 
  -6   0 -11    0.14    0.13 
  -7   0 -11    0.08    0.15 
  -8   0 -11   -0.10    0.19 
  -9   1  11    3.85    0.78 
  -8   1  11    9.04    0.98 
  -7   1  11    1.81    0.46 
  -6   1  11   -0.31    0.51 
   5  -1 -11    1.48    0.24 
  -5   1  11    2.71    0.53 
   3  -1 -11   44.52    1.29 
  -3   1  11   40.67    1.54 
   2  -1 -11    4.02    0.36 
   2  -1 -11    3.12    0.31 
  -2   1  11    3.27    0.40 
   1  -1 -11    3.36    0.32 
   1  -1 -11    3.49    0.35 
  -1   1  11    3.14    0.35 
   0  -1 -11   11.51    0.59 
   0  -1 -11   11.91    0.56 
   0   1  11   12.39    0.60 
  -1  -1 -11    0.12    0.11 
  -1  -1 -11    0.28    0.14 
  -2  -1 -11   14.42    0.64 
  -2  -1 -11   15.00    0.72 
  -3  -1 -11    1.87    0.27 
  -3  -1 -11    2.71    0.36 
  -4  -1 -11   18.67    0.88 
  -4  -1 -11   19.14    0.79 
  -5  -1 -11    0.16    0.13 
  -6  -1 -11    0.58    0.21 
  -7  -1 -11    4.81    0.56 
  -8  -1 -11   -0.19    0.19 
  -9   2  11    0.45    0.49 
  -8   2  11   -0.36    0.72 
  -7   2  11    0.26    0.34 
  -6   2  11    0.17    0.30 
  -5   2  11    1.04    0.36 
   4  -2 -11    0.34    0.15 
  -4   2  11    0.16    0.19 
   3  -2 -11    4.21    0.31 
   3  -2 -11    4.79    0.43 
  -3   2  11    4.20    0.46 
   2  -2 -11   12.50    0.55 
   2  -2 -11   11.87    0.63 
  -2   2  11   12.71    0.68 
   1  -2 -11    0.29    0.14 
   1  -2 -11    0.20    0.13 
  -1   2  11    0.23    0.13 
   0  -2 -11    4.42    0.32 
   0  -2 -11    3.24    0.37 
   0   2  11    3.71    0.33 
  -1  -2 -11    2.92    0.35 
  -1  -2 -11    3.32    0.32 
  -2  -2 -11    2.10    0.32 
  -2  -2 -11    2.98    0.32 
  -3  -2 -11    4.81    0.36 
  -3  -2 -11    4.44    0.48 
  -4  -2 -11    0.02    0.14 
  -4  -2 -11   -0.21    0.11 
  -5  -2 -11    0.55    0.20 
  -5  -2 -11    0.20    0.16 
  -6  -2 -11    2.02    0.37 
  -7  -2 -11    1.06    0.28 
  -8  -2 -11    0.46    0.28 
  -8   3  11    5.98    0.85 
  -7   3  11    8.86    0.90 
  -6   3  11   31.73    1.49 
  -5   3  11    8.01    0.71 
  -4   3  11    0.79    0.28 
   3  -3 -11   11.21    0.64 
   3  -3 -11   10.37    0.50 
  -3   3  11   10.81    0.66 
   2  -3 -11    3.57    0.42 
   2  -3 -11    3.06    0.28 
  -2   3  11    3.45    0.38 
   1  -3 -11   13.28    0.72 
   1  -3 -11   15.18    0.59 
  -1   3  11   15.01    0.69 
   0  -3 -11    5.82    0.36 
   0  -3 -11    6.40    0.49 
   0   3  11    6.26    0.42 
  -1  -3 -11   21.17    0.96 
  -1  -3 -11   22.26    0.77 
  -2  -3 -11    3.12    0.40 
  -3  -3 -11    1.64    0.33 
  -3  -3 -11    0.87    0.21 
  -4  -3 -11    9.97    0.68 
  -5  -3 -11    0.24    0.18 
  -6  -3 -11    0.21    0.19 
  -7  -3 -11    0.85    0.29 
  -8  -3 -11   -0.15    0.34 
  -8   4  11    0.72    0.51 
  -7   4  11    0.85    0.43 
  -6   4  11   -0.09    0.29 
  -5   4  11    1.94    0.42 
  -4   4  11    0.04    0.20 
   3  -4 -11    0.58    0.21 
  -3   4  11    0.38    0.21 
   2  -4 -11    1.97    0.24 
   2  -4 -11    2.01    0.35 
  -2   4  11    1.82    0.32 
   1  -4 -11    0.60    0.16 
   1  -4 -11    0.55    0.22 
  -1   4  11    0.58    0.21 
   0  -4 -11    4.02    0.30 
   0  -4 -11    4.57    0.51 
   0   4  11    4.36    0.38 
  -1  -4 -11    1.72    0.33 
  -2  -4 -11    0.05    0.15 
  -3  -4 -11    0.04    0.14 
  -4  -4 -11    0.43    0.18 
  -5  -4 -11   -0.16    0.13 
  -6  -4 -11    0.81    0.29 
  -7  -4 -11    0.28    0.33 
  -7   5  11   -0.02    0.39 
  -6   5  11    3.06    0.57 
  -5   5  11    4.84    0.60 
  -4   5  11    0.76    0.30 
  -3   5  11    3.34    0.45 
   2  -5 -11    0.08    0.16 
  -2   5  11    0.06    0.18 
   1  -5 -11    5.58    0.61 
  -1   5  11    6.51    0.48 
   0  -5 -11    6.78    0.66 
   0   5  11    6.90    0.48 
  -1  -5 -11    1.59    0.33 
  -2  -5 -11    8.01    0.63 
  -3  -5 -11    0.09    0.16 
  -4  -5 -11    1.16    0.29 
  -5  -5 -11    0.78    0.28 
  -6  -5 -11    0.85    0.40 
  -7  -5 -11    0.29    0.40 
  -6   6  11    0.15    0.38 
  -5   6  11    1.68    0.43 
  -4   6  11    0.98    0.34 
  -3   6  11    0.51    0.26 
   2  -6 -11    0.20    0.19 
  -2   6  11    0.46    0.25 
   1  -6 -11   -0.03    0.16 
  -1   6  11   -0.27    0.16 
   0  -6 -11    0.28    0.21 
   0   6  11    0.40    0.21 
  -1  -6 -11   -0.06    0.16 
  -2  -6 -11    2.61    0.46 
  -3  -6 -11    0.10    0.21 
  -4  -6 -11   -0.10    0.17 
  -5  -6 -11    0.61    0.35 
  -6  -6 -11    0.42    0.44 
  -5   7  11   -0.09    0.35 
  -4   7  11    0.40    0.34 
  -3   7  11    3.80    0.55 
  -2   7  11    0.27    0.26 
   1  -7 -11    0.82    0.31 
  -1   7  11    0.41    0.27 
   0  -7 -11    5.37    0.69 
   0   7  11    4.77    0.50 
  -1  -7 -11    2.23    0.45 
  -2  -7 -11    1.26    0.39 
  -3  -7 -11    0.20    0.28 
  -4  -7 -11   -0.10    0.33 
  -2   8  11    0.10    0.33 
   1  -8 -11    0.29    0.39 
  -1   8  11    0.05    0.33 
   0  -8 -11    0.27    0.39 
   0   8  11    0.24    0.32 
  -1  -8 -11    0.34    0.38 
  -2  -8 -11   -0.07    0.35 
  -4  -7  12    0.57    0.53 
   3   7 -12    0.03    0.17 
  -3  -7  12    0.42    0.46 
   2   7 -12    0.48    0.18 
   1   7 -12    0.13    0.17 
   0   7 -12    0.52    0.19 
  -1   7 -12    0.25    0.17 
  -2   7 -12    0.06    0.19 
  -3   7 -12    0.29    0.22 
   5   6 -12    3.15    0.37 
  -5  -6  12    3.09    0.69 
   4   6 -12    4.68    0.44 
  -4  -6  12    3.92    0.68 
   3   6 -12    0.16    0.14 
  -3  -6  12    0.03    0.34 
   2   6 -12    2.14    0.31 
  -2  -6  12    2.25    0.53 
   1   6 -12    1.50    0.27 
   0   6 -12    2.59    0.36 
  -1   6 -12    2.06    0.33 
  -2   6 -12    0.13    0.15 
  -3   6 -12    0.36    0.20 
  -4   6 -12    0.64    0.23 
   6   5 -12    0.36    0.16 
  -6  -5  12    0.55    0.50 
   5   5 -12    0.41    0.16 
  -5  -5  12    0.08    0.38 
   4   5 -12    4.53    0.42 
  -4  -5  12    4.39    0.66 
   3   5 -12    0.96    0.21 
  -3  -5  12    0.61    0.36 
   2   5 -12    0.33    0.15 
  -2  -5  12    0.00    0.26 
   1   5 -12    0.21    0.14 
   0   5 -12    0.68    0.18 
  -1   5 -12    0.22    0.14 
  -2   5 -12    1.65    0.31 
  -3   5 -12    0.31    0.14 
  -4   5 -12    0.21    0.16 
  -4   5 -12    0.03    0.12 
  -5   5 -12    0.31    0.18 
  -6   5 -12    0.07    0.23 
   7   4 -12    0.91    0.23 
  -7  -4  12    1.32    0.56 
   6   4 -12    2.77    0.35 
  -6  -4  12    3.58    0.70 
   5   4 -12    0.63    0.18 
  -5  -4  12    0.43    0.35 
   4   4 -12    8.44    0.50 
  -4  -4  12    8.99    0.81 
   3   4 -12    1.08    0.22 
  -3  -4  12    1.19    0.36 
   2   4 -12    1.15    0.23 
  -2  -4  12    0.90    0.32 
   1   4 -12    7.26    0.49 
   0   4 -12    0.23    0.14 
  -1   4 -12   13.54    0.70 
  -2   4 -12    0.26    0.13 
  -3   4 -12    4.06    0.42 
  -3   4 -12    4.16    0.46 
  -4   4 -12    0.65    0.19 
  -4   4 -12    0.67    0.18 
  -5   4 -12    0.15    0.14 
  -6   4 -12    4.84    0.55 
  -7   4 -12    0.05    0.28 
  -8  -3  12   -0.17    0.48 
   7   3 -12   -0.06    0.12 
  -7  -3  12   -0.10    0.39 
   6   3 -12    2.82    0.35 
  -6  -3  12    2.79    0.60 
   5   3 -12    1.15    0.22 
  -5  -3  12    1.39    0.41 
   4   3 -12    0.11    0.10 
  -4  -3  12    0.20    0.27 
   3   3 -12    0.58    0.16 
  -3  -3  12    0.32    0.27 
   2   3 -12    6.18    0.44 
  -2  -3  12    6.40    0.59 
   1   3 -12    0.18    0.12 
   0   3 -12   -0.02    0.11 
  -1   3 -12    0.38    0.15 
  -2   3 -12    0.66    0.20 
  -2   3 -12    0.76    0.20 
  -3   3 -12    0.10    0.16 
  -3   3 -12    0.19    0.13 
  -4   3 -12    0.20    0.14 
  -5   3 -12   -0.01    0.13 
  -6   3 -12    0.25    0.19 
  -7   3 -12    0.06    0.21 
  -8  -2  12    0.09    0.46 
  -7  -2  12    5.82    0.84 
   6   2 -12   13.41    0.64 
  -6  -2  12   13.88    1.01 
   5   2 -12    5.11    0.37 
  -5  -2  12    6.06    0.70 
   4   2 -12    1.28    0.22 
  -4  -2  12    1.98    0.40 
   3   2 -12    2.22    0.29 
  -3  -2  12    2.95    0.45 
   2   2 -12   27.61    1.01 
  -2  -2  12   26.79    1.16 
   1   2 -12    0.72    0.19 
   0   2 -12    2.49    0.35 
  -1   2 -12   15.91    0.75 
  -1   2 -12   15.97    0.69 
  -2   2 -12    0.80    0.23 
  -2   2 -12    0.87    0.20 
  -3   2 -12    0.46    0.16 
  -3   2 -12    0.45    0.21 
  -4   2 -12    2.28    0.34 
  -4   2 -12    2.60    0.38 
  -5   2 -12    0.19    0.15 
  -6   2 -12    0.66    0.21 
  -7   2 -12    0.26    0.22 
  -8   2 -12    0.43    0.33 
  -8  -1  12    0.19    0.49 
  -7  -1  12    0.29    0.39 
   6   1 -12    0.16    0.11 
  -6  -1  12    0.15    0.28 
   5   1 -12    4.57    0.40 
  -5  -1  12    4.42    0.62 
   4   1 -12    5.17    0.44 
  -4  -1  12    7.13    0.67 
   3   1 -12    7.73    0.47 
  -3  -1  12    7.19    0.63 
   2   1 -12    0.05    0.13 
  -2  -1  12   -0.28    0.19 
   1   1 -12    1.22    0.24 
  -1  -1  12    1.47    0.31 
   0   1 -12    0.07    0.14 
  -1   1 -12    7.45    0.46 
  -1   1 -12    7.74    0.49 
  -2   1 -12    1.57    0.28 
  -2   1 -12    1.69    0.27 
  -3   1 -12    0.71    0.23 
  -3   1 -12    0.47    0.18 
  -4   1 -12    1.82    0.31 
  -4   1 -12    1.62    0.31 
  -5   1 -12    1.69    0.32 
  -6   1 -12    0.75    0.25 
  -7   1 -12   -0.12    0.14 
  -8   1 -12    0.05    0.28 
  -8   0  12   -0.38    0.38 
  -7   0  12    1.72    0.50 
   6   0 -12    0.43    0.20 
  -6   0  12    0.97    0.38 
   5   0 -12    0.02    0.13 
  -5   0  12    0.39    0.29 
   4   0 -12    6.09    0.42 
  -4   0  12    6.28    0.64 
   3   0 -12    1.43    0.25 
  -3   0  12    1.72    0.37 
   2   0 -12   60.76    1.71 
  -2   0  12   58.98    1.96 
   1   0 -12    5.75    0.41 
  -1   0  12    5.45    0.48 
   0   0 -12    7.00    0.46 
   0   0 -12    7.19    0.47 
  -1   0 -12    2.24    0.31 
  -1   0 -12    2.68    0.33 
  -2   0 -12    1.19    0.25 
  -2   0 -12    0.84    0.21 
  -3   0 -12   17.65    0.83 
  -3   0 -12   17.45    0.78 
  -4   0 -12    6.59    0.50 
  -4   0 -12    6.36    0.51 
  -5   0 -12   12.10    0.71 
  -6   0 -12    0.10    0.14 
  -7   0 -12    0.49    0.25 
  -8   0 -12   -0.07    0.26 
  -8   1  12    0.96    0.47 
  -7   1  12    0.04    0.36 
  -6   1  12    0.29    0.30 
   5  -1 -12    4.41    0.40 
   4  -1 -12    5.35    0.39 
  -4   1  12    9.52    0.80 
   3  -1 -12    7.47    0.46 
  -3   1  12   11.82    0.73 
   2  -1 -12   -0.01    0.13 
  -2   1  12   -0.06    0.29 
  -2   1  12   -0.01    0.16 
   1  -1 -12    1.75    0.29 
   1  -1 -12    1.71    0.26 
  -1   1  12    2.57    0.41 
   0  -1 -12    0.01    0.12 
   0  -1 -12    0.08    0.11 
  -1  -1 -12    8.18    0.48 
  -1  -1 -12    6.83    0.48 
  -2  -1 -12    1.70    0.28 
  -2  -1 -12    2.10    0.33 
  -3  -1 -12    0.21    0.17 
  -3  -1 -12    0.27    0.17 
  -4  -1 -12    2.26    0.36 
  -4  -1 -12    2.15    0.33 
  -5  -1 -12    0.72    0.23 
  -5  -1 -12    2.19    0.36 
  -6  -1 -12    0.46    0.21 
  -7  -1 -12    0.04    0.17 
  -8  -1 -12    0.18    0.30 
  -6   2  12   -0.15    0.29 
  -5   2  12    6.79    0.71 
   4  -2 -12    1.79    0.27 
  -4   2  12    1.56    0.38 
   3  -2 -12    2.59    0.29 
  -3   2  12    1.93    0.39 
   2  -2 -12   28.82    1.07 
   2  -2 -12   28.18    0.95 
  -2   2  12   25.17    1.10 
   1  -2 -12    1.34    0.25 
   1  -2 -12    0.57    0.17 
  -1   2  12    0.88    0.24 
   0  -2 -12    2.65    0.36 
   0  -2 -12    2.44    0.29 
  -1  -2 -12   16.69    0.70 
  -1  -2 -12   15.94    0.79 
  -2  -2 -12    1.06    0.26 
  -2  -2 -12    1.06    0.24 
  -3  -2 -12    0.23    0.17 
  -3  -2 -12    0.19    0.16 
  -4  -2 -12    2.37    0.40 
  -4  -2 -12    2.43    0.33 
  -5  -2 -12    0.02    0.17 
  -5  -2 -12   -0.07    0.11 
  -6  -2 -12    0.33    0.20 
  -7  -2 -12    0.30    0.23 
  -8  -2 -12    0.55    0.37 
  -8   3  12   -0.52    0.39 
  -7   3  12    0.14    0.40 
  -6   3  12    2.06    0.51 
  -5   3  12    0.71    0.35 
   4  -3 -12    0.23    0.16 
  -4   3  12    0.32    0.24 
   3  -3 -12    0.41    0.16 
   3  -3 -12    0.61    0.19 
  -3   3  12    0.22    0.23 
   2  -3 -12    6.68    0.39 
   2  -3 -12    6.58    0.56 
  -2   3  12    6.56    0.52 
   1  -3 -12   -0.08    0.14 
   1  -3 -12   -0.02    0.12 
  -1   3  12    0.14    0.17 
   0  -3 -12    0.10    0.14 
   0  -3 -12    0.11    0.14 
  -1  -3 -12    0.45    0.17 
  -1  -3 -12    0.17    0.16 
  -2  -3 -12    0.43    0.21 
  -2  -3 -12    0.99    0.21 
  -3  -3 -12    0.41    0.20 
  -4  -3 -12    0.03    0.14 
  -5  -3 -12   -0.05    0.15 
  -6  -3 -12    0.34    0.22 
  -7  -3 -12   -0.04    0.27 
  -7   4  12    0.71    0.50 
  -6   4  12    3.58    0.63 
  -5   4  12    0.66    0.35 
  -4   4  12    9.16    0.69 
   3  -4 -12    1.37    0.32 
  -3   4  12    1.43    0.33 
   2  -4 -12    0.75    0.19 
   2  -4 -12    0.58    0.23 
  -2   4  12    1.07    0.28 
   1  -4 -12    7.31    0.65 
   1  -4 -12    8.73    0.44 
  -1   4  12    8.32    0.55 
   0  -4 -12    0.04    0.15 
  -1  -4 -12   13.54    0.80 
  -2  -4 -12    0.23    0.18 
  -3  -4 -12    5.19    0.59 
  -4  -4 -12    0.48    0.20 
  -5  -4 -12    0.36    0.22 
  -6  -4 -12    4.77    0.65 
  -7  -4 -12    0.82    0.41 
  -6   5  12    0.27    0.40 
  -5   5  12    0.40    0.33 
  -4   5  12    3.96    0.53 
  -3   5  12    1.04    0.32 
   2  -5 -12    0.25    0.21 
  -2   5  12    0.10    0.21 
   1  -5 -12    0.23    0.19 
  -1   5  12    0.27    0.20 
   0  -5 -12    0.63    0.23 
  -1  -5 -12   -0.03    0.16 
  -2  -5 -12    0.85    0.25 
  -3  -5 -12    0.01    0.17 
  -4  -5 -12    0.03    0.19 
  -5  -5 -12    0.22    0.27 
  -6  -5 -12    0.00    0.31 
  -5   6  12    2.93    0.57 
  -4   6  12    3.86    0.57 
  -3   6  12    0.10    0.27 
   2  -6 -12    2.22    0.41 
  -2   6  12    2.14    0.40 
   1  -6 -12    1.44    0.35 
  -1   6  12    1.56    0.35 
   0  -6 -12    2.80    0.48 
  -1  -6 -12    2.33    0.44 
  -2  -6 -12    0.00    0.20 
  -3  -6 -12    0.37    0.26 
  -4  -6 -12    0.97    0.39 
  -5  -6 -12    0.13    0.34 
  -4   7  12   -0.25    0.35 
  -3   7  12    0.31    0.34 
  -2   7  12    0.38    0.34 
   1  -7 -12   -0.24    0.19 
  -1   7  12   -0.09    0.28 
   0  -7 -12    0.99    0.37 
  -1  -7 -12   -0.35    0.24 
  -2  -7 -12   -0.17    0.31 
  -3  -7 -12    0.28    0.40 
   1   7 -13    0.26    0.21 
   0   7 -13    2.31    0.39 
  -1   7 -13    0.01    0.21 
   4   6 -13    0.26    0.19 
  -4  -6  13   -0.31    0.42 
   3   6 -13    0.15    0.16 
   2   6 -13    0.26    0.18 
   1   6 -13    0.24    0.17 
   0   6 -13    0.10    0.17 
  -1   6 -13    0.15    0.17 
  -2   6 -13    0.18    0.17 
  -3   6 -13    0.58    0.25 
  -4   6 -13    0.45    0.28 
   5   5 -13    0.68    0.21 
  -5  -5  13    0.83    0.48 
   4   5 -13    0.06    0.13 
  -4  -5  13    0.28    0.37 
   3   5 -13    5.04    0.49 
  -3  -5  13    6.01    0.72 
   2   5 -13    1.14    0.24 
   1   5 -13    1.14    0.24 
   0   5 -13    3.39    0.43 
  -1   5 -13    0.24    0.14 
  -2   5 -13    0.29    0.15 
  -3   5 -13    3.55    0.46 
  -4   5 -13    0.38    0.22 
  -5   5 -13    0.38    0.27 
   6   4 -13    2.21    0.33 
  -6  -4  13    1.76    0.57 
   5   4 -13   -0.04    0.13 
  -5  -4  13    0.04    0.36 
   4   4 -13   -0.06    0.11 
  -4  -4  13   -0.11    0.29 
   3   4 -13    0.34    0.14 
  -3  -4  13    0.76    0.35 
   2   4 -13    0.41    0.16 
   1   4 -13   -0.13    0.09 
   0   4 -13    0.09    0.13 
  -1   4 -13    0.42    0.18 
  -2   4 -13    0.12    0.13 
  -3   4 -13   -0.01    0.12 
  -4   4 -13    0.09    0.13 
  -5   4 -13    0.28    0.16 
  -6   4 -13    0.42    0.24 
   7   3 -13   -0.13    0.17 
  -7  -3  13    0.54    0.50 
   6   3 -13   -0.03    0.13 
  -6  -3  13    0.36    0.41 
   5   3 -13   11.48    0.61 
  -5  -3  13   11.56    0.94 
   4   3 -13    1.47    0.25 
  -4  -3  13    1.55    0.43 
   3   3 -13    4.16    0.43 
  -3  -3  13    4.11    0.57 
   2   3 -13    2.07    0.30 
   1   3 -13    0.81    0.21 
   0   3 -13    4.25    0.45 
  -1   3 -13    1.24    0.27 
  -2   3 -13    3.94    0.47 
  -3   3 -13    0.73    0.21 
  -3   3 -13    0.51    0.24 
  -4   3 -13    0.71    0.28 
  -4   3 -13    1.14    0.28 
  -5   3 -13   -0.06    0.14 
  -6   3 -13    0.87    0.26 
   7   2 -13    0.21    0.17 
  -7  -2  13    0.04    0.43 
   6   2 -13    3.74    0.39 
  -6  -2  13    3.60    0.65 
   5   2 -13    1.91    0.29 
  -5  -2  13    1.86    0.47 
   4   2 -13    4.84    0.44 
  -4  -2  13    5.53    0.63 
   3   2 -13   -0.12    0.09 
  -3  -2  13    0.38    0.24 
   2   2 -13    2.98    0.37 
   1   2 -13    0.61    0.21 
   0   2 -13    0.44    0.21 
  -1   2 -13    1.37    0.29 
  -2   2 -13    1.83    0.28 
  -2   2 -13    1.76    0.31 
  -3   2 -13    0.11    0.19 
  -3   2 -13    0.08    0.13 
  -4   2 -13    0.38    0.22 
  -4   2 -13    0.47    0.17 
  -5   2 -13    0.21    0.14 
  -5   2 -13    0.02    0.20 
  -6   2 -13    0.19    0.17 
  -7   2 -13   -0.13    0.20 
  -8  -1  13    5.24    0.88 
  -7  -1  13    4.71    0.77 
   6   1 -13    0.30    0.15 
  -6  -1  13    0.29    0.37 
   5   1 -13    3.99    0.40 
  -5  -1  13    3.64    0.60 
   4   1 -13    0.36    0.20 
  -4  -1  13    0.49    0.29 
   3   1 -13    6.33    0.44 
  -3  -1  13    6.53    0.63 
   2   1 -13    3.92    0.41 
   1   1 -13    9.70    0.57 
   0   1 -13   12.32    0.66 
  -1   1 -13    0.47    0.21 
  -2   1 -13    0.16    0.13 
  -2   1 -13    0.01    0.15 
  -3   1 -13    8.64    0.56 
  -3   1 -13    8.80    0.58 
  -4   1 -13    4.75    0.50 
  -4   1 -13    4.07    0.46 
  -5   1 -13    1.44    0.32 
  -5   1 -13    1.70    0.32 
  -6   1 -13    0.00    0.16 
  -7   1 -13    1.02    0.32 
  -8   0  13   -0.38    0.48 
  -7   0  13   -0.10    0.38 
   6   0 -13   -0.07    0.15 
  -6   0  13   -0.11    0.32 
   5   0 -13   -0.17    0.13 
  -5   0  13   -0.07    0.27 
   4   0 -13    0.12    0.15 
  -4   0  13    0.02    0.24 
   3   0 -13    0.06    0.14 
  -3   0  13   -0.04    0.21 
   2   0 -13    0.02    0.14 
  -2   0  13    0.14    0.18 
   1   0 -13    0.00    0.15 
   0   0 -13   -0.13    0.13 
  -1   0 -13    0.03    0.16 
  -1   0 -13    0.05    0.12 
  -2   0 -13    0.00    0.14 
  -2   0 -13   -0.12    0.15 
  -3   0 -13    0.11    0.15 
  -3   0 -13   -0.08    0.14 
  -4   0 -13   -0.01    0.14 
  -4   0 -13    0.13    0.19 
  -5   0 -13    0.16    0.21 
  -5   0 -13    0.12    0.15 
  -6   0 -13    0.12    0.16 
  -7   0 -13    0.17    0.22 
  -8   1  13    6.01    0.92 
  -7   1  13    6.07    0.83 
  -6   1  13    0.29    0.35 
   5  -1 -13    4.96    0.44 
  -5   1  13    5.66    0.68 
   4  -1 -13    0.36    0.19 
  -4   1  13    0.25    0.36 
   3  -1 -13    6.15    0.43 
   2  -1 -13    4.60    0.41 
  -2   1  13    7.77    0.70 
   1  -1 -13    9.39    0.53 
   0  -1 -13   12.29    0.62 
   0  -1 -13   12.97    0.67 
  -1  -1 -13    0.71    0.21 
  -1  -1 -13    0.70    0.21 
  -2  -1 -13   -0.07    0.14 
  -2  -1 -13   -0.06    0.13 
  -3  -1 -13    9.71    0.57 
  -3  -1 -13    9.26    0.62 
  -4  -1 -13    3.61    0.45 
  -4  -1 -13    4.43    0.45 
  -5  -1 -13    1.94    0.36 
  -5  -1 -13    1.33    0.30 
  -6  -1 -13   -0.06    0.19 
  -6  -1 -13    0.20    0.17 
  -7  -1 -13    1.70    0.42 
  -7   2  13   -1.01    0.74 
  -6   2  13    4.97    0.73 
   5  -2 -13    2.26    0.31 
  -5   2  13   -0.02    0.27 
   4  -2 -13    5.60    0.41 
  -4   2  13    6.25    0.66 
   3  -2 -13    0.04    0.14 
  -3   2  13   -0.05    0.21 
   2  -2 -13    3.61    0.36 
  -2   2  13    2.42    0.41 
   1  -2 -13    0.76    0.20 
   1  -2 -13    0.73    0.21 
   0  -2 -13    0.36    0.17 
   0  -2 -13    0.46    0.19 
  -1  -2 -13    1.25    0.25 
  -1  -2 -13    1.32    0.28 
  -2  -2 -13    2.15    0.32 
  -2  -2 -13    1.31    0.28 
  -3  -2 -13    0.35    0.20 
  -3  -2 -13   -0.03    0.14 
  -4  -2 -13    0.60    0.22 
  -4  -2 -13    0.56    0.21 
  -5  -2 -13    0.09    0.18 
  -5  -2 -13   -0.09    0.21 
  -6  -2 -13   -0.16    0.18 
  -7  -2 -13    0.04    0.28 
  -7   3  13   -0.17    0.42 
  -6   3  13    0.25    0.38 
  -5   3  13   12.14    0.91 
   4  -3 -13    1.51    0.27 
  -4   3  13    1.58    0.40 
   3  -3 -13    4.97    0.37 
  -3   3  13    4.83    0.55 
   2  -3 -13    2.73    0.31 
   2  -3 -13    2.23    0.36 
  -2   3  13    2.78    0.41 
   1  -3 -13    0.78    0.24 
   1  -3 -13    0.54    0.18 
   0  -3 -13    5.36    0.55 
   0  -3 -13    5.49    0.39 
  -1  -3 -13    1.54    0.26 
  -1  -3 -13    1.53    0.31 
  -2  -3 -13    3.74    0.38 
  -2  -3 -13    4.53    0.53 
  -3  -3 -13    0.70    0.24 
  -4  -3 -13    1.32    0.32 
  -5  -3 -13   -0.21    0.14 
  -6  -3 -13    0.65    0.31 
  -6   4  13    2.27    0.59 
  -5   4  13   -0.01    0.33 
  -4   4  13    0.09    0.28 
   3  -4 -13    0.87    0.28 
   3  -4 -13    0.81    0.21 
  -3   4  13    0.36    0.27 
   2  -4 -13    0.56    0.18 
   2  -4 -13    0.35    0.20 
  -2   4  13    0.26    0.23 
   1  -4 -13    0.30    0.20 
   0  -4 -13   -0.37    0.15 
  -1  -4 -13    0.95    0.27 
  -2  -4 -13    0.28    0.19 
  -3  -4 -13    0.27    0.20 
  -4  -4 -13    0.36    0.21 
  -5  -4 -13    0.43    0.26 
  -6  -4 -13    0.50    0.38 
  -5   5  13    0.42    0.39 
  -4   5  13    0.29    0.31 
  -3   5  13    4.57    0.56 
   2  -5 -13    0.71    0.27 
  -2   5  13    1.20    0.34 
   1  -5 -13    0.89    0.29 
   0  -5 -13    3.90    0.54 
  -1  -5 -13    0.19    0.19 
  -2  -5 -13    0.07    0.17 
  -3  -5 -13    4.29    0.59 
  -4  -5 -13    0.08    0.25 
  -5  -5 -13    0.34    0.36 
  -4   6  13   -0.05    0.35 
  -3   6  13   -0.27    0.30 
   2  -6 -13    0.80    0.30 
  -2   6  13    0.47    0.31 
   1  -6 -13    0.16    0.24 
   0  -6 -13    0.42    0.22 
  -1  -6 -13    0.08    0.22 
  -2  -6 -13   -0.03    0.22 
  -3  -6 -13    0.57    0.37 
  -4  -6 -13    0.28    0.40 
  -2   7  13    1.41    0.45 
   1  -7 -13   -0.16    0.33 
   0  -7 -13    2.64    0.61 
  -1  -7 -13    0.16    0.39 
   2   6 -14    0.20    0.22 
   1   6 -14    1.72    0.36 
   0   6 -14    0.40    0.24 
  -1   6 -14    2.67    0.45 
  -2   6 -14    0.38    0.29 
   4   5 -14    0.40    0.22 
  -4  -5  14    0.15    0.47 
   3   5 -14    0.20    0.16 
   2   5 -14    0.72    0.22 
   1   5 -14    0.39    0.18 
   0   5 -14    0.68    0.23 
  -1   5 -14    1.36    0.32 
  -2   5 -14   -0.02    0.18 
  -3   5 -14    0.03    0.22 
  -4   5 -14    0.42    0.28 
   5   4 -14    2.03    0.35 
  -5  -4  14    2.29    0.60 
   4   4 -14    2.65    0.37 
  -4  -4  14    2.13    0.56 
   3   4 -14    6.14    0.55 
   2   4 -14    1.58    0.29 
   1   4 -14    3.10    0.40 
   0   4 -14    1.05    0.25 
  -1   4 -14    2.37    0.38 
  -2   4 -14   -0.15    0.12 
  -3   4 -14    0.61    0.22 
  -4   4 -14    1.40    0.34 
  -5   4 -14    0.27    0.30 
   6   3 -14   -0.27    0.16 
  -6  -3  14    0.23    0.47 
   5   3 -14    0.31    0.19 
  -5  -3  14   -0.08    0.38 
   4   3 -14    3.45    0.40 
  -4  -3  14    3.19    0.58 
   3   3 -14    0.23    0.14 
   2   3 -14    0.05    0.11 
   1   3 -14    0.59    0.18 
   0   3 -14    0.00    0.11 
  -1   3 -14    0.18    0.18 
  -2   3 -14    0.03    0.19 
  -3   3 -14    0.14    0.23 
  -4   3 -14    0.16    0.26 
  -5   3 -14    0.23    0.19 
  -5   3 -14    0.19    0.26 
  -6   3 -14    1.91    0.41 
  -6   3 -14    1.13    0.37 
   7   2 -14   -0.05    0.20 
  -7  -2  14   -0.12    0.49 
   6   2 -14    5.12    0.48 
  -6  -2  14    4.75    0.76 
   5   2 -14    1.34    0.25 
  -5  -2  14    1.54    0.47 
   4   2 -14    3.01    0.36 
  -4  -2  14    3.85    0.57 
   3   2 -14    6.60    0.47 
   2   2 -14    3.04    0.41 
   1   2 -14    5.22    0.51 
   0   2 -14   -0.04    0.19 
  -1   2 -14    6.99    0.60 
  -2   2 -14    1.76    0.34 
  -3   2 -14    0.56    0.24 
  -4   2 -14    3.07    0.47 
  -4   2 -14    3.49    0.44 
  -5   2 -14    0.51    0.29 
  -5   2 -14    0.76    0.24 
  -6   2 -14   -0.18    0.26 
  -6   2 -14    0.08    0.21 
  -7  -1  14   -0.07    0.49 
   6   1 -14    0.81    0.22 
  -6  -1  14    0.97    0.47 
   5   1 -14    0.05    0.19 
  -5  -1  14   -0.16    0.30 
   4   1 -14    2.56    0.37 
  -4  -1  14    2.76    0.51 
   3   1 -14    1.01    0.25 
  -3  -1  14    1.08    0.40 
   2   1 -14    0.12    0.19 
   1   1 -14    2.66    0.38 
   0   1 -14    0.39    0.22 
  -1   1 -14   10.30    0.64 
  -2   1 -14    4.76    0.50 
  -3   1 -14    0.09    0.20 
  -3   1 -14    0.35    0.18 
  -4   1 -14    0.27    0.15 
  -4   1 -14    0.05    0.22 
  -5   1 -14    0.13    0.18 
  -5   1 -14    0.59    0.29 
  -6   1 -14    0.07    0.25 
  -6   1 -14    0.08    0.18 
  -7   0  14    4.11    0.80 
   6   0 -14    3.91    0.43 
  -6   0  14    2.67    0.60 
   5   0 -14   -0.13    0.18 
  -5   0  14   -0.04    0.31 
   4   0 -14    2.71    0.37 
  -4   0  14    2.23    0.46 
   3   0 -14   12.34    0.65 
  -3   0  14   12.57    0.85 
   2   0 -14    9.27    0.57 
   1   0 -14    1.10    0.27 
   0   0 -14    9.51    0.58 
  -1   0 -14    6.30    0.53 
  -2   0 -14   -0.11    0.13 
  -2   0 -14    0.01    0.18 
  -3   0 -14    2.00    0.35 
  -3   0 -14    2.78    0.40 
  -4   0 -14    5.20    0.54 
  -4   0 -14    5.29    0.52 
  -5   0 -14    0.48    0.20 
  -5   0 -14    0.39    0.26 
  -6   0 -14    2.14    0.40 
  -6   0 -14    2.22    0.42 
  -7   1  14    1.29    0.58 
  -6   1  14    1.90    0.54 
   5  -1 -14   -0.04    0.17 
  -5   1  14   -0.02    0.31 
   4  -1 -14    1.97    0.31 
  -4   1  14    2.20    0.49 
   3  -1 -14    1.01    0.25 
  -3   1  14    1.09    0.36 
   2  -1 -14   -0.05    0.14 
   1  -1 -14    2.26    0.33 
   0  -1 -14    0.56    0.21 
  -1  -1 -14    9.64    0.58 
  -1  -1 -14    9.43    0.60 
  -2  -1 -14    3.89    0.47 
  -2  -1 -14    3.76    0.43 
  -3  -1 -14    0.16    0.19 
  -3  -1 -14    0.05    0.15 
  -4  -1 -14    0.43    0.20 
  -4  -1 -14    0.12    0.20 
  -5  -1 -14    0.47    0.21 
  -5  -1 -14    0.68    0.27 
  -6  -1 -14   -0.22    0.23 
  -6  -1 -14   -0.11    0.19 
  -7   2  14    0.72    0.47 
   5  -2 -14    1.53    0.30 
  -5   2  14    1.90    0.67 
   4  -2 -14    2.87    0.35 
  -4   2  14    0.18    0.41 
   2  -2 -14    3.85    0.39 
   1  -2 -14    5.74    0.46 
   0  -2 -14    0.07    0.18 
   0  -2 -14    0.10    0.16 
  -1  -2 -14    6.84    0.61 
  -1  -2 -14    7.41    0.49 
  -2  -2 -14    2.36    0.36 
  -2  -2 -14    1.71    0.32 
  -3  -2 -14    0.59    0.25 
  -3  -2 -14    0.83    0.25 
  -4  -2 -14    2.85    0.40 
  -4  -2 -14    2.98    0.45 
  -5  -2 -14    0.39    0.23 
  -6  -2 -14   -0.21    0.25 
  -6   3  14   -0.35    0.40 
  -5   3  14    0.78    0.40 
   4  -3 -14    3.69    0.39 
  -4   3  14    4.18    0.62 
   3  -3 -14    0.09    0.18 
  -3   3  14    0.21    0.27 
   2  -3 -14   -0.09    0.15 
   1  -3 -14    0.66    0.22 
   1  -3 -14    1.18    0.27 
   0  -3 -14   -0.05    0.16 
   0  -3 -14    0.07    0.17 
  -1  -3 -14    0.05    0.16 
  -1  -3 -14    0.16    0.19 
  -2  -3 -14   -0.12    0.13 
  -3  -3 -14   -0.03    0.16 
  -4  -3 -14    0.01    0.19 
  -5  -3 -14    0.09    0.25 
  -6  -3 -14    0.98    0.44 
  -5   4  14    2.32    0.59 
  -4   4  14    3.34    0.58 
   3  -4 -14    6.00    0.43 
  -3   4  14    6.13    0.65 
   2  -4 -14    1.41    0.27 
   1  -4 -14    3.72    0.52 
   0  -4 -14    1.13    0.31 
  -1  -4 -14    2.44    0.42 
  -2  -4 -14    0.00    0.17 
  -3  -4 -14    0.60    0.28 
  -4  -4 -14    1.26    0.37 
  -5  -4 -14   -0.33    0.28 
  -4   5  14    0.13    0.39 
  -3   5  14    0.41    0.35 
   2  -5 -14    0.67    0.27 
   1  -5 -14    0.71    0.24 
   0  -5 -14    0.59    0.27 
  -1  -5 -14    0.77    0.30 
  -2  -5 -14    0.16    0.21 
  -3  -5 -14    0.03    0.26 
  -4  -5 -14    0.80    0.43 
   2  -6 -14   -0.07    0.25 
   1  -6 -14    1.84    0.46 
   0  -6 -14    0.48    0.29 
  -1  -6 -14    2.19    0.52 
  -2  -6 -14   -0.02    0.34 
   2   5 -15    0.50    0.28 
   1   5 -15    1.10    0.32 
   0   5 -15    3.02    0.48 
  -1   5 -15    0.84    0.33 
  -2   5 -15    2.27    0.45 
   4   4 -15    0.13    0.24 
   3   4 -15    1.16    0.30 
   2   4 -15    0.39    0.22 
   1   4 -15    0.03    0.16 
   0   4 -15    0.62    0.22 
  -1   4 -15    0.71    0.24 
  -2   4 -15   -0.19    0.16 
  -3   4 -15    0.19    0.24 
  -4   4 -15    0.12    0.31 
   5   3 -15    1.79    0.35 
  -5  -3  15    1.84    0.63 
   4   3 -15    4.13    0.48 
   3   3 -15    1.17    0.27 
   2   3 -15    3.50    0.44 
   1   3 -15    0.54    0.20 
   0   3 -15    0.53    0.20 
  -1   3 -15    3.28    0.48 
  -2   3 -15   -0.07    0.23 
  -3   3 -15    2.70    0.47 
  -4   3 -15    0.01    0.26 
  -6  -2  15    0.39    0.50 
   5   2 -15    0.07    0.19 
  -5  -2  15    0.06    0.39 
   4   2 -15    1.78    0.31 
   3   2 -15    0.18    0.15 
   2   2 -15    0.16    0.22 
   1   2 -15    0.20    0.23 
   0   2 -15   -0.06    0.20 
  -1   2 -15    0.55    0.27 
  -2   2 -15   -0.10    0.22 
  -3   2 -15    0.07    0.25 
  -4   2 -15    0.01    0.24 
  -5   2 -15    0.23    0.30 
  -5   2 -15    0.32    0.23 
   6   1 -15    0.30    0.20 
  -6  -1  15    0.32    0.48 
   5   1 -15    4.04    0.47 
  -5  -1  15    4.11    0.71 
   4   1 -15    1.29    0.30 
   3   1 -15    1.71    0.33 
   2   1 -15    6.80    0.57 
   1   1 -15    0.49    0.24 
   0   1 -15    3.11    0.43 
  -1   1 -15   -0.08    0.18 
  -2   1 -15    0.21    0.22 
  -3   1 -15    2.01    0.37 
  -4   1 -15    0.12    0.15 
  -4   1 -15    0.23    0.26 
  -5   1 -15    0.57    0.31 
  -5   1 -15    0.47    0.21 
   6   0 -15    0.09    0.23 
  -6   0  15   -0.04    0.46 
   5   0 -15   -0.06    0.21 
  -5   0  15    0.06    0.40 
   4   0 -15    0.06    0.20 
  -4   0  15   -0.50    0.32 
   3   0 -15   -0.04    0.18 
   2   0 -15   -0.07    0.19 
   1   0 -15    0.05    0.18 
   0   0 -15    0.01    0.20 
  -1   0 -15   -0.16    0.18 
  -2   0 -15    0.17    0.21 
  -3   0 -15   -0.07    0.21 
  -3   0 -15    0.16    0.17 
  -4   0 -15    0.16    0.16 
  -4   0 -15   -0.15    0.21 
  -5   0 -15   -0.05    0.17 
  -5   0 -15    0.00    0.25 
  -6   1  15    0.68    0.52 
   5  -1 -15    3.87    0.46 
  -5   1  15    6.20    0.79 
   4  -1 -15    1.50    0.30 
  -4   1  15    1.68    0.49 
   3  -1 -15    1.11    0.29 
   2  -1 -15    6.73    0.48 
   1  -1 -15    0.52    0.23 
   0  -1 -15    3.62    0.43 
  -1  -1 -15    0.22    0.21 
  -2  -1 -15   -0.19    0.19 
  -2  -1 -15    0.08    0.19 
  -3  -1 -15    1.98    0.38 
  -3  -1 -15    2.23    0.38 
  -4  -1 -15    0.36    0.20 
  -4  -1 -15    0.21    0.24 
  -5  -1 -15    0.56    0.29 
  -5  -1 -15    0.65    0.28 
  -6   2  15    1.04    0.53 
   5  -2 -15   -0.10    0.21 
   4  -2 -15    1.53    0.30 
   3  -2 -15    0.12    0.19 
   2  -2 -15    0.15    0.19 
   1  -2 -15    0.25    0.20 
   0  -2 -15    0.20    0.19 
  -1  -2 -15    0.74    0.25 
  -1  -2 -15    0.87    0.26 
  -2  -2 -15    0.25    0.21 
  -2  -2 -15    0.13    0.18 
  -3  -2 -15    0.03    0.22 
  -3  -2 -15    0.15    0.17 
  -4  -2 -15    0.09    0.19 
  -5  -2 -15    0.11    0.26 
  -5   3  15    0.20    0.42 
   4  -3 -15    4.46    0.45 
  -4   3  15    4.90    0.70 
   3  -3 -15    1.22    0.28 
   2  -3 -15    3.66    0.39 
   1  -3 -15    0.94    0.26 
   0  -3 -15    0.26    0.20 
   0  -3 -15    0.61    0.24 
  -1  -3 -15    4.03    0.54 
  -2  -3 -15    0.06    0.19 
  -3  -3 -15    2.75    0.49 
  -4  -3 -15    0.27    0.25 
  -4   4  15    0.32    0.44 
   3  -4 -15    0.62    0.26 
   0  -4 -15    0.44    0.25 
  -1  -4 -15    1.15    0.34 
  -2  -4 -15   -0.02    0.22 
  -3  -4 -15    0.58    0.32 
  -4  -4 -15    0.08    0.34 
   1  -5 -15    1.16    0.38 
   0  -5 -15    2.93    0.53 
  -1  -5 -15    0.96    0.35 
  -2  -5 -15    1.21    0.43 
   2   4 -16    0.15    0.26 
   1   4 -16    0.72    0.32 
   0   4 -16    0.81    0.31 
  -1   4 -16    0.11    0.26 
   3   3 -16    0.97    0.32 
   2   3 -16   -0.07    0.21 
   1   3 -16    0.22    0.23 
   0   3 -16   -0.33    0.23 
  -1   3 -16    0.55    0.33 
  -2   3 -16    0.87    0.35 
  -3   3 -16    0.29    0.31 
   4   2 -16    0.74    0.28 
   3   2 -16    7.57    0.64 
   2   2 -16    0.01    0.24 
   1   2 -16    0.11    0.26 
   0   2 -16    5.00    0.57 
  -1   2 -16    0.53    0.31 
  -2   2 -16    0.36    0.30 
  -3   2 -16    2.78    0.49 
  -4   2 -16    0.60    0.34 
   5   1 -16    0.12    0.27 
   4   1 -16    0.27    0.27 
   3   1 -16    0.30    0.25 
   2   1 -16    0.10    0.24 
   1   1 -16   -0.01    0.22 
   0   1 -16    0.85    0.32 
  -1   1 -16    0.96    0.33 
  -2   1 -16    2.02    0.42 
  -3   1 -16    0.93    0.36 
  -4   1 -16    0.00    0.28 
   5   0 -16    0.83    0.31 
   4   0 -16    0.35    0.26 
   3   0 -16    2.22    0.39 
   2   0 -16    1.28    0.33 
   1   0 -16    2.53    0.41 
   0   0 -16    0.54    0.27 
  -1   0 -16    4.55    0.52 
  -2   0 -16    0.17    0.26 
  -3   0 -16   -0.01    0.26 
  -4   0 -16    1.00    0.35 
  -4   0 -16    1.28    0.36 
   5  -1 -16   -0.10    0.23 
   4  -1 -16    0.35    0.26 
   3  -1 -16    0.34    0.24 
   2  -1 -16   -0.04    0.20 
   1  -1 -16    0.01    0.21 
   0  -1 -16    0.53    0.27 
  -1  -1 -16    0.44    0.26 
  -2  -1 -16    1.08    0.33 
  -3  -1 -16    1.23    0.34 
  -3  -1 -16    1.02    0.34 
  -4  -1 -16    0.21    0.30 
  -4  -1 -16    0.20    0.23 
   4  -2 -16    0.92    0.30 
   3  -2 -16    8.42    0.56 
   2  -2 -16   -0.02    0.21 
   1  -2 -16   -0.14    0.20 
   0  -2 -16    4.22    0.47 
  -1  -2 -16    0.60    0.27 
  -2  -2 -16    0.30    0.27 
  -2  -2 -16    0.52    0.26 
  -3  -2 -16    2.18    0.41 
  -4  -2 -16    1.27    0.40 
   3  -3 -16    0.98    0.30 
   2  -3 -16    0.08    0.21 
   1  -3 -16   -0.07    0.22 
  -2  -3 -16    1.08    0.36 
  -3  -3 -16    0.35    0.30 
  -1  -4 -16    0.40    0.32 
   2   2 -17    1.10    0.36 
   1   2 -17    0.41    0.31 
   0   2 -17    0.37    0.31 
  -1   2 -17   -0.20    0.28 
   3   1 -17    1.26    0.36 
   2   1 -17    0.83    0.34 
   1   1 -17    0.53    0.31 
   0   1 -17    0.43    0.32 
  -1   1 -17    2.15    0.45 
  -2   1 -17   -0.15    0.29 
   3   0 -17    0.12    0.27 
   2   0 -17   -0.04    0.25 
   1   0 -17   -0.04    0.24 
   0   0 -17   -0.24    0.24 
  -1   0 -17    0.24    0.27 
  -2   0 -17   -0.25    0.27 
   3  -1 -17    1.45    0.36 
   2  -1 -17    1.24    0.33 
   1  -1 -17    0.64    0.30 
   0  -1 -17    0.37    0.28 
  -1  -1 -17    2.08    0.42 
  -2  -1 -17    0.10    0.28 
   2  -2 -17    1.15    0.32 
   1  -2 -17   -0.08    0.25 
   0  -2 -17    0.51    0.30 
  -1  -2 -17    0.00    0.27 
   0   0   0    0.00    0.00 
;
_shelx_hkl_checksum              5392
loop_
_space_group_symop_operation_xyz
'x, y, z'
'-x, y+1/2, -z+1/2'
'-x, -y, -z'
'x, -y-1/2, z-1/2'
loop_
_atom_site_label
_atom_site_type_symbol
_atom_site_fract_x
_atom_site_fract_y
_atom_site_fract_z
_atom_site_U_iso_or_equiv
_atom_site_adp_type
_atom_site_occupancy
_atom_site_site_symmetry_order
_atom_site_calc_flag
_atom_site_refinement_flags_posn
_atom_site_refinement_flags_adp
S1 S -0.29779(6) -0.00132(7) 0.69406(4) 0.0491(2) Uani 1 1 d . .
F1 F -0.3884(2) 0.2972(2) 0.74366(14) 0.0903(6) Uani 1 1 d . .
F2 F -0.45132(18) 0.0957(3) 0.84107(12) 0.0940(6) Uani 1 1 d . .
N1 N -0.14003(18) 0.0840(2) 0.64679(11) 0.0406(4) Uani 1 1 d . .
O1 O 0.03872(19) -0.0495(2) 0.74971(12) 0.0643(5) Uani 1 1 d . .
O2 O -0.25003(18) 0.2442(2) 0.51795(12) 0.0588(4) Uani 1 1 d . .
C1 C 0.0088(2) 0.0422(3) 0.68016(15) 0.0433(5) Uani 1 1 d . .
C2 C -0.1390(2) 0.1921(3) 0.56142(14) 0.0408(5) Uani 1 1 d . .
C3 C 0.0230(2) 0.2212(2) 0.54187(14) 0.0400(4) Uani 1 1 d . .
C4 C 0.1108(2) 0.1329(2) 0.61185(14) 0.0405(5) Uani 1 1 d . .
C5 C 0.2668(2) 0.1389(3) 0.61127(17) 0.0543(6) Uani 1 1 d . .
H5 H 0.3258 0.0793 0.6583 0.065 Uiso 1 1 calc R U
C6 C 0.3323(3) 0.2369(3) 0.5381(2) 0.0621(7) Uani 1 1 d . .
H6 H 0.4376 0.2430 0.5356 0.075 Uiso 1 1 calc R U
C7 C 0.2450(3) 0.3259(3) 0.46867(18) 0.0597(6) Uani 1 1 d . .
H7 H 0.2925 0.3917 0.4207 0.072 Uiso 1 1 calc R U
C8 C 0.0883(3) 0.3191(3) 0.46902(16) 0.0502(5) Uani 1 1 d . .
H8 H 0.0292 0.3784 0.4218 0.060 Uiso 1 1 calc R U
C9 C -0.3374(2) 0.1559(3) 0.78751(16) 0.0559(6) Uani 1 1 d . .
H9 H -0.2479 0.1778 0.8311 0.067 Uiso 1 1 calc R U
loop_
_atom_site_aniso_label
_atom_site_aniso_U_11
_atom_site_aniso_U_22
_atom_site_aniso_U_33
_atom_site_aniso_U_23
_atom_site_aniso_U_13
_atom_site_aniso_U_12
S1 0.0472(3) 0.0481(4) 0.0529(3) -0.0050(2) 0.0178(3) -0.0063(2)
F1 0.0947(13) 0.0688(11) 0.1078(12) -0.0203(9) 0.0081(10) 0.0206(9)
F2 0.0749(10) 0.1216(15) 0.0881(11) -0.0269(10) 0.0503(9) -0.0174(10)
N1 0.0381(9) 0.0432(9) 0.0409(8) 0.0022(7) 0.0100(7) 0.0014(7)
O1 0.0604(10) 0.0769(12) 0.0559(9) 0.0224(8) 0.0045(8) 0.0104(9)
O2 0.0483(9) 0.0720(11) 0.0560(9) 0.0132(8) -0.0013(7) 0.0082(8)
C1 0.0455(12) 0.0434(12) 0.0412(10) -0.0023(8) 0.0069(9) 0.0043(9)
C2 0.0443(12) 0.0400(11) 0.0382(9) -0.0023(8) 0.0060(9) 0.0023(8)
C3 0.0442(11) 0.0380(11) 0.0381(9) -0.0056(8) 0.0094(8) 0.0003(8)
C4 0.0409(11) 0.0403(11) 0.0406(9) -0.0068(8) 0.0085(8) 0.0014(8)
C5 0.0440(12) 0.0593(15) 0.0598(13) -0.0061(11) 0.0058(10) 0.0041(10)
C6 0.0434(12) 0.0637(16) 0.0802(16) -0.0143(13) 0.0220(12) -0.0087(11)
C7 0.0626(15) 0.0535(14) 0.0645(14) -0.0052(11) 0.0313(12) -0.0094(11)
C8 0.0602(14) 0.0438(12) 0.0472(11) 0.0009(9) 0.0163(10) -0.0012(10)
C9 0.0371(11) 0.0795(17) 0.0514(12) -0.0139(11) 0.0099(10) 0.0036(11)
loop_
_atom_type_symbol
_atom_type_description
_atom_type_scat_dispersion_real
_atom_type_scat_dispersion_imag
_atom_type_scat_source
C C 0.0033 0.0016 'International Tables Vol C Tables 4.2.6.8 and 6.1.1.4'
H H 0.0000 0.0000 'International Tables Vol C Tables 4.2.6.8 and 6.1.1.4'
N N 0.0061 0.0033 'International Tables Vol C Tables 4.2.6.8 and 6.1.1.4'
O O 0.0106 0.0060 'International Tables Vol C Tables 4.2.6.8 and 6.1.1.4'
F F 0.0171 0.0103 'International Tables Vol C Tables 4.2.6.8 and 6.1.1.4'
S S 0.1246 0.1234 'International Tables Vol C Tables 4.2.6.8 and 6.1.1.4'
loop_
_geom_angle_atom_site_label_1
_geom_angle_atom_site_label_2
_geom_angle_atom_site_label_3
_geom_angle
N1 S1 C9 98.57(10)
C1 N1 C2 111.49(16)
C1 N1 S1 123.94(14)
C2 N1 S1 124.23(14)
O1 C1 N1 124.61(19)
O1 C1 C4 129.82(19)
N1 C1 C4 105.58(17)
O2 C2 N1 124.75(19)
O2 C2 C3 130.17(19)
N1 C2 C3 105.08(16)
C8 C3 C4 121.26(19)
C8 C3 C2 129.41(19)
C4 C3 C2 109.33(17)
C5 C4 C3 121.41(19)
C5 C4 C1 130.1(2)
C3 C4 C1 108.52(17)
C4 C5 C6 117.3(2)
C4 C5 H5 121.3
C6 C5 H5 121.3
C7 C6 C5 121.4(2)
C7 C6 H6 119.3
C5 C6 H6 119.3
C6 C7 C8 121.2(2)
C6 C7 H7 119.4
C8 C7 H7 119.4
C3 C8 C7 117.4(2)
C3 C8 H8 121.3
C7 C8 H8 121.3
F2 C9 F1 106.5(2)
F2 C9 S1 105.95(17)
F1 C9 S1 111.04(16)
F2 C9 H9 111.1
F1 C9 H9 111.1
S1 C9 H9 111.1
loop_
_geom_bond_atom_site_label_1
_geom_bond_atom_site_label_2
_geom_bond_distance
S1 N1 1.6806(16)
S1 C9 1.798(2)
F1 C9 1.339(3)
F2 C9 1.331(3)
N1 C1 1.411(3)
N1 C2 1.418(2)
O1 C1 1.197(3)
O2 C2 1.195(2)
C1 C4 1.478(3)
C2 C3 1.474(3)
C3 C8 1.375(3)
C3 C4 1.382(3)
C4 C5 1.375(3)
C5 C6 1.379(3)
C5 H5 0.9300
C6 C7 1.378(4)
C6 H6 0.9300
C7 C8 1.382(3)
C7 H7 0.9300
C8 H8 0.9300
C9 H9 0.9800
loop_
_geom_hbond_atom_site_label_D
_geom_hbond_atom_site_label_H
_geom_hbond_atom_site_label_A
_geom_hbond_distance_DH
_geom_hbond_distance_HA
_geom_hbond_distance_DA
_geom_hbond_angle_DHA
_geom_hbond_site_symmetry_A
C9 H9 O2 0.98 2.54 3.217(3) 125.9 4_566
loop_
_geom_torsion_atom_site_label_1
_geom_torsion_atom_site_label_2
_geom_torsion_atom_site_label_3
_geom_torsion_atom_site_label_4
_geom_torsion
C9 S1 N1 C1 94.35(17)
C9 S1 N1 C2 -92.96(17)
C2 N1 C1 O1 -178.7(2)
S1 N1 C1 O1 -5.1(3)
C2 N1 C1 C4 1.0(2)
S1 N1 C1 C4 174.49(13)
C1 N1 C2 O2 179.02(19)
S1 N1 C2 O2 5.5(3)
C1 N1 C2 C3 -1.0(2)
S1 N1 C2 C3 -174.44(13)
O2 C2 C3 C8 1.4(4)
N1 C2 C3 C8 -178.65(19)
O2 C2 C3 C4 -179.4(2)
N1 C2 C3 C4 0.6(2)
C8 C3 C4 C5 -0.2(3)
C2 C3 C4 C5 -179.51(18)
C8 C3 C4 C1 179.31(18)
C2 C3 C4 C1 0.0(2)
O1 C1 C4 C5 -1.5(4)
N1 C1 C4 C5 178.9(2)
O1 C1 C4 C3 179.0(2)
N1 C1 C4 C3 -0.6(2)
C3 C4 C5 C6 0.1(3)
C1 C4 C5 C6 -179.3(2)
C4 C5 C6 C7 0.3(3)
C5 C6 C7 C8 -0.6(4)
C4 C3 C8 C7 -0.1(3)
C2 C3 C8 C7 179.0(2)
C6 C7 C8 C3 0.5(3)
N1 S1 C9 F2 -172.63(16)
N1 S1 C9 F1 72.15(17)
