#------------------------------------------------------------------------------
#$Date: 2016-03-04 11:11:07 +0200 (Fri, 04 Mar 2016) $
#$Revision: 177395 $
#$URL: svn://www.crystallography.net/cod/cif/4/12/49/4124916.cif $
#------------------------------------------------------------------------------
#
# This file is available in the Crystallography Open Database (COD),
# http://www.crystallography.net/
#
# All data on this site have been placed in the public domain by the
# contributors.
#
data_4124916
loop_
_publ_author_name
'Kong, Wei-Jun'
'Liu, Yue-Jin'
'Xu, Hui'
'Chen, Yan-Qiao'
'Dai, Hui-Xiong'
'Yu, Jin-Quan'
_publ_section_title
;
 Pd-Catalyzed \a-Selective C-H Functionalization of Olefins: En Route to
 4-Imino-\b-Lactams.
;
_journal_issue                   7
_journal_name_full               'Journal of the American Chemical Society'
_journal_page_first              2146
_journal_page_last               2149
_journal_paper_doi               10.1021/jacs.5b13353
_journal_volume                  138
_journal_year                    2016
_chemical_formula_sum            'C15 H18 N2 O2'
_chemical_formula_weight         258.31
_chemical_name_systematic
; 
 ? 
;
_space_group_crystal_system      monoclinic
_space_group_IT_number           11
_space_group_name_Hall           '-P 2yb'
_space_group_name_H-M_alt        'P 1 21/m 1'
_symmetry_space_group_name_Hall  '-P 2yb'
_symmetry_space_group_name_H-M   'P 1 21/m 1'
_atom_sites_solution_hydrogens   mixed
_audit_creation_method           SHELXL-2013
_cell_angle_alpha                90
_cell_angle_beta                 117.339(3)
_cell_angle_gamma                90
_cell_formula_units_Z            2
_cell_length_a                   10.3100(18)
_cell_length_b                   7.0317(13)
_cell_length_c                   10.730(2)
_cell_measurement_reflns_used    1335
_cell_measurement_temperature    293(2)
_cell_measurement_theta_max      55.940
_cell_measurement_theta_min      4.537
_cell_volume                     691.0(2)
_computing_cell_refinement       'Bruker SMART'
_computing_data_collection       'Bruker SMART'
_computing_data_reduction        'Bruker SHELXTL'
_computing_molecular_graphics    'Bruker SHELXTL'
_computing_publication_material  'Bruker SHELXTL'
_computing_structure_refinement  'SHELXL-2013 (Sheldrick, 2013)'
_computing_structure_solution    'Bruker SHELXTL'
_diffrn_ambient_temperature      293(2)
_diffrn_measured_fraction_theta_full 0.996
_diffrn_measured_fraction_theta_max 0.996
_diffrn_measurement_device_type  'CCD area detector'
_diffrn_measurement_method       'phi and omega scans'
_diffrn_radiation_type           MoK\a
_diffrn_radiation_wavelength     0.71073
_diffrn_reflns_av_R_equivalents  0.0422
_diffrn_reflns_av_unetI/netI     0.0447
_diffrn_reflns_laue_measured_fraction_full 0.996
_diffrn_reflns_laue_measured_fraction_max 0.996
_diffrn_reflns_limit_h_max       12
_diffrn_reflns_limit_h_min       -11
_diffrn_reflns_limit_k_max       8
_diffrn_reflns_limit_k_min       -8
_diffrn_reflns_limit_l_max       6
_diffrn_reflns_limit_l_min       -12
_diffrn_reflns_number            3899
_diffrn_reflns_point_group_measured_fraction_full 0.996
_diffrn_reflns_point_group_measured_fraction_max 0.996
_diffrn_reflns_theta_full        25.242
_diffrn_reflns_theta_max         25.498
_diffrn_reflns_theta_min         2.137
_exptl_absorpt_coefficient_mu    0.083
_exptl_absorpt_correction_T_max  0.7457
_exptl_absorpt_correction_T_min  0.6245
_exptl_absorpt_correction_type   multi-scan
_exptl_absorpt_process_details   sadabs
_exptl_crystal_colour            colorless
_exptl_crystal_density_diffrn    1.241
_exptl_crystal_description       prismatic
_exptl_crystal_F_000             276
_exptl_crystal_size_max          0.175
_exptl_crystal_size_mid          0.134
_exptl_crystal_size_min          0.086
_refine_diff_density_max         0.216
_refine_diff_density_min         -0.213
_refine_diff_density_rms         0.071
_refine_ls_extinction_coef       0.109(15)
_refine_ls_extinction_expression Fc^*^=kFc[1+0.001xFc^2^\l^3^/sin(2\q)]^-1/4^
_refine_ls_extinction_method     SHELXL
_refine_ls_goodness_of_fit_ref   1.048
_refine_ls_hydrogen_treatment    constr
_refine_ls_matrix_type           full
_refine_ls_number_parameters     115
_refine_ls_number_reflns         1401
_refine_ls_number_restraints     0
_refine_ls_restrained_S_all      1.048
_refine_ls_R_factor_all          0.0620
_refine_ls_R_factor_gt           0.0538
_refine_ls_shift/su_max          0.000
_refine_ls_shift/su_mean         0.000
_refine_ls_structure_factor_coef Fsqd
_refine_ls_weighting_details
'w=1/[\s^2^(Fo^2^)+(0.0909P)^2^+0.0388P] where P=(Fo^2^+2Fc^2^)/3'
_refine_ls_weighting_scheme      calc
_refine_ls_wR_factor_gt          0.1389
_refine_ls_wR_factor_ref         0.1488
_reflns_Friedel_coverage         0.000
_reflns_number_gt                1128
_reflns_number_total             1401
_reflns_threshold_expression     'I > 2\s(I)'
_cod_data_source_file            ja5b13353_si_004.cif
_cod_data_source_block           cd214701
_cod_depositor_comments
'Adding full bibliography for 4124916--4124918.cif.'
_cod_database_code               4124916
_shelx_space_group_comment
; 
The symmetry employed for this shelxl refinement is uniquely defined 
by the following loop, which should always be used as a source of 
symmetry information in preference to the above space-group names. 
They are only intended as comments. 
;
_shelxl_version_number           2013-4
_shelx_res_file
; 
TITL cd214701   P21/m 
CELL  0.71073   10.3100    7.0317   10.7300    90.000   117.339    90.000 
ZERR  2           0.0018    0.0013    0.0020     0.000     0.003     0.000 
LATT 1 
SYMM             - X ,    0.50000 + Y ,            - Z 
SFAC C  H  N  O 
UNIT 30 36 4 4 
OMIT  -3.00  51.00 
L.S. 10 
ACTA 
BOND $H 
FMAP 2 
PLAN 0 
CONF 
WPDB -1 
mpla n1 c1 c6 c7 c8 c9 
MPLA c1 > c6 
HTAB 
CONF 
HTAB N2 O1 
HTAB C14 N1 
WGHT    0.090900    0.038800 
EXTI    0.109451 
FVAR       0.39157 
O1    4   -0.012831    0.750000    0.200776    10.50000    0.05545    0.10976 = 
         0.04299    0.00000    0.02852    0.00000 
O2    4   -0.217339    0.750000    0.000155    10.50000    0.04482    0.07724 = 
         0.05383    0.00000    0.02951    0.00000 
N1    3    0.225664    0.750000   -0.037192    10.50000    0.04380    0.05779 = 
         0.04161    0.00000    0.02273    0.00000 
N2    3    0.239300    0.750000    0.183956    10.50000    0.04138    0.08272 = 
         0.03721    0.00000    0.01912    0.00000 
AFIX   3 
H2A   2    0.190300    0.750000    0.233057    10.50000   -1.20000 
AFIX   0 
C1    1    0.143364    0.750000   -0.179074    10.50000    0.05276    0.04117 = 
         0.04344    0.00000    0.02622    0.00000 
C2    1    0.214342    0.750000   -0.264827    10.50000    0.06017    0.06581 = 
         0.05652    0.00000    0.03716    0.00000 
AFIX  43 
H2    2    0.315807    0.750000   -0.223516    10.50000   -1.20000 
AFIX   0 
C3    1    0.135950    0.750000   -0.406746    10.50000    0.08793    0.08123 = 
         0.05622    0.00000    0.04912    0.00000 
AFIX  43 
H3    2    0.184771    0.750000   -0.461201    10.50000   -1.20000 
AFIX   0 
C4    1   -0.014962    0.750000   -0.472021    10.50000    0.08419    0.10153 = 
         0.04089    0.00000    0.03097    0.00000 
AFIX  43 
H4    2   -0.066848    0.750000   -0.569421    10.50000   -1.20000 
AFIX   0 
C5    1   -0.087385    0.750000   -0.393064    10.50000    0.05837    0.09127 = 
         0.04260    0.00000    0.01821    0.00000 
AFIX  43 
H5    2   -0.188927    0.750000   -0.437107    10.50000   -1.20000 
AFIX   0 
C6    1   -0.010403    0.750000   -0.245941    10.50000    0.05254    0.04974 = 
         0.04104    0.00000    0.02283    0.00000 
C7    1   -0.078225    0.750000   -0.157772    10.50000    0.04099    0.05314 = 
         0.04369    0.00000    0.01903    0.00000 
AFIX  43 
H7    2   -0.179624    0.750000   -0.197855    10.50000   -1.20000 
AFIX   0 
C8    1    0.000993    0.750000   -0.015774    10.50000    0.04429    0.03915 = 
         0.04328    0.00000    0.02320    0.00000 
C9    1    0.159659    0.750000    0.043386    10.50000    0.04286    0.04379 = 
         0.04155    0.00000    0.02146    0.00000 
C10   1   -0.072620    0.750000    0.074644    10.50000    0.04690    0.04395 = 
         0.04696    0.00000    0.02497    0.00000 
C11   1   -0.298003    0.750000    0.079809    10.50000    0.05217    0.07762 = 
         0.06723    0.00000    0.03991    0.00000 
AFIX 137 
H11A  2   -0.254421    0.661335    0.156003    10.50000   -1.50000 
H11B  2   -0.397286    0.713525    0.020113    10.50000   -1.50000 
H11C  2   -0.296062    0.875140    0.116394    10.50000   -1.50000 
AFIX   0 
C12   1    0.399175    0.750000    0.268268    10.50000    0.04036    0.06262 = 
         0.04155    0.00000    0.01694    0.00000 
C13   1    0.424725    0.750000    0.419686    10.50000    0.05437    0.09167 = 
         0.04195    0.00000    0.01676    0.00000 
AFIX   3 
H13A  2    0.527283    0.750000    0.481476    10.50000   -1.50000 
H13B  2    0.373215    0.645388    0.433995    10.50000   -1.50000 
H13C  2    0.389826    0.867254    0.439114    10.50000   -1.50000 
AFIX   0 
C14   1    0.466002    0.927585    0.240427    11.00000    0.05704    0.07194 = 
         0.05713   -0.00118    0.02330   -0.00779 
AFIX 137 
H14A  2    0.448452    0.927899    0.144477    11.00000   -1.50000 
H14B  2    0.569281    0.928561    0.301283    11.00000   -1.50000 
H14C  2    0.422462    1.038408    0.257945    11.00000   -1.50000 
AFIX   0 
HKLF 4 
  
REM  cd214701   P21/m 
REM R1 =  0.0538 for    1128 Fo > 4sig(Fo)  and  0.0620 for all    1401 data 
REM    115 parameters refined using      0 restraints 
  
END 
  
WGHT      0.0908      0.0390 
  
REM Instructions for potential hydrogen bonds 
HTAB N2 O1 
HTAB C14 N1 
  
REM Highest difference peak  0.216,  deepest hole -0.213,  1-sigma level  0.071 
Q1    1   0.4976  1.0234  0.3037  11.00000  0.05    0.18 
Q2    1   0.2409  1.0001  0.2624  11.00000  0.05    0.16 
Q3    1  -0.4020  1.0224  0.1283  11.00000  0.05    0.15 
Q4    1   0.3835  1.0096  0.3602  11.00000  0.05    0.15 
Q5    1   0.4580  0.9973  0.0202  11.00000  0.05    0.15 
Q6    1   0.3070  0.4824  0.4610  11.00000  0.05    0.14 
Q7    1  -0.0232  0.8120 -0.0540  11.00000  0.05    0.14 
Q8    1   0.2651  0.4931  0.4893  11.00000  0.05    0.14 
Q9    1   0.6711  1.0255  0.2472  11.00000  0.05    0.14 
Q10   1   0.4683  0.9704  0.4583  11.00000  0.05    0.14 
Q11   1  -0.2189  0.9570 -0.0234  11.00000  0.05    0.13 
Q12   1   0.4326  1.0070  0.5459  11.00000  0.05    0.13 
Q13   1  -0.1210  0.9971 -0.1054  11.00000  0.05    0.13 
Q14   1   0.4324  0.8320  0.2590  11.00000  0.05    0.13 
Q15   1   0.6032  0.9822  0.4108  11.00000  0.05    0.13 
Q16   1  -0.3144  0.9974 -0.0019  11.00000  0.05    0.13 
Q17   1   0.3187  1.0106  0.2361  11.00000  0.05    0.13 
Q18   1  -0.3399  1.0443  0.0853  11.00000  0.05    0.13 
Q19   1   0.3104  0.7500  0.2269  10.50000  0.05    0.13 
Q20   1   0.1593  0.9589  0.2615  11.00000  0.05    0.11 
;
_shelx_res_checksum              94239
_shelx_hkl_file
; 
   0  -1   0   -0.49    0.07 
   0  -2   0 1000.00   47.37 
   0   2   0  927.40   50.70 
   0   2   0  927.59   50.70 
   0  -3   0   -0.18    0.05 
   0   3   0    0.13    0.06 
   0  -4   0  633.02   31.40 
   0   4   0  627.72   33.58 
   0  -5   0   -0.09    0.07 
   0   5   0   -0.07    0.04 
   0  -6   0  128.82    6.64 
   0   6   0  132.99    7.05 
   0  -7   0    0.07    0.10 
   0   7   0    0.05    0.07 
   0  -8   0   12.88    0.83 
   0  -9   0   -0.09    0.15 
  -1  -9   0    0.19    0.16 
  -1  -8   0    6.28    0.49 
   1   7   0    1.06    0.15 
  -1  -7   0    1.82    0.23 
   1   6   0   10.61    0.67 
  -1  -6   0   11.11    0.67 
   1   5   0    7.88    0.50 
  -1  -5   0    7.60    0.49 
   1   4   0  132.98    6.84 
  -1  -4   0  121.32    6.39 
   1   3   0   29.46    1.60 
  -1  -3   0   28.73    1.51 
   1   2   0  572.65   31.88 
   1   2   0  572.77   31.88 
  -1  -2   0  619.30   29.79 
  -1  -2   0  630.67   29.80 
   1   1   0  120.44    6.42 
   1   1   0  124.45    5.94 
  -1  -1   0  115.69    6.00 
   1   0   0  186.76    9.98 
   1  -1   0  113.09    5.78 
   1  -1   0  118.53    5.70 
   1  -2   0  540.69   31.16 
   1  -2   0  731.79   31.65 
   1  -3   0   27.53    1.43 
  -1   3   0   27.33    1.49 
   1  -4   0  125.14    6.34 
  -1   4   0  126.53    6.74 
   1  -5   0    7.73    0.51 
  -1   5   0    8.56    0.51 
   1  -6   0   10.83    0.70 
  -1   6   0   11.79    0.69 
   1  -7   0    1.48    0.23 
   1  -8   0    5.51    0.47 
   1  -9   0    0.28    0.19 
  -2  -9   0    0.01    0.16 
   2   8   0    0.00    0.07 
  -2  -8   0   -0.04    0.12 
   2   7   0    0.07    0.06 
  -2  -7   0    0.03    0.08 
   2   6   0    1.05    0.15 
  -2  -6   0    0.95    0.16 
   2   5   0    0.63    0.07 
   2   5   0    0.63    0.12 
  -2  -5   0    0.53    0.12 
   2   4   0    0.00    0.02 
   2   4   0   -0.06    0.05 
  -2  -4   0    0.03    0.06 
   2   3   0    0.26    0.08 
   2   3   0    0.40    0.04 
  -2  -3   0    0.34    0.07 
   2   2   0   10.97    0.62 
   2   2   0   10.73    0.55 
  -2  -2   0   10.74    0.58 
   2   1   0   23.43    1.25 
   2   1   0   23.80    1.14 
  -2  -1   0   21.20    1.16 
   2   0   0   85.97    4.44 
   2   0   0   79.78    4.09 
  -2   0   0   82.46    4.14 
   2  -1   0   23.32    1.15 
  -2   1   0   21.95    1.16 
   2  -2   0   10.39    0.55 
   2  -2   0   10.32    0.57 
   2  -3   0    0.44    0.10 
   2  -3   0    0.51    0.08 
   2  -4   0    0.10    0.08 
  -2   4   0    0.03    0.04 
   2  -5   0    0.77    0.15 
  -2   5   0    0.65    0.09 
   2  -6   0    1.12    0.19 
   2  -7   0    0.02    0.10 
   2  -8   0    0.10    0.14 
   2  -9   0    0.04    0.15 
   3   8   0    0.16    0.09 
  -3  -8   0   -0.11    0.10 
   3   7   0    0.55    0.13 
  -3  -7   0    0.68    0.15 
   3   6   0    0.76    0.14 
  -3  -6   0    0.99    0.16 
   3   5   0    1.57    0.18 
  -3  -5   0    1.89    0.19 
   3   4   0    0.06    0.02 
   3   4   0    0.05    0.06 
  -3  -4   0    0.06    0.06 
   3   3   0   27.51    1.36 
   3   3   0   27.11    1.52 
  -3  -3   0   27.08    1.42 
   3   2   0    6.62    0.35 
   3   2   0    6.65    0.41 
  -3  -2   0    6.37    0.37 
   3   1   0   21.39    1.09 
  -3  -1   0   21.66    1.11 
  -3   0   0   15.91    0.83 
   3  -1   0   20.90    1.05 
  -3   1   0   19.98    1.06 
   3  -2   0    6.25    0.39 
   3  -2   0    6.67    0.38 
   3  -3   0   28.52    1.46 
   3  -3   0   28.33    1.50 
   3  -4   0    0.07    0.08 
   3  -5   0    1.50    0.19 
   3  -6   0    1.00    0.19 
   3  -7   0    0.61    0.17 
   3  -8   0    0.07    0.13 
   3  -9   0    0.03    0.16 
   4   8   0   -0.04    0.10 
   4   7   0    5.51    0.42 
  -4  -7   0    5.37    0.40 
  -4  -6   0    2.59    0.24 
   4   5   0   32.57    1.74 
  -4  -5   0   28.85    1.63 
   4   4   0    7.25    0.38 
   4   4   0    6.76    0.46 
  -4  -4   0    7.19    0.44 
   4   3   0   75.33    4.08 
   4   3   0   74.41    3.72 
  -4  -3   0   75.91    3.81 
   4   2   0   29.53    1.48 
  -4  -2   0   29.27    1.52 
   4   1   0  331.65   18.01 
  -4  -1   0  343.48   16.82 
   4   0   0  119.56    6.59 
   4   0   0  126.18    6.09 
  -4   0   0  124.04    6.17 
   4  -1   0  334.16   16.36 
  -4   1   0  330.98   16.57 
   4  -2   0   29.98    1.50 
  -4   2   0   28.29    1.52 
   4  -3   0   75.24    3.83 
   4  -3   0   77.72    3.90 
   4  -4   0    6.92    0.46 
   4  -4   0    7.12    0.44 
   4  -5   0   32.88    1.78 
   4  -6   0    2.88    0.31 
   4  -7   0    6.57    0.51 
   4  -8   0    0.02    0.14 
   5   8   0    0.87    0.19 
   5   7   0    1.16    0.20 
   5   6   0    1.82    0.22 
  -5  -6   0    2.19    0.22 
   5   5   0    2.19    0.23 
  -5  -5   0    2.09    0.21 
   5   4   0   19.38    1.12 
  -5  -4   0   19.05    1.05 
   5   3   0   29.01    1.66 
   5   3   0   29.69    1.49 
  -5  -3   0   29.88    1.55 
   5   2   0   75.03    4.06 
  -5  -2   0   74.71    3.79 
   5   1   0   24.78    1.42 
  -5  -1   0   26.21    1.33 
   5   0   0   97.10    5.23 
   5   0   0   96.87    4.84 
  -5   0   0   98.22    4.90 
   5  -1   0   25.81    1.31 
  -5   1   0   24.76    1.32 
   5  -2   0   74.06    3.63 
  -5   2   0   70.60    3.67 
   5  -3   0   28.27    1.41 
  -5   3   0   25.16    1.42 
   5  -4   0   20.25    1.07 
  -5   4   0   18.63    1.08 
   5  -5   0    2.34    0.25 
   5  -6   0    2.28    0.28 
   5  -7   0    1.35    0.25 
   5  -8   0    0.72    0.23 
   6   8   0    0.05    0.10 
   6   7   0    0.05    0.10 
   6   6   0    0.03    0.09 
   6   5   0    1.39    0.20 
  -6  -5   0    1.32    0.17 
   6   4   0    0.71    0.15 
  -6  -4   0    0.55    0.12 
   6   3   0    0.25    0.10 
   6   3   0    0.04    0.04 
  -6  -3   0    0.13    0.07 
   6   2   0    1.30    0.13 
   6   2   0    0.80    0.13 
  -6  -2   0    1.11    0.13 
   6   1   0    6.80    0.39 
   6   1   0    6.48    0.43 
  -6  -1   0    6.58    0.40 
   6   0   0    1.68    0.16 
   6   0   0    1.87    0.17 
  -6   0   0    1.83    0.16 
   6  -1   0    6.59    0.44 
  -6   1   0    8.51    0.46 
   6  -2   0    0.86    0.13 
  -6   2   0    0.82    0.13 
   6  -3   0    0.05    0.05 
  -6   3   0    0.02    0.06 
   6  -4   0    0.53    0.12 
  -6   4   0    0.75    0.14 
  -6   5   0    1.39    0.20 
  -6   6   0    0.00    0.09 
  -6   7   0   -0.03    0.09 
  -6   8   0    0.16    0.13 
   7   7   0    0.12    0.13 
   7   6   0    0.04    0.09 
   7   5   0    0.05    0.08 
   7   4   0    0.41    0.13 
  -7  -4   0    0.53    0.11 
   7   3   0    8.90    0.61 
  -7  -3   0    9.79    0.57 
   7   2   0    0.20    0.07 
   7   2   0    0.19    0.08 
  -7  -2   0    0.13    0.08 
   7   1   0    4.23    0.33 
   7   1   0    4.59    0.30 
  -7  -1   0    4.94    0.32 
   7   0   0    0.92    0.13 
   7   0   0    1.16    0.14 
  -7   0   0    1.11    0.13 
   7  -1   0    4.07    0.30 
  -7   1   0    4.60    0.31 
   7  -2   0    0.23    0.08 
  -7   2   0    0.24    0.08 
   7  -3   0    8.93    0.55 
  -7   3   0    8.51    0.55 
   7  -4   0    0.48    0.12 
  -7   4   0    0.57    0.13 
  -7   5   0    0.16    0.10 
  -7   6   0    0.18    0.13 
  -7   7   0    0.14    0.13 
   8   7   0    0.42    0.17 
   8   6   0    0.39    0.14 
   8   5   0    0.32    0.14 
   8   4   0    0.47    0.13 
   8   3   0    5.14    0.40 
  -8  -3   0    5.08    0.36 
   8   2   0    2.28    0.20 
   8   2   0    2.53    0.24 
  -8  -2   0    2.49    0.22 
   8   1   0    0.76    0.14 
   8   1   0    0.93    0.13 
  -8  -1   0    0.91    0.13 
   8   0   0    1.21    0.15 
   8   0   0    1.17    0.15 
  -8   0   0    1.15    0.15 
   8  -1   0    0.85    0.14 
  -8   1   0    0.94    0.14 
   8  -2   0    2.55    0.22 
  -8   2   0    2.48    0.24 
   8  -3   0    4.99    0.37 
  -8   3   0    5.22    0.38 
   8  -4   0    0.51    0.13 
  -8   4   0    0.90    0.17 
  -8   5   0    0.12    0.10 
  -8   6   0    0.45    0.15 
  -8   7   0    0.47    0.16 
   9   6   0    0.48    0.21 
   9   5   0    1.88    0.30 
   9   4   0    1.98    0.27 
   9   3   0    0.56    0.15 
   9   2   0    2.75    0.28 
  -9  -2   0    2.52    0.25 
   9   1   0    4.42    0.31 
   9   1   0    4.13    0.34 
  -9  -1   0    4.12    0.32 
   9   0   0    6.35    0.44 
   9   0   0    6.11    0.42 
  -9   0   0    6.91    0.45 
   9  -1   0    4.05    0.31 
  -9   1   0    4.14    0.32 
   9  -2   0    2.46    0.25 
  -9   2   0    2.65    0.26 
   9  -3   0    0.49    0.12 
  -9   3   0    0.56    0.14 
  -9   4   0    1.75    0.24 
  -9   5   0    1.93    0.27 
  -9   6   0    0.20    0.14 
  10   5   0    0.45    0.18 
  10   4   0    0.70    0.19 
  10   3   0    2.57    0.30 
  10   2   0    2.65    0.29 
  10   1   0    1.16    0.19 
  10   1   0    1.22    0.17 
 -10  -1   0    1.11    0.18 
  10   0   0    1.39    0.19 
 -10   0   0    1.07    0.17 
  10  -1   0    0.97    0.16 
 -10   1   0    1.02    0.17 
  10  -2   0    2.31    0.26 
 -10   2   0    2.53    0.27 
  10  -3   0    1.86    0.25 
 -10   3   0    2.29    0.25 
  10  -4   0    0.39    0.13 
 -10   4   0    0.75    0.18 
 -10   5   0    0.35    0.15 
  11   4   0    0.20    0.16 
  11   3   0    1.19    0.24 
  11   2   0    0.81    0.19 
  11   1   0    0.65    0.17 
  11   0   0    0.20    0.09 
  11  -1   0    0.82    0.17 
 -11   1   0    1.13    0.20 
  11  -2   0    0.61    0.16 
 -11   2   0    0.61    0.16 
 -11   3   0    1.20    0.22 
 -11   4   0    0.15    0.12 
  12  -1   0    1.65    0.25 
 -11   3  -1    0.58    0.18 
 -11   2  -1    0.12    0.13 
 -11   1  -1    0.31    0.14 
  11  -1   1    0.50    0.14 
 -11   0  -1    0.07    0.11 
  11   0   1    0.00    0.09 
  11   3   1    0.58    0.19 
 -10   4  -1    0.12    0.11 
 -10   3  -1    0.25    0.12 
 -10   2  -1    0.21    0.11 
  10  -2   1    0.14    0.09 
 -10   1  -1    0.06    0.09 
  10  -1   1   -0.06    0.08 
 -10   0  -1    1.11    0.19 
  10   0   1    1.00    0.17 
 -10  -1  -1    0.05    0.10 
  10   2   1    0.09    0.11 
  10   3   1    0.33    0.16 
  10   4   1    0.15    0.15 
  -9   5  -1    0.39    0.15 
  -9   4  -1    0.83    0.19 
  -9   3  -1    0.19    0.11 
   9  -3   1    0.20    0.09 
  -9   2  -1    2.49    0.27 
   9  -2   1    3.24    0.28 
  -9   1  -1    1.28    0.18 
   9  -1   1    0.97    0.15 
  -9   0  -1    0.34    0.12 
   9   0   1    0.61    0.12 
  -9  -1  -1    1.14    0.18 
   9   1   1    1.49    0.17 
   9   1   1    1.54    0.20 
  -9  -2  -1    2.58    0.26 
   9   2   1    2.63    0.28 
  -9  -3  -1    0.39    0.13 
   9   3   1    0.41    0.14 
   9   4   1    0.91    0.20 
   9   5   1    0.53    0.18 
  -8   6  -1    0.24    0.13 
  -8   5  -1    0.15    0.11 
  -8   4  -1   -0.04    0.08 
  -8   3  -1    0.25    0.10 
   8  -3   1    0.40    0.10 
  -8   2  -1    0.08    0.07 
   8  -2   1    0.02    0.05 
  -8   1  -1    0.19    0.08 
   8  -1   1    0.27    0.08 
  -8   0  -1    2.48    0.24 
   8   0   1    2.56    0.22 
  -8  -1  -1    0.22    0.08 
   8   1   1    0.19    0.09 
   8   1   1    0.10    0.05 
  -8  -2  -1   -0.05    0.06 
   8   2   1    0.00    0.08 
  -8  -3  -1    0.20    0.10 
   8   3   1    0.30    0.12 
  -8  -4  -1    0.03    0.09 
   8   4   1   -0.03    0.09 
   8   5   1   -0.07    0.09 
   8   6   1    0.10    0.13 
  -7   7  -1    0.10    0.10 
  -7   6  -1    0.09    0.11 
  -7   5  -1    0.25    0.11 
  -7   4  -1    0.29    0.11 
  -7   3  -1    0.58    0.13 
   7  -3   1    0.52    0.12 
  -7   2  -1    1.20    0.16 
   7  -2   1    1.01    0.14 
  -7   1  -1    1.73    0.18 
   7  -1   1    1.40    0.17 
  -7   0  -1    0.92    0.14 
   7   0   1    0.84    0.12 
  -7  -1  -1    1.64    0.17 
   7   1   1    1.30    0.15 
   7   1   1    1.50    0.18 
  -7  -2  -1    1.33    0.17 
   7   2   1    1.22    0.17 
   7   2   1    1.49    0.14 
  -7  -3  -1    0.70    0.13 
   7   3   1    0.35    0.12 
  -7  -4  -1    0.13    0.08 
   7   4   1    0.30    0.12 
  -7  -5  -1    0.18    0.09 
   7   5   1    0.22    0.14 
   7   7   1   -0.02    0.10 
  -6   7  -1    0.05    0.12 
  -6   6  -1    0.00    0.12 
  -6   5  -1    0.32    0.11 
  -6   4  -1    0.48    0.12 
  -6   3  -1    1.38    0.18 
   6  -3   1    1.49    0.18 
  -6   2  -1    2.93    0.23 
   6  -2   1    2.69    0.22 
  -6   1  -1    1.98    0.18 
   6  -1   1    1.76    0.16 
  -6   0  -1    0.98    0.13 
   6   0   1    0.99    0.13 
   6   0   1    1.02    0.12 
  -6  -1  -1    2.59    0.21 
   6   1   1    2.38    0.22 
   6   1   1    2.51    0.19 
  -6  -2  -1    3.14    0.24 
   6   2   1    2.81    0.20 
   6   2   1    2.73    0.24 
  -6  -3  -1    1.72    0.19 
   6   3   1    1.54    0.19 
   6   3   1    1.53    0.19 
  -6  -4  -1    0.51    0.12 
   6   4   1    0.29    0.11 
  -6  -5  -1    0.62    0.13 
   6   5   1    0.33    0.10 
  -6  -6  -1    0.18    0.10 
   6   6   1    0.24    0.10 
   6   7   1    0.17    0.12 
  -5   8  -1    0.14    0.13 
  -5   7  -1    0.27    0.14 
  -5   6  -1    0.51    0.13 
  -5   5  -1    0.36    0.11 
  -5   4  -1    0.03    0.09 
  -5   3  -1    0.33    0.10 
   5  -3   1    0.24    0.08 
  -5   2  -1    1.38    0.15 
   5  -2   1    1.31    0.15 
  -5   1  -1    0.24    0.07 
   5  -1   1    0.10    0.06 
  -5   0  -1    9.06    0.52 
   5   0   1    8.82    0.54 
   5   0   1    8.95    0.51 
  -5  -1  -1    0.24    0.07 
   5   1   1    0.26    0.06 
   5   1   1    0.12    0.06 
  -5  -2  -1    1.27    0.14 
   5   2   1    1.27    0.11 
  -5  -3  -1    0.30    0.09 
   5   3   1    0.36    0.10 
   5   3   1    0.39    0.05 
  -5  -4  -1    0.04    0.06 
   5   4   1    0.00    0.04 
  -5  -5  -1    0.46    0.11 
   5   5   1    0.47    0.12 
  -5  -6  -1    0.57    0.14 
   5   6   1    0.24    0.11 
  -5  -7  -1    0.41    0.14 
   5   7   1    0.24    0.11 
   5   8   1   -0.02    0.10 
   4  -8   1    0.02    0.14 
   4  -7   1    0.59    0.18 
   4  -6   1    2.53    0.29 
  -4   5  -1    0.09    0.07 
  -4   4  -1    4.35    0.32 
  -4   3  -1    2.24    0.20 
  -4   3  -1    2.22    0.20 
   4  -3   1    1.45    0.17 
  -4   2  -1   14.41    0.79 
  -4   1  -1    3.30    0.23 
   4  -1   1    3.49    0.23 
  -4   0  -1  130.77    6.48 
   4   0   1  129.58    6.38 
   4   0   1  126.97    6.92 
  -4  -1  -1    3.51    0.24 
   4   1   1    3.68    0.22 
   4   1   1    3.63    0.26 
  -4  -2  -1   14.57    0.79 
   4   2   1   14.55    0.74 
   4   2   1   14.02    0.84 
  -4  -3  -1    1.45    0.15 
   4   3   1    0.94    0.14 
   4   3   1    1.28    0.09 
  -4  -4  -1    4.62    0.32 
   4   4   1    4.35    0.33 
  -4  -5  -1    0.12    0.07 
   4   5   1    0.07    0.07 
  -4  -6  -1    2.74    0.26 
   4   6   1    2.45    0.24 
  -4  -7  -1    0.68    0.16 
   4   7   1    0.56    0.14 
  -4  -8  -1   -0.04    0.14 
   4   8   1    0.04    0.08 
   3  -8   1    0.12    0.15 
   3  -7   1   -0.13    0.09 
   3  -6   1    2.08    0.25 
   3  -5   1    0.30    0.11 
   3  -4   1    3.36    0.28 
  -3   3  -1    7.99    0.48 
  -3   2  -1    3.86    0.26 
   3  -2   1    4.10    0.26 
  -3   1  -1    0.73    0.09 
   3  -1   1    0.80    0.09 
  -3   0  -1   90.23    4.49 
   3   0   1   88.55    4.80 
   3   0   1   89.54    4.43 
  -3  -1  -1    0.83    0.09 
   3   1   1    0.88    0.10 
   3   1   1    0.79    0.07 
  -3  -2  -1    3.75    0.25 
   3   2   1    3.81    0.27 
   3   2   1    3.93    0.21 
  -3  -3  -1    8.73    0.51 
   3   3   1    8.69    0.54 
  -3  -4  -1    3.41    0.26 
   3   4   1    3.31    0.27 
  -3  -5  -1    0.31    0.10 
   3   5   1    0.25    0.09 
  -3  -6  -1    2.31    0.25 
   3   6   1    2.49    0.24 
  -3  -7  -1   -0.07    0.08 
   3   7   1    0.00    0.06 
  -3  -8  -1   -0.05    0.11 
   3   8   1    0.07    0.08 
   2  -9   1    0.08    0.16 
   2  -8   1   -0.11    0.11 
   2  -7   1    0.20    0.13 
   2  -6   1    0.03    0.10 
   2  -5   1    2.78    0.26 
   2  -4   1    2.45    0.22 
   2  -3   1    0.72    0.11 
  -2   2  -1   44.72    2.28 
  -2   1  -1   57.44    2.90 
   2  -1   1   57.49    2.86 
  -2   0  -1   13.80    0.71 
   2   0   1   13.26    0.70 
   2   0   1   13.71    0.76 
  -2  -1  -1   58.94    2.97 
   2   1   1   58.80    2.91 
  -2  -2  -1   44.56    2.34 
   2   2   1   45.80    2.27 
   2   2   1   47.42    2.50 
  -2  -3  -1    0.52    0.09 
   2   3   1    0.57    0.09 
  -2  -4  -1    2.80    0.22 
   2   4   1    2.56    0.22 
  -2  -5  -1    2.60    0.24 
   2   5   1    2.75    0.23 
  -2  -6  -1    0.14    0.09 
   2   6   1    0.17    0.08 
  -2  -7  -1    0.24    0.12 
  -2  -8  -1    0.15    0.12 
   2   8   1    0.09    0.08 
  -2  -9  -1    0.09    0.13 
   1  -9   1    0.09    0.15 
   1  -8   1    1.98    0.29 
   1  -7   1    2.11    0.27 
  -1   6  -1    4.42    0.30 
   1  -6   1    3.52    0.34 
  -1   5  -1   15.36    0.88 
   1  -5   1   15.26    0.88 
   1  -4   1   15.68    0.88 
   1  -3   1    7.79    0.46 
   1  -2   1   72.62    3.66 
  -1   1  -1  310.61   15.46 
  -1   0  -1   56.56    2.85 
  -1  -1  -1  304.34   14.26 
  -1  -1  -1  267.50   14.11 
  -1  -2  -1   74.99    3.73 
   1   2   1   73.21    3.98 
   1   3   1   11.52    0.67 
  -1  -4  -1   14.88    0.91 
   1   4   1   18.17    0.95 
  -1  -5  -1   15.58    0.89 
   1   6   1    3.69    0.29 
  -1  -7  -1    1.75    0.24 
   1   7   1    2.02    0.21 
  -1  -8  -1    1.72    0.26 
  -1  -9  -1   -0.02    0.15 
   0  -9   1    0.69    0.20 
   0  -8   1    3.32    0.36 
   0   7  -1    0.39    0.10 
   0  -7   1    0.32    0.13 
   0   6  -1   14.71    0.85 
   0  -6   1   13.59    0.84 
   0  -5   1   -0.10    0.07 
   0  -4   1   51.81    2.66 
   0  -3   1   34.46    1.77 
   0  -2   1  178.94    8.93 
   0  -1   1    8.51    0.45 
   0   0  -1  282.23   14.07 
   0  -1  -1    8.89    0.47 
   0  -1  -1    8.39    0.44 
   0   1   1    8.88    0.44 
   0   1   1    8.60    0.49 
   0  -2  -1  178.68    8.56 
   0  -2  -1  172.33    8.69 
   0  -2  -1  172.37    8.69 
   0   2   1  172.47    9.28 
   0  -3  -1   35.51    1.81 
   0   3   1   34.61    1.90 
   0  -4  -1   54.77    2.75 
   0   4   1   52.27    2.90 
   0  -5  -1   -0.01    0.06 
   0   5   1    0.06    0.06 
   0  -6  -1   13.76    0.77 
   0   6   1   11.59    0.75 
   0  -7  -1    0.65    0.16 
   0   7   1    0.50    0.11 
   0  -9  -1    0.62    0.20 
  -1  -9   1    0.33    0.18 
  -1  -8   1    0.91    0.21 
   1   7  -1    2.25    0.22 
  -1  -7   1    2.25    0.26 
   1   6  -1    3.84    0.32 
  -1  -6   1    3.58    0.31 
   1   5  -1   14.89    0.88 
  -1  -5   1   15.20    0.85 
   1   4  -1   13.61    0.81 
  -1  -4   1   14.46    0.78 
  -1  -3   1    0.52    0.08 
  -1  -2   1   35.70    1.81 
   1   1  -1  156.54    7.64 
  -1  -1   1  154.03    7.75 
   1   0  -1  117.04    5.92 
   1   0  -1  127.51    6.07 
  -1   0   1  116.23    6.04 
   1  -1  -1  148.16    7.36 
   1  -1  -1  150.87    7.46 
   1  -2  -1   36.43    1.89 
  -1   2   1   37.76    2.00 
   1  -3  -1    0.48    0.09 
  -1   3   1    0.52    0.07 
   1  -4  -1   14.86    0.82 
  -1   4   1   14.23    0.82 
   1  -5  -1   15.49    0.87 
  -1   5   1   14.98    0.87 
   1  -6  -1    3.76    0.31 
  -1   6   1    3.23    0.26 
   1  -7  -1    2.31    0.28 
   1  -8  -1    1.13    0.22 
   1  -9  -1    0.36    0.18 
  -2  -9   1    0.23    0.17 
   2   8  -1    0.52    0.13 
  -2  -8   1    0.51    0.16 
   2   7  -1    0.46    0.11 
  -2  -7   1    0.37    0.13 
   2   6  -1    6.03    0.42 
  -2  -6   1    5.83    0.41 
   2   5  -1    0.18    0.05 
   2   5  -1    0.17    0.08 
   2   5  -1    0.16    0.08 
  -2  -5   1    0.20    0.09 
   2   4  -1   35.45    1.98 
   2   4  -1   36.12    1.80 
   2   3  -1   31.24    1.53 
   2   3  -1   29.92    1.68 
  -2  -3   1   30.54    1.57 
   2   2  -1  147.03    6.98 
  -2  -2   1  136.63    7.08 
   2   1  -1    3.20    0.18 
  -2  -1   1    3.07    0.17 
   2   0  -1  346.04   17.00 
   2  -1  -1    2.93    0.19 
   2  -1  -1    3.00    0.18 
   2  -2  -1  143.07    7.04 
   2  -2  -1  142.34    7.14 
   2  -3  -1   29.55    1.60 
   2  -3  -1   31.17    1.56 
  -2   3   1   31.48    1.66 
   2  -4  -1   40.85    1.88 
   2  -4  -1   34.82    1.93 
  -2   4   1   35.20    2.00 
   2  -5  -1    0.13    0.09 
  -2   5   1    0.14    0.05 
   2  -7  -1    0.48    0.15 
   2  -8  -1    0.68    0.19 
   2  -9  -1    0.38    0.18 
   3   8  -1    0.15    0.09 
  -3  -8   1    0.31    0.14 
   3   7  -1    1.39    0.19 
  -3  -7   1    1.23    0.19 
   3   6  -1    1.39    0.18 
  -3  -6   1    1.43    0.18 
   3   5  -1    2.34    0.15 
   3   5  -1    2.26    0.22 
  -3  -5   1    2.11    0.20 
   3   4  -1    2.68    0.24 
   3   4  -1    2.11    0.15 
  -3  -4   1    2.28    0.19 
   3   3  -1   79.83    3.90 
   3   3  -1   77.97    4.27 
   3   2  -1    2.67    0.16 
   3   2  -1    2.71    0.20 
  -3  -2   1    2.63    0.17 
   3   1  -1   65.96    3.26 
  -3  -1   1   65.82    3.30 
   3   0  -1   91.21    3.96 
   3   0  -1   69.04    4.27 
   3  -1  -1   62.62    3.28 
   3  -1  -1   62.07    3.09 
   3  -1  -1   58.90    3.04 
   3  -2  -1    2.68    0.18 
   3  -2  -1    2.52    0.19 
   3  -3  -1   76.48    3.85 
   3  -3  -1   78.28    3.93 
   3  -4  -1    1.91    0.20 
   3  -4  -1    2.24    0.17 
   3  -5  -1    2.41    0.25 
   3  -6  -1    1.32    0.21 
   3  -7  -1    1.32    0.23 
   3  -8  -1    0.02    0.13 
   3  -9  -1    0.61    0.22 
   4   7  -1    0.87    0.16 
  -4  -7   1    0.81    0.17 
   4   6  -1    1.13    0.17 
  -4  -6   1    1.06    0.15 
   4   5  -1    5.24    0.39 
  -4  -5   1    5.54    0.37 
   4   4  -1   10.45    0.56 
   4   4  -1   10.71    0.66 
   4   3  -1    0.58    0.11 
   4   3  -1    0.53    0.06 
  -4  -3   1    0.64    0.08 
   4   2  -1   63.52    3.21 
   4   2  -1   65.15    3.51 
  -4  -2   1   65.48    3.26 
   4   1  -1   43.54    2.36 
   4   1  -1   42.23    2.17 
  -4  -1   1   44.35    2.19 
   4   0  -1   20.74    1.07 
   4   0  -1   20.92    1.14 
   4  -1  -1   41.19    2.22 
  -4   1   1   41.40    2.10 
   4  -2  -1   64.77    3.27 
   4  -2  -1   63.93    3.22 
   4  -3  -1    0.44    0.10 
   4  -3  -1    0.65    0.10 
   4  -4  -1   10.97    0.61 
   4  -4  -1   10.41    0.64 
   4  -5  -1    5.11    0.38 
   4  -5  -1    4.86    0.33 
   4  -6  -1    1.19    0.21 
   4  -7  -1    0.83    0.19 
   4  -8  -1    1.18    0.25 
   5   8  -1    0.14    0.11 
   5   7  -1    0.50    0.13 
   5   6  -1    3.63    0.31 
  -5  -6   1    3.25    0.28 
   5   5  -1    1.44    0.19 
   5   4  -1    9.03    0.47 
   5   4  -1    8.53    0.56 
  -5  -4   1    8.21    0.50 
   5   3  -1   21.99    1.10 
   5   3  -1   20.92    1.23 
  -5  -3   1   21.49    1.13 
   5   2  -1   15.07    0.89 
   5   2  -1   15.57    0.80 
  -5  -2   1   15.34    0.81 
   5   1  -1   15.23    0.89 
   5   1  -1   15.61    0.82 
  -5  -1   1   15.99    0.83 
   5   0  -1   90.02    4.76 
   5   0  -1   89.34    4.41 
  -5   0   1   86.56    4.45 
   5  -1  -1   15.87    0.86 
  -5   1   1   14.98    0.82 
   5  -2  -1   14.58    0.81 
  -5   2   1   15.23    0.82 
   5  -3  -1   21.78    1.16 
   5  -3  -1   20.64    1.13 
   5  -4  -1    8.60    0.52 
   5  -4  -1    8.50    0.54 
   5  -5  -1    1.52    0.20 
   5  -5  -1    1.43    0.17 
   5  -5  -1    1.43    0.17 
   5  -6  -1    3.57    0.32 
   5  -7  -1    0.46    0.17 
   5  -8  -1    0.14    0.15 
   6   8  -1    0.43    0.16 
   6   7  -1    0.06    0.10 
   6   6  -1    0.11    0.09 
   6   6  -1    0.11    0.09 
   6   5  -1    0.55    0.13 
  -6  -5   1    0.50    0.12 
   6   4  -1    1.08    0.17 
  -6  -4   1    1.88    0.16 
   6   3  -1    3.97    0.25 
   6   3  -1    3.78    0.32 
  -6  -3   1    4.19    0.27 
   6   2  -1    8.29    0.54 
   6   2  -1    8.85    0.48 
  -6  -2   1    8.57    0.49 
   6   1  -1    2.33    0.18 
   6   1  -1    2.30    0.20 
   6   0  -1    0.09    0.05 
   6   0  -1    0.06    0.05 
  -6   0   1    0.03    0.04 
   6  -1  -1    2.37    0.18 
   6  -1  -1    2.52    0.20 
  -6   1   1    2.50    0.19 
   6  -2  -1    7.09    0.46 
  -6   2   1    8.35    0.47 
   6  -3  -1    4.01    0.29 
  -6   3   1    3.85    0.29 
   6  -4  -1    1.68    0.19 
  -6   4   1    1.72    0.19 
   6  -5  -1    0.38    0.11 
   6  -5  -1    0.45    0.12 
   6  -6  -1    0.02    0.08 
   6  -7  -1    0.18    0.14 
   6  -8  -1    0.42    0.20 
   7   7  -1    0.14    0.12 
   7   6  -1    0.20    0.11 
   7   5  -1    0.06    0.07 
   7   4  -1    6.61    0.48 
  -7  -4   1    7.03    0.43 
   7   3  -1    1.24    0.13 
   7   3  -1    1.00    0.17 
  -7  -3   1    1.38    0.15 
   7   2  -1   24.26    1.31 
   7   2  -1   25.72    1.45 
  -7  -2   1   26.06    1.34 
   7   1  -1    1.84    0.18 
   7   1  -1    1.75    0.16 
   7   0  -1    9.42    0.59 
   7   0  -1   12.04    0.63 
  -7   0   1    9.36    0.58 
   7  -1  -1    1.91    0.16 
   7  -1  -1    1.81    0.17 
  -7   1   1    1.76    0.16 
   7  -2  -1   24.00    1.31 
  -7   2   1   25.40    1.33 
   7  -3  -1    0.95    0.14 
  -7   3   1    1.04    0.15 
   7  -4  -1    7.01    0.46 
  -7   4   1    7.00    0.47 
   7  -5  -1    0.14    0.08 
  -7   5   1    0.11    0.10 
  -7   6   1    0.10    0.10 
  -7   7   1   -0.03    0.11 
   8   7  -1    0.06    0.13 
   8   6  -1   -0.13    0.13 
   8   5  -1    0.41    0.15 
   8   4  -1    0.18    0.11 
   8   3  -1    0.15    0.11 
   8   2  -1    0.70    0.12 
   8   2  -1    0.88    0.15 
  -8  -2   1    0.99    0.13 
   8   1  -1    0.07    0.05 
   8   1  -1    0.07    0.06 
  -8  -1   1    0.01    0.05 
   8   0  -1    1.89    0.17 
   8   0  -1    1.97    0.19 
  -8   0   1    1.91    0.18 
   8  -1  -1    0.10    0.05 
   8  -1  -1   -0.01    0.05 
  -8   1   1   -0.01    0.06 
   8  -2  -1    0.71    0.13 
  -8   2   1    0.78    0.13 
   8  -3  -1    0.01    0.05 
  -8   3   1    0.02    0.07 
   8  -4  -1    0.23    0.09 
  -8   4   1    0.20    0.10 
   8  -5  -1    0.42    0.13 
  -8   5   1    0.56    0.14 
  -8   6   1    0.12    0.13 
  -8   7   1    0.19    0.15 
   9   6  -1    0.07    0.13 
   9   5  -1    3.01    0.34 
   9   4  -1    0.07    0.10 
   9   3  -1    8.22    0.57 
   9   2  -1    0.36    0.09 
   9   2  -1    0.39    0.12 
   9   1  -1    7.85    0.52 
   9   1  -1    8.45    0.49 
  -9  -1   1    7.03    0.48 
   9   0  -1    0.89    0.14 
   9   0  -1    0.96    0.14 
  -9   0   1    0.98    0.14 
   9  -1  -1    7.90    0.51 
  -9   1   1    8.12    0.51 
   9  -2  -1    0.35    0.10 
  -9   2   1    0.41    0.12 
   9  -3  -1    7.45    0.51 
  -9   3   1    7.79    0.52 
   9  -4  -1    0.12    0.09 
  -9   4   1    0.01    0.09 
   9  -5  -1    2.97    0.31 
  -9   5   1    2.38    0.28 
  -9   6   1    0.12    0.11 
  10   5  -1    0.21    0.14 
  10   4  -1    0.12    0.11 
  10   3  -1    0.02    0.10 
  10   2  -1    0.02    0.08 
  10   1  -1    0.14    0.09 
  10   1  -1    0.10    0.07 
  10   0  -1    1.04    0.16 
 -10   0   1    1.11    0.16 
  10  -1  -1    0.00    0.05 
 -10   1   1   -0.02    0.07 
  10  -2  -1    0.04    0.07 
 -10   2   1    0.07    0.08 
  10  -3  -1    0.02    0.06 
 -10   3   1    0.05    0.08 
  10  -4  -1    0.02    0.07 
 -10   4   1    0.02    0.10 
  10  -5  -1    0.09    0.10 
 -10   5   1    0.14    0.13 
  11   4  -1    0.45    0.17 
  11   3  -1    0.10    0.11 
  11   2  -1    1.03    0.20 
  11   1  -1    0.03    0.09 
  11   1  -1   -0.04    0.06 
  11   0  -1    0.32    0.10 
  11  -1  -1    0.02    0.07 
 -11   1   1   -0.02    0.09 
  11  -2  -1    0.82    0.17 
 -11   2   1    1.00    0.18 
  11  -3  -1   -0.01    0.08 
 -11   3   1    0.14    0.11 
  11  -4  -1    0.14    0.11 
 -11   4   1    0.35    0.14 
  12   2  -1    0.34    0.15 
  12   0  -1    0.10    0.10 
  12  -1  -1    0.04    0.09 
  12  -2  -1    0.25    0.12 
 -12   3   1    0.07    0.13 
 -11   1  -2   -0.05    0.14 
 -11   0  -2    0.06    0.11 
 -10   4  -2    0.06    0.13 
 -10   3  -2    0.10    0.13 
 -10   2  -2    0.03    0.11 
 -10   1  -2   -0.01    0.11 
 -10   0  -2    0.43    0.14 
 -10  -1  -2    0.05    0.10 
 -10  -2  -2    0.01    0.11 
  10   3   2    0.07    0.14 
  10   4   2    0.07    0.15 
  -9   5  -2   -0.13    0.16 
  -9   4  -2    0.04    0.12 
  -9   3  -2    0.76    0.19 
  -9   2  -2    0.13    0.10 
  -9   1  -2    0.28    0.12 
  -9   0  -2    0.41    0.12 
  -9  -1  -2    0.21    0.11 
  -9  -2  -2   -0.04    0.09 
  -9  -3  -2    0.57    0.16 
   9   3   2    0.92    0.20 
   9   4   2   -0.01    0.12 
   9   5   2   -0.04    0.14 
  -8   6  -2    0.02    0.13 
  -8   5  -2    0.70    0.17 
  -8   4  -2    0.25    0.12 
  -8   3  -2    0.13    0.09 
  -8   2  -2    0.56    0.14 
  -8   1  -2    2.98    0.27 
  -8   0  -2   -0.04    0.06 
   8   0   2    0.06    0.05 
  -8  -1  -2    2.96    0.27 
   8   1   2    3.32    0.25 
  -8  -2  -2    0.51    0.13 
   8   2   2    0.33    0.12 
  -8  -3  -2    0.11    0.09 
   8   3   2   -0.03    0.08 
  -8  -4  -2   -0.01    0.08 
   8   4   2    0.15    0.12 
   8   5   2    0.26    0.16 
   8   6   2    0.09    0.12 
  -7   6  -2   -0.02    0.11 
  -7   5  -2    0.10    0.11 
  -7   4  -2    0.09    0.09 
  -7   3  -2    5.42    0.41 
  -7   2  -2   -0.04    0.06 
  -7   1  -2    0.66    0.13 
   7  -1   2    0.78    0.13 
  -7   0  -2    0.57    0.12 
   7   0   2    0.54    0.11 
  -7  -1  -2    0.78    0.14 
   7   1   2    0.72    0.12 
  -7  -2  -2   -0.01    0.07 
   7   2   2    0.00    0.07 
  -7  -3  -2    3.86    0.32 
   7   3   2    3.93    0.34 
  -7  -4  -2    0.04    0.08 
   7   4   2    0.11    0.11 
  -7  -5  -2    0.12    0.10 
   7   5   2    0.04    0.10 
   7   6   2    0.12    0.12 
   7   7   2    0.01    0.12 
  -6   7  -2    0.03    0.10 
  -6   6  -2    0.16    0.10 
  -6   5  -2    0.21    0.11 
  -6   4  -2   -0.02    0.07 
  -6   3  -2    2.29    0.23 
  -6   2  -2    0.07    0.07 
  -6   1  -2   -0.01    0.05 
   6  -1   2   -0.01    0.04 
  -6   0  -2   -0.04    0.05 
   6   0   2   -0.07    0.06 
  -6  -1  -2    0.03    0.06 
   6   1   2    0.01    0.06 
   6   1   2    0.27    0.08 
  -6  -2  -2    0.05    0.06 
   6   2   2    0.11    0.05 
   6   2   2    0.09    0.08 
  -6  -3  -2    2.78    0.24 
   6   3   2    2.40    0.24 
  -6  -4  -2    0.03    0.07 
   6   4   2    0.05    0.08 
  -6  -5  -2    0.00    0.08 
   6   5   2    0.06    0.08 
  -6  -6  -2    0.00    0.08 
   6   6   2    0.09    0.09 
   6   7   2    0.02    0.11 
  -5   8  -2   -0.27    0.14 
  -5   7  -2    0.23    0.15 
  -5   6  -2    0.20    0.10 
  -5   5  -2    3.14    0.28 
  -5   4  -2    0.09    0.07 
  -5   3  -2    0.37    0.10 
  -5   2  -2    0.48    0.10 
  -5   1  -2   13.14    0.75 
   5  -1   2   13.17    0.73 
  -5   0  -2    1.29    0.15 
  -5  -1  -2   13.64    0.76 
   5   1   2   13.21    0.80 
  -5  -2  -2    0.53    0.11 
   5   2   2    0.55    0.07 
   5   2   2    0.70    0.12 
  -5  -3  -2    0.41    0.10 
   5   3   2    0.41    0.11 
  -5  -4  -2   -0.02    0.06 
   5   4   2    0.03    0.06 
   5   5   2    2.46    0.25 
  -5  -6  -2    0.11    0.09 
   5   6   2    0.31    0.11 
  -5  -7  -2    0.29    0.15 
   5   7   2    0.16    0.11 
   5   8   2    0.08    0.11 
  -4   8  -2    0.30    0.15 
  -4   7  -2    0.10    0.10 
  -4   6  -2    0.14    0.08 
  -4   5  -2    1.25    0.18 
  -4   4  -2    3.06    0.25 
  -4   3  -2    0.18    0.07 
  -4   2  -2    6.83    0.42 
  -4   1  -2   17.28    0.94 
  -4   0  -2    3.21    0.23 
   4   0   2    2.99    0.21 
  -4  -1  -2   18.70    0.99 
   4   1   2   18.25    1.05 
   4   1   2   18.07    0.95 
  -4  -2  -2    7.10    0.44 
   4   2   2    7.03    0.46 
  -4  -3  -2    0.09    0.06 
   4   3   2    0.10    0.06 
  -4  -4  -2    2.86    0.24 
   4   4   2    2.88    0.25 
  -4  -5  -2    1.29    0.19 
   4   5   2    2.02    0.22 
  -4  -6  -2    0.29    0.13 
   4   6   2    0.43    0.14 
  -4  -7  -2    0.01    0.11 
   4   7   2    0.04    0.08 
  -4  -8  -2    0.35    0.16 
   4   8   2    0.45    0.15 
  -3   8  -2    0.12    0.12 
  -3   7  -2    0.08    0.09 
  -3   6  -2    0.30    0.10 
  -3   5  -2    0.15    0.08 
  -3   4  -2    0.07    0.05 
  -3   3  -2   14.77    0.82 
  -3   2  -2    0.49    0.09 
  -3   1  -2   10.65    0.59 
  -3   0  -2    9.10    0.52 
  -3  -1  -2   11.67    0.64 
   3   1   2   11.20    0.67 
  -3  -2  -2    0.45    0.09 
   3   2   2    0.58    0.10 
  -3  -3  -2   14.89    0.81 
   3   3   2   13.94    0.85 
  -3  -4  -2    0.03    0.06 
   3   4   2    0.01    0.05 
  -3  -5  -2    0.12    0.08 
   3   5   2    0.34    0.10 
  -3  -6  -2    0.50    0.13 
   3   6   2    0.52    0.12 
  -3  -7  -2    0.17    0.11 
   3   7   2    0.06    0.09 
  -3  -8  -2    0.13    0.12 
   3   8   2    0.02    0.09 
   2  -9   2    0.12    0.16 
   2  -8   2    0.01    0.14 
   2  -7   2   -0.11    0.10 
   2  -6   2    2.61    0.28 
   2  -5   2    0.28    0.11 
  -2   4  -2    2.74    0.22 
  -2   3  -2    1.05    0.13 
  -2   1  -2    0.03    0.04 
  -2   0  -2  143.48    7.18 
  -2  -1  -2    0.06    0.04 
   2   1   2    0.10    0.05 
  -2  -2  -2    7.71    0.44 
   2   2   2    7.36    0.46 
  -2  -3  -2    1.23    0.14 
  -2  -4  -2    3.11    0.25 
   2   4   2    3.15    0.25 
  -2  -5  -2    0.28    0.11 
   2   5   2    0.30    0.09 
  -2  -6  -2    2.25    0.25 
   2   6   2    2.40    0.22 
  -2  -7  -2   -0.11    0.08 
   2   7   2    0.03    0.06 
  -2  -8  -2    0.15    0.12 
   2   8   2   -0.01    0.07 
  -2  -9  -2    0.05    0.14 
   1  -9   2   -0.02    0.14 
   1  -8   2   -0.03    0.13 
   1  -7   2    0.15    0.12 
   1  -6   2    3.46    0.31 
   1  -5   2    0.77    0.15 
   1  -4   2    1.52    0.17 
   1  -3   2    0.15    0.07 
  -1   2  -2    0.40    0.07 
  -1   2  -2    0.40    0.07 
  -1   1  -2    0.11    0.04 
  -1   0  -2  160.18    8.00 
  -1  -1  -2    0.15    0.04 
   1   1   2    0.11    0.05 
  -1  -2  -2   -0.04    0.03 
   1   2   2    0.04    0.04 
  -1  -3  -2    0.25    0.07 
   1   3   2    0.16    0.06 
  -1  -4  -2    1.52    0.16 
   1   4   2    1.41    0.15 
  -1  -5  -2    0.64    0.13 
   1   5   2    0.63    0.12 
  -1  -6  -2    3.61    0.31 
   1   6   2    3.55    0.28 
  -1  -7  -2   -0.03    0.11 
   1   7   2    0.03    0.06 
  -1  -8  -2   -0.01    0.12 
  -1  -9  -2    0.04    0.13 
   0  -9   2   -0.29    0.13 
   0  -8   2    0.89    0.20 
   0   7  -2    0.05    0.06 
   0  -7   2    0.15    0.12 
   0   6  -2   -0.13    0.05 
   0  -6   2   -0.08    0.09 
   0  -5   2    2.62    0.24 
   0  -4   2    6.26    0.40 
   0  -3   2   13.07    0.72 
   0   2  -2   79.53    3.99 
   0   1  -2   89.92    4.50 
   0   0  -2    4.70    0.28 
   0  -1  -2   96.03    4.69 
   0  -1  -2   94.32    4.77 
   0  -2  -2   83.10    4.17 
   0  -2  -2   82.01    4.08 
   0   2   2   83.17    4.44 
   0  -3  -2   12.94    0.65 
   0  -4  -2    6.19    0.39 
   0   4   2    5.91    0.38 
   0  -5  -2    2.65    0.23 
   0   5   2    2.48    0.21 
   0  -6  -2   -0.06    0.07 
   0  -6  -2   -0.05    0.07 
   0   6   2    0.00    0.07 
   0  -7  -2    0.16    0.11 
   0   7   2    0.01    0.06 
   0  -8  -2    0.94    0.22 
   0  -9  -2   -0.01    0.13 
  -1  -9   2    0.02    0.15 
  -1  -8   2    0.14    0.12 
   1   7  -2    1.07    0.16 
  -1  -7   2    1.35    0.21 
   1   6  -2    1.26    0.16 
  -1  -6   2    1.87    0.21 
  -1  -5   2   12.51    0.73 
  -1  -4   2   -0.01    0.06 
  -1  -3   2  105.08    5.28 
   1   1  -2  360.32   16.29 
   1   1  -2  293.92   16.04 
   1   0  -2   62.03    3.05 
   1   0  -2   61.22    3.09 
   1  -1  -2  476.64   23.72 
   1  -2  -2   25.92    1.29 
   1  -2  -2   25.81    1.33 
  -1   2   2   25.72    1.40 
   1  -3  -2  104.57    5.26 
   1  -3  -2  103.34    5.15 
  -1   3   2  105.32    5.59 
   1  -4  -2    0.26    0.05 
   1  -4  -2    0.02    0.06 
  -1   4   2    0.03    0.04 
  -1   5   2   12.29    0.72 
   1  -6  -2    1.70    0.22 
  -1   6   2    1.61    0.17 
   1  -7  -2    1.25    0.21 
   1  -8  -2   -0.02    0.12 
   1  -9  -2    0.15    0.19 
   2   8  -2    0.09    0.08 
  -2  -8   2    0.09    0.13 
   2   7  -2    0.26    0.11 
  -2  -7   2    0.34    0.13 
   2   6  -2    1.17    0.12 
   2   6  -2    1.15    0.16 
  -2  -6   2    1.37    0.18 
   2   5  -2    1.27    0.16 
   2   5  -2    2.12    0.15 
  -2  -5   2    1.50    0.17 
   2   4  -2   -0.03    0.03 
  -2  -4   2    0.00    0.06 
   2   3  -2    4.62    0.27 
   2   2  -2   19.42    0.97 
  -2  -2   2   18.57    0.97 
   2   1  -2   24.99    1.29 
   2   1  -2   26.18    1.28 
   2   1  -2   25.27    1.29 
   2   0  -2   49.21    2.42 
   2   0  -2   47.69    2.44 
   2  -1  -2   24.66    1.28 
   2  -1  -2   25.61    1.27 
   2  -2  -2   18.23    0.91 
   2  -2  -2   17.52    0.94 
   2  -3  -2    4.27    0.26 
   2  -3  -2    4.19    0.29 
  -2   3   2    4.64    0.26 
   2  -4  -2    0.04    0.06 
   2  -4  -2    0.01    0.02 
  -2   4   2    0.01    0.03 
   2  -5  -2    1.48    0.19 
  -2   5   2    1.87    0.15 
   2  -6  -2    1.37    0.20 
   2  -7  -2    0.23    0.12 
   2  -8  -2    0.09    0.15 
   2  -9  -2    0.01    0.15 
   3   8  -2    0.30    0.10 
   3   7  -2    0.02    0.06 
   3   6  -2    0.42    0.11 
  -3  -6   2    0.10    0.09 
   3   5  -2   -0.06    0.05 
   3   5  -2    0.00    0.03 
  -3  -5   2    0.13    0.08 
   3   4  -2   15.66    0.93 
   3   4  -2   16.34    0.83 
   3   3  -2    2.25    0.16 
  -3  -3   2    3.09    0.18 
   3   2  -2  118.94    5.88 
  -3  -2   2  119.39    5.95 
   3   1  -2    1.93    0.14 
  -3  -1   2    2.17    0.11 
   3   0  -2    8.61    0.45 
   3   0  -2    8.57    0.46 
   3  -1  -2    1.76    0.12 
   3  -1  -2    1.74    0.13 
   3  -2  -2  108.63    5.45 
   3  -2  -2  108.57    5.37 
   3  -3  -2    2.38    0.17 
   3  -3  -2    2.20    0.19 
   3  -4  -2   16.31    0.93 
   3  -4  -2   19.88    1.00 
  -3   4   2   17.54    0.97 
   3  -5  -2   -0.05    0.04 
   3  -5  -2    0.02    0.07 
   3  -6  -2    0.17    0.11 
   3  -7  -2   -0.05    0.09 
   3  -8  -2    0.38    0.19 
   3  -9  -2    0.06    0.15 
   4   8  -2    0.30    0.12 
   4   7  -2    0.02    0.07 
   4   6  -2    0.46    0.12 
  -4  -6   2    0.39    0.11 
   4   5  -2    0.06    0.04 
   4   5  -2   -0.07    0.05 
  -4  -5   2    0.03    0.06 
   4   4  -2    0.23    0.05 
   4   4  -2    0.38    0.10 
  -4  -4   2    0.32    0.08 
   4   3  -2    3.38    0.26 
   4   3  -2    3.59    0.22 
   4   1  -2    2.77    0.21 
   4   1  -2    3.00    0.20 
  -4  -1   2    3.12    0.17 
   4   0  -2   52.06    2.59 
   4   0  -2   53.72    2.80 
   4   0  -2   53.57    2.80 
  -4   0   2   47.93    2.60 
   4  -1  -2    2.90    0.20 
   4  -1  -2    2.95    0.19 
   4  -1  -2    2.95    0.20 
   4  -2  -2    0.32    0.08 
   4  -2  -2    0.31    0.06 
   4  -3  -2    3.56    0.26 
   4  -3  -2    3.50    0.24 
   4  -4  -2    0.18    0.07 
   4  -4  -2    0.17    0.08 
   4  -5  -2    0.04    0.06 
   4  -5  -2    0.08    0.06 
   4  -6  -2    0.28    0.11 
   4  -7  -2    0.10    0.11 
   4  -8  -2    0.21    0.16 
   5   8  -2    0.10    0.11 
   5   7  -2    0.01    0.08 
   5   6  -2   -0.04    0.06 
   5   5  -2    0.37    0.11 
  -5  -5   2    0.42    0.10 
   5   4  -2    3.14    0.21 
   5   4  -2    3.11    0.28 
  -5  -4   2    3.18    0.23 
   5   3  -2    1.64    0.18 
   5   3  -2    1.34    0.12 
  -5  -3   2    1.47    0.12 
   5   2  -2   11.91    0.65 
   5   2  -2   11.95    0.72 
  -5  -2   2   12.23    0.64 
   5   1  -2    1.02    0.10 
   5   1  -2    1.02    0.12 
  -5  -1   2    0.94    0.08 
   5   0  -2    0.83    0.10 
  -5   0   2    0.91    0.08 
   5  -1  -2    1.00    0.09 
   5  -1  -2    1.15    0.12 
  -5   1   2    1.04    0.10 
   5  -2  -2   11.31    0.64 
   5  -3  -2    1.25    0.14 
   5  -3  -2    1.33    0.16 
   5  -4  -2    2.73    0.21 
   5  -4  -2    2.47    0.23 
   5  -5  -2    0.15    0.07 
   5  -5  -2    0.42    0.12 
   5  -6  -2    0.02    0.06 
   5  -6  -2    0.11    0.09 
   5  -7  -2    0.07    0.10 
   5  -8  -2   -0.10    0.12 
   6   8  -2    0.08    0.12 
   6   7  -2    0.10    0.09 
   6   6  -2    0.05    0.08 
   6   5  -2    0.19    0.09 
   6   4  -2    0.52    0.09 
   6   4  -2    0.65    0.14 
  -6  -4   2    0.62    0.10 
   6   3  -2   15.62    0.80 
   6   3  -2   14.75    0.90 
  -6  -3   2   14.59    0.80 
   6   2  -2    0.44    0.10 
   6   2  -2    0.50    0.08 
  -6  -2   2    0.27    0.06 
   6   1  -2    7.67    0.46 
   6   1  -2    6.92    0.42 
  -6  -1   2    7.20    0.41 
   6   0  -2    0.55    0.08 
   6   0  -2    0.45    0.08 
  -6   0   2    0.44    0.06 
   6  -1  -2    6.50    0.38 
   6  -1  -2    5.77    0.38 
  -6   1   2    6.54    0.37 
   6  -2  -2    0.35    0.09 
  -6   2   2    0.33    0.08 
   6  -3  -2   12.88    0.78 
   6  -3  -2   14.22    0.77 
   6  -4  -2    0.59    0.11 
   6  -4  -2    0.53    0.13 
   6  -5  -2    0.20    0.09 
   6  -5  -2    0.16    0.08 
   6  -6  -2   -0.03    0.09 
   6  -6  -2    0.00    0.08 
   6  -7  -2    0.08    0.12 
   6  -8  -2    0.06    0.13 
   7   8  -2    0.12    0.12 
   7   7  -2    0.49    0.17 
   7   6  -2   -0.02    0.07 
   7   5  -2    0.33    0.12 
   7   4  -2    0.81    0.16 
   7   3  -2    8.51    0.58 
   7   3  -2    9.08    0.51 
  -7  -3   2    8.79    0.50 
   7   2  -2    2.81    0.24 
   7   2  -2    2.57    0.20 
  -7  -2   2    2.87    0.20 
   7   1  -2    1.05    0.13 
   7   1  -2    0.73    0.12 
  -7  -1   2    1.18    0.11 
   7   0  -2    3.77    0.25 
  -7   0   2    3.06    0.22 
   7  -1  -2    1.29    0.12 
   7  -1  -2    1.28    0.12 
   7  -1  -2    0.79    0.12 
  -7   1   2    1.20    0.13 
   7  -2  -2    2.49    0.21 
  -7   2   2    2.48    0.20 
   7  -3  -2    9.32    0.55 
  -7   3   2    8.74    0.55 
   7  -4  -2    0.71    0.14 
  -7   4   2    1.03    0.16 
   7  -5  -2    0.04    0.07 
   7  -5  -2    0.36    0.12 
   7  -6  -2   -0.04    0.09 
   7  -6  -2    0.00    0.09 
   7  -7  -2    0.33    0.17 
   7  -8  -2    0.11    0.14 
   8   7  -2    0.31    0.15 
   8   6  -2    0.53    0.20 
   8   5  -2    1.53    0.23 
   8   4  -2    1.91    0.25 
   8   3  -2   -0.01    0.05 
   8   3  -2   -0.08    0.07 
   8   2  -2    6.57    0.42 
  -8  -2   2    6.81    0.41 
   8   1  -2    3.67    0.30 
  -8  -1   2    4.33    0.28 
   8   0  -2    7.32    0.46 
   8   0  -2    7.04    0.44 
   8  -1  -2    4.25    0.29 
   8  -1  -2    4.26    0.31 
  -8   1   2    4.00    0.28 
   8  -2  -2    6.20    0.43 
  -8   2   2    6.91    0.43 
   8  -3  -2    0.02    0.06 
  -8   3   2    0.01    0.06 
   8  -4  -2    1.70    0.21 
  -8   4   2    1.56    0.20 
   8  -5  -2    1.43    0.20 
  -8   5   2    1.53    0.22 
   8  -6  -2    0.74    0.17 
  -8   6   2    0.53    0.16 
  -8   7   2    0.30    0.15 
   9   6  -2    0.19    0.14 
   9   5  -2    0.21    0.13 
   9   4  -2    1.08    0.20 
   9   3  -2    4.49    0.37 
   9   2  -2    4.51    0.36 
   9   1  -2    0.92    0.13 
   9   1  -2    1.14    0.16 
   9  -1  -2    0.93    0.14 
  -9   1   2    0.95    0.13 
   9  -2  -2    3.94    0.30 
  -9   2   2    3.36    0.28 
   9  -3  -2    4.51    0.33 
  -9   3   2    3.72    0.31 
   9  -4  -2    1.01    0.18 
  -9   4   2    1.24    0.18 
   9  -5  -2    0.13    0.09 
  -9   5   2    0.24    0.11 
   9  -6  -2    0.27    0.16 
  -9   6   2    0.55    0.19 
  10   6  -2    0.12    0.14 
  10   5  -2   -0.07    0.11 
  10   4  -2    0.09    0.12 
  10   3  -2    0.78    0.17 
  10   2  -2    0.96    0.16 
  10   2  -2    0.90    0.17 
  10   1  -2    0.12    0.06 
  10   1  -2    0.05    0.07 
  10   0  -2    0.03    0.05 
  10  -1  -2    0.08    0.06 
 -10   1   2   -0.05    0.06 
  10  -2  -2    0.78    0.14 
 -10   2   2    0.64    0.13 
  10  -3  -2    0.39    0.11 
 -10   3   2    0.78    0.15 
  10  -4  -2    0.11    0.09 
 -10   4   2    0.05    0.10 
  10  -5  -2   -0.02    0.09 
 -10   5   2   -0.05    0.09 
  10  -6  -2    0.20    0.12 
 -10   6   2    0.01    0.10 
  11   5  -2    0.61    0.19 
  11   4  -2    0.06    0.12 
  11   3  -2    0.24    0.13 
  11   1  -2    1.67    0.22 
  11   1  -2    1.50    0.20 
  11   0  -2    1.24    0.18 
  11  -1  -2    1.66    0.22 
  11  -2  -2    0.12    0.08 
 -11   2   2    0.24    0.10 
  11  -3  -2    0.21    0.11 
 -11   3   2    0.22    0.13 
  11  -4  -2    0.15    0.10 
 -11   4   2    0.14    0.11 
  11  -5  -2    0.24    0.13 
 -11   5   2    0.29    0.14 
  12   3  -2    0.38    0.16 
  12   2  -2    0.22    0.13 
  12   1  -2    2.10    0.25 
  12   0  -2   -0.07    0.07 
  12  -1  -2    1.69    0.24 
  12  -2  -2    0.27    0.13 
  12  -3  -2    0.24    0.12 
 -10   2  -3    0.44    0.16 
 -10   1  -3    0.58    0.19 
 -10   0  -3    0.02    0.11 
 -10  -1  -3    0.40    0.15 
 -10  -2  -3    0.48    0.17 
  -9   4  -3    0.04    0.12 
  -9   3  -3    0.30    0.14 
  -9   2  -3    0.00    0.09 
  -9   1  -3    0.59    0.16 
  -9   0  -3    0.59    0.16 
  -9  -1  -3    0.74    0.17 
  -9  -2  -3    0.05    0.11 
  -9  -3  -3    0.19    0.13 
  -9  -4  -3    0.08    0.13 
  -8   4  -3   -0.02    0.10 
  -8   3  -3    0.80    0.19 
  -8   2  -3   -0.01    0.09 
  -8   1  -3    0.54    0.16 
  -8   0  -3    0.77    0.16 
  -8  -1  -3    0.31    0.12 
  -8  -2  -3    0.10    0.09 
  -8  -3  -3    0.64    0.16 
  -8  -4  -3   -0.03    0.10 
   8   4   3    0.11    0.13 
  -8  -5  -3    0.35    0.15 
   8   5   3    0.09    0.14 
  -7   6  -3    0.07    0.12 
  -7   5  -3    0.44    0.16 
  -7   4  -3    1.58    0.25 
  -7   3  -3    2.10    0.25 
  -7   2  -3    4.14    0.34 
  -7   1  -3    2.98    0.27 
  -7   0  -3    0.46    0.13 
  -7  -1  -3    2.59    0.26 
  -7  -2  -3    3.84    0.32 
  -7  -3  -3    1.91    0.23 
   7   3   3    1.73    0.24 
  -7  -4  -3    0.90    0.18 
   7   4   3    1.06    0.22 
  -7  -5  -3    0.57    0.16 
   7   5   3    0.27    0.15 
  -7  -6  -3   -0.21    0.11 
   7   6   3   -0.10    0.10 
  -6   7  -3    0.26    0.14 
  -6   6  -3    0.11    0.10 
  -6   5  -3    0.95    0.19 
  -6   4  -3    0.68    0.16 
  -6   3  -3    1.46    0.20 
  -6   2  -3    1.14    0.18 
  -6   1  -3    1.36    0.18 
  -6   0  -3    1.91    0.21 
  -6  -1  -3    1.83    0.20 
  -6  -2  -3    1.05    0.17 
   6   2   3    1.30    0.19 
  -6  -3  -3    1.80    0.22 
   6   3   3    1.77    0.23 
  -6  -4  -3    0.65    0.15 
   6   4   3    0.51    0.16 
  -6  -5  -3    0.89    0.18 
   6   5   3    0.79    0.18 
  -6  -6  -3    0.07    0.12 
   6   6   3    0.08    0.12 
  -6  -7  -3    0.40    0.18 
   6   7   3    0.19    0.14 
  -5   7  -3   -0.07    0.10 
  -5   6  -3    3.22    0.33 
  -5   5  -3   -0.01    0.06 
  -5   4  -3    2.29    0.24 
  -5   3  -3    0.55    0.12 
  -5   2  -3    1.66    0.19 
  -5   1  -3    0.24    0.09 
  -5   0  -3   15.42    0.88 
  -5  -1  -3    0.38    0.10 
  -5  -2  -3    1.79    0.20 
   5   2   3    1.63    0.20 
  -5  -3  -3    0.58    0.13 
   5   3   3    0.66    0.14 
  -5  -4  -3    3.13    0.28 
   5   4   3    2.85    0.27 
  -5  -5  -3    0.01    0.09 
   5   5   3    0.12    0.08 
  -5  -6  -3    3.11    0.32 
   5   6   3    3.16    0.31 
  -5  -7  -3    0.18    0.13 
   5   7   3   -0.01    0.12 
  -4   8  -3    1.08    0.21 
  -4   7  -3    0.03    0.09 
  -4   6  -3    0.67    0.15 
  -4   5  -3    0.14    0.08 
  -4   4  -3    3.44    0.28 
  -4   3  -3    3.03    0.25 
  -4   2  -3    6.35    0.41 
  -4   1  -3    1.81    0.18 
  -4   0  -3    0.36    0.09 
  -4  -1  -3    1.74    0.18 
  -4  -2  -3    5.98    0.41 
   4   2   3    6.63    0.44 
  -4  -3  -3    3.03    0.25 
   4   3   3    2.81    0.25 
  -4  -4  -3    3.43    0.28 
   4   4   3    3.16    0.28 
  -4  -5  -3    0.02    0.09 
   4   5   3    0.23    0.10 
  -4  -6  -3    1.11    0.20 
   4   6   3    0.96    0.17 
  -4  -7  -3   -0.11    0.10 
   4   7   3   -0.05    0.08 
  -4  -8  -3    1.42    0.26 
   4   8   3    1.25    0.23 
  -3   8  -3   -0.07    0.11 
  -3   7  -3    0.13    0.10 
  -3   6  -3    0.14    0.08 
  -3   6  -3    0.14    0.08 
  -3   5  -3    1.65    0.20 
  -3   4  -3    1.60    0.18 
  -3   3  -3    1.37    0.16 
  -3   2  -3   20.47    1.10 
  -3   1  -3   16.96    0.92 
  -3   0  -3    7.94    0.48 
  -3  -1  -3   16.59    0.91 
  -3  -2  -3   20.70    1.13 
   3   2   3   21.28    1.20 
  -3  -3  -3    1.32    0.16 
   3   3   3    1.27    0.16 
  -3  -4  -3    1.90    0.20 
   3   4   3    1.72    0.20 
  -3  -5  -3    2.05    0.23 
   3   5   3    1.94    0.22 
  -3  -6  -3    0.18    0.11 
  -3  -6  -3    0.18    0.11 
   3   6   3    0.04    0.07 
  -3  -7  -3    0.01    0.11 
   3   7   3    0.37    0.12 
  -3  -8  -3    0.03    0.13 
   3   8   3    0.14    0.11 
  -2   8  -3    0.07    0.11 
  -2   7  -3    0.10    0.08 
  -2   6  -3    2.41    0.25 
  -2   5  -3    0.40    0.10 
  -2   3  -3    0.71    0.11 
  -2   2  -3   16.46    0.89 
  -2   1  -3    3.95    0.26 
  -2   0  -3   82.11    4.15 
  -2  -1  -3    4.02    0.27 
  -2  -2  -3   15.97    0.89 
   2   2   3   16.59    0.94 
  -2  -3  -3    0.98    0.13 
   2   3   3    0.79    0.12 
  -2  -4  -3    7.41    0.47 
   2   4   3    7.38    0.49 
  -2  -5  -3    0.36    0.10 
   2   5   3    0.36    0.10 
  -2  -6  -3    2.40    0.27 
   2   6   3    2.52    0.24 
  -2  -7  -3    0.03    0.10 
   2   7   3    0.14    0.08 
  -2  -8  -3    0.05    0.12 
   2   8   3    0.16    0.10 
  -1   9  -3    0.07    0.13 
   1  -8   3   -0.06    0.12 
   1  -7   3    0.11    0.11 
   1  -6   3    0.53    0.14 
  -1   5  -3    0.19    0.08 
  -1   4  -3    0.01    0.05 
  -1   3  -3   18.95    1.02 
  -1   2  -3    2.09    0.17 
  -1   1  -3   16.76    0.89 
  -1   0  -3    1.21    0.12 
  -1  -1  -3   16.65    0.89 
  -1  -2  -3    2.54    0.19 
  -1  -2  -3    2.55    0.13 
   1   2   3    1.97    0.18 
  -1  -3  -3   19.17    1.03 
   1   3   3   18.84    1.08 
  -1  -4  -3    0.08    0.07 
   1   4   3    0.00    0.05 
   1   5   3    0.27    0.08 
  -1  -6  -3    0.32    0.12 
   1   6   3    0.34    0.09 
  -1  -7  -3    0.11    0.11 
   1   7   3    0.13    0.07 
  -1  -8  -3    0.07    0.12 
  -1  -9  -3    0.01    0.14 
   0  -9   3    0.31    0.19 
   0  -8   3    0.16    0.14 
   0   7  -3    0.37    0.10 
   0  -7   3    0.53    0.15 
   0  -6   3    0.19    0.11 
   0  -5   3    0.13    0.09 
   0  -4   3    0.48    0.11 
   0   3  -3    8.15    0.47 
   0   2  -3   -0.02    0.03 
   0   1  -3    1.93    0.14 
   0   0  -3    9.43    0.51 
   0  -1  -3    2.00    0.12 
   0  -1  -3    1.80    0.14 
   0  -2  -3    0.01    0.01 
   0  -2  -3    0.04    0.04 
   0  -3  -3    7.90    0.40 
   0  -3  -3    7.27    0.46 
   0   3   3    7.73    0.47 
   0  -4  -3    0.58    0.12 
   0   4   3    0.89    0.12 
   0  -5  -3    0.12    0.08 
   0   5   3    0.11    0.06 
   0  -6  -3    0.13    0.09 
   0   6   3    0.17    0.07 
   0  -7  -3    0.33    0.13 
   0   7   3    0.44    0.11 
   0  -8  -3    0.06    0.12 
   0  -9  -3    0.24    0.17 
  -1  -8   3    0.22    0.14 
   1   7  -3    0.25    0.12 
  -1  -7   3    0.33    0.13 
  -1  -6   3    0.63    0.14 
  -1  -5   3    3.39    0.28 
  -1  -4   3    8.71    0.52 
  -1  -3   3    5.92    0.36 
   1   2  -3   36.55    1.85 
   1   1  -3    1.47    0.10 
   1   1  -3    1.45    0.10 
   1   0  -3   76.11    3.79 
   1   0  -3   77.35    3.85 
   1  -1  -3    0.78    0.06 
   1  -2  -3   36.37    1.85 
   1  -2  -3   35.84    1.80 
   1  -3  -3    5.67    0.32 
   1  -3  -3    5.70    0.37 
  -1   3   3    6.25    0.36 
   1  -4  -3    8.32    0.52 
   1  -4  -3    8.11    0.44 
  -1   4   3    8.66    0.50 
   1  -5  -3    3.12    0.27 
  -1   5   3    3.32    0.25 
   1  -6  -3    0.57    0.14 
  -1   6   3    0.89    0.13 
   1  -7  -3    0.38    0.14 
   1  -8  -3    0.01    0.12 
   1  -9  -3   -0.09    0.13 
   2   8  -3   -0.14    0.09 
  -2  -8   3   -0.06    0.12 
   2   7  -3    0.00    0.07 
  -2  -7   3   -0.02    0.09 
   2   6  -3    0.13    0.06 
   2   6  -3    0.15    0.06 
  -2  -6   3    0.05    0.09 
   2   5  -3    1.24    0.13 
  -2  -5   3    2.02    0.19 
  -2  -4   3    1.39    0.14 
   2   3  -3    5.53    0.32 
  -2  -3   3    5.39    0.32 
   2   2  -3   29.33    1.50 
   2   2  -3   29.80    1.49 
   2   1  -3   31.17    1.60 
   2   1  -3   32.48    1.60 
   2   0  -3   24.63    1.26 
   2   0  -3   24.96    1.25 
   2  -1  -3   31.44    1.62 
   2  -1  -3   31.92    1.59 
   2  -2  -3   27.74    1.42 
   2  -2  -3   26.90    1.37 
   2  -3  -3    5.37    0.34 
   2  -4  -3    2.56    0.23 
   2  -4  -3    2.88    0.19 
  -2   4   3    2.77    0.20 
   2  -5  -3    1.44    0.18 
   2  -5  -3    1.60    0.14 
  -2   5   3    1.82    0.16 
   2  -6  -3    0.13    0.11 
   2  -7  -3   -0.02    0.09 
   2  -8  -3    0.03    0.13 
   2  -9  -3   -0.14    0.17 
   3   8  -3    0.07    0.08 
   3   7  -3    0.02    0.07 
  -3  -7   3    0.30    0.12 
   3   6  -3    0.16    0.10 
   3   6  -3    0.19    0.08 
  -3  -6   3    0.43    0.12 
   3   5  -3    0.56    0.09 
  -3  -5   3    0.14    0.07 
   3   4  -3    1.46    0.13 
  -3  -4   3    1.79    0.15 
   3   3  -3   53.42    2.67 
  -3  -3   3   53.50    2.70 
   3   2  -3    0.83    0.08 
  -3  -2   3    0.85    0.07 
   3   1  -3    7.08    0.39 
   3   0  -3   20.14    1.05 
   3   0  -3   21.61    1.06 
   3  -1  -3    6.92    0.37 
   3  -1  -3    6.43    0.37 
   3  -2  -3    1.10    0.09 
   3  -2  -3    0.69    0.09 
   3  -3  -3   49.33    2.49 
   3  -3  -3   47.76    2.43 
   3  -4  -3    1.38    0.17 
   3  -4  -3    1.59    0.14 
   3  -5  -3    0.65    0.13 
   3  -6  -3    0.35    0.12 
   3  -7  -3    0.30    0.14 
   3  -8  -3    0.09    0.16 
   3  -9  -3    0.08    0.17 
   4   8  -3   -0.02    0.09 
   4   7  -3    0.05    0.13 
   4   6  -3    0.01    0.07 
  -4  -6   3    0.01    0.08 
   4   5  -3    1.20    0.18 
   4   5  -3    1.94    0.15 
  -4  -5   3    1.62    0.17 
   4   4  -3    1.06    0.14 
   4   4  -3    0.92    0.10 
  -4  -4   3    1.00    0.11 
   4   3  -3    1.04    0.10 
  -4  -3   3    1.07    0.09 
   4   2  -3   19.07    0.98 
  -4  -2   3   18.99    0.96 
   4   1  -3   30.45    1.54 
   4   0  -3    5.37    0.29 
   4   0  -3    4.96    0.30 
   4  -1  -3   30.76    1.51 
   4  -1  -3   28.42    1.51 
   4  -2  -3   17.44    0.94 
   4  -2  -3   17.82    0.92 
   4  -3  -3    1.10    0.14 
   4  -3  -3    1.04    0.11 
   4  -4  -3    0.93    0.12 
   4  -4  -3    0.97    0.14 
   4  -5  -3    1.71    0.21 
   4  -5  -3    1.86    0.17 
   4  -6  -3    0.03    0.06 
   4  -6  -3   -0.08    0.07 
   4  -7  -3    0.01    0.11 
   4  -8  -3    0.11    0.14 
   5   8  -3    0.63    0.18 
   5   7  -3    0.44    0.14 
   5   6  -3    0.05    0.07 
   5   5  -3    0.03    0.07 
   5   5  -3    0.09    0.05 
   5   4  -3    2.74    0.24 
   5   4  -3    2.51    0.19 
  -5  -4   3    2.66    0.19 
   5   3  -3   12.80    0.68 
   5   3  -3   12.22    0.76 
  -5  -3   3   12.98    0.67 
   5   2  -3   13.93    0.84 
   5   2  -3   14.86    0.77 
  -5  -2   3   14.33    0.74 
   5   1  -3    3.79    0.25 
  -5  -1   3    4.00    0.21 
   5   0  -3    0.40    0.08 
  -5   0   3    0.29    0.04 
   5  -1  -3    3.94    0.25 
   5  -1  -3    3.94    0.24 
   5  -1  -3    3.61    0.25 
   5  -2  -3   13.84    0.76 
   5  -2  -3   14.44    0.78 
   5  -3  -3   12.65    0.70 
   5  -3  -3   12.39    0.72 
   5  -4  -3    2.83    0.24 
   5  -4  -3    2.60    0.21 
   5  -5  -3    0.12    0.08 
   5  -5  -3    0.02    0.05 
   5  -6  -3    0.15    0.08 
   5  -6  -3    0.06    0.08 
   5  -7  -3    0.16    0.12 
   5  -8  -3    0.34    0.17 
   6   8  -3    0.03    0.11 
   6   7  -3   -0.03    0.08 
   6   6  -3    0.15    0.09 
   6   5  -3    0.01    0.11 
   6   4  -3    0.21    0.07 
   6   4  -3    0.29    0.11 
   6   3  -3    1.02    0.11 
   6   3  -3    0.84    0.14 
  -6  -3   3    1.06    0.10 
   6   2  -3    2.83    0.20 
   6   2  -3    2.51    0.23 
  -6  -2   3    2.73    0.17 
   6   1  -3    0.29    0.07 
   6   1  -3    0.31    0.08 
  -6  -1   3    0.30    0.04 
   6   0  -3    2.91    0.21 
   6   0  -3    2.51    0.20 
  -6   0   3    2.93    0.18 
   6  -1  -3    0.38    0.06 
   6  -1  -3    0.23    0.07 
   6  -2  -3    2.87    0.23 
   6  -2  -3    2.67    0.21 
   6  -3  -3    1.09    0.15 
   6  -3  -3    1.10    0.15 
   6  -4  -3    0.29    0.10 
   6  -4  -3    0.38    0.09 
   6  -5  -3    0.11    0.06 
   6  -5  -3    0.19    0.09 
   6  -6  -3    0.22    0.09 
   6  -6  -3    0.23    0.10 
   6  -7  -3    0.15    0.11 
   6  -8  -3   -0.01    0.13 
   7   8  -3    0.10    0.12 
   7   7  -3   -0.08    0.10 
   7   6  -3    0.07    0.09 
   7   5  -3   -0.09    0.07 
   7   4  -3   -0.12    0.08 
   7   4  -3    0.07    0.06 
   7   3  -3    1.70    0.17 
   7   3  -3    1.83    0.21 
   7   2  -3    0.09    0.08 
   7   2  -3    0.09    0.06 
  -7  -2   3    0.04    0.03 
   7   1  -3    1.50    0.16 
   7   1  -3    1.16    0.13 
  -7  -1   3    1.12    0.10 
   7   0  -3    8.25    0.44 
   7   0  -3    5.69    0.43 
  -7   0   3    7.84    0.40 
   7  -1  -3    1.16    0.14 
   7  -1  -3    1.29    0.12 
   7  -2  -3    0.00    0.04 
  -7   2   3    0.07    0.05 
   7  -3  -3    1.88    0.19 
   7  -3  -3    1.65    0.20 
   7  -4  -3    0.00    0.06 
   7  -4  -3   -0.01    0.07 
   7  -5  -3    0.07    0.08 
   7  -5  -3   -0.01    0.06 
   7  -6  -3   -0.01    0.09 
   7  -6  -3    0.05    0.09 
   7  -7  -3   -0.12    0.08 
   7  -7  -3   -0.01    0.12 
   7  -8  -3    0.34    0.18 
   8   7  -3    0.42    0.17 
   8   6  -3    0.18    0.14 
   8   5  -3    3.35    0.32 
   8   4  -3    0.43    0.14 
   8   3  -3   12.59    0.79 
   8   3  -3   12.30    0.70 
   8   2  -3    3.04    0.28 
   8   2  -3    3.13    0.24 
   8   1  -3   29.50    1.67 
   8   1  -3   30.73    1.56 
  -8  -1   3   29.07    1.53 
   8   0  -3    0.02    0.06 
   8   0  -3   -0.04    0.05 
  -8   0   3    0.03    0.05 
   8  -1  -3   27.77    1.52 
   8  -1  -3   30.09    1.60 
   8  -2  -3    5.30    0.37 
   8  -2  -3    5.29    0.37 
   8  -3  -3   12.30    0.71 
  -8   3   3   11.64    0.70 
   8  -4  -3    0.44    0.12 
  -8   4   3    0.62    0.13 
   8  -5  -3    3.68    0.31 
   8  -5  -3    3.71    0.33 
   8  -6  -3    0.20    0.14 
   8  -6  -3    0.13    0.09 
   8  -7  -3    0.82    0.22 
   8  -7  -3    0.88    0.19 
   9   7  -3   -0.08    0.16 
   9   6  -3    0.01    0.14 
   9   5  -3    0.04    0.12 
   9   4  -3    1.13    0.20 
   9   3  -3    0.00    0.04 
   9   3  -3    0.10    0.09 
   9   2  -3    1.81    0.22 
   9   2  -3    2.50    0.20 
   9   1  -3    1.04    0.16 
   9   1  -3    0.58    0.12 
   9   0  -3   -0.05    0.04 
   9   0  -3    0.00    0.05 
  -9   0   3   -0.01    0.05 
   9  -1  -3    0.61    0.12 
  -9   1   3    0.59    0.10 
   9  -2  -3    2.63    0.23 
  -9   2   3    2.38    0.22 
   9  -3  -3    0.02    0.07 
  -9   3   3    0.08    0.08 
   9  -4  -3    1.04    0.18 
  -9   4   3    1.22    0.18 
   9  -5  -3   -0.09    0.06 
  -9   5   3    0.06    0.10 
   9  -6  -3    0.07    0.10 
  -9   6   3    0.01    0.10 
   9  -7  -3    0.09    0.11 
  -9   7   3   -0.07    0.11 
  10   6  -3    1.01    0.24 
  10   5  -3    0.06    0.13 
  10   4  -3    1.00    0.20 
  10   3  -3    0.15    0.10 
  10   2  -3    1.04    0.18 
  10   1  -3    0.33    0.10 
  10   1  -3    0.48    0.13 
  10  -1  -3    0.24    0.09 
 -10   1   3    0.15    0.08 
  10  -2  -3    0.90    0.15 
 -10   2   3    0.89    0.14 
  10  -3  -3    0.06    0.06 
 -10   3   3    0.02    0.09 
  10  -4  -3    0.63    0.15 
 -10   4   3    0.54    0.13 
  10  -5  -3    0.25    0.12 
 -10   5   3    0.18    0.11 
  10  -6  -3    0.61    0.17 
 -10   6   3    0.95    0.21 
  11   5  -3    0.00    0.14 
  11   4  -3    0.41    0.16 
  11   3  -3    0.17    0.15 
  11   2  -3    0.73    0.16 
  11   2  -3    0.52    0.12 
  11   1  -3    0.05    0.07 
  11   1  -3   -0.03    0.07 
  11   1  -3   -0.04    0.07 
  11   0  -3    3.04    0.27 
  11  -1  -3    0.03    0.05 
  11  -2  -3    0.58    0.13 
  11  -3  -3    0.12    0.10 
 -11   3   3    0.16    0.09 
  11  -4  -3    0.04    0.09 
 -11   4   3    0.36    0.14 
  11  -5  -3    0.13    0.11 
 -11   5   3   -0.04    0.12 
  12   4  -3    0.23    0.14 
  12   3  -3    0.78    0.19 
  12   2  -3    0.09    0.11 
  12   1  -3    0.45    0.12 
  12   0  -3    0.67    0.14 
  12  -1  -3    0.23    0.11 
  12  -2  -3    0.07    0.10 
  12  -3  -3    0.42    0.13 
  12  -4  -3   -0.01    0.09 
  13   0  -3   -0.03    0.09 
  13  -1  -3    0.61    0.16 
  -9   3  -4    6.61    0.54 
  -9   2  -4    0.00    0.11 
  -9   1  -4    6.38    0.51 
  -9   0  -4   -0.08    0.11 
  -9  -1  -4    6.40    0.51 
  -9  -2  -4    0.20    0.14 
  -9  -3  -4    5.88    0.49 
  -8   5  -4    0.97    0.23 
  -8   4  -4    0.32    0.15 
  -8   3  -4    0.57    0.18 
  -8   2  -4    0.13    0.12 
  -8   1  -4    3.60    0.36 
  -8   0  -4    0.82    0.17 
  -8  -1  -4    3.16    0.33 
  -8  -2  -4    0.08    0.11 
  -8  -3  -4    0.62    0.17 
  -8  -4  -4   -0.14    0.12 
  -8  -5  -4    0.81    0.23 
  -7   6  -4   -0.01    0.11 
  -7   5  -4    0.10    0.13 
  -7   4  -4    0.00    0.09 
  -7   3  -4    1.17    0.22 
  -7   2  -4    0.37    0.13 
  -7   1  -4    0.24    0.12 
  -7   0  -4    0.12    0.10 
  -7  -1  -4    0.29    0.11 
  -7  -2  -4    0.59    0.15 
  -7  -3  -4    1.57    0.24 
  -7  -4  -4    0.04    0.10 
  -7  -5  -4   -0.02    0.11 
   7   5   4   -0.12    0.11 
   7   6   4   -0.01    0.12 
  -6   6  -4    1.71    0.27 
  -6   5  -4    0.13    0.10 
  -6   4  -4    3.12    0.32 
  -6   3  -4    2.38    0.27 
  -6   2  -4    9.35    0.61 
  -6   1  -4    0.10    0.09 
  -6   0  -4   10.26    0.65 
  -6  -1  -4    0.18    0.10 
  -6  -2  -4    8.61    0.57 
  -6  -3  -4    1.63    0.23 
  -6  -4  -4    4.48    0.37 
   6   4   4    3.69    0.37 
  -6  -5  -4    0.15    0.12 
   6   5   4    0.10    0.12 
  -6  -6  -4    1.60    0.27 
   6   6   4    1.75    0.29 
  -5   7  -4    0.40    0.16 
  -5   6  -4   13.40    0.85 
  -5   5  -4    0.98    0.18 
  -5   4  -4   45.79    2.43 
  -5   3  -4   11.39    0.70 
  -5   2  -4   97.35    4.97 
  -5   1  -4    9.16    0.58 
  -5   0  -4  122.11    6.20 
  -5  -1  -4    9.64    0.61 
  -5  -2  -4   95.80    4.90 
  -5  -3  -4   13.05    0.80 
  -5  -4  -4   44.80    2.43 
   5   4   4   46.55    2.59 
  -5  -5  -4    1.14    0.21 
   5   5   4    1.20    0.22 
  -5  -6  -4   12.69    0.84 
   5   6   4   13.71    0.89 
  -5  -7  -4    0.55    0.18 
   5   7   4    0.44    0.18 
  -4   7  -4    1.32    0.23 
  -4   7  -4    1.32    0.23 
  -4   6  -4    7.43    0.53 
  -4   5  -4    7.60    0.52 
  -4   4  -4   16.00    0.93 
  -4   3  -4    7.33    0.48 
  -4   2  -4   34.18    1.81 
  -4   1  -4   24.89    1.35 
  -4   0  -4   82.26    4.20 
  -4  -1  -4   25.67    1.39 
  -4  -2  -4   34.38    1.83 
  -4  -3  -4    6.18    0.44 
  -4  -4  -4   16.13    0.97 
   4   4   4   16.84    1.02 
  -4  -5  -4    6.84    0.52 
   4   5   4    7.82    0.54 
  -4  -6  -4    7.78    0.56 
   4   6   4    7.52    0.56 
  -4  -7  -4    1.36    0.25 
   4   7   4    1.57    0.26 
  -3   8  -4    0.19    0.12 
  -3   7  -4    0.04    0.09 
  -3   6  -4    0.15    0.08 
  -3   5  -4    0.22    0.09 
  -3   4  -4    0.23    0.09 
  -3   3  -4    0.87    0.13 
  -3   2  -4    0.19    0.06 
  -3   1  -4   -0.05    0.04 
  -3   0  -4    2.15    0.20 
  -3  -1  -4    0.11    0.07 
  -3  -2  -4    0.31    0.09 
  -3  -3  -4    1.68    0.20 
   3   3   4    1.44    0.18 
  -3  -4  -4    0.13    0.09 
   3   4   4    0.10    0.08 
  -3  -5  -4    0.18    0.11 
   3   5   4    0.11    0.09 
  -3  -6  -4   -0.02    0.09 
   3   6   4    0.09    0.07 
  -3  -7  -4    0.05    0.12 
   3   7   4    0.10    0.10 
  -3  -8  -4    0.20    0.15 
   3   8   4    0.08    0.13 
  -2   8  -4   -0.11    0.11 
  -2   7  -4    0.05    0.09 
  -2   6  -4    0.13    0.07 
  -2   5  -4    0.13    0.07 
  -2   4  -4    1.08    0.15 
  -2   3  -4    3.37    0.26 
  -2   2  -4    5.27    0.34 
  -2   1  -4    0.77    0.11 
  -2   0  -4    0.02    0.05 
  -2  -1  -4    0.93    0.13 
  -2  -2  -4    5.09    0.34 
  -2  -3  -4    4.35    0.32 
  -2  -4  -4    0.91    0.15 
   2   4   4    0.89    0.15 
  -2  -5  -4    0.06    0.08 
   2   5   4    0.10    0.07 
  -2  -6  -4    0.17    0.11 
   2   6   4    0.23    0.10 
  -2  -7  -4    0.30    0.14 
   2   7   4    0.11    0.09 
  -2  -8  -4   -0.17    0.12 
   2   8   4    0.07    0.11 
  -1   8  -4    0.36    0.13 
  -1   6  -4    0.74    0.14 
  -1   5  -4    8.61    0.54 
  -1   4  -4   11.48    0.67 
  -1   3  -4   13.59    0.76 
  -1   2  -4   77.20    3.90 
  -1   1  -4   62.24    3.16 
  -1   0  -4   30.93    1.61 
  -1  -1  -4   61.51    3.13 
  -1  -2  -4   62.59    3.23 
  -1  -2  -4   63.90    3.13 
  -1  -3  -4   13.88    0.79 
  -1  -4  -4   14.82    0.76 
   1   4   4   11.13    0.76 
  -1  -5  -4    8.99    0.57 
   1   5   4    8.49    0.57 
  -1  -6  -4    0.82    0.17 
   1   6   4    0.75    0.15 
  -1  -7  -4    2.51    0.30 
   1   7   4    2.36    0.26 
  -1  -8  -4    0.40    0.16 
   0   8  -4    0.49    0.14 
   0   7  -4    1.17    0.18 
   0   6  -4    7.83    0.51 
   0   5  -4    2.57    0.22 
   0   4  -4   18.54    1.01 
   0   3  -4    9.35    0.53 
   0   3  -4    9.34    0.53 
   0   2  -4   42.38    2.16 
   0   1  -4    6.11    0.36 
   0   0  -4  244.61   12.21 
   0  -1  -4    3.80    0.22 
   0  -2  -4   44.92    2.20 
   0  -2  -4   43.71    2.28 
   0  -3  -4    9.79    0.58 
   0  -3  -4    9.79    0.50 
   0  -4  -4   17.49    1.00 
   0   4   4   18.32    1.04 
   0  -5  -4    2.70    0.24 
   0   5   4    2.15    0.21 
   0  -6  -4    7.75    0.56 
   0   6   4    8.63    0.55 
   0  -7  -4    1.48    0.24 
   0   7   4    1.50    0.20 
   0  -8  -4    0.51    0.17 
  -1  -8   4    0.09    0.13 
  -1  -7   4    0.10    0.10 
  -1  -6   4    0.73    0.15 
   1   5  -4    0.84    0.12 
   1   4  -4   -0.01    0.04 
   1   3  -4    0.95    0.10 
   1   2  -4    0.46    0.06 
   1   1  -4    3.00    0.19 
   1   1  -4    3.21    0.20 
   1   0  -4   73.11    3.64 
   1   0  -4   71.44    3.58 
   1  -1  -4    3.22    0.19 
   1  -1  -4    3.16    0.21 
   1  -2  -4    0.42    0.05 
   1  -2  -4    0.50    0.08 
   1  -3  -4    0.88    0.13 
   1  -3  -4    0.90    0.07 
   1  -4  -4    0.01    0.02 
   1  -4  -4    0.00    0.06 
   1  -5  -4    0.59    0.14 
  -1   5   4    0.86    0.12 
   1  -6  -4    0.52    0.14 
  -1   6   4    0.58    0.11 
   1  -7  -4    0.08    0.12 
   1  -7  -4    0.08    0.12 
   1  -8  -4    0.18    0.14 
   1  -9  -4    0.05    0.15 
   2   8  -4   -0.08    0.07 
   2   7  -4    0.15    0.05 
   2   7  -4    0.16    0.08 
  -2  -7   4    0.09    0.10 
   2   6  -4    1.46    0.15 
  -2  -6   4    1.39    0.19 
   2   5  -4    0.26    0.07 
  -2  -5   4    0.23    0.10 
   2   4  -4    0.13    0.05 
   2   3  -4    0.73    0.09 
   2   2  -4    2.40    0.16 
   2   2  -4    2.45    0.17 
   2   1  -4    0.67    0.07 
   2   1  -4    0.61    0.06 
   2   0  -4   66.82    3.32 
   2   0  -4   66.73    3.36 
   2  -1  -4    0.43    0.07 
   2  -1  -4    0.57    0.07 
   2  -2  -4    0.93    0.08 
   2  -3  -4    0.27    0.08 
   2  -3  -4    0.35    0.06 
   2  -4  -4    0.14    0.06 
   2  -4  -4    0.23    0.06 
   2  -5  -4    0.29    0.06 
   2  -5  -4    0.24    0.09 
   2  -6  -4    1.58    0.21 
   2  -7  -4   -0.06    0.10 
   2  -8  -4    0.00    0.11 
   2  -9  -4   -0.03    0.15 
   3   8  -4    0.69    0.16 
   3   7  -4    0.58    0.16 
   3   6  -4    0.33    0.07 
  -3  -6   4    0.01    0.06 
   3   5  -4    3.81    0.27 
  -3  -5   4    3.98    0.29 
   3   4  -4   13.94    0.78 
  -3  -4   4   14.97    0.79 
   3   3  -4   10.16    0.56 
   3   3  -4   10.14    0.55 
   3   2  -4   67.13    3.41 
   3   2  -4   69.36    3.40 
   3   1  -4   33.22    1.67 
   3   1  -4   33.00    1.66 
   3   0  -4    5.77    0.31 
   3   0  -4    5.62    0.33 
   3  -1  -4   31.09    1.59 
   3  -1  -4   31.91    1.61 
   3  -2  -4   68.63    3.45 
   3  -2  -4   67.46    3.39 
   3  -3  -4    9.50    0.56 
   3  -3  -4    9.40    0.52 
   3  -5  -4    3.56    0.24 
   3  -5  -4    3.11    0.27 
   3  -6  -4    0.30    0.11 
   3  -7  -4    0.66    0.17 
   3  -8  -4    1.12    0.25 
   4   8  -4   -0.05    0.10 
   4   7  -4    4.08    0.36 
   4   6  -4    2.66    0.22 
   4   6  -4    3.20    0.29 
   4   5  -4   18.09    0.99 
  -4  -5   4   18.94    1.00 
   4   4  -4    7.41    0.44 
  -4  -4   4    7.64    0.43 
   4   3  -4  112.14    5.57 
  -4  -3   4  112.34    5.61 
   4   2  -4   28.15    1.44 
   4   1  -4  246.54   12.14 
   4   0  -4  160.07    8.15 
   4   0  -4  166.95    8.07 
   4  -1  -4  210.51   11.21 
   4  -1  -4  239.49   11.09 
   4  -2  -4   26.14    1.31 
   4  -2  -4   24.85    1.33 
   4  -3  -4  104.46    5.36 
   4  -3  -4  107.63    5.27 
   4  -4  -4    6.78    0.44 
   4  -5  -4   17.16    0.93 
   4  -5  -4   17.37    0.99 
   4  -6  -4    1.01    0.13 
   4  -8  -4    0.04    0.14 
   5   8  -4    0.13    0.13 
   5   7  -4    1.99    0.26 
   5   6  -4    0.04    0.08 
   5   5  -4   13.20    0.72 
   5   5  -4   12.80    0.81 
   5   4  -4    3.63    0.25 
   5   3  -4   24.83    1.29 
  -5  -3   4   25.01    1.26 
   5   2  -4   25.98    1.34 
   5   1  -4  106.78    5.30 
   5   0  -4   11.73    0.65 
   5   0  -4   11.84    0.62 
   5  -1  -4  111.62    5.41 
   5  -1  -4  106.09    5.46 
   5  -2  -4   23.68    1.25 
   5  -2  -4   23.60    1.23 
   5  -3  -4   23.57    1.24 
   5  -3  -4   22.50    1.21 
   5  -4  -4    3.40    0.25 
   5  -5  -4   13.14    0.73 
   5  -5  -4   12.34    0.77 
   5  -6  -4    0.05    0.10 
   5  -6  -4    0.05    0.06 
   5  -7  -4    2.21    0.29 
   5  -8  -4    0.20    0.16 
   6   8  -4   -0.15    0.10 
   6   7  -4    0.20    0.12 
   6   6  -4    0.23    0.10 
   6   5  -4    0.75    0.15 
   6   5  -4    0.70    0.11 
   6   4  -4    0.10    0.06 
   6   4  -4    0.16    0.08 
   6   3  -4    0.02    0.04 
   6   3  -4    0.00    0.06 
   6   2  -4    0.44    0.08 
   6   1  -4    8.25    0.48 
   6   0  -4   12.69    0.71 
   6   0  -4   12.89    0.71 
   6  -1  -4    7.77    0.45 
   6  -1  -4    7.99    0.47 
   6  -2  -4    0.53    0.06 
   6  -2  -4    0.47    0.10 
   6  -2  -4    0.52    0.10 
   6  -3  -4    0.04    0.07 
   6  -3  -4    0.02    0.04 
   6  -3  -4    0.02    0.04 
   6  -4  -4    0.15    0.08 
   6  -4  -4    0.16    0.07 
   6  -5  -4    0.93    0.14 
   6  -5  -4    0.86    0.16 
   6  -6  -4    0.37    0.12 
   6  -6  -4    0.51    0.12 
   6  -7  -4    0.26    0.13 
   6  -7  -4    0.10    0.11 
   6  -7  -4    0.10    0.11 
   6  -8  -4    0.01    0.14 
   7   8  -4    0.68    0.20 
   7   7  -4    0.59    0.19 
   7   6  -4    0.84    0.19 
   7   5  -4    0.81    0.17 
   7   4  -4    2.86    0.28 
   7   4  -4    2.90    0.22 
   7   3  -4   11.50    0.73 
   7   3  -4   11.83    0.66 
   7   2  -4    5.77    0.37 
   7   2  -4    5.95    0.41 
   7   1  -4    6.16    0.41 
  -7  -1   4    6.30    0.34 
   7   0  -4    3.53    0.25 
   7   0  -4    2.90    0.24 
  -7   0   4    3.34    0.20 
   7  -1  -4    5.56    0.36 
  -7   1   4    5.60    0.34 
   7  -2  -4    5.61    0.37 
   7  -2  -4    5.83    0.38 
   7  -3  -4   10.95    0.65 
   7  -3  -4   11.68    0.68 
   7  -4  -4    3.22    0.27 
   7  -4  -4    2.95    0.25 
   7  -5  -4    1.11    0.18 
   7  -5  -4    0.70    0.14 
   7  -6  -4    0.49    0.15 
   7  -6  -4    0.45    0.12 
   7  -7  -4    0.40    0.17 
   7  -7  -4    0.65    0.15 
   7  -8  -4    0.49    0.19 
   8   7  -4    0.22    0.16 
   8   6  -4    8.75    0.64 
   8   5  -4   -0.10    0.10 
   8   4  -4   21.80    1.16 
   8   4  -4   21.43    1.30 
   8   3  -4    5.09    0.34 
   8   2  -4   50.25    2.59 
   8   2  -4   51.15    2.82 
   8   2  -4   51.15    2.82 
   8   1  -4    2.09    0.20 
   8   1  -4    3.08    0.28 
   8   0  -4   64.79    3.02 
  -8   0   4   54.41    2.98 
   8  -1  -4    1.77    0.16 
   8  -1  -4    1.82    0.19 
  -8   1   4    1.61    0.15 
   8  -2  -4   42.00    2.27 
  -8   2   4   46.02    2.28 
   8  -3  -4    4.48    0.34 
   8  -4  -4   20.02    1.13 
   8  -4  -4   19.60    1.10 
   8  -5  -4    0.12    0.08 
   8  -5  -4    0.08    0.09 
   8  -6  -4    8.16    0.61 
   8  -6  -4    9.17    0.58 
   8  -7  -4    0.11    0.11 
   8  -7  -4   -0.08    0.13 
   9   7  -4    0.27    0.16 
   9   6  -4    3.94    0.39 
   9   5  -4    1.83    0.27 
   9   4  -4   16.50    1.03 
   9   3  -4    0.28    0.09 
   9   3  -4    0.12    0.11 
   9   2  -4   29.63    1.57 
   9   2  -4   29.84    1.70 
   9   1  -4    4.83    0.35 
   9   1  -4    4.09    0.32 
   9   0  -4   43.96    2.28 
   9  -1  -4    3.94    0.30 
  -9   1   4    4.02    0.28 
   9  -2  -4   27.67    1.49 
  -9   2   4   28.02    1.48 
   9  -3  -4    0.17    0.09 
  -9   3   4    0.28    0.10 
   9  -4  -4   14.16    0.85 
  -9   4   4   14.90    0.86 
   9  -5  -4    1.97    0.24 
  -9   5   4    1.65    0.22 
   9  -6  -4    4.55    0.38 
   9  -6  -4    5.11    0.43 
   9  -7  -4    0.14    0.15 
   9  -7  -4    0.31    0.15 
  10   6  -4    0.75    0.21 
  10   5  -4    1.13    0.23 
  10   4  -4    1.51    0.23 
  10   3  -4    0.27    0.09 
  10   3  -4    0.53    0.14 
  10   2  -4    4.62    0.36 
  10   2  -4    4.34    0.33 
  10   1  -4    6.25    0.43 
  10   1  -4    5.28    0.39 
  10   0  -4    3.47    0.28 
  10  -1  -4    4.27    0.32 
 -10   2   4    3.74    0.29 
  10  -3  -4    0.48    0.13 
 -10   3   4    0.55    0.12 
  10  -4  -4    1.22    0.20 
 -10   4   4    1.34    0.20 
  10  -5  -4    0.98    0.19 
 -10   5   4    0.88    0.18 
  10  -6  -4    0.39    0.15 
 -10   6   4    0.55    0.17 
  11   5  -4   -0.15    0.17 
  11   4  -4   -0.07    0.12 
  11   3  -4    2.08    0.28 
  11   2  -4    0.21    0.10 
  11   2  -4    0.19    0.07 
  11   1  -4    0.63    0.13 
  11   1  -4    0.59    0.15 
  11   0  -4    0.08    0.06 
  11  -1  -4    0.59    0.14 
  11  -2  -4    0.12    0.08 
  11  -3  -4    1.58    0.23 
  11  -4  -4   -0.06    0.07 
 -11   4   4    0.00    0.09 
  11  -5  -4    0.06    0.10 
 -11   5   4    0.01    0.11 
  12   4  -4    0.08    0.12 
  12   3  -4    0.18    0.13 
  12   2  -4    0.22    0.09 
  12   2  -4    0.15    0.12 
  12   1  -4    1.02    0.17 
  12   0  -4   -0.08    0.10 
  12  -1  -4    1.26    0.21 
  12  -2  -4    0.30    0.12 
  12  -3  -4    0.19    0.11 
  12  -4  -4   -0.01    0.09 
  13   1  -4    0.11    0.10 
  13   0  -4    2.03    0.27 
  13  -1  -4    0.00    0.08 
  13  -2  -4    0.62    0.17 
  -9   1  -5    0.58    0.20 
  -9   0  -5    0.09    0.13 
  -9  -1  -5    0.78    0.21 
  -8   4  -5    0.64    0.20 
  -8   3  -5    0.11    0.15 
  -8   2  -5    1.90    0.30 
  -8   1  -5    0.79    0.20 
  -8   0  -5    0.40    0.15 
  -8  -1  -5    0.59    0.18 
  -8  -2  -5    1.58    0.26 
  -8  -3  -5    0.25    0.15 
  -8  -4  -5    0.64    0.20 
  -7   5  -5    0.15    0.13 
  -7   4  -5   -0.02    0.11 
  -7   3  -5   -0.02    0.10 
  -7   2  -5   -0.03    0.09 
  -7   1  -5    0.16    0.12 
  -7   0  -5    0.81    0.18 
  -7  -1  -5    0.25    0.12 
  -7  -2  -5    0.15    0.11 
  -7  -3  -5    0.01    0.12 
  -7  -4  -5    0.03    0.12 
  -7  -5  -5    0.14    0.15 
  -6   6  -5    0.73    0.21 
  -6   5  -5    1.61    0.26 
  -6   4  -5    0.24    0.12 
  -6   3  -5    3.82    0.35 
  -6   2  -5    0.02    0.09 
  -6   0  -5    2.53    0.28 
  -6  -1  -5    5.93    0.45 
  -6  -2  -5    0.04    0.10 
  -6  -3  -5    3.59    0.35 
  -6  -4  -5    0.36    0.14 
  -6  -5  -5    1.93    0.29 
  -6  -6  -5    1.03    0.25 
  -5   6  -5    1.22    0.24 
  -5   5  -5    2.73    0.32 
  -5   4  -5    7.29    0.52 
  -5   3  -5    3.43    0.31 
  -5   2  -5   18.73    1.08 
  -5   1  -5    7.14    0.50 
  -5   0  -5    9.44    0.61 
  -5  -1  -5    6.85    0.49 
  -5  -2  -5   17.67    1.03 
  -5  -3  -5    4.11    0.35 
  -5  -4  -5    7.12    0.53 
  -5  -5  -5    2.35    0.30 
  -5  -6  -5    1.24    0.24 
  -4   7  -5    1.86    0.29 
  -4   6  -5    3.48    0.36 
  -4   4  -5    4.29    0.34 
  -4   3  -5   20.26    1.15 
  -4   2  -5    5.50    0.40 
  -4   1  -5   25.54    1.40 
  -4   0  -5   24.46    1.35 
  -4  -1  -5   26.54    1.46 
  -4  -2  -5    6.05    0.44 
  -4  -3  -5   18.54    1.08 
  -4  -4  -5    4.03    0.36 
  -4  -5  -5    5.58    0.45 
  -4  -6  -5    3.28    0.36 
  -4  -7  -5    1.59    0.27 
  -3   7  -5    0.38    0.15 
  -3   6  -5    2.88    0.31 
  -3   5  -5    1.47    0.21 
  -3   4  -5    4.40    0.33 
  -3   3  -5    0.66    0.12 
  -3   2  -5    7.74    0.49 
  -3   1  -5    4.18    0.31 
  -3   0  -5   30.11    1.61 
  -3  -1  -5    4.20    0.32 
  -3  -2  -5    8.01    0.52 
  -3  -3  -5    0.60    0.14 
  -3  -4  -5    4.93    0.39 
  -3  -5  -5    1.48    0.23 
  -3  -6  -5    2.39    0.30 
  -3  -7  -5    0.28    0.17 
  -2   8  -5   -0.11    0.10 
  -2   7  -5    0.28    0.12 
  -2   6  -5    0.35    0.12 
  -2   5  -5    1.38    0.19 
  -2   4  -5    0.38    0.10 
  -2   3  -5    0.08    0.06 
  -2   2  -5    0.59    0.11 
  -2   1  -5    3.81    0.28 
  -2   0  -5   10.93    0.64 
  -2  -1  -5    3.86    0.29 
  -2  -2  -5    0.87    0.13 
  -2  -2  -5    0.67    0.07 
  -2  -3  -5    0.07    0.07 
  -2  -4  -5    0.36    0.11 
  -2  -5  -5    1.52    0.22 
  -2  -6  -5    0.63    0.16 
  -2  -7  -5    0.30    0.14 
  -2  -8  -5   -0.06    0.13 
  -1   8  -5    0.90    0.19 
  -1   7  -5    0.14    0.10 
  -1   5  -5   -0.07    0.06 
  -1   4  -5   18.61    1.03 
  -1   3  -5    2.14    0.19 
  -1   2  -5   60.35    3.09 
  -1   1  -5    0.76    0.11 
  -1   0  -5   62.61    3.20 
  -1  -1  -5    0.69    0.11 
  -1  -2  -5   61.01    3.15 
  -1  -2  -5   61.51    3.04 
  -1  -3  -5    1.86    0.20 
  -1  -4  -5   17.74    1.01 
  -1  -5  -5    0.12    0.08 
  -1  -6  -5    3.10    0.32 
  -1  -7  -5    0.21    0.13 
  -1  -8  -5    0.82    0.21 
   0   8  -5    0.63    0.17 
   0   7  -5    0.38    0.11 
   0   6  -5    6.01    0.42 
   0   5  -5    1.68    0.18 
   0   4  -5   27.03    1.44 
   0   3  -5    0.87    0.11 
   0   2  -5  106.11    5.34 
   0   1  -5    2.81    0.21 
   0   0  -5  172.04    9.06 
   0   0  -5  196.12    9.22 
   0  -1  -5    2.84    0.22 
   0  -2  -5  105.25    5.19 
   0  -2  -5  104.81    5.31 
   0  -3  -5    0.83    0.07 
   0  -3  -5    0.66    0.12 
   0  -4  -5   26.41    1.44 
   0  -5  -5    1.19    0.18 
   0  -6  -5    5.34    0.42 
   0  -6  -5    5.35    0.42 
   0  -7  -5    0.38    0.15 
   0  -8  -5    0.75    0.20 
   1   8  -5    0.11    0.07 
   1   7  -5    0.61    0.14 
   1   6  -5    0.74    0.13 
   1   5  -5    5.26    0.36 
   1   4  -5    2.74    0.21 
   1   3  -5    2.09    0.17 
   1   2  -5   10.82    0.60 
   1   1  -5   63.28    3.78 
   1   1  -5   87.12    3.74 
   1   0  -5   30.95    1.56 
   1   0  -5   30.61    1.59 
   1  -1  -5   60.14    2.98 
   1  -1  -5   59.42    3.04 
   1  -2  -5   10.64    0.57 
   1  -2  -5   11.10    0.62 
   1  -3  -5    1.77    0.19 
   1  -3  -5    2.09    0.14 
   1  -4  -5    2.76    0.24 
   1  -5  -5    5.12    0.38 
   1  -6  -5    0.62    0.15 
   1  -7  -5    0.55    0.16 
   1  -8  -5    0.23    0.14 
   2   8  -5    0.12    0.10 
   2   7  -5    0.12    0.06 
   2   6  -5    0.64    0.12 
   2   6  -5    0.72    0.12 
   2   5  -5    0.47    0.09 
   2   5  -5    0.45    0.10 
   2   4  -5    2.28    0.18 
   2   4  -5    2.69    0.19 
   2   4  -5    2.28    0.18 
   2   3  -5    1.30    0.13 
   2   3  -5    1.49    0.13 
   2   2  -5    7.24    0.41 
   2   2  -5    6.94    0.40 
   2   1  -5   19.74    1.05 
   2   1  -5   20.97    1.06 
   2   0  -5   31.40    1.61 
   2   0  -5   31.21    1.59 
   2  -1  -5   20.83    1.06 
   2  -1  -5   20.39    1.09 
   2  -2  -5    6.70    0.41 
   2  -3  -5    1.38    0.12 
   2  -3  -5    1.46    0.16 
   2  -4  -5    2.52    0.17 
   2  -4  -5    2.47    0.22 
   2  -5  -5    0.63    0.14 
   2  -6  -5    0.56    0.14 
   2  -7  -5   -0.02    0.13 
   2  -8  -5    0.07    0.13 
   3   8  -5    0.02    0.10 
   3   7  -5    0.71    0.12 
   3   6  -5    0.03    0.05 
   3   5  -5    5.01    0.33 
   3   5  -5    4.81    0.33 
   3   4  -5    0.31    0.08 
   3   4  -5    0.28    0.06 
   3   3  -5    0.10    0.05 
   3   3  -5    0.03    0.03 
   3   2  -5    0.18    0.04 
   3   2  -5    0.21    0.06 
   3   1  -5   16.51    0.88 
   3   1  -5   16.86    0.86 
   3   0  -5   10.80    0.58 
   3   0  -5   10.66    0.57 
   3  -1  -5   18.41    0.94 
   3  -1  -5   17.25    0.93 
   3  -2  -5    0.13    0.05 
   3  -2  -5    0.21    0.05 
   3  -3  -5   -0.01    0.04 
   3  -3  -5   -0.05    0.03 
   3  -3  -5   -0.01    0.04 
   3  -4  -5    0.26    0.08 
   3  -4  -5    0.15    0.05 
   3  -5  -5    4.28    0.34 
   3  -5  -5    4.67    0.29 
   3  -6  -5    0.02    0.08 
   3  -7  -5    0.74    0.18 
   3  -8  -5   -0.04    0.12 
   4   8  -5   -0.05    0.09 
   4   7  -5    4.60    0.40 
   4   6  -5    0.94    0.13 
   4   5  -5   12.04    0.68 
   4   4  -5    0.58    0.08 
   4   4  -5    0.55    0.10 
   4   3  -5   95.72    4.81 
   4   3  -5   96.67    4.79 
   4   2  -5    0.02    0.04 
   4   2  -5    0.06    0.02 
   4   1  -5  137.47    6.85 
   4   1  -5  139.34    6.91 
   4   0  -5    7.06    0.39 
   4   0  -5    7.46    0.42 
   4  -1  -5  133.62    6.78 
   4  -1  -5  137.32    6.71 
   4  -2  -5    0.02    0.04 
   4  -2  -5    0.03    0.05 
   4  -3  -5   87.15    4.44 
   4  -3  -5   91.46    4.53 
   4  -4  -5    0.36    0.09 
   4  -4  -5    0.46    0.08 
   4  -5  -5   11.34    0.70 
   4  -6  -5    0.59    0.14 
   4  -7  -5    4.59    0.40 
   4  -8  -5   -0.01    0.12 
   5   8  -5    0.24    0.13 
   5   7  -5    1.17    0.20 
   5   6  -5    0.06    0.05 
   5   6  -5    0.09    0.08 
   5   5  -5    6.88    0.43 
   5   4  -5    0.49    0.09 
   5   3  -5    4.93    0.32 
   5   2  -5    1.22    0.13 
   5   1  -5   36.99    1.89 
   5   0  -5    4.18    0.24 
   5   0  -5    4.27    0.28 
   5  -1  -5   36.52    1.84 
   5  -1  -5   35.47    1.84 
   5  -2  -5    1.10    0.12 
   5  -2  -5    1.13    0.13 
   5  -3  -5    4.66    0.33 
   5  -3  -5    4.69    0.31 
   5  -4  -5    0.46    0.10 
   5  -4  -5    0.40    0.09 
   5  -5  -5    6.85    0.43 
   5  -5  -5    6.81    0.47 
   5  -6  -5    0.18    0.07 
   5  -6  -5    0.07    0.08 
   5  -7  -5    1.04    0.21 
   5  -8  -5    0.33    0.17 
   6   8  -5   -0.40    0.17 
   6   7  -5    0.10    0.11 
   6   6  -5    0.09    0.11 
   6   5  -5    1.90    0.23 
   6   5  -5    1.62    0.17 
   6   4  -5    0.14    0.05 
   6   3  -5    0.84    0.12 
   6   2  -5    0.05    0.05 
   6   1  -5   15.44    0.84 
   6   0  -5    7.88    0.46 
   6   0  -5    7.71    0.42 
   6  -1  -5   15.74    0.86 
   6  -1  -5   16.36    0.88 
   6  -2  -5    0.07    0.06 
   6  -2  -5    0.02    0.05 
   6  -3  -5    0.97    0.13 
   6  -3  -5    0.79    0.13 
   6  -4  -5    0.09    0.07 
   6  -4  -5    0.09    0.06 
   6  -5  -5    1.79    0.19 
   6  -5  -5    1.91    0.23 
   6  -6  -5    0.32    0.12 
   6  -6  -5    0.26    0.09 
   6  -7  -5    0.34    0.14 
   6  -8  -5    0.20    0.15 
   7   8  -5    0.44    0.19 
   7   7  -5   -0.05    0.14 
   7   6  -5    2.87    0.32 
   7   5  -5    0.02    0.07 
   7   5  -5   -0.05    0.04 
   7   4  -5    4.14    0.29 
   7   3  -5    1.92    0.17 
   7   2  -5    4.60    0.31 
   7   1  -5    0.77    0.11 
  -7   0   5   16.60    0.86 
   7  -1  -5    0.50    0.10 
   7  -1  -5    0.63    0.10 
   7  -2  -5    4.64    0.31 
   7  -2  -5    4.34    0.31 
   7  -3  -5    1.69    0.18 
   7  -3  -5    1.62    0.19 
   7  -4  -5    4.36    0.32 
   7  -4  -5    4.55    0.34 
   7  -5  -5    0.05    0.07 
   7  -5  -5    0.06    0.07 
   7  -6  -5    3.53    0.35 
   7  -6  -5    3.33    0.28 
   7  -7  -5    0.00    0.12 
   7  -8  -5    0.36    0.16 
   8   7  -5    1.66    0.29 
   8   6  -5   11.09    0.79 
   8   5  -5    5.81    0.46 
   8   4  -5   32.40    1.83 
   8   4  -5   30.91    1.65 
   8   3  -5   22.05    1.32 
   8   3  -5   22.88    1.21 
   8   2  -5  100.94    5.01 
   8   2  -5   83.17    4.61 
   8   1  -5   44.88    2.38 
   8   1  -5   41.01    2.21 
   8   0  -5   73.34    3.71 
   8  -1  -5   35.76    1.92 
   8  -1  -5   33.42    1.82 
  -8   1   5   35.20    1.79 
   8  -2  -5   80.18    4.11 
   8  -2  -5   81.16    4.08 
   8  -3  -5   28.04    1.38 
   8  -3  -5   23.24    1.38 
   8  -4  -5   32.18    1.72 
   8  -4  -5   31.23    1.69 
   8  -5  -5    6.60    0.47 
   8  -5  -5    7.57    0.51 
   8  -6  -5    7.38    0.55 
   8  -6  -5    7.68    0.52 
   8  -7  -5    1.85    0.29 
   8  -7  -5    1.60    0.23 
   9   7  -5    2.76    0.36 
   9   6  -5    5.63    0.49 
   9   5  -5    8.98    0.65 
   9   4  -5   20.41    1.25 
   9   3  -5   21.65    1.19 
   9   3  -5   21.66    1.19 
   9   3  -5   22.54    1.31 
   9   2  -5   22.18    1.24 
   9   2  -5   23.74    1.35 
   9   1  -5   37.01    1.99 
   9   1  -5   39.30    2.14 
   9   0  -5   50.18    2.58 
   9  -1  -5   33.64    1.78 
   9  -2  -5   21.29    1.18 
   9  -3  -5   14.56    0.96 
  -9   3   5   19.98    0.98 
   9  -4  -5   11.62    0.71 
   9  -4  -5   11.32    0.72 
   9  -5  -5    8.19    0.56 
   9  -5  -5    8.64    0.58 
   9  -6  -5    5.31    0.45 
   9  -6  -5    5.72    0.43 
   9  -7  -5    3.03    0.33 
   9  -7  -5    3.16    0.37 
  10   6  -5    0.18    0.13 
  10   5  -5    0.28    0.14 
  10   4  -5   -0.05    0.08 
  10   3  -5    0.27    0.12 
  10   3  -5    0.13    0.07 
  10   2  -5    0.14    0.10 
  10   2  -5    0.14    0.07 
  10   1  -5    0.38    0.10 
  10   1  -5    0.46    0.12 
  10   0  -5    0.93    0.14 
  10   0  -5    0.18    0.07 
  10  -1  -5    0.49    0.12 
  10  -3  -5    0.17    0.12 
 -10   3   5    0.34    0.12 
  10  -4  -5    0.16    0.09 
 -10   4   5    0.01    0.09 
  10  -5  -5    0.41    0.13 
 -10   5   5    0.37    0.14 
  10  -6  -5    0.27    0.13 
 -10   6   5    0.19    0.13 
  11   5  -5    1.00    0.22 
  11   4  -5    0.12    0.11 
  11   3  -5    1.90    0.25 
  11   3  -5    1.98    0.22 
  11   2  -5    0.57    0.12 
  11   2  -5    0.41    0.12 
  11   1  -5    4.55    0.36 
  11   1  -5    4.32    0.34 
  11   0  -5    0.06    0.07 
  11  -1  -5    4.50    0.35 
  11  -2  -5    0.26    0.09 
  11  -3  -5    1.87    0.25 
  11  -4  -5    0.10    0.09 
 -11   4   5    0.03    0.10 
  11  -5  -5    1.03    0.21 
 -11   5   5    1.43    0.23 
 -11   5   5    1.43    0.23 
  12   4  -5    1.72    0.28 
  12   3  -5    2.52    0.30 
  12   2  -5    3.62    0.32 
  12   2  -5    4.72    0.40 
  12  -1  -5    2.22    0.27 
  12  -2  -5    3.67    0.33 
  12  -3  -5    2.27    0.28 
  12  -4  -5    1.79    0.26 
  13   2  -5    2.20    0.26 
  13   1  -5    0.53    0.14 
  13   0  -5    6.88    0.52 
  13  -1  -5    0.54    0.15 
  13  -2  -5    2.54    0.31 
  -8   2  -6    0.32    0.18 
  -8   1  -6   -0.04    0.13 
  -8   0  -6    1.22    0.24 
  -8  -1  -6    0.06    0.13 
  -8  -2  -6    0.56    0.19 
  -7   4  -6    0.06    0.13 
  -7   3  -6    0.51    0.18 
  -7   2  -6    0.12    0.13 
  -7   1  -6    0.11    0.12 
  -7   0  -6    0.72    0.19 
  -7  -1  -6    0.10    0.12 
  -7  -2  -6    0.42    0.16 
  -7  -3  -6    0.44    0.16 
  -7  -4  -6    0.37    0.17 
  -6   5  -6    0.22    0.14 
  -6   4  -6    0.32    0.16 
  -6   3  -6    0.25    0.13 
  -6   2  -6    1.13    0.23 
  -6   1  -6    0.15    0.11 
  -6   0  -6    1.77    0.25 
  -6  -1  -6    0.23    0.12 
  -6  -2  -6    1.05    0.21 
  -6  -3  -6    0.17    0.13 
  -6  -4  -6    0.86    0.22 
  -6  -5  -6    0.06    0.13 
  -5   6  -6    0.05    0.11 
  -5   5  -6    0.29    0.15 
  -5   4  -6    0.14    0.12 
  -5   3  -6    0.26    0.11 
  -5   2  -6    0.99    0.19 
  -5   1  -6    0.20    0.12 
  -5   0  -6    1.48    0.22 
  -5  -1  -6    0.12    0.10 
  -5  -2  -6    0.94    0.20 
  -5  -3  -6    0.17    0.13 
  -5  -4  -6    0.36    0.15 
  -5  -5  -6    0.70    0.19 
  -4   6  -6    0.32    0.19 
  -4   5  -6    2.07    0.27 
  -4   4  -6    1.90    0.25 
  -4   3  -6    2.37    0.26 
  -4   2  -6    4.86    0.38 
  -4   1  -6   14.90    0.89 
  -4   0  -6    4.29    0.35 
  -4  -1  -6   14.32    0.86 
  -4  -2  -6    4.51    0.37 
  -4  -3  -6    2.22    0.27 
  -4  -4  -6    2.11    0.28 
  -4  -5  -6    1.98    0.28 
  -4  -6  -6    0.04    0.13 
  -3   7  -6    0.06    0.12 
  -3   6  -6    0.08    0.11 
  -3   4  -6   -0.02    0.06 
  -3   3  -6    0.19    0.09 
  -3   2  -6    0.06    0.06 
  -3   1  -6    0.70    0.13 
  -3   0  -6    0.82    0.14 
  -3  -1  -6    0.69    0.14 
  -3  -2  -6   -0.07    0.06 
  -3  -3  -6    0.23    0.11 
  -3  -4  -6   -0.06    0.08 
  -3  -5  -6    0.30    0.14 
  -3  -6  -6   -0.12    0.09 
  -3  -7  -6   -0.16    0.11 
  -2   7  -6    0.02    0.12 
  -2   6  -6    1.18    0.20 
  -2   5  -6    0.87    0.15 
  -2   4  -6    1.08    0.16 
  -2   3  -6    0.07    0.05 
  -2   2  -6    2.54    0.22 
  -2   0  -6   13.52    0.78 
  -2  -1  -6    5.41    0.38 
  -2  -2  -6    2.11    0.23 
  -2  -2  -6    2.24    0.16 
  -2  -3  -6    0.27    0.10 
  -2  -4  -6    1.30    0.21 
  -2  -5  -6    1.27    0.21 
  -2  -6  -6    1.03    0.21 
  -2  -7  -6    0.13    0.13 
  -1   8  -6    0.08    0.14 
  -1   7  -6    0.00    0.09 
  -1   6  -6    1.55    0.21 
  -1   5  -6    0.00    0.06 
  -1   4  -6    1.64    0.18 
  -1   3  -6    2.23    0.20 
  -1   2  -6    1.56    0.17 
  -1   1  -6    1.56    0.17 
  -1   0  -6   19.57    1.07 
  -1  -1  -6    1.33    0.16 
  -1  -2  -6    1.73    0.20 
  -1  -2  -6    2.19    0.15 
  -1  -3  -6    1.90    0.21 
  -1  -4  -6    1.24    0.19 
  -1  -5  -6    0.01    0.08 
  -1  -6  -6    1.21    0.21 
  -1  -7  -6    0.00    0.12 
  -1  -7  -6    0.00    0.12 
  -1  -8  -6    0.19    0.17 
   0   7  -6    0.05    0.09 
   0   6  -6    0.73    0.15 
   0   5  -6    0.38    0.10 
   0   4  -6    0.00    0.04 
   0   3  -6    0.22    0.07 
   0   2  -6    0.34    0.08 
   0   1  -6    2.09    0.18 
   0   0  -6   13.57    0.63 
   0   0  -6    9.20    0.64 
   0  -1  -6    1.80    0.15 
   0  -1  -6    2.05    0.18 
   0  -2  -6    0.30    0.06 
   0  -2  -6    0.23    0.07 
   0  -3  -6    0.30    0.09 
   0  -4  -6   -0.04    0.05 
   0  -5  -6    0.06    0.09 
   0  -6  -6    0.57    0.15 
   0  -7  -6   -0.05    0.10 
   0  -8  -6    0.11    0.17 
   1   8  -6   -0.04    0.07 
   1   7  -6    0.07    0.08 
   1   7  -6    0.10    0.06 
   1   6  -6    1.04    0.15 
   1   5  -6    0.94    0.14 
   1   4  -6    0.65    0.11 
   1   3  -6    6.91    0.42 
   1   2  -6    0.47    0.09 
   1   2  -6    0.43    0.08 
   1   1  -6   22.80    1.23 
   1   1  -6   24.61    1.25 
   1   0  -6   27.13    1.40 
   1   0  -6   27.55    1.44 
   1  -1  -6   24.54    1.24 
   1  -1  -6   23.48    1.28 
   1  -2  -6    0.55    0.07 
   1  -2  -6    0.55    0.11 
   1  -3  -6    7.16    0.40 
   1  -3  -6    7.22    0.46 
   1  -4  -6    0.59    0.12 
   1  -5  -6    0.84    0.16 
   1  -6  -6    1.41    0.23 
   1  -7  -6    0.07    0.13 
   1  -8  -6    0.02    0.13 
   2   8  -6    0.07    0.08 
   2   7  -6    0.11    0.07 
   2   6  -6    0.46    0.10 
   2   6  -6    0.48    0.11 
   2   5  -6    0.28    0.09 
   2   5  -6    0.24    0.08 
   2   4  -6    0.08    0.06 
   2   4  -6   -0.06    0.04 
   2   3  -6   -0.01    0.03 
   2   3  -6   -0.01    0.03 
   2   2  -6    0.21    0.07 
   2   2  -6    0.29    0.06 
   2   1  -6    0.02    0.04 
   2   1  -6    0.11    0.05 
   2   0  -6   12.29    0.68 
   2   0  -6   12.97    0.69 
   2  -1  -6    0.01    0.04 
   2  -1  -6    0.14    0.05 
   2  -2  -6    0.17    0.05 
   2  -2  -6    0.23    0.08 
   2  -3  -6    0.00    0.04 
   2  -3  -6   -0.01    0.04 
   2  -4  -6    0.00    0.04 
   2  -4  -6    0.09    0.04 
   2  -5  -6    0.30    0.10 
   2  -6  -6    0.59    0.15 
   2  -7  -6    0.19    0.13 
   2  -8  -6    0.10    0.13 
   3   8  -6    0.76    0.18 
   3   7  -6    0.03    0.06 
   3   6  -6    0.23    0.07 
   3   5  -6    0.48    0.10 
   3   5  -6    0.51    0.10 
   3   4  -6    4.45    0.30 
   3   4  -6    3.93    0.27 
   3   3  -6    2.38    0.19 
   3   3  -6    2.14    0.16 
   3   2  -6   18.40    0.99 
   3   2  -6   18.98    0.98 
   3   1  -6   14.66    0.78 
   3   1  -6   14.40    0.77 
   3   0  -6    3.01    0.20 
   3   0  -6    2.65    0.19 
   3  -1  -6   14.46    0.78 
   3  -1  -6   14.30    0.77 
   3  -2  -6   17.65    0.92 
   3  -2  -6   17.26    0.95 
   3  -3  -6    1.98    0.20 
   3  -4  -6    4.07    0.27 
   3  -4  -6    4.43    0.33 
   3  -5  -6    0.39    0.10 
   3  -6  -6    0.25    0.11 
   3  -7  -6   -0.02    0.09 
   3  -8  -6    0.51    0.19 
   4   8  -6   -0.02    0.12 
   4   7  -6    0.71    0.13 
   4   6  -6    0.12    0.06 
   4   5  -6    2.79    0.23 
   4   4  -6    2.11    0.18 
   4   3  -6    1.81    0.13 
   4   3  -6    1.84    0.16 
   4   2  -6   14.71    0.77 
   4   2  -6   15.21    0.81 
   4   1  -6    9.69    0.55 
   4   1  -6    9.67    0.52 
   4   0  -6    4.37    0.27 
   4   0  -6    4.47    0.28 
   4  -1  -6    8.99    0.51 
   4  -1  -6    9.07    0.51 
   4  -2  -6   14.19    0.79 
   4  -2  -6   14.32    0.77 
   4  -3  -6    1.89    0.16 
   4  -3  -6    1.89    0.19 
   4  -4  -6    1.80    0.21 
   4  -4  -6    2.31    0.18 
   4  -5  -6    2.76    0.25 
   4  -6  -6   -0.10    0.05 
   4  -7  -6    0.94    0.21 
   4  -8  -6    0.09    0.13 
   5   8  -6    0.17    0.13 
   5   7  -6    0.11    0.10 
   5   6  -6    0.21    0.07 
   5   5  -6    0.28    0.08 
   5   4  -6    0.07    0.05 
   5   3  -6    0.17    0.06 
   5   2  -6   -0.01    0.04 
   5   1  -6    7.97    0.47 
   5   0  -6    8.36    0.48 
   5   0  -6    8.24    0.45 
   5  -1  -6    7.00    0.42 
   5  -1  -6    7.58    0.44 
   5  -2  -6    0.05    0.05 
   5  -2  -6    0.05    0.05 
   5  -3  -6    0.09    0.07 
   5  -3  -6    0.07    0.05 
   5  -4  -6    0.04    0.06 
   5  -4  -6    0.01    0.05 
   5  -5  -6    0.39    0.11 
   5  -5  -6    0.19    0.09 
   5  -6  -6    0.20    0.10 
   5  -7  -6   -0.07    0.09 
   5  -8  -6    0.12    0.15 
   6   8  -6    0.18    0.13 
   6   6  -6    0.13    0.07 
   6   6  -6    0.19    0.11 
   6   5  -6    2.08    0.19 
   6   4  -6    0.18    0.06 
   6   3  -6   22.37    1.19 
   6   2  -6    0.02    0.03 
   6   1  -6   25.82    1.35 
   6   0  -6    2.89    0.23 
   6   0  -6    3.02    0.19 
   6  -1  -6   29.14    1.47 
   6  -1  -6   27.28    1.48 
   6  -2  -6    0.01    0.04 
   6  -2  -6    0.12    0.06 
   6  -3  -6   21.24    1.12 
   6  -3  -6   20.50    1.14 
   6  -4  -6    0.14    0.07 
   6  -4  -6    0.07    0.06 
   6  -5  -6    1.80    0.23 
   6  -5  -6    2.16    0.21 
   6  -6  -6   -0.01    0.06 
   6  -6  -6    0.05    0.08 
   6  -7  -6    0.75    0.20 
   6  -8  -6   -0.01    0.15 
   7   7  -6    0.32    0.15 
   7   6  -6   -0.12    0.12 
   7   5  -6   -0.04    0.05 
   7   5  -6   -0.02    0.07 
   7   4  -6    0.91    0.13 
   7   3  -6    0.94    0.13 
   7   2  -6    3.89    0.27 
   7   1  -6    0.47    0.09 
   7   0  -6    2.21    0.19 
   7  -1  -6    0.49    0.09 
   7  -1  -6    0.53    0.10 
   7  -2  -6    3.71    0.28 
   7  -2  -6    3.84    0.27 
   7  -3  -6    0.85    0.13 
   7  -3  -6    0.78    0.13 
   7  -4  -6    0.81    0.13 
   7  -4  -6    0.82    0.14 
   7  -5  -6    0.01    0.07 
   7  -5  -6    0.03    0.05 
   7  -6  -6    0.19    0.11 
   7  -6  -6    0.06    0.08 
   7  -7  -6    0.04    0.12 
   8   7  -6    0.49    0.19 
   8   6  -6    0.47    0.16 
   8   5  -6    2.39    0.21 
   8   5  -6    2.38    0.29 
   8   4  -6    1.61    0.17 
   8   4  -6    1.15    0.20 
   8   3  -6    0.30    0.08 
   8   2  -6    2.44    0.21 
   8   1  -6    3.33    0.26 
   8   0  -6    2.97    0.25 
   8  -1  -6    3.20    0.24 
   8  -1  -6    3.39    0.27 
   8  -2  -6    2.45    0.22 
   8  -2  -6    2.51    0.22 
   8  -3  -6    0.26    0.09 
   8  -3  -6    0.44    0.11 
   8  -4  -6    1.51    0.20 
   8  -4  -6    1.56    0.19 
   8  -5  -6    2.59    0.26 
   8  -5  -6    3.18    0.31 
   8  -6  -6    0.34    0.12 
   8  -6  -6    0.16    0.12 
   8  -7  -6    0.69    0.20 
   9   7  -6    0.47    0.19 
   9   6  -6    0.60    0.20 
   9   6  -6    0.61    0.20 
   9   5  -6    0.47    0.15 
   9   4  -6    0.99    0.19 
   9   4  -6    0.88    0.14 
   9   3  -6    4.86    0.35 
   9   3  -6    4.75    0.38 
   9   2  -6    1.57    0.18 
   9   1  -6    1.09    0.15 
   9   1  -6    1.04    0.15 
   9   0  -6    2.60    0.23 
   9   0  -6    2.71    0.24 
   9  -1  -6    1.03    0.15 
   9  -2  -6    2.01    0.21 
  -9   2   6    1.69    0.16 
   9  -3  -6    4.85    0.35 
   9  -3  -6    4.60    0.35 
   9  -4  -6    0.72    0.15 
   9  -4  -6    0.83    0.16 
   9  -5  -6    0.65    0.15 
   9  -5  -6    0.83    0.17 
   9  -6  -6    0.43    0.16 
   9  -6  -6    0.59    0.15 
   9  -7  -6    0.41    0.17 
  10   6  -6    0.69    0.21 
  10   5  -6   -0.08    0.12 
  10   4  -6    2.05    0.23 
  10   4  -6    3.31    0.35 
  10   3  -6    1.39    0.19 
  10   3  -6    1.45    0.23 
  10   2  -6    6.60    0.48 
  10   2  -6    5.83    0.42 
  10   1  -6    0.21    0.10 
  10   1  -6    0.16    0.06 
  10  -1  -6    0.30    0.09 
  10  -2  -6    5.65    0.41 
  10  -3  -6    1.52    0.20 
  10  -4  -6    1.99    0.25 
  10  -4  -6    2.19    0.25 
  10  -5  -6    0.02    0.10 
  10  -5  -6    0.21    0.10 
  10  -6  -6    0.61    0.16 
  10  -6  -6    0.71    0.20 
  11   5  -6    0.98    0.22 
  11   4  -6    0.71    0.19 
  11   3  -6    0.51    0.16 
  11   3  -6    0.61    0.13 
  11   2  -6    0.84    0.17 
  11   2  -6    0.86    0.15 
  11   1  -6    2.88    0.27 
  11   1  -6    3.79    0.31 
  11   0  -6    2.05    0.24 
  11  -1  -6    2.77    0.28 
  11  -2  -6    0.86    0.16 
  11  -3  -6    0.47    0.14 
  11  -4  -6    0.55    0.15 
  11  -5  -6    0.78    0.18 
 -11   5   6    0.61    0.17 
  12   4  -6    0.26    0.14 
  12   3  -6    0.75    0.16 
  12   3  -6    0.87    0.19 
  12   2  -6    0.38    0.13 
  12   2  -6    0.12    0.08 
  12   1  -6    0.29    0.10 
  12   0  -6    0.70    0.16 
  12  -1  -6    0.35    0.12 
  12  -2  -6    0.18    0.10 
  12  -3  -6    0.80    0.19 
  12  -4  -6    0.28    0.13 
  13   3  -6    0.07    0.13 
  13   2  -6    0.66    0.17 
  13   1  -6    0.12    0.10 
  13   0  -6    0.39    0.16 
  13  -1  -6    0.04    0.09 
  13  -2  -6    0.96    0.20 
  13  -3  -6    0.18    0.11 
  -7   2  -7    0.50    0.19 
  -7   1  -7   -0.05    0.12 
  -7   0  -7    0.08    0.12 
  -7  -1  -7    0.05    0.13 
  -7  -2  -7    0.18    0.17 
  -6   4  -7    0.11    0.12 
  -6   3  -7    0.05    0.12 
  -6   2  -7    0.17    0.13 
  -6   1  -7    0.06    0.12 
  -6   0  -7    1.85    0.28 
  -6  -1  -7    0.06    0.11 
  -6  -2  -7    0.39    0.16 
  -6  -3  -7    0.12    0.13 
  -6  -4  -7    0.10    0.15 
  -5   5  -7   -0.02    0.12 
  -5   4  -7    0.31    0.15 
  -5   3  -7   -0.01    0.10 
  -5   2  -7    0.28    0.12 
  -5   1  -7    0.10    0.09 
  -5   0  -7    3.55    0.36 
  -5  -1  -7   -0.01    0.10 
  -5  -2  -7    0.41    0.15 
  -5  -3  -7    0.11    0.12 
  -5  -4  -7    0.34    0.16 
  -5  -5  -7   -0.01    0.14 
  -4   6  -7    0.14    0.14 
  -4   5  -7    0.02    0.11 
  -4   4  -7    0.13    0.10 
  -4   3  -7    0.75    0.17 
  -4   2  -7   -0.04    0.07 
  -4   1  -7    0.58    0.15 
  -4   0  -7    2.86    0.30 
  -4  -1  -7    0.40    0.14 
  -4  -2  -7    0.08    0.09 
  -4  -3  -7    0.93    0.19 
  -4  -4  -7    0.09    0.11 
  -4  -5  -7   -0.01    0.11 
  -4  -6  -7   -0.10    0.14 
  -3   6  -7    0.29    0.13 
  -3   5  -7    0.66    0.16 
  -3   4  -7   -0.06    0.06 
  -3   3  -7    0.30    0.10 
  -3   2  -7    0.13    0.07 
  -3   1  -7    2.63    0.27 
  -3   0  -7    1.46    0.20 
  -3  -1  -7    2.75    0.28 
  -3  -2  -7    0.08    0.09 
  -3  -3  -7    0.32    0.13 
  -3  -4  -7    0.04    0.10 
  -3  -5  -7    0.85    0.20 
  -3  -6  -7    0.27    0.15 
  -2   7  -7    0.38    0.14 
  -2   5  -7    1.06    0.18 
  -2   4  -7    0.29    0.10 
  -2   3  -7    0.91    0.15 
  -2   2  -7    0.39    0.10 
  -2   1  -7    5.17    0.37 
  -2   0  -7    5.07    0.37 
  -2  -2  -7    0.57    0.12 
  -2  -3  -7    0.91    0.18 
  -2  -4  -7    0.12    0.09 
  -2  -5  -7    1.41    0.24 
  -2  -6  -7    0.32    0.15 
  -2  -7  -7    0.33    0.19 
  -2  -7  -7    0.31    0.19 
  -1   7  -7   -0.07    0.09 
  -1   6  -7    0.25    0.11 
  -1   5  -7    1.09    0.17 
  -1   4  -7    1.13    0.16 
  -1   3  -7    0.21    0.08 
  -1   2  -7    4.36    0.32 
  -1   1  -7    4.82    0.34 
  -1   0  -7    2.17    0.22 
  -1  -1  -7    3.93    0.27 
  -1  -1  -7    4.89    0.33 
  -1  -2  -7    4.80    0.28 
  -1  -2  -7    4.14    0.34 
  -1  -3  -7    0.23    0.09 
  -1  -4  -7    1.08    0.19 
  -1  -5  -7    0.81    0.20 
  -1  -6  -7    0.13    0.12 
  -1  -7  -7   -0.03    0.12 
   0   7  -7   -0.15    0.09 
   0   6  -7    0.11    0.07 
   0   5  -7    0.36    0.11 
   0   4  -7    0.81    0.13 
   0   3  -7    1.56    0.18 
   0   2  -7    1.71    0.18 
   0   1  -7    0.04    0.05 
   0   0  -7    1.48    0.17 
   0   0  -7    1.91    0.16 
   0  -1  -7    0.03    0.04 
   0  -1  -7   -0.01    0.04 
   0  -2  -7    2.17    0.16 
   0  -2  -7    1.76    0.20 
   0  -3  -7    1.58    0.20 
   0  -4  -7    0.63    0.13 
   0  -5  -7    0.20    0.10 
   0  -6  -7    0.18    0.13 
   0  -7  -7    0.08    0.16 
   1   8  -7    0.03    0.07 
   1   7  -7   -0.04    0.06 
   1   6  -7    0.03    0.07 
   1   6  -7    0.02    0.05 
   1   5  -7    0.96    0.14 
   1   4  -7    0.34    0.08 
   1   3  -7    0.11    0.06 
   1   3  -7    0.13    0.07 
   1   2  -7    0.82    0.12 
   1   2  -7    0.75    0.11 
   1   1  -7    4.56    0.31 
   1   1  -7    5.26    0.33 
   1   0  -7    2.18    0.19 
   1   0  -7    2.31    0.18 
   1  -1  -7    4.59    0.30 
   1  -1  -7    5.31    0.34 
   1  -2  -7    0.81    0.13 
   1  -2  -7    0.64    0.09 
   1  -3  -7    0.14    0.05 
   1  -3  -7    0.10    0.07 
   1  -4  -7    0.24    0.09 
   1  -5  -7    0.50    0.13 
   1  -6  -7   -0.07    0.07 
   1  -7  -7   -0.09    0.11 
   1  -8  -7    0.08    0.14 
   2   8  -7    0.02    0.07 
   2   7  -7    0.01    0.06 
   2   6  -7    0.15    0.07 
   2   5  -7    0.11    0.06 
   2   5  -7    0.09    0.05 
   2   4  -7    0.21    0.07 
   2   4  -7    0.29    0.08 
   2   3  -7    3.83    0.27 
   2   3  -7    3.82    0.27 
   2   2  -7    0.12    0.05 
   2   2  -7    0.07    0.05 
   2   1  -7    0.28    0.07 
   2   1  -7    0.27    0.08 
   2   0  -7    0.32    0.07 
   2   0  -7    0.28    0.07 
   2  -1  -7    0.23    0.06 
   2  -1  -7    0.19    0.07 
   2  -2  -7    0.01    0.04 
   2  -2  -7   -0.02    0.05 
   2  -3  -7    3.24    0.27 
   2  -3  -7    3.54    0.23 
   2  -4  -7    0.21    0.08 
   2  -5  -7    0.12    0.07 
   2  -6  -7    0.21    0.10 
   2  -7  -7   -0.10    0.11 
   2  -8  -7    0.06    0.14 
   3   8  -7    0.05    0.09 
   3   7  -7    0.54    0.12 
   3   6  -7    1.00    0.15 
   3   5  -7    1.23    0.16 
   3   4  -7    7.20    0.46 
   3   4  -7    7.20    0.43 
   3   3  -7   23.13    1.22 
   3   3  -7   22.39    1.19 
   3   2  -7   21.37    1.13 
   3   2  -7   21.06    1.11 
   3   1  -7   18.48    0.96 
   3   1  -7   17.70    0.97 
   3   0  -7   54.82    2.78 
   3   0  -7   55.56    2.81 
   3  -1  -7   17.96    0.95 
   3  -1  -7   17.83    0.97 
   3  -2  -7   19.64    1.05 
   3  -2  -7   20.20    1.09 
   3  -3  -7   21.57    1.19 
   3  -4  -7    7.25    0.42 
   3  -4  -7    6.80    0.47 
   3  -5  -7    1.69    0.22 
   3  -6  -7    1.23    0.21 
   3  -7  -7    0.51    0.16 
   3  -8  -7    0.01    0.13 
   4   7  -7    0.10    0.08 
   4   6  -7    0.06    0.06 
   4   5  -7    0.65    0.12 
   4   4  -7    0.45    0.10 
   4   3  -7    0.66    0.11 
   4   3  -7    0.79    0.09 
   4   2  -7    3.50    0.22 
   4   2  -7    3.19    0.24 
   4   1  -7    2.28    0.16 
   4   1  -7    1.79    0.17 
   4   0  -7    0.26    0.07 
   4   0  -7    0.17    0.06 
   4  -1  -7    2.23    0.18 
   4  -2  -7    3.22    0.23 
   4  -2  -7    2.90    0.23 
   4  -3  -7    0.70    0.12 
   4  -3  -7    0.75    0.11 
   4  -4  -7    0.00    0.04 
   4  -4  -7    0.39    0.10 
   4  -5  -7    0.82    0.16 
   4  -6  -7    0.01    0.08 
   4  -7  -7   -0.01    0.11 
   4  -8  -7   -0.01    0.12 
   5   8  -7    0.62    0.18 
   5   7  -7   -0.06    0.06 
   5   6  -7    0.79    0.14 
   5   5  -7    0.00    0.05 
   5   4  -7    3.04    0.24 
   5   3  -7    3.40    0.25 
   5   2  -7    9.42    0.55 
   5   1  -7    0.04    0.03 
   5   1  -7    0.00    0.04 
   5   0  -7    2.26    0.19 
   5   0  -7    2.48    0.17 
   5  -1  -7    0.04    0.05 
   5  -1  -7    0.01    0.04 
   5  -2  -7    8.76    0.53 
   5  -2  -7    9.25    0.54 
   5  -3  -7    3.26    0.25 
   5  -3  -7    3.73    0.28 
   5  -4  -7    3.07    0.26 
   5  -4  -7    3.04    0.23 
   5  -5  -7   -0.03    0.08 
   5  -5  -7   -0.05    0.05 
   5  -6  -7    0.68    0.16 
   5  -7  -7   -0.11    0.12 
   5  -8  -7    0.47    0.19 
   6   7  -7    0.06    0.12 
   6   6  -7    0.09    0.07 
   6   5  -7    0.45    0.10 
   6   4  -7    3.38    0.26 
   6   3  -7    5.76    0.38 
   6   2  -7   14.57    0.81 
   6   1  -7    1.67    0.17 
   6   0  -7    9.60    0.56 
   6  -1  -7    1.99    0.16 
   6  -1  -7    2.12    0.18 
   6  -2  -7   19.29    0.94 
   6  -2  -7   14.86    0.93 
   6  -3  -7    5.15    0.36 
   6  -3  -7    5.63    0.36 
   6  -4  -7    2.90    0.26 
   6  -4  -7    2.93    0.24 
   6  -5  -7    0.46    0.12 
   6  -5  -7    0.24    0.09 
   6  -6  -7    0.09    0.10 
   6  -7  -7    0.05    0.12 
   7   7  -7   -0.24    0.14 
   7   6  -7    0.18    0.13 
   7   6  -7   -0.01    0.06 
   7   5  -7    0.02    0.05 
   7   4  -7    0.03    0.04 
   7   3  -7    1.39    0.16 
   7   2  -7    0.16    0.07 
   7   1  -7    0.37    0.08 
   7   0  -7    6.30    0.41 
   7  -1  -7    0.19    0.07 
   7  -1  -7    0.33    0.07 
   7  -2  -7    0.23    0.08 
   7  -2  -7    0.42    0.09 
   7  -3  -7    1.30    0.16 
   7  -3  -7    1.24    0.16 
   7  -4  -7    0.02    0.06 
   7  -4  -7    0.01    0.05 
   7  -5  -7   -0.03    0.06 
   7  -5  -7   -0.03    0.06 
   7  -6  -7    0.06    0.07 
   7  -6  -7    0.03    0.09 
   7  -7  -7    0.19    0.15 
   8   7  -7    0.07    0.12 
   8   6  -7    0.32    0.17 
   8   5  -7    0.73    0.18 
   8   5  -7    1.11    0.15 
   8   4  -7    0.03    0.05 
   8   3  -7    1.46    0.17 
   8   2  -7    0.32    0.08 
   8   1  -7    4.27    0.31 
   8   0  -7    0.87    0.14 
   8  -1  -7    4.01    0.31 
   8  -2  -7    0.40    0.10 
   8  -2  -7    0.29    0.09 
   8  -3  -7    1.80    0.19 
   8  -3  -7    1.37    0.18 
   8  -4  -7    0.02    0.06 
   8  -4  -7    0.03    0.07 
   8  -5  -7    1.68    0.22 
   8  -5  -7    1.39    0.21 
   8  -6  -7    0.24    0.11 
   8  -6  -7    0.37    0.14 
   8  -7  -7    0.30    0.16 
   9   6  -7    0.01    0.11 
   9   5  -7    0.10    0.11 
   9   5  -7    0.27    0.08 
   9   4  -7    1.07    0.20 
   9   4  -7    1.35    0.17 
   9   3  -7    0.30    0.12 
   9   3  -7    0.39    0.10 
   9   2  -7    3.87    0.30 
   9   1  -7    1.29    0.17 
   9   0  -7    0.37    0.10 
   9  -1  -7    1.28    0.18 
   9  -2  -7    3.50    0.29 
   9  -3  -7    0.46    0.12 
   9  -3  -7    0.48    0.11 
   9  -4  -7    1.09    0.18 
   9  -4  -7    1.29    0.19 
   9  -5  -7    0.24    0.10 
   9  -5  -7    0.23    0.11 
   9  -6  -7   -0.03    0.11 
   9  -6  -7   -0.01    0.08 
  10   6  -7    0.18    0.17 
  10   5  -7    0.23    0.14 
  10   4  -7    0.12    0.11 
  10   4  -7    0.19    0.08 
  10   3  -7    0.56    0.12 
  10   3  -7    0.74    0.17 
  10   2  -7    0.45    0.15 
  10   2  -7    0.57    0.12 
  10   1  -7    1.27    0.18 
  10   0  -7    0.05    0.09 
  10   0  -7    0.27    0.08 
  10  -1  -7    1.25    0.18 
  10  -2  -7    0.68    0.14 
  10  -3  -7    0.69    0.15 
  10  -4  -7   -0.01    0.07 
  10  -5  -7    0.09    0.11 
  10  -5  -7    0.23    0.12 
  10  -6  -7   -0.03    0.13 
  10  -6  -7    0.05    0.11 
  11   5  -7    0.21    0.15 
  11   4  -7    1.35    0.22 
  11   4  -7    1.71    0.29 
  11   3  -7    0.00    0.06 
  11   3  -7   -0.05    0.09 
  11   2  -7    3.01    0.31 
  11   2  -7    2.27    0.25 
  11   1  -7    0.05    0.07 
  11   1  -7    0.19    0.10 
  11   0  -7    6.77    0.47 
  11  -1  -7    0.23    0.09 
  11  -2  -7    2.26    0.26 
  11  -4  -7    1.19    0.22 
  11  -5  -7    0.01    0.10 
  12   4  -7    0.04    0.12 
  12   3  -7    0.02    0.11 
  12   3  -7   -0.11    0.07 
  12   2  -7    0.94    0.19 
  12   2  -7    0.56    0.14 
  12   1  -7    0.22    0.10 
  12   0  -7    0.05    0.08 
  12  -1  -7    0.05    0.08 
  12  -2  -7    0.49    0.13 
  12  -3  -7   -0.05    0.07 
  12  -4  -7    0.14    0.12 
  13   3  -7    0.03    0.13 
  13   2  -7    0.11    0.09 
  13   1  -7    0.16    0.10 
  13   0  -7    0.74    0.17 
  13  -1  -7    0.16    0.10 
  13  -2  -7    0.01    0.09 
  13  -3  -7    0.18    0.11 
  -6   2  -8    0.53    0.17 
  -6   1  -8    0.23    0.16 
  -6   0  -8    0.11    0.13 
  -6  -1  -8    0.03    0.13 
  -6  -2  -8    0.18    0.16 
  -5   4  -8    0.51    0.17 
  -5   3  -8    0.14    0.13 
  -5   2  -8    0.34    0.15 
  -5   1  -8    0.94    0.20 
  -5   0  -8    0.04    0.11 
  -5  -1  -8    1.13    0.24 
  -5  -2  -8    0.50    0.18 
  -5  -3  -8    0.02    0.13 
  -5  -4  -8    0.39    0.20 
  -4   5  -8    0.02    0.12 
  -4   4  -8   -0.03    0.11 
  -4   3  -8    0.85    0.19 
  -4   2  -8   -0.15    0.10 
  -4   1  -8    0.01    0.09 
  -4   0  -8    0.06    0.07 
  -4  -1  -8   -0.02    0.08 
  -4  -2  -8    0.03    0.11 
  -4  -3  -8    1.02    0.23 
  -4  -4  -8   -0.04    0.12 
  -4  -5  -8   -0.11    0.13 
  -3   5  -8    0.39    0.15 
  -3   4  -8    0.34    0.13 
  -3   3  -8    0.06    0.08 
  -3   2  -8    0.96    0.19 
  -3   1  -8    1.07    0.19 
  -3   0  -8    3.35    0.31 
  -3  -1  -8    1.23    0.21 
  -3  -2  -8    0.92    0.17 
  -3  -3  -8    0.00    0.10 
  -3  -4  -8    0.32    0.15 
  -3  -5  -8    0.10    0.14 
  -2   6  -8    0.76    0.19 
  -2   5  -8    0.84    0.18 
  -2   4  -8    0.46    0.13 
  -2   3  -8    0.07    0.07 
  -2   2  -8    0.36    0.10 
  -2   1  -8    1.14    0.18 
  -2   0  -8    3.03    0.27 
  -2  -1  -8    0.39    0.09 
  -2  -1  -8    0.96    0.17 
  -2  -2  -8    0.60    0.14 
  -2  -3  -8    0.01    0.07 
  -2  -4  -8    0.49    0.16 
  -2  -5  -8    0.89    0.21 
  -2  -6  -8    0.38    0.18 
  -1   6  -8    0.17    0.11 
  -1   5  -8    3.75    0.32 
  -1   4  -8    0.11    0.08 
  -1   3  -8   15.09    0.89 
  -1   2  -8    0.05    0.06 
  -1   1  -8   17.54    1.00 
  -1   0  -8    2.43    0.25 
  -1  -1  -8   19.05    1.05 
  -1  -1  -8   17.25    0.96 
  -1  -2  -8    0.08    0.07 
  -1  -3  -8   16.18    0.97 
  -1  -4  -8    0.06    0.08 
  -1  -5  -8    3.34    0.36 
  -1  -5  -8    3.34    0.36 
  -1  -6  -8    0.17    0.14 
   0   6  -8    0.08    0.09 
   0   5  -8    2.59    0.26 
   0   4  -8    0.40    0.11 
   0   3  -8    2.88    0.25 
   0   2  -8    2.59    0.23 
   0   1  -8    7.22    0.47 
   0   0  -8   -0.06    0.05 
   0   0  -8   -0.02    0.04 
   0  -1  -8    7.47    0.44 
   0  -1  -8    7.47    0.49 
   0  -2  -8    2.29    0.18 
   0  -2  -8    2.79    0.25 
   0  -3  -8    2.91    0.27 
   0  -4  -8    0.37    0.12 
   0  -5  -8    2.47    0.30 
   0  -6  -8    0.01    0.11 
   0  -7  -8    0.36    0.17 
   1   6  -8   -0.01    0.06 
   1   5  -8    0.57    0.12 
   1   5  -8    0.52    0.12 
   1   4  -8    0.26    0.08 
   1   4  -8    0.30    0.09 
   1   3  -8    1.68    0.18 
   1   3  -8    1.49    0.17 
   1   3  -8    1.49    0.17 
   1   2  -8    1.02    0.14 
   1   1  -8    1.15    0.14 
   1   1  -8    1.23    0.15 
   1   0  -8    1.35    0.15 
   1   0  -8    1.40    0.16 
   1  -1  -8    1.18    0.16 
   1  -1  -8    1.04    0.12 
   1  -2  -8    1.14    0.12 
   1  -2  -8    1.22    0.17 
   1  -3  -8    1.65    0.21 
   1  -4  -8    0.23    0.09 
   1  -5  -8    0.49    0.14 
   1  -6  -8   -0.13    0.09 
   1  -7  -8    0.12    0.16 
   2   7  -8    0.31    0.11 
   2   6  -8    0.73    0.15 
   2   5  -8    1.33    0.18 
   2   4  -8    0.01    0.05 
   2   4  -8    0.04    0.05 
   2   3  -8    3.71    0.28 
   2   3  -8    3.60    0.27 
   2   2  -8    0.59    0.10 
   2   2  -8    0.43    0.10 
   2   1  -8    5.51    0.36 
   2   1  -8    5.45    0.35 
   2   0  -8    1.86    0.18 
   2   0  -8    1.78    0.16 
   2  -1  -8    5.23    0.37 
   2  -1  -8    5.75    0.35 
   2  -2  -8    0.70    0.10 
   2  -2  -8    0.52    0.12 
   2  -3  -8    3.79    0.25 
   2  -3  -8    3.31    0.29 
   2  -4  -8    0.07    0.06 
   2  -5  -8    1.29    0.20 
   2  -6  -8    1.15    0.23 
   2  -7  -8    0.29    0.15 
   3   7  -8    0.23    0.10 
   3   6  -8    3.07    0.27 
   3   5  -8    0.46    0.11 
   3   4  -8   13.94    0.81 
   3   3  -8    0.46    0.10 
   3   3  -8    0.42    0.09 
   3   2  -8   26.96    1.42 
   3   2  -8   27.25    1.43 
   3   1  -8    2.33    0.20 
   3   1  -8    2.38    0.19 
   3   0  -8   11.01    0.62 
   3   0  -8   11.00    0.63 
   3  -1  -8    2.08    0.18 
   3  -1  -8    2.12    0.20 
   3  -2  -8   26.97    1.48 
   3  -2  -8   27.97    1.43 
   3  -3  -8    0.31    0.08 
   3  -3  -8    0.40    0.10 
   3  -5  -8    0.62    0.15 
   3  -6  -8    3.06    0.34 
   3  -7  -8    0.11    0.14 
   4   7  -8    1.48    0.21 
   4   6  -8    5.23    0.39 
   4   5  -8    3.35    0.28 
   4   4  -8    6.06    0.41 
   4   3  -8   13.93    0.79 
   4   2  -8    8.04    0.45 
   4   2  -8    7.70    0.48 
   4   1  -8   14.79    0.82 
   4   1  -8   15.06    0.81 
   4   0  -8   28.14    1.50 
   4   0  -8   29.32    1.50 
   4  -1  -8   15.20    0.83 
   4  -1  -8   14.88    0.84 
   4  -2  -8    7.41    0.46 
   4  -2  -8    6.78    0.43 
   4  -3  -8   13.07    0.72 
   4  -3  -8   12.63    0.75 
   4  -4  -8    3.89    0.29 
   4  -4  -8    5.19    0.36 
   4  -5  -8    3.04    0.31 
   4  -6  -8    4.79    0.41 
   5   7  -8    0.04    0.10 
   5   6  -8    1.76    0.22 
   5   5  -8    0.29    0.10 
   5   4  -8    8.89    0.55 
   5   3  -8    5.44    0.37 
   5   2  -8   15.98    0.89 
   5   1  -8    4.75    0.33 
   5   1  -8    4.97    0.29 
   5   0  -8    6.81    0.43 
   5  -1  -8    4.06    0.30 
   5  -1  -8    4.71    0.30 
   5  -2  -8   15.00    0.84 
   5  -2  -8   14.88    0.83 
   5  -3  -8    4.97    0.36 
   5  -4  -8    7.41    0.47 
   5  -4  -8    7.87    0.52 
   5  -5  -8    0.17    0.10 
   5  -6  -8    1.38    0.23 
   5  -7  -8    0.08    0.14 
   6   7  -8    0.12    0.11 
   6   6  -8    0.22    0.09 
   6   5  -8    0.79    0.14 
   6   4  -8    0.02    0.06 
   6   3  -8    0.07    0.05 
   6   2  -8    0.63    0.11 
   6   1  -8    1.17    0.15 
   6   0  -8    0.04    0.05 
   6  -1  -8    1.17    0.15 
   6  -1  -8    1.56    0.15 
   6  -2  -8    0.69    0.12 
   6  -2  -8    0.68    0.12 
   6  -3  -8    0.00    0.05 
   6  -3  -8    0.08    0.06 
   6  -4  -8    0.11    0.07 
   6  -4  -8    0.01    0.08 
   6  -5  -8    0.60    0.12 
   6  -5  -8    0.59    0.14 
   6  -6  -8    0.27    0.13 
   6  -7  -8    0.05    0.13 
   7   7  -8    0.40    0.17 
   7   6  -8    0.33    0.11 
   7   5  -8    0.20    0.07 
   7   4  -8    0.71    0.13 
   7   3  -8    1.89    0.20 
   7   2  -8    1.94    0.20 
   7   1  -8    0.00    0.03 
   7   0  -8    5.72    0.38 
   7  -1  -8   -0.03    0.04 
   7  -2  -8    1.98    0.20 
   7  -2  -8    2.81    0.23 
   7  -3  -8    1.88    0.20 
   7  -3  -8    2.22    0.21 
   7  -4  -8    0.53    0.12 
   7  -4  -8    0.57    0.12 
   7  -5  -8    0.15    0.10 
   7  -5  -8    0.12    0.08 
   7  -6  -8    0.35    0.14 
   7  -7  -8    0.45    0.17 
   8   6  -8    1.47    0.26 
   8   6  -8    1.36    0.20 
   8   5  -8    0.02    0.06 
   8   4  -8    1.49    0.19 
   8   3  -8    2.22    0.22 
   8   2  -8    1.66    0.18 
   8   1  -8    0.57    0.11 
   8   0  -8    3.21    0.27 
   8  -1  -8    0.61    0.12 
   8  -2  -8    1.74    0.20 
   8  -3  -8    1.65    0.20 
   8  -3  -8    2.07    0.20 
   8  -4  -8    1.30    0.18 
   8  -4  -8    1.12    0.17 
   8  -5  -8    0.17    0.09 
   8  -5  -8    0.01    0.10 
   8  -6  -8    1.39    0.24 
   8  -7  -8   -0.05    0.12 
   9   6  -8   -0.28    0.14 
   9   5  -8    0.10    0.11 
   9   5  -8    0.10    0.07 
   9   4  -8    0.05    0.06 
   9   3  -8    0.47    0.11 
   9   2  -8    0.85    0.14 
   9   1  -8    0.06    0.06 
   9  -1  -8    0.27    0.10 
   9  -2  -8    0.85    0.16 
   9  -3  -8    0.60    0.13 
   9  -4  -8    0.07    0.08 
   9  -4  -8    0.17    0.09 
   9  -5  -8    0.05    0.08 
   9  -5  -8    0.03    0.10 
   9  -6  -8    0.16    0.11 
   9  -6  -8   -0.06    0.12 
  10   6  -8    0.03    0.11 
  10   5  -8    0.40    0.11 
  10   5  -8    0.46    0.16 
  10   4  -8    0.10    0.10 
  10   4  -8   -0.03    0.06 
  10   3  -8    0.00    0.09 
  10   3  -8    0.06    0.06 
  10   2  -8    0.12    0.07 
  10   1  -8    0.76    0.14 
  10   0  -8    0.05    0.05 
  10  -1  -8    0.64    0.14 
  10  -2  -8    0.03    0.07 
  10  -3  -8   -0.03    0.07 
  10  -4  -8   -0.10    0.08 
  10  -4  -8   -0.10    0.08 
  10  -5  -8    0.55    0.16 
  10  -6  -8    0.12    0.13 
  11   5  -8    0.47    0.16 
  11   4  -8    0.05    0.11 
  11   4  -8   -0.02    0.08 
  11   3  -8    0.22    0.12 
  11   3  -8    0.27    0.10 
  11   2  -8    0.22    0.11 
  11   1  -8    2.22    0.25 
  11   1  -8    2.16    0.25 
  11   0  -8    0.12    0.07 
  11  -1  -8    1.93    0.24 
  11  -2  -8    0.17    0.11 
  11  -3  -8    0.06    0.10 
  11  -4  -8    0.03    0.09 
  11  -5  -8    0.55    0.15 
  12   4  -8    0.12    0.11 
  12   3  -8    0.34    0.17 
  12   3  -8    0.33    0.17 
  12   3  -8    0.32    0.12 
  12   2  -8    0.18    0.09 
  12   2  -8    0.08    0.12 
  12   1  -8    0.08    0.08 
  12   0  -8    0.46    0.14 
  12  -1  -8    0.02    0.07 
  12  -2  -8    0.10    0.10 
  12  -3  -8    0.07    0.13 
  12  -4  -8   -0.02    0.15 
  13   2  -8    0.10    0.10 
  13   1  -8    2.66    0.30 
  13   0  -8    0.29    0.13 
  13  -1  -8    2.74    0.32 
  13  -2  -8    0.08    0.10 
  -5   2  -9    2.24    0.33 
  -5   1  -9    0.88    0.22 
  -5   0  -9    1.24    0.25 
  -5  -1  -9    0.39    0.18 
  -5  -2  -9    2.51    0.35 
  -4   4  -9   -0.04    0.11 
  -4   3  -9    0.37    0.15 
  -4   2  -9    0.01    0.11 
  -4   1  -9    0.45    0.16 
  -4   0  -9    0.39    0.15 
  -4  -1  -9    0.47    0.16 
  -4  -2  -9    0.05    0.11 
  -4  -3  -9    0.88    0.22 
  -4  -4  -9    0.01    0.13 
  -3   4  -9    0.09    0.12 
  -3   3  -9   -0.04    0.10 
  -3   2  -9   -0.02    0.09 
  -3   1  -9    0.58    0.16 
  -3   0  -9    1.03    0.20 
  -3  -1  -9    0.30    0.13 
  -3  -2  -9    0.08    0.10 
  -3  -3  -9    0.14    0.13 
  -3  -4  -9    0.00    0.13 
  -2   5  -9    0.23    0.13 
  -2   4  -9    0.05    0.10 
  -2   3  -9    1.63    0.24 
  -2   2  -9    0.70    0.16 
  -2   1  -9    0.91    0.17 
  -2   0  -9    0.02    0.07 
  -2   0  -9   -0.04    0.06 
  -2  -1  -9    0.98    0.19 
  -2  -2  -9    0.62    0.15 
  -2  -3  -9    1.62    0.26 
  -2  -4  -9    0.11    0.12 
  -2  -5  -9    0.21    0.15 
  -1   6  -9    0.79    0.19 
  -1   5  -9    4.18    0.37 
  -1   4  -9    0.26    0.11 
  -1   3  -9    6.31    0.46 
  -1   2  -9    0.07    0.07 
  -1   1  -9   15.29    0.86 
  -1   1  -9   15.03    0.90 
  -1   0  -9    1.39    0.21 
  -1   0  -9    1.91    0.19 
  -1  -1  -9   15.49    0.97 
  -1  -1  -9   17.26    0.91 
  -1  -2  -9    0.15    0.09 
  -1  -3  -9    5.79    0.45 
  -1  -4  -9    0.42    0.15 
  -1  -5  -9    4.52    0.44 
  -1  -6  -9    0.23    0.18 
   0   6  -9    0.69    0.15 
   0   5  -9    2.26    0.25 
   0   5  -9    1.32    0.21 
   0   4  -9    4.03    0.33 
   0   3  -9   13.69    0.82 
   0   3  -9   14.49    0.85 
   0   2  -9    9.19    0.51 
   0   2  -9    6.44    0.49 
   0   1  -9   13.74    0.82 
   0   1  -9   13.53    0.78 
   0   0  -9    3.64    0.28 
   0   0  -9    4.02    0.32 
   0  -1  -9   12.59    0.78 
   0  -1  -9   13.01    0.72 
   0  -2  -9    5.78    0.43 
   0  -3  -9   14.14    0.87 
   0  -4  -9    3.92    0.35 
   0  -5  -9    2.42    0.32 
   0  -6  -9    0.83    0.21 
   1   6  -9    0.10    0.08 
   1   5  -9    0.00    0.07 
   1   5  -9    0.26    0.10 
   1   4  -9    0.06    0.07 
   1   4  -9    0.13    0.09 
   1   3  -9    0.84    0.15 
   1   3  -9    0.98    0.15 
   1   2  -9    0.44    0.11 
   1   2  -9    0.29    0.10 
   1   1  -9    0.17    0.07 
   1   1  -9    0.12    0.07 
   1   0  -9    1.03    0.14 
   1   0  -9    0.95    0.15 
   1  -1  -9    0.20    0.08 
   1  -1  -9    0.22    0.07 
   1  -2  -9    0.28    0.08 
   1  -2  -9    0.30    0.10 
   1  -3  -9    0.79    0.17 
   1  -4  -9   -0.02    0.06 
   1  -5  -9    0.01    0.10 
   1  -6  -9    0.09    0.12 
   2   7  -9    0.05    0.08 
   2   6  -9    1.06    0.18 
   2   5  -9    0.04    0.06 
   2   4  -9    3.31    0.27 
   2   4  -9    3.67    0.29 
   2   3  -9    4.22    0.32 
   2   3  -9    4.08    0.31 
   2   2  -9    7.04    0.45 
   2   2  -9    6.76    0.44 
   2   1  -9    0.63    0.12 
   2   1  -9    0.76    0.13 
   2   0  -9    7.83    0.48 
   2   0  -9    8.10    0.50 
   2  -1  -9    0.82    0.14 
   2  -1  -9    0.79    0.12 
   2  -2  -9    6.91    0.47 
   2  -2  -9    6.74    0.42 
   2  -3  -9    3.36    0.29 
   2  -4  -9    3.21    0.29 
   2  -5  -9    0.05    0.09 
   2  -6  -9    1.15    0.23 
   2  -7  -9    0.18    0.14 
   3   7  -9    2.57    0.30 
   3   6  -9    4.53    0.37 
   3   5  -9   13.00    0.78 
   3   4  -9   14.00    0.82 
   3   3  -9   20.30    1.12 
   3   2  -9   26.30    1.38 
   3   2  -9   25.32    1.38 
   3   1  -9   62.24    3.25 
   3   1  -9   65.98    3.29 
   3   0  -9   41.93    2.17 
   3   0  -9   41.31    2.14 
   3  -1  -9   61.93    3.12 
   3  -1  -9   61.37    3.18 
   3  -2  -9   26.22    1.36 
   3  -2  -9   25.47    1.41 
   3  -3  -9   10.44    0.60 
   3  -4  -9   12.69    0.78 
   3  -5  -9   12.38    0.79 
   3  -6  -9    4.57    0.41 
   3  -7  -9    2.18    0.33 
   4   7  -9    6.88    0.50 
   4   6  -9    4.13    0.35 
   4   5  -9   22.71    1.26 
   4   4  -9   16.14    0.92 
   4   3  -9   93.10    4.69 
   4   2  -9   37.87    1.97 
   4   1  -9  113.77    5.79 
   4   1  -9  118.05    5.84 
   4   0  -9   34.77    1.84 
   4   0  -9   35.51    1.83 
   4  -1  -9  117.16    5.88 
   4  -1  -9  115.27    5.80 
   4  -2  -9   37.21    1.91 
   4  -2  -9   36.53    1.95 
   4  -3  -9   90.62    4.55 
   4  -3  -9   90.94    4.65 
   4  -4  -9   13.77    0.83 
   4  -5  -9   21.95    1.27 
   4  -6  -9    4.08    0.41 
   5   7  -9    1.49    0.23 
   5   6  -9   -0.07    0.07 
   5   5  -9    5.62    0.41 
   5   4  -9    0.09    0.06 
   5   3  -9    5.59    0.39 
   5   2  -9   -0.08    0.06 
   5   1  -9   22.43    1.21 
   5   0  -9    1.26    0.16 
   5   0  -9    1.35    0.15 
   5  -1  -9   22.56    1.20 
   5  -1  -9   21.93    1.20 
   5  -2  -9    0.11    0.07 
   5  -2  -9    0.13    0.07 
   5  -3  -9    5.47    0.40 
   5  -3  -9    6.12    0.39 
   5  -4  -9    0.13    0.07 
   5  -4  -9   -0.01    0.07 
   5  -5  -9    5.74    0.45 
   5  -6  -9    0.08    0.10 
   5  -7  -9    1.16    0.24 
   6   7  -9    0.73    0.18 
   6   6  -9    0.05    0.08 
   6   5  -9    2.38    0.26 
   6   4  -9    0.19    0.09 
   6   3  -9    1.27    0.17 
   6   2  -9    1.52    0.18 
   6   1  -9    6.30    0.42 
   6   0  -9    0.01    0.06 
   6  -1  -9    7.26    0.43 
   6  -1  -9    6.41    0.44 
   6  -2  -9    1.38    0.17 
   6  -2  -9    1.42    0.17 
   6  -3  -9    1.70    0.19 
   6  -3  -9    1.45    0.19 
   6  -4  -9    0.29    0.09 
   6  -4  -9    0.33    0.10 
   6  -5  -9    2.64    0.28 
   6  -5  -9    2.65    0.28 
   6  -6  -9    0.07    0.11 
   6  -7  -9    0.78    0.20 
   7   6  -9    1.73    0.23 
   7   5  -9   -0.10    0.06 
   7   4  -9    3.47    0.29 
   7   3  -9    0.24    0.08 
   7   2  -9    4.38    0.32 
   7   1  -9    0.31    0.10 
   7   0  -9   14.14    0.81 
   7  -1  -9    0.30    0.09 
   7  -2  -9    4.32    0.31 
   7  -2  -9    4.79    0.34 
   7  -3  -9    0.30    0.09 
   7  -3  -9    0.24    0.09 
   7  -4  -9    3.14    0.28 
   7  -4  -9    2.92    0.26 
   7  -5  -9   -0.05    0.07 
   7  -6  -9    1.71    0.26 
   8   6  -9    1.65    0.23 
   8   5  -9    0.26    0.10 
   8   4  -9    6.89    0.47 
   8   3  -9   -0.09    0.04 
   8   2  -9   14.48    0.84 
   8   1  -9    0.15    0.06 
   8   0  -9    8.26    0.53 
   8  -1  -9    0.09    0.07 
   8  -2  -9   14.48    0.85 
   8  -3  -9    0.00    0.07 
   8  -3  -9    0.03    0.07 
   8  -4  -9    6.63    0.46 
   8  -4  -9    6.62    0.47 
   8  -5  -9    0.26    0.12 
   8  -5  -9    0.17    0.09 
   8  -6  -9    1.55    0.26 
   9   6  -9    0.96    0.22 
   9   6  -9    0.86    0.18 
   9   5  -9    0.34    0.11 
   9   4  -9    2.01    0.23 
   9   3  -9    0.37    0.10 
   9   2  -9    2.43    0.24 
   9   1  -9    1.62    0.20 
   9   0  -9    8.61    0.56 
   9  -1  -9    1.80    0.22 
   9  -1  -9    1.80    0.22 
   9  -2  -9    2.23    0.24 
   9  -3  -9    0.53    0.13 
   9  -4  -9    1.73    0.22 
   9  -5  -9    0.24    0.11 
   9  -5  -9    0.20    0.13 
   9  -6  -9    1.24    0.24 
  10   5  -9    0.05    0.12 
  10   5  -9   -0.06    0.07 
  10   4  -9    0.03    0.07 
  10   3  -9   -0.04    0.06 
  10   2  -9    0.14    0.08 
  10   1  -9    0.20    0.08 
  10   0  -9    0.17    0.09 
  10  -1  -9    0.07    0.08 
  10  -2  -9    0.12    0.08 
  10  -3  -9    0.14    0.09 
  10  -4  -9   -0.08    0.07 
  10  -5  -9    0.08    0.09 
  11   4  -9    0.67    0.20 
  11   4  -9    0.63    0.15 
  11   3  -9   -0.03    0.08 
  11   3  -9    0.32    0.12 
  11   2  -9    1.40    0.22 
  11   1  -9    0.03    0.10 
  11   0  -9    4.33    0.36 
  11  -1  -9    0.01    0.09 
  11  -2  -9    1.22    0.20 
  11  -3  -9   -0.01    0.08 
  11  -4  -9    0.45    0.14 
  12   3  -9    3.13    0.35 
  12   3  -9    3.89    0.37 
  12   2  -9    0.22    0.11 
  12   2  -9    0.30    0.13 
  12   1  -9    5.91    0.45 
  12   0  -9    0.86    0.18 
  12  -1  -9    6.07    0.47 
  12  -2  -9    0.23    0.12 
  13   2  -9    0.78    0.18 
  13   1  -9    3.32    0.34 
  13   0  -9    0.21    0.11 
  13  -1  -9    2.69    0.32 
  13  -2  -9    0.67    0.18 
  -4   1 -10    0.11    0.12 
  -4   0 -10    0.19    0.15 
  -4  -1 -10   -0.16    0.11 
  -3   3 -10    0.04    0.11 
  -3   2 -10    0.03    0.13 
  -3   1 -10    0.25    0.14 
  -3   1 -10    0.29    0.11 
  -3   0 -10    0.03    0.11 
  -3  -1 -10    0.18    0.13 
  -3  -2 -10    0.22    0.14 
  -3  -3 -10    0.11    0.13 
  -2   4 -10   -0.01    0.13 
  -2   3 -10    0.03    0.11 
  -2   2 -10   -0.06    0.08 
  -2   2 -10    0.05    0.09 
  -2   1 -10    0.40    0.13 
  -2   1 -10    0.09    0.10 
  -2   0 -10    0.04    0.10 
  -2  -1 -10    0.33    0.14 
  -2  -2 -10    0.01    0.10 
  -2  -3 -10    0.10    0.12 
  -2  -4 -10   -0.14    0.12 
  -1   5 -10    0.57    0.18 
  -1   5 -10    0.34    0.13 
  -1   4 -10   -0.08    0.07 
  -1   4 -10    0.10    0.11 
  -1   3 -10    0.05    0.08 
  -1   3 -10    0.18    0.10 
  -1   2 -10   -0.09    0.08 
  -1   2 -10   -0.05    0.07 
  -1   1 -10    0.87    0.15 
  -1   1 -10    0.64    0.16 
  -1   0 -10    0.82    0.18 
  -1   0 -10    0.99    0.15 
  -1  -1 -10    0.88    0.19 
  -1  -2 -10    0.10    0.11 
  -1  -3 -10    0.05    0.10 
  -1  -4 -10    0.03    0.11 
  -1  -5 -10    0.51    0.19 
   0   5 -10    0.03    0.11 
   0   5 -10   -0.02    0.10 
   0   4 -10    0.15    0.10 
   0   3 -10    0.37    0.12 
   0   3 -10    0.43    0.12 
   0   2 -10    0.76    0.15 
   0   2 -10    1.02    0.18 
   0   1 -10    0.09    0.07 
   0   1 -10    0.01    0.07 
   0   0 -10    0.07    0.07 
   0   0 -10    0.00    0.06 
   0  -1 -10    0.00    0.06 
   0  -1 -10    0.10    0.08 
   0  -2 -10    0.86    0.17 
   0  -3 -10    0.45    0.14 
   0  -4 -10    0.11    0.11 
   0  -5 -10    0.03    0.13 
   1   6 -10    0.31    0.12 
   1   5 -10    0.18    0.10 
   1   4 -10    0.01    0.08 
   1   4 -10    0.08    0.08 
   1   3 -10    1.73    0.22 
   1   3 -10    1.89    0.22 
   1   2 -10    0.03    0.06 
   1   2 -10    0.06    0.07 
   1   1 -10    1.92    0.21 
   1   1 -10    1.79    0.22 
   1   0 -10    1.92    0.20 
   1   0 -10    2.30    0.25 
   1  -1 -10    2.30    0.25 
   1  -1 -10    1.83    0.19 
   1  -2 -10    0.11    0.07 
   1  -3 -10    1.93    0.25 
   1  -4 -10   -0.04    0.09 
   1  -5 -10    0.09    0.12 
   1  -6 -10    0.22    0.13 
   2   6 -10    0.08    0.09 
   2   5 -10    0.04    0.07 
   2   4 -10    0.33    0.11 
   2   3 -10    0.54    0.13 
   2   3 -10    0.52    0.12 
   2   2 -10    0.90    0.15 
   2   2 -10    0.96    0.15 
   2   1 -10    1.36    0.17 
   2   1 -10    1.24    0.17 
   2   0 -10    0.33    0.09 
   2   0 -10    0.19    0.08 
   2  -1 -10    1.49    0.17 
   2  -1 -10    1.62    0.20 
   2  -2 -10    1.18    0.18 
   2  -2 -10    0.78    0.13 
   2  -3 -10    0.33    0.11 
   2  -4 -10    0.23    0.11 
   2  -5 -10    0.03    0.11 
   2  -6 -10    0.01    0.11 
   3   6 -10    0.39    0.13 
   3   5 -10    2.43    0.27 
   3   4 -10    0.20    0.08 
   3   3 -10    4.69    0.36 
   3   2 -10    0.06    0.07 
   3   2 -10    0.07    0.07 
   3   1 -10    5.96    0.40 
   3   1 -10    5.63    0.39 
   3   0 -10    3.97    0.28 
   3   0 -10    3.22    0.28 
   3  -1 -10    6.16    0.42 
   3  -1 -10    6.08    0.40 
   3  -2 -10    0.20    0.08 
   3  -2 -10    0.06    0.06 
   3  -3 -10    6.57    0.47 
   3  -4 -10    0.19    0.09 
   3  -5 -10    3.01    0.33 
   3  -6 -10    0.49    0.18 
   4   6 -10    0.12    0.11 
   4   5 -10    3.29    0.30 
   4   4 -10    0.26    0.10 
   4   3 -10    4.12    0.32 
   4   2 -10    0.66    0.13 
   4   1 -10    8.90    0.56 
   4   1 -10    9.13    0.55 
   4   0 -10    0.42    0.10 
   4   0 -10    0.25    0.08 
   4  -1 -10    8.72    0.54 
   4  -1 -10    8.87    0.55 
   4  -2 -10    0.68    0.12 
   4  -2 -10    0.63    0.13 
   4  -3 -10    4.39    0.31 
   4  -3 -10    4.05    0.33 
   4  -4 -10    0.17    0.09 
   4  -5 -10    4.21    0.38 
   4  -6 -10    0.07    0.12 
   5   6 -10    0.12    0.11 
   5   5 -10    0.01    0.08 
   5   4 -10    1.33    0.19 
   5   3 -10   -0.03    0.04 
   5   2 -10    2.75    0.25 
   5   1 -10    0.90    0.15 
   5   0 -10    0.28    0.10 
   5  -1 -10    1.01    0.15 
   5  -2 -10    2.49    0.23 
   5  -2 -10    3.04    0.25 
   5  -3 -10   -0.04    0.08 
   5  -3 -10    0.02    0.06 
   5  -5 -10    0.01    0.09 
   5  -6 -10   -0.09    0.11 
   6   6 -10    0.69    0.17 
   6   5 -10    1.59    0.22 
   6   4 -10    0.50    0.12 
   6   3 -10    7.49    0.50 
   6   2 -10    0.70    0.14 
   6   1 -10    7.71    0.50 
   6   0 -10    3.81    0.30 
   6  -1 -10    7.63    0.49 
   6  -2 -10    1.11    0.15 
   6  -2 -10    1.00    0.15 
   6  -3 -10    8.11    0.53 
   6  -3 -10    8.21    0.52 
   6  -4 -10    0.46    0.13 
   6  -4 -10    0.66    0.13 
   6  -5 -10    1.19    0.21 
   6  -6 -10    0.87    0.21 
   7   6 -10    1.55    0.24 
   7   5 -10    0.63    0.15 
   7   4 -10    1.92    0.23 
   7   3 -10    0.04    0.06 
   7   2 -10    4.41    0.34 
   7   1 -10    2.00    0.22 
   7   0 -10   10.28    0.63 
   7  -1 -10    1.74    0.20 
   7  -2 -10    4.81    0.36 
   7  -3 -10    0.03    0.07 
   7  -3 -10    0.06    0.07 
   7  -4 -10    3.19    0.28 
   7  -4 -10    2.27    0.24 
   7  -5 -10    0.55    0.16 
   7  -6 -10    1.70    0.27 
   8   6 -10    0.33    0.13 
   8   5 -10    0.86    0.18 
   8   4 -10    1.78    0.23 
   8   3 -10    0.61    0.13 
   8   2 -10    3.65    0.30 
   8   1 -10    3.71    0.30 
   8   0 -10    2.14    0.23 
   8  -1 -10    3.30    0.28 
   8  -2 -10    3.42    0.29 
   8  -3 -10    0.62    0.14 
   8  -4 -10    2.16    0.24 
   8  -4 -10    2.00    0.24 
   8  -5 -10    1.00    0.20 
   8  -6 -10    0.06    0.14 
   9   5 -10   -0.05    0.08 
   9   4 -10   -0.02    0.07 
   9   3 -10    1.02    0.17 
   9   2 -10    0.04    0.06 
   9   1 -10    0.06    0.06 
   9   0 -10    0.22    0.09 
   9  -1 -10    0.24    0.10 
   9  -2 -10    0.06    0.07 
   9  -3 -10    1.52    0.21 
   9  -4 -10   -0.05    0.07 
   9  -5 -10    0.05    0.09 
  10   5 -10    0.31    0.13 
  10   4 -10    0.03    0.08 
  10   3 -10    0.04    0.07 
  10   2 -10    0.13    0.07 
  10   1 -10    0.09    0.07 
  10   0 -10    0.06    0.08 
  10  -1 -10    0.12    0.09 
  10  -2 -10    0.10    0.08 
  10  -3 -10    0.08    0.10 
  10  -4 -10    0.06    0.09 
  10  -5 -10    0.18    0.12 
  11   4 -10    0.14    0.10 
  11   4 -10    0.37    0.16 
  11   3 -10    0.24    0.11 
  11   2 -10    0.03    0.08 
  11   0 -10    0.27    0.11 
  11  -1 -10    2.20    0.27 
  11  -2 -10    0.17    0.12 
  11  -3 -10    0.34    0.13 
  11  -4 -10    0.31    0.13 
  12   3 -10    0.20    0.10 
  12   3 -10    0.02    0.12 
  12   2 -10    0.46    0.16 
  12   2 -10    0.41    0.14 
  12   1 -10    0.61    0.16 
  12   0 -10    0.09    0.09 
  12  -1 -10    0.65    0.17 
  12  -2 -10    0.35    0.13 
  12  -3 -10    0.14    0.11 
  13   1 -10    1.07    0.21 
  13   0 -10    2.25    0.29 
  13  -1 -10    1.20    0.22 
  -2   2 -11    0.10    0.12 
  -2   2 -11    0.40    0.13 
  -2   1 -11    0.22    0.12 
  -2   1 -11    0.15    0.14 
  -2   0 -11    1.67    0.29 
  -2  -1 -11    0.09    0.13 
  -2  -2 -11    0.36    0.17 
  -1   4 -11    0.03    0.12 
  -1   3 -11    0.02    0.08 
  -1   3 -11   -0.06    0.09 
  -1   2 -11    0.06    0.09 
  -1   2 -11    0.07    0.12 
  -1   1 -11    0.15    0.11 
  -1   1 -11    0.07    0.09 
  -1   0 -11    0.04    0.10 
  -1  -1 -11    0.18    0.14 
  -1  -2 -11    0.25    0.15 
  -1  -3 -11   -0.11    0.11 
  -1  -4 -11   -0.05    0.11 
   0   4 -11    0.45    0.16 
   0   4 -11    0.21    0.12 
   0   3 -11    0.01    0.09 
   0   3 -11    0.20    0.10 
   0   2 -11    0.63    0.14 
   0   2 -11    0.99    0.19 
   0   1 -11    0.80    0.17 
   0   1 -11    0.68    0.15 
   0   0 -11    0.48    0.12 
   0   0 -11    0.20    0.11 
   0  -1 -11    0.56    0.15 
   0  -2 -11    0.88    0.20 
   0  -3 -11    0.04    0.11 
   0  -4 -11    0.30    0.15 
   1   5 -11    0.26    0.13 
   1   4 -11    0.09    0.10 
   1   3 -11   -0.01    0.06 
   1   3 -11   -0.01    0.08 
   1   2 -11    0.03    0.08 
   1   2 -11    0.00    0.07 
   1   1 -11    1.25    0.19 
   1   1 -11    1.28    0.19 
   1   0 -11    0.39    0.10 
   1   0 -11    0.31    0.11 
   1  -1 -11    1.18    0.16 
   1  -1 -11    1.02    0.19 
   1  -2 -11    0.04    0.09 
   1  -3 -11    0.05    0.09 
   1  -4 -11    0.04    0.11 
   1  -5 -11    0.26    0.16 
   2   5 -11    0.00    0.08 
   2   4 -11    0.09    0.09 
   2   3 -11    0.65    0.15 
   2   2 -11    0.05    0.07 
   2   2 -11    0.14    0.09 
   2   1 -11    0.04    0.07 
   2   1 -11   -0.08    0.06 
   2   0 -11    0.10    0.07 
   2   0 -11   -0.02    0.06 
   2  -1 -11   -0.05    0.06 
   2  -1 -11   -0.03    0.05 
   2  -2 -11    0.05    0.08 
   2  -3 -11    0.74    0.16 
   2  -4 -11    0.03    0.09 
   2  -5 -11    0.00    0.11 
   3   5 -11    0.04    0.08 
   3   4 -11    0.13    0.09 
   3   3 -11    0.74    0.15 
   3   2 -11    0.27    0.10 
   3   1 -11    0.04    0.06 
   3   1 -11    0.01    0.07 
   3   0 -11    0.23    0.09 
   3   0 -11    0.19    0.09 
   3  -1 -11    0.02    0.06 
   3  -1 -11    0.00    0.06 
   3  -2 -11    0.22    0.08 
   3  -2 -11    0.28    0.10 
   3  -3 -11    0.90    0.17 
   3  -4 -11   -0.03    0.08 
   3  -5 -11    0.12    0.11 
   4   5 -11    0.17    0.10 
   4   4 -11    1.98    0.24 
   4   3 -11    0.38    0.12 
   4   2 -11    3.98    0.32 
   4   1 -11    0.11    0.07 
   4   0 -11    8.09    0.52 
   4   0 -11    8.33    0.53 
   4  -1 -11    0.01    0.06 
   4  -1 -11   -0.09    0.05 
   4  -2 -11    3.61    0.31 
   4  -2 -11    4.01    0.30 
   4  -3 -11    0.62    0.15 
   4  -4 -11    1.22    0.20 
   4  -5 -11   -0.03    0.12 
   5   6 -11   -0.01    0.09 
   5   5 -11    0.07    0.09 
   5   4 -11    0.14    0.09 
   5   3 -11    0.20    0.10 
   5   2 -11    0.84    0.16 
   5   1 -11    0.45    0.12 
   5   0 -11    0.46    0.11 
   5  -1 -11    0.42    0.10 
   5  -1 -11    0.38    0.11 
   5  -2 -11    1.02    0.15 
   5  -2 -11    1.09    0.17 
   5  -3 -11    0.14    0.08 
   5  -3 -11    0.12    0.08 
   5  -4 -11    0.16    0.11 
   5  -5 -11    0.15    0.13 
   5  -6 -11    0.11    0.13 
   6   5 -11   -0.02    0.08 
   6   4 -11    0.71    0.16 
   6   3 -11    0.85    0.16 
   6   2 -11    1.87    0.22 
   6   1 -11    0.31    0.09 
   6   0 -11    0.71    0.14 
   6  -1 -11    0.26    0.10 
   6  -2 -11    2.29    0.23 
   6  -3 -11    0.94    0.18 
   6  -3 -11    0.96    0.16 
   6  -4 -11    0.75    0.18 
   6  -5 -11    0.06    0.11 
   7   5 -11    0.36    0.12 
   7   4 -11    0.33    0.12 
   7   3 -11    0.31    0.10 
   7   2 -11    0.39    0.12 
   7   1 -11    2.18    0.24 
   7   0 -11    1.83    0.21 
   7  -1 -11    2.01    0.22 
   7  -2 -11    0.40    0.11 
   7  -3 -11    0.33    0.12 
   7  -4 -11    0.34    0.12 
   7  -5 -11    0.29    0.16 
   8   5 -11    0.02    0.08 
   8   4 -11   -0.05    0.06 
   8   3 -11    0.77    0.16 
   8   2 -11    0.09    0.08 
   8   1 -11    0.39    0.12 
   8   0 -11    0.26    0.10 
   8  -1 -11    0.37    0.11 
   8  -2 -11    0.06    0.08 
   8  -3 -11    0.60    0.14 
   8  -4 -11    0.00    0.08 
   9   5 -11   -0.11    0.08 
   9   4 -11    0.21    0.11 
   9   3 -11    0.07    0.08 
   9   2 -11    0.12    0.08 
   9   1 -11   -0.01    0.06 
   9   0 -11    0.28    0.11 
   9  -1 -11    0.03    0.08 
   9  -2 -11    0.01    0.11 
   9  -3 -11    0.14    0.10 
   9  -4 -11   -0.05    0.07 
  10   4 -11    0.10    0.09 
  10   3 -11   -0.04    0.07 
  10   2 -11   -0.02    0.07 
  10   1 -11    0.01    0.07 
  10   0 -11    0.45    0.12 
  10  -1 -11    0.02    0.07 
  10  -2 -11    0.06    0.09 
  10  -3 -11    0.00    0.09 
  10  -4 -11    0.01    0.09 
  11   3 -11    0.02    0.08 
  11   2 -11    0.17    0.10 
  11   1 -11    0.10    0.09 
  11   0 -11    1.57    0.24 
  11  -1 -11    0.08    0.09 
  11  -2 -11    0.38    0.14 
  11  -3 -11    0.00    0.08 
  12   2 -11    1.67    0.25 
  12   1 -11   -0.06    0.12 
  12   0 -11    0.69    0.17 
  12  -1 -11   -0.05    0.09 
  12  -2 -11    1.63    0.25 
  -1   1 -12    0.01    0.10 
  -1   1 -12    0.19    0.14 
  -1   0 -12    0.02    0.12 
  -1  -1 -12    0.05    0.11 
   0   3 -12    0.68    0.18 
   0   3 -12    0.45    0.14 
   0   2 -12    0.99    0.21 
   0   2 -12    0.82    0.18 
   0   1 -12    0.75    0.20 
   0   1 -12    0.80    0.16 
   0   0 -12    2.24    0.30 
   0  -1 -12    0.76    0.20 
   0  -2 -12    0.58    0.19 
   0  -3 -12    0.39    0.18 
   1   3 -12    0.23    0.12 
   1   2 -12    0.22    0.11 
   1   2 -12    0.16    0.11 
   1   1 -12    0.84    0.17 
   1   1 -12    0.86    0.20 
   1   0 -12    0.32    0.12 
   1   0 -12    0.15    0.10 
   1  -1 -12    0.70    0.18 
   1  -2 -12   -0.04    0.11 
   1  -3 -12    0.09    0.12 
   2   4 -12    0.22    0.10 
   2   3 -12    1.84    0.24 
   2   2 -12    1.10    0.19 
   2   1 -12    3.03    0.27 
   2   1 -12    2.55    0.28 
   2   0 -12    0.31    0.12 
   2   0 -12    0.34    0.11 
   2  -1 -12    2.35    0.28 
   2  -2 -12    1.12    0.21 
   2  -3 -12    1.75    0.27 
   2  -4 -12    0.28    0.15 
   3   4 -12   -0.04    0.09 
   3   3 -12   -0.04    0.07 
   3   2 -12    0.05    0.09 
   3   1 -12   -0.03    0.07 
   3   0 -12    0.79    0.15 
   3   0 -12    0.92    0.16 
   3  -1 -12    0.10    0.08 
   3  -1 -12    0.15    0.08 
   3  -2 -12   -0.02    0.07 
   3  -3 -12    0.01    0.09 
   3  -4 -12    0.08    0.11 
   4   5 -12    0.13    0.10 
   4   4 -12    0.41    0.13 
   4   3 -12    0.10    0.09 
   4   2 -12    1.16    0.19 
   4   1 -12    0.33    0.11 
   4   0 -12    0.27    0.10 
   4  -1 -12    0.28    0.11 
   4  -1 -12    0.19    0.08 
   4  -2 -12    1.47    0.21 
   4  -3 -12    0.15    0.10 
   4  -4 -12    0.28    0.14 
   4  -5 -12   -0.10    0.10 
   5   5 -12    0.09    0.10 
   5   4 -12   -0.09    0.07 
   5   3 -12    0.61    0.15 
   5   2 -12   -0.07    0.07 
   5   1 -12    0.69    0.14 
   5   0 -12    1.41    0.20 
   5  -1 -12    0.59    0.13 
   5  -2 -12    0.04    0.09 
   5  -2 -12    0.03    0.07 
   5  -3 -12    0.96    0.18 
   5  -4 -12   -0.01    0.10 
   5  -5 -12    0.13    0.13 
   6   5 -12   -0.08    0.09 
   6   4 -12    1.01    0.19 
   6   3 -12    0.20    0.12 
   6   2 -12    2.98    0.30 
   6   1 -12    0.02    0.08 
   6   0 -12    1.99    0.23 
   6  -1 -12   -0.05    0.06 
   6  -2 -12    3.36    0.29 
   6  -4 -12    1.24    0.22 
   6  -5 -12   -0.07    0.13 
   7   4 -12    0.16    0.11 
   7   3 -12    0.61    0.15 
   7   2 -12    0.42    0.13 
   7   1 -12    0.27    0.11 
   7   0 -12    2.32    0.25 
   7  -1 -12    0.34    0.11 
   7  -2 -12    0.47    0.13 
   7  -3 -12    0.59    0.15 
   8   4 -12   -0.02    0.08 
   8   3 -12    0.65    0.16 
   8   2 -12    0.05    0.10 
   8   1 -12    0.20    0.10 
   8   0 -12    0.14    0.09 
   8  -1 -12    0.16    0.10 
   8  -2 -12    0.07    0.09 
   8  -3 -12    0.88    0.18 
   9   4 -12    0.04    0.09 
   9   3 -12    0.63    0.15 
   9   2 -12    0.04    0.08 
   9   1 -12    2.24    0.26 
   9   0 -12   -0.02    0.07 
   9  -1 -12    2.35    0.27 
   9  -2 -12    0.00    0.08 
   9  -3 -12    0.63    0.16 
   9  -4 -12   -0.09    0.09 
  10   3 -12    1.09    0.21 
  10   2 -12    0.09    0.09 
  10   1 -12    0.38    0.14 
  10   0 -12    0.12    0.10 
  10  -1 -12    0.13    0.11 
  10  -2 -12   -0.01    0.09 
  10  -3 -12    1.10    0.21 
  11   2 -12    1.03    0.20 
  11   1 -12    0.07    0.09 
  11   0 -12    1.07    0.21 
  11  -1 -12    0.04    0.09 
  11  -2 -12    1.00    0.20 
   1   1 -13    0.01    0.11 
   1   1 -13    0.17    0.12 
   1   0 -13    0.64    0.19 
   1  -1 -13    0.14    0.13 
   2   2 -13    0.48    0.15 
   2   1 -13    0.02    0.09 
   2   0 -13    0.83    0.17 
   2   0 -13    0.81    0.19 
   2  -1 -13    0.15    0.12 
   2  -2 -13    0.49    0.17 
   3   3 -13    0.16    0.11 
   3   2 -13    1.99    0.26 
   3   1 -13    0.03    0.09 
   3   0 -13    2.64    0.28 
   3  -1 -13    0.20    0.12 
   3  -2 -13    2.21    0.29 
   3  -3 -13    0.22    0.13 
   4   3 -13    1.14    0.21 
   4   2 -13    1.38    0.22 
   4   1 -13    0.64    0.16 
   4   0 -13    1.36    0.21 
   4  -1 -13    0.75    0.16 
   4  -2 -13    1.51    0.24 
   4  -3 -13    1.50    0.24 
   5   3 -13    0.37    0.13 
   5   2 -13    0.07    0.09 
   5   1 -13   -0.04    0.08 
   5   0 -13    0.12    0.09 
   5  -1 -13    0.09    0.09 
   6   3 -13    0.78    0.17 
   6   2 -13    1.16    0.20 
   6   1 -13    0.47    0.14 
   6   0 -13    0.62    0.15 
   6  -1 -13    0.32    0.12 
   6  -2 -13    0.97    0.18 
   7   3 -13    3.05    0.32 
   7   2 -13    1.64    0.24 
   7   1 -13    7.89    0.55 
   7   0 -13    0.92    0.18 
   7  -1 -13    7.50    0.52 
   7  -2 -13    1.17    0.20 
   8   3 -13    3.86    0.36 
   8   2 -13    1.86    0.26 
   8   1 -13    4.07    0.36 
   8   0 -13    4.16    0.35 
   8  -1 -13    3.97    0.35 
   8  -2 -13    1.92    0.25 
   9   3 -13    2.13    0.28 
   9   2 -13    0.60    0.16 
   9   1 -13    4.39    0.38 
   9   0 -13    0.15    0.11 
   9  -1 -13    3.35    0.33 
   9  -2 -13    0.49    0.15 
   9  -3 -13    2.11    0.27 
  10   2 -13    1.24    0.22 
  10   1 -13   -0.05    0.09 
  10   0 -13    0.59    0.17 
  10  -1 -13   -0.07    0.08 
  10  -2 -13    1.14    0.22 
   4   1 -14    0.89    0.19 
   4   0 -14    0.08    0.11 
   5   1 -14    0.91    0.19 
   5   0 -14    0.19    0.11 
   5  -1 -14    1.09    0.20 
   6   1 -14    0.03    0.10 
   6   0 -14    0.71    0.17 
   6  -1 -14    0.03    0.10 
   7   1 -14    0.71    0.17 
   7   0 -14    0.00    0.09 
   7  -1 -14    0.81    0.17 
   8   1 -14    0.96    0.20 
   8   0 -14    6.26    0.48 
   8  -1 -14    0.95    0.19 
   0   0   0    0.00    0.00 
;
_shelx_hkl_checksum              60491
loop_
_space_group_symop_operation_xyz
'x, y, z'
'-x, y+1/2, -z'
'-x, -y, -z'
'x, -y-1/2, z'
loop_
_atom_site_label
_atom_site_type_symbol
_atom_site_fract_x
_atom_site_fract_y
_atom_site_fract_z
_atom_site_U_iso_or_equiv
_atom_site_adp_type
_atom_site_occupancy
_atom_site_site_symmetry_order
_atom_site_calc_flag
_atom_site_refinement_flags_posn
_atom_site_refinement_flags_adp
_atom_site_refinement_flags_occupancy
O1 O -0.01283(16) 0.7500 0.20078(15) 0.0671(5) Uani 1 2 d S T P
O2 O -0.21734(14) 0.7500 0.00016(15) 0.0560(5) Uani 1 2 d S T P
N1 N 0.22566(17) 0.7500 -0.03719(17) 0.0465(5) Uani 1 2 d S T P
N2 N 0.23930(18) 0.7500 0.18396(17) 0.0533(5) Uani 1 2 d S T P
H2A H 0.1903 0.7500 0.2331 0.064 Uiso 1 2 d R U P
C1 C 0.1434(2) 0.7500 -0.1791(2) 0.0442(5) Uani 1 2 d S T P
C2 C 0.2143(3) 0.7500 -0.2648(2) 0.0568(6) Uani 1 2 d S T P
H2 H 0.3158 0.7500 -0.2235 0.068 Uiso 1 2 calc R U P
C3 C 0.1360(3) 0.7500 -0.4067(3) 0.0689(7) Uani 1 2 d S T P
H3 H 0.1848 0.7500 -0.4612 0.083 Uiso 1 2 calc R U P
C4 C -0.0150(3) 0.7500 -0.4720(2) 0.0747(8) Uani 1 2 d S T P
H4 H -0.0668 0.7500 -0.5694 0.090 Uiso 1 2 calc R U P
C5 C -0.0874(3) 0.7500 -0.3931(2) 0.0660(7) Uani 1 2 d S T P
H5 H -0.1889 0.7500 -0.4371 0.079 Uiso 1 2 calc R U P
C6 C -0.0104(2) 0.7500 -0.2459(2) 0.0473(5) Uani 1 2 d S T P
C7 C -0.0782(2) 0.7500 -0.1578(2) 0.0461(5) Uani 1 2 d S T P
H7 H -0.1796 0.7500 -0.1979 0.055 Uiso 1 2 calc R U P
C8 C 0.0010(2) 0.7500 -0.01577(19) 0.0410(5) Uani 1 2 d S T P
C9 C 0.1597(2) 0.7500 0.0434(2) 0.0419(5) Uani 1 2 d S T P
C10 C -0.0726(2) 0.7500 0.0746(2) 0.0446(5) Uani 1 2 d S T P
C11 C -0.2980(2) 0.7500 0.0798(2) 0.0608(6) Uani 1 2 d S T P
H11A H -0.2544 0.6613 0.1560 0.091 Uiso 0.5 1 calc R U P
H11B H -0.3973 0.7135 0.0201 0.091 Uiso 0.5 1 calc R U P
H11C H -0.2961 0.8751 0.1164 0.091 Uiso 0.5 1 calc R U P
C12 C 0.3992(2) 0.7500 0.2683(2) 0.0489(5) Uani 1 2 d S T P
C13 C 0.4247(3) 0.7500 0.4197(2) 0.0647(6) Uani 1 2 d S T P
H13A H 0.5273 0.7500 0.4815 0.097 Uiso 1 2 d R U P
H13B H 0.3732 0.6454 0.4340 0.097 Uiso 0.5 1 d R U P
H13C H 0.3898 0.8673 0.4391 0.097 Uiso 0.5 1 d R U P
C14 C 0.46600(16) 0.9276(2) 0.24043(17) 0.0632(5) Uani 1 1 d . . .
H14A H 0.4485 0.9279 0.1445 0.095 Uiso 1 1 calc R U .
H14B H 0.5693 0.9286 0.3013 0.095 Uiso 1 1 calc R U .
H14C H 0.4225 1.0384 0.2579 0.095 Uiso 1 1 calc R U .
loop_
_atom_site_aniso_label
_atom_site_aniso_U_11
_atom_site_aniso_U_22
_atom_site_aniso_U_33
_atom_site_aniso_U_23
_atom_site_aniso_U_13
_atom_site_aniso_U_12
O1 0.0554(9) 0.1098(13) 0.0430(9) 0.000 0.0285(8) 0.000
O2 0.0448(8) 0.0772(11) 0.0538(9) 0.000 0.0295(7) 0.000
N1 0.0438(9) 0.0578(10) 0.0416(9) 0.000 0.0227(8) 0.000
N2 0.0414(9) 0.0827(13) 0.0372(9) 0.000 0.0191(8) 0.000
C1 0.0528(11) 0.0412(10) 0.0434(11) 0.000 0.0262(9) 0.000
C2 0.0602(13) 0.0658(14) 0.0565(13) 0.000 0.0372(11) 0.000
C3 0.0879(18) 0.0812(17) 0.0562(14) 0.000 0.0491(14) 0.000
C4 0.0842(18) 0.102(2) 0.0409(12) 0.000 0.0310(13) 0.000
C5 0.0584(13) 0.0913(17) 0.0426(12) 0.000 0.0182(11) 0.000
C6 0.0525(11) 0.0497(11) 0.0410(11) 0.000 0.0228(9) 0.000
C7 0.0410(10) 0.0531(11) 0.0437(11) 0.000 0.0190(9) 0.000
C8 0.0443(10) 0.0391(10) 0.0433(11) 0.000 0.0232(9) 0.000
C9 0.0429(10) 0.0438(10) 0.0415(10) 0.000 0.0215(8) 0.000
C10 0.0469(11) 0.0440(10) 0.0470(11) 0.000 0.0250(9) 0.000
C11 0.0522(12) 0.0776(15) 0.0672(14) 0.000 0.0399(11) 0.000
C12 0.0404(10) 0.0626(13) 0.0416(11) 0.000 0.0169(9) 0.000
C13 0.0544(12) 0.0917(17) 0.0419(12) 0.000 0.0168(10) 0.000
C14 0.0570(9) 0.0719(11) 0.0571(9) -0.0012(8) 0.0233(8) -0.0078(7)
loop_
_atom_type_symbol
_atom_type_description
_atom_type_scat_dispersion_real
_atom_type_scat_dispersion_imag
_atom_type_scat_source
C C 0.0033 0.0016 'International Tables Vol C Tables 4.2.6.8 and 6.1.1.4'
H H 0.0000 0.0000 'International Tables Vol C Tables 4.2.6.8 and 6.1.1.4'
N N 0.0061 0.0033 'International Tables Vol C Tables 4.2.6.8 and 6.1.1.4'
O O 0.0106 0.0060 'International Tables Vol C Tables 4.2.6.8 and 6.1.1.4'
loop_
_geom_angle_atom_site_label_1
_geom_angle_atom_site_label_2
_geom_angle_atom_site_label_3
_geom_angle
_geom_angle_site_symmetry_1
_geom_angle_site_symmetry_3
C10 O2 C11 115.94(16) . .
C9 N1 C1 119.18(16) . .
C9 N2 C12 128.57(16) . .
C9 N2 H2A 116.6 . .
C12 N2 H2A 114.8 . .
N1 C1 C6 123.21(17) . .
N1 C1 C2 119.00(18) . .
C6 C1 C2 117.79(19) . .
C3 C2 C1 120.7(2) . .
C3 C2 H2 119.7 . .
C1 C2 H2 119.7 . .
C2 C3 C4 121.4(2) . .
C2 C3 H3 119.3 . .
C4 C3 H3 119.3 . .
C5 C4 C3 119.7(2) . .
C5 C4 H4 120.1 . .
C3 C4 H4 120.1 . .
C4 C5 C6 120.7(2) . .
C4 C5 H5 119.6 . .
C6 C5 H5 119.6 . .
C5 C6 C1 119.71(19) . .
C5 C6 C7 123.7(2) . .
C1 C6 C7 116.54(18) . .
C8 C7 C6 121.61(18) . .
C8 C7 H7 119.2 . .
C6 C7 H7 119.2 . .
C7 C8 C9 117.70(18) . .
C7 C8 C10 120.64(17) . .
C9 C8 C10 121.66(17) . .
N1 C9 N2 120.00(16) . .
N1 C9 C8 121.77(17) . .
N2 C9 C8 118.23(17) . .
O1 C10 O2 122.01(17) . .
O1 C10 C8 125.83(18) . .
O2 C10 C8 112.16(16) . .
O2 C11 H11A 109.5 . .
O2 C11 H11B 109.5 . .
H11A C11 H11B 109.5 . .
O2 C11 H11C 109.5 . .
H11A C11 H11C 109.5 . .
H11B C11 H11C 109.5 . .
N2 C12 C14 111.09(10) . 4_575
N2 C12 C14 111.09(10) . .
C14 C12 C14 110.41(17) 4_575 .
N2 C12 C13 104.60(16) . .
C14 C12 C13 109.74(11) 4_575 .
C14 C12 C13 109.75(11) . .
C12 C13 H13A 109.5 . .
C12 C13 H13B 109.5 . .
H13A C13 H13B 114.0 . .
C12 C13 H13C 109.5 . .
H13A C13 H13C 104.8 . .
H13B C13 H13C 109.5 . .
C12 C14 H14A 109.5 . .
C12 C14 H14B 109.5 . .
H14A C14 H14B 109.5 . .
C12 C14 H14C 109.5 . .
H14A C14 H14C 109.5 . .
H14B C14 H14C 109.5 . .
loop_
_geom_bond_atom_site_label_1
_geom_bond_atom_site_label_2
_geom_bond_distance
_geom_bond_site_symmetry_2
O1 C10 1.202(2) .
O2 C10 1.330(2) .
O2 C11 1.440(2) .
N1 C9 1.323(2) .
N1 C1 1.361(3) .
N2 C9 1.346(2) .
N2 C12 1.472(2) .
N2 H2A 0.8816 .
C1 C6 1.408(3) .
C1 C2 1.414(3) .
C2 C3 1.357(3) .
C2 H2 0.9300 .
C3 C4 1.382(4) .
C3 H3 0.9300 .
C4 C5 1.362(3) .
C4 H4 0.9300 .
C5 C6 1.404(3) .
C5 H5 0.9300 .
C6 C7 1.411(3) .
C7 C8 1.359(3) .
C7 H7 0.9300 .
C8 C9 1.458(3) .
C8 C10 1.481(3) .
C11 H11A 0.9600 .
C11 H11B 0.9600 .
C11 H11C 0.9600 .
C12 C14 1.5206(19) 4_575
C12 C14 1.5206(19) .
C12 C13 1.522(3) .
C13 H13A 0.9559 .
C13 H13B 0.9600 .
C13 H13C 0.9600 .
C14 H14A 0.9600 .
C14 H14B 0.9600 .
C14 H14C 0.9600 .
loop_
_geom_hbond_atom_site_label_D
_geom_hbond_atom_site_label_H
_geom_hbond_atom_site_label_A
_geom_hbond_distance_DH
_geom_hbond_distance_HA
_geom_hbond_distance_DA
_geom_hbond_angle_DHA
N2 H2A O1 0.88 1.96 2.687(2) 138.9
C14 H14A N1 0.96 2.55 3.129(2) 118.5
loop_
_geom_torsion_atom_site_label_1
_geom_torsion_atom_site_label_2
_geom_torsion_atom_site_label_3
_geom_torsion_atom_site_label_4
_geom_torsion
_geom_torsion_site_symmetry_4
C9 N1 C1 C6 0.000(0) .
C9 N1 C1 C2 180.000(0) .
N1 C1 C2 C3 180.000(1) .
C6 C1 C2 C3 0.000(1) .
C1 C2 C3 C4 0.000(1) .
C2 C3 C4 C5 0.000(1) .
C3 C4 C5 C6 0.000(1) .
C4 C5 C6 C1 0.000(1) .
C4 C5 C6 C7 180.000(1) .
N1 C1 C6 C5 180.000(0) .
C2 C1 C6 C5 0.000(1) .
N1 C1 C6 C7 0.000(0) .
C2 C1 C6 C7 180.000(0) .
C5 C6 C7 C8 180.000(0) .
C1 C6 C7 C8 0.000(0) .
C6 C7 C8 C9 0.000(0) .
C6 C7 C8 C10 180.000(0) .
C1 N1 C9 N2 180.000(0) .
C1 N1 C9 C8 0.000(0) .
C12 N2 C9 N1 0.000(0) .
C12 N2 C9 C8 180.000(0) .
C7 C8 C9 N1 0.000(0) .
C10 C8 C9 N1 180.0 .
C7 C8 C9 N2 180.000(0) .
C10 C8 C9 N2 0.000(0) .
C11 O2 C10 O1 0.000(0) .
C11 O2 C10 C8 180.0 .
C7 C8 C10 O1 180.000(0) .
C9 C8 C10 O1 0.000(0) .
C7 C8 C10 O2 0.000(0) .
C9 C8 C10 O2 180.0 .
C9 N2 C12 C14 -61.66(12) 4_575
C9 N2 C12 C14 61.66(12) .
C9 N2 C12 C13 180.000(0) .
