#------------------------------------------------------------------------------
#$Date: 2015-10-05 02:23:40 +0300 (Mon, 05 Oct 2015) $
#$Revision: 159600 $
#$URL: svn://www.crystallography.net/cod/cif/4/12/46/4124606.cif $
#------------------------------------------------------------------------------
#
# This file is available in the Crystallography Open Database (COD),
# http://www.crystallography.net/
#
# All data on this site have been placed in the public domain by the
# contributors.
#
data_4124606
loop_
_publ_author_name
'Alam, Rauful'
'Vollgraff, Tobias'
'Eriksson, Lars'
'Szab\'o, K\'alm\'an J'
_publ_section_title
;
 Synthesis of Adjacent Quaternary Stereocenters by Catalytic Asymmetric
 Allylboration.
;
_journal_issue                   35
_journal_name_full               'Journal of the American Chemical Society'
_journal_page_first              11262
_journal_page_last               11265
_journal_paper_doi               10.1021/jacs.5b07498
_journal_volume                  137
_journal_year                    2015
_chemical_absolute_configuration ad
_chemical_formula_moiety         'C14 H20 O3 S'
_chemical_formula_sum            'C14 H20 O3 S'
_chemical_formula_weight         268.36
_space_group_crystal_system      monoclinic
_space_group_IT_number           4
_space_group_name_Hall           'P 2yb'
_space_group_name_H-M_alt        'P 1 21 1'
_symmetry_space_group_name_Hall  'P 2yb'
_symmetry_space_group_name_H-M   'P 1 21 1'
_atom_sites_solution_hydrogens   geom
_audit_creation_method
'Manual editiong of the cif output from SHELXL-2014/7'
_cell_angle_alpha                90
_cell_angle_beta                 101.240(5)
_cell_angle_gamma                90
_cell_formula_units_Z            2
_cell_length_a                   10.6952(5)
_cell_length_b                   6.1486(4)
_cell_length_c                   11.1379(6)
_cell_measurement_reflns_used    1651
_cell_measurement_temperature    295(2)
_cell_measurement_theta_max      23.0860
_cell_measurement_theta_min      3.7980
_cell_volume                     718.39(7)
_computing_cell_refinement
;
CrysAlisPro, Agilent Technologies,
Version 1.171.36.32 (release 02-08-2013 CrysAlis171 .NET)
(compiled Aug  2 2013,16:46:58)
;
_computing_data_collection
;
CrysAlisPro, Agilent Technologies,
Version 1.171.36.32 (release 02-08-2013 CrysAlis171 .NET)
(compiled Aug  2 2013,16:46:58)
;
_computing_data_reduction
;
CrysAlisPro, Agilent Technologies,
Version 1.171.36.32 (release 02-08-2013 CrysAlis171 .NET)
(compiled Aug  2 2013,16:46:58)
;
_computing_structure_refinement  'SHELXL-2014/7 (Sheldrick, 2014)'
_computing_structure_solution    'SHELXS (SHeldrick, 2008)'
_diffrn_ambient_temperature      295(2)
_diffrn_detector_area_resol_mean 16.55
_diffrn_measured_fraction_theta_full 0.997
_diffrn_measured_fraction_theta_max 0.997
_diffrn_measurement_device_type  'Xcalibur, Sapphire3'
_diffrn_measurement_method       '\w scans at different \f'
_diffrn_radiation_source         'Enhance (Mo) X-ray Source'
_diffrn_radiation_type           MoK\a
_diffrn_radiation_wavelength     0.71073
_diffrn_reflns_av_R_equivalents  0.0278
_diffrn_reflns_av_unetI/netI     0.0456
_diffrn_reflns_laue_measured_fraction_full 0.997
_diffrn_reflns_laue_measured_fraction_max 0.997
_diffrn_reflns_limit_h_max       12
_diffrn_reflns_limit_h_min       -12
_diffrn_reflns_limit_k_max       6
_diffrn_reflns_limit_k_min       -7
_diffrn_reflns_limit_l_max       13
_diffrn_reflns_limit_l_min       -13
_diffrn_reflns_number            4368
_diffrn_reflns_point_group_measured_fraction_full 0.887
_diffrn_reflns_point_group_measured_fraction_max 0.887
_diffrn_reflns_theta_full        25.025
_diffrn_reflns_theta_max         25.025
_diffrn_reflns_theta_min         3.730
_exptl_absorpt_coefficient_mu    0.224
_exptl_absorpt_correction_T_max  1.00000
_exptl_absorpt_correction_T_min  0.91150
_exptl_absorpt_correction_type   multi-scan
_exptl_absorpt_process_details
;
CrysAlisPro, Agilent Technologies,
Version 1.171.36.32 (release 02-08-2013 CrysAlis171 .NET)
(compiled Aug  2 2013,16:46:58)
Empirical absorption correction using spherical harmonics,
 implemented in SCALE3 ABSPACK scaling algorithm.
;
_exptl_crystal_colour            yellow
_exptl_crystal_density_diffrn    1.241
_exptl_crystal_description       prism
_exptl_crystal_F_000             288
_exptl_crystal_size_max          0.20
_exptl_crystal_size_mid          0.08
_exptl_crystal_size_min          0.05
_refine_diff_density_max         0.191
_refine_diff_density_min         -0.202
_refine_diff_density_rms         0.033
_refine_ls_abs_structure_details
;
 Flack x determined using 563 quotients [(I+)-(I-)]/[(I+)+(I-)]
 (Parsons, Flack and Wagner, Acta Cryst. B69 (2013) 249-259).
;
_refine_ls_abs_structure_Flack   -0.01(6)
_refine_ls_extinction_method     none
_refine_ls_goodness_of_fit_ref   1.093
_refine_ls_hydrogen_treatment    constr
_refine_ls_matrix_type           full
_refine_ls_number_parameters     168
_refine_ls_number_reflns         2260
_refine_ls_number_restraints     1
_refine_ls_restrained_S_all      1.093
_refine_ls_R_factor_all          0.0541
_refine_ls_R_factor_gt           0.0433
_refine_ls_shift/su_max          0.000
_refine_ls_shift/su_mean         0.000
_refine_ls_structure_factor_coef Fsqd
_refine_ls_weighting_details
'w=1/[\s^2^(Fo^2^)+(0.0368P)^2^] where P=(Fo^2^+2Fc^2^)/3'
_refine_ls_weighting_scheme      calc
_refine_ls_wR_factor_gt          0.0868
_refine_ls_wR_factor_ref         0.0929
_reflns_Friedel_coverage         0.613
_reflns_friedel_fraction_full    0.751
_reflns_friedel_fraction_max     0.751
_reflns_number_gt                1906
_reflns_number_total             2260
_reflns_threshold_expression     'I > 2\s(I)'
_cod_data_source_file            ja5b07498_si_002.cif
_cod_data_source_block           r
_cod_database_code               4124606
_shelx_shelxl_version_number     2014/7
_shelx_space_group_comment
;
The symmetry employed for this shelxl refinement is uniquely defined
by the following loop, which should always be used as a source of
symmetry information in preference to the above space-group names.
They are only intended as comments.
;
_shelx_res_file
;

    r.res created by SHELXL-2014/7


CELL  0.71073 10.6952   6.1486  11.1379   90.0000  101.2401   90.0000
zerr  2        0.0005   0.0004   0.0006    0.0000    0.0049    0.0000
latt -1
symm -x, y+0.5, -z
sfac C H O S
unit 28 40 6 2
temp 22
acta
shel 99 0.84
L.S. 10
BOND $H
conf
wpdb -2
FMAP 2
PLAN 20
WGHT    0.036800
FVAR       5.42989
S1    4    0.028399    0.472183    0.713925    11.00000    0.04491    0.06908 =
         0.05249   -0.00156    0.00087   -0.00237
O2    3    0.031776    0.262674    0.659579    11.00000    0.09453    0.08367 =
         0.06336   -0.02216   -0.00723   -0.00030
O3    3   -0.092863    0.561099    0.716353    11.00000    0.05010    0.11952 =
         0.09330   -0.00595   -0.00555    0.02227
C4    1    0.112218    0.655068    0.638699    11.00000    0.10686    0.12274 =
         0.06172    0.02518   -0.00107   -0.03278
AFIX 137
H4A   2    0.075276    0.656725    0.552932    11.00000   -1.50000
H4B   2    0.199777    0.610672    0.649821    11.00000   -1.50000
H4C   2    0.107577    0.798127    0.672080    11.00000   -1.50000
AFIX   0
C5    1    0.115083    0.459028    0.865744    11.00000    0.03830    0.05327 =
         0.05129    0.00170    0.00975    0.00220
C6    1    0.182647    0.272751    0.904355    11.00000    0.05226    0.04719 =
         0.05600   -0.01345    0.01071    0.00146
AFIX  43
H6    2    0.182198    0.156697    0.850725    11.00000   -1.20000
AFIX   0
C7    1    0.251018    0.258594    1.022758    11.00000    0.05573    0.04373 =
         0.05735    0.00430    0.00994    0.01039
AFIX  43
H7    2    0.294358    0.130608    1.048585    11.00000   -1.20000
AFIX   0
C8    1    0.256617    0.430917    1.104219    11.00000    0.04632    0.03462 =
         0.04508   -0.00025    0.01465    0.00402
C9    1    0.186624    0.616597    1.063344    11.00000    0.06334    0.04100 =
         0.05056   -0.00432    0.01331    0.01060
AFIX  43
H9    2    0.187508    0.733918    1.116205    11.00000   -1.20000
AFIX   0
C10   1    0.115897    0.629851    0.945768    11.00000    0.05780    0.04372 =
         0.05320    0.00127    0.00641    0.01232
AFIX  43
H10   2    0.068724    0.754454    0.920613    11.00000   -1.20000
AFIX   0
C11   1    0.337768    0.409102    1.232879    11.00000    0.05314    0.03761 =
         0.04379    0.00522    0.01484    0.00598
O12   3    0.343204    0.183518    1.265520    11.00000    0.06345    0.03987 =
         0.06160    0.01626    0.01787    0.00373
AFIX 147
H12   2    0.275493    0.147026    1.283628    11.00000   -1.50000
AFIX   0
C13   1    0.280216    0.534782    1.327943    11.00000    0.06901    0.06651 =
         0.04840    0.00040    0.02105    0.01219
AFIX 137
H13A  2    0.194288    0.486767    1.325160    11.00000   -1.50000
H13B  2    0.280263    0.687519    1.310073    11.00000   -1.50000
H13C  2    0.330064    0.508745    1.408113    11.00000   -1.50000
AFIX   0
C14   1    0.480476    0.475305    1.237177    11.00000    0.05238    0.03580 =
         0.04535   -0.00008    0.01285   -0.00017
C15   1    0.557091    0.426203    1.362315    11.00000    0.06020    0.07594 =
         0.05137    0.00119    0.00896   -0.00146
AFIX  43
H15   2    0.542698    0.290668    1.394117    11.00000   -1.20000
AFIX   0
C16   1    0.539621    0.342678    1.145438    11.00000    0.05721    0.05939 =
         0.06315   -0.01115    0.02083   -0.00034
AFIX 137
H16A  2    0.628164    0.379500    1.154164    11.00000   -1.50000
H16B  2    0.496067    0.375357    1.063658    11.00000   -1.50000
H16C  2    0.531582    0.190317    1.161176    11.00000   -1.50000
AFIX   0
C17   1    0.489485    0.716701    1.205467    11.00000    0.07082    0.04249 =
         0.08402    0.00953    0.01980   -0.00537
AFIX 137
H17A  2    0.463974    0.803814    1.268065    11.00000   -1.50000
H17B  2    0.434354    0.746096    1.128292    11.00000   -1.50000
H17C  2    0.575767    0.751356    1.200187    11.00000   -1.50000
AFIX   0
C18   1    0.638774    0.544699    1.430452    11.00000    0.12003    0.12016 =
         0.06160   -0.00882   -0.00561   -0.01804
AFIX  93
H18A  2    0.657672    0.682230    1.404141    11.00000   -1.20000
H18B  2    0.679717    0.493977    1.506679    11.00000   -1.20000

AFIX   0
HKLF 4

REM
REM R1 =  0.0433 for    1906 Fo > 4sig(Fo)  and  0.0541 for all    2260 data
REM    168 parameters refined using      1 restraints

END

WGHT      0.0368      0.0000

REM Highest difference peak  0.191,  deepest hole -0.202,  1-sigma level  0.033
Q1    1   0.1024  0.4684  0.7833  11.00000  0.05    0.19
Q2    1  -0.0707  0.7160  0.7077  11.00000  0.05    0.14
Q3    1   0.4840  0.7128  1.0944  11.00000  0.05    0.13
Q4    1   0.2224  0.5105  0.6603  11.00000  0.05    0.11
Q5    1   0.0369  0.7141  0.5535  11.00000  0.05    0.11
Q6    1   0.0821  0.5881  1.1538  11.00000  0.05    0.11
Q7    1   0.5376  0.1849  1.3614  11.00000  0.05    0.11
Q8    1   0.3914  0.3817  1.0345  11.00000  0.05    0.10
Q9    1  -0.1159  0.4699  0.5964  11.00000  0.05    0.10
Q10   1   0.4638  0.1523  1.2799  11.00000  0.05    0.10
Q11   1   0.1263  0.2175  0.7178  11.00000  0.05    0.10
Q12   1   0.4452  0.3712  1.2805  11.00000  0.05    0.10
Q13   1   0.5112  0.5012  1.4524  11.00000  0.05    0.10
Q14   1   0.1166  0.3946  1.2671  11.00000  0.05    0.10
Q15   1   0.3221  0.3923  1.4110  11.00000  0.05    0.10
Q16   1   0.0167  0.2529  0.5610  11.00000  0.05    0.09
Q17   1   0.2045  0.2785  1.1016  11.00000  0.05    0.09
Q18   1   0.4032  0.1410  1.3581  11.00000  0.05    0.09
Q19   1   0.5577  0.9314  1.4226  11.00000  0.05    0.09
Q20   1   0.2945  0.4980  0.6388  11.00000  0.05    0.09
;
_shelx_res_checksum              85593
_shelx_hkl_file
;
   0   0   2 120643. 681.457   1
   0   0  -2 113279. 665.423   1
   0   0  -2 119521. 623.596   2
   0   0  -3 54146.7 571.399   1
   0   0  -3 54395.0 528.185   2
   0   0   3 54953.2 523.280   2
   0   0   4 41.4651 30.0115   2
   0   0   5 25645.7 472.869   2
   0   0   6 3465.89 200.541   2
   0   0   7 937.664 116.234   2
   0   0   8 269.404 69.9472   2
   0   0   9 119.870 63.6265   2
   0   0  10 228.421 76.9922   2
   0   0  11 122.342 79.7988   6
   0   0  11 96.6045 52.9639   2
   0   0  12 310.079 120.306   6
   0   0  12 200.888 79.2682   2
   0   0  13 160.704 88.6279   6
   0  -1   0 13.9085 12.9201   5
   0   1   1 3811.08 131.954   1
   0  -1   1 3279.06 100.070   5
   0   1  -1 3409.37 101.970   5
   0  -1  -1 3228.56 122.390   1
   0  -1   2 2396.23 124.368   2
   0   1   2 2507.39 127.892   6
   0   1  -2 2485.10 86.5952   5
   0  -1   2 2439.44 84.4826   5
   0  -1  -2 2435.39 124.614   1
   0   1   3 22178.3 418.230   6
   0   1  -3 22594.5 274.164   5
   0  -1   3 21986.0 411.514   2
   0  -1  -3 22064.9 259.706   2
   0  -1  -3 21828.5 406.926   1
   0   1   3 21970.8 249.446   2
   0  -1   4 15601.8 390.164   2
   0   1   4 15566.3 394.778   6
   0   1  -4 15660.2 265.718   5
   0  -1  -4 15339.9 391.467   1
   0   1   4 15312.0 261.647   2
   0  -1  -4 15066.6 271.579   2
   0  -1  -5 4328.00 235.287   1
   0   1   5 4060.64 162.632   2
   0  -1   5 4537.99 237.213   2
   0   1  -5 4151.43 157.247   5
   0   1   5 4396.17 240.820   6
   0  -1  -6 12435.9 418.449   1
   0  -1   6 12355.1 410.259   2
   0   1   6 11868.1 304.594   2
   0   1  -6 11066.2 279.047   5
   0   1   6 11501.1 417.493   6
   0   1   7 535.776 109.521   6
   0  -1   7 330.014 82.9976   2
   0   1   7 414.601 68.4840   2
   0  -1  -7 474.532 104.090   1
   0   1  -7 489.981 69.3305   5
   0   1   8 10558.6 346.946   2
   0  -1   8 10951.5 447.063   2
   0   1  -8 10873.6 325.901   5
   0  -1  -8 11148.0 466.139   1
   0   1   8 11826.7 485.482   6
   0   1   9 2638.70 195.005   2
   0  -1   9 2647.29 235.456   2
   0   1   9 2773.01 261.216   6
   0   1  -9 2593.37 174.091   5
   0  -1  10 2607.36 248.509   2
   0   1  10 2732.45 208.922   2
   0   1  10 2872.51 286.375   6
   0   1  11 1482.48 219.495   6
   0  -1  11 1372.20 191.736   2
   0  -1  12 291.368 93.9088   2
   0   1  12 366.382 130.345   6
   0   1  13 681.397 176.876   6
   0  -1  13 677.367 152.303   2
   0  -2   0 5761.27 207.097   1
   0   2  -1 12076.0 289.156   5
   0  -2  -1 12794.2 314.577   1
   0  -2  -2 14275.8 352.200   1
   0   2  -2 14152.9 293.260   5
   0  -2   2 14234.2 356.627   2
   0  -2  -3 7497.25 134.439   2
   0  -2   3 8070.92 212.622   5
   0  -2  -3 8264.37 291.313   1
   0  -2   3 8238.29 298.613   2
   0   2  -3 8340.65 221.719   5
   0  -2  -4 5066.24 127.007   2
   0   2  -4 5634.56 183.793   5
   0  -2  -4 5334.73 258.241   1
   0  -2   4 5560.08 143.093   3
   0  -2   4 5527.57 267.740   2
   0  -2   5 5727.22 294.316   2
   0  -2  -5 5599.67 284.145   1
   0  -2  -5 5229.14 152.403   2
   0   2   5 5329.25 146.121   2
   0   2  -5 5342.78 182.983   5
   0   2   5 5729.86 298.167   6
   0   2  -6 2568.39 134.752   5
   0  -2   6 2731.59 223.211   2
   0   2   6 2753.08 123.926   2
   0   2   6 2594.07 218.193   6
   0  -2  -6 3107.48 235.200   1
   0   2  -7 3859.25 173.344   5
   0   2   7 4091.29 288.679   6
   0  -2   7 4576.17 299.923   2
   0  -2  -7 4284.17 291.556   1
   0   2   7 4171.29 171.413   2
   0   2  -8 2470.39 147.807   5
   0   2   8 2438.81 242.782   6
   0   2   8 2435.67 146.916   2
   0  -2  -8 2363.37 234.959   1
   0  -2   8 2714.42 246.009   2
   0   2   9 1313.70 194.240   6
   0  -2   9 1193.04 175.710   2
   0  -2  -9 1289.11 188.771   1
   0   2  10 319.606 104.654   6
   0  -2  10 396.641 118.051   2
   0  -2 -10 264.498 103.012   1
   0  -2  11 38.4287 45.2485   2
   0   2  11 109.880 94.5013   6
   0  -2 -11 98.1710 77.1161   1
   0   2  12 175.663 93.6279   6
   0  -2  12 377.643 116.281   2
   0   2  13 175.779 118.382   6
   0  -2  13 66.0060 66.4239   2
   0  -2  14 79.4995 80.2355   2
   0  -3   0 65.7766 45.4402   1
   0  -3   1 8551.61 298.047   2
   0  -3  -1 8583.89 317.238   1
   0   3  -2 4146.40 206.572   5
   0  -3   2 4125.38 227.979   2
   0  -3  -2 4147.81 229.108   1
   0  -3  -3 574.127 50.2843   2
   0  -3   3 725.785 104.695   2
   0  -3  -3 729.319 104.815   1
   0   3  -3 781.110 89.1410   5
   0  -3   4-13.3783 34.0752   2
   0   3  -4 48.4219 30.5248   5
   0  -3  -4 54.9907 15.3526   2
   0  -3  -4 158.130 66.2173   1
   0   3  -5 852.098 90.9092   5
   0  -3  -5 826.642 49.0691   2
   0  -3   5 1092.33 148.219   2
   0  -3   5 1064.47 86.1187   3
   0  -3  -5 1098.21 141.747   1
   0   3  -6 4289.66 195.538   5
   0  -3   6 4056.82 298.685   2
   0  -3   6 4240.43 132.881   3
   0  -3  -6 4331.11 290.100   1
   0   3  -7 1595.40 121.653   5
   0  -3  -7 1617.91 197.956   1
   0  -3   7 1304.50 184.208   2
   0  -3   8 6907.43 419.647   2
   0  -3  -8 6858.40 408.492   1
   0  -3  -9 394.892 117.553   1
   0  -3   9 479.469 122.860   2
   0  -3  10 278.732 95.9117   2
   0  -3 -10 185.728 92.0328   1
   0  -3 -11 569.156 151.010   1
   0  -3  11 622.467 153.184   2
   0  -3 -12 276.968 132.068   1
   0  -3  12-106.117 78.0838   2
   0  -3  13 445.244 155.455   2
   0  -4   0 13453.9 401.551   2
   0  -4   0 14166.1 467.308   1
   0  -4  -1 806.371 120.841   1
   0  -4  -1 976.065 105.074   2
   0  -4   1 1018.60 127.241   1
   0  -4   1 955.434 121.266   2
   0  -4  -2 9331.82 386.722   1
   0  -4   2 10073.7 395.085   2
   0  -4  -3 924.968 131.052   1
   0  -4   3 1377.23 161.328   2
   0  -4  -4 1843.48 191.870   1
   0  -4   4 1844.70 197.634   2
   0   4  -5 1148.46 126.306   5
   0  -4   5 1074.09 111.718   3
   0  -4  -5 1176.05 164.842   1
   0  -4   5 1177.73 170.439   2
   0   4  -6 1053.58 116.424   5
   0  -4   6 1373.46 188.076   2
   0  -4  -6 1081.97 161.884   1
   0  -4   7 1329.43 201.467   2
   0  -4  -7 1195.68 183.294   1
   0  -4  -8 564.354 137.931   1
   0  -4   8 725.169 161.421   2
   0  -4   9 303.306 108.990   2
   0  -4  -9 467.850 128.273   1
   0  -4  10 484.271 149.740   2
   0  -4 -10 373.831 140.828   1
   0  -4  11 274.173 111.690   2
   0  -4 -11 288.417 126.495   1
   0  -5   0-7.22856 34.1141   2
   0  -5   0-14.1063 37.7508   1
   0  -5  -1 4336.03 299.883   1
   0  -5  -1 4830.67 256.737   2
   0  -5   1 4775.27 308.907   1
   0  -5   1 4835.80 292.160   2
   0  -5   2 130.873 60.7988   2
   0  -5  -2 112.483 65.9264   1
   0  -5  -2 81.5724 39.7226   2
   0  -5  -3 93.2892 52.6521   1
   0  -5   3 123.203 65.2487   2
   0  -5  -4 1573.96 199.324   1
   0  -5   4 1835.60 216.076   2
   0  -5  -5 231.890 88.9501   1
   0  -5   5 263.217 88.7813   2
   0  -5  -6 1647.94 215.950   1
   0  -5   6 1383.52 210.298   2
   0  -5  -7 411.189 119.403   1
   0  -5   7 525.528 140.066   2
   0  -5  -8 234.406 99.6403   1
   0  -5   8 246.818 105.626   2
   0  -5   9-37.2882 59.5811   2
   0  -5  -9-2.11525 61.3465   1
   0  -5  10 184.360 86.6437   2
   0  -5 -10 320.140 134.648   1
   0  -6   0 1251.18 187.752   1
   0  -6   0 1532.41 179.424   2
   0  -6   1 1141.25 181.387   1
   0  -6  -1 1045.72 170.875   1
   0  -6   1 1120.36 163.614   2
   0  -6   2 712.945 137.913   2
   0  -6  -2 545.018 128.423   1
   0  -6   2 625.402 127.374   1
   0  -6   3 25.0431 56.1775   1
   0  -6  -3-7.56754 58.4868   1
   0  -6   4 324.968 119.221   2
   0  -6  -4-29.2003 59.1930   1
   0  -6   5 405.565 111.269   2
   0  -6  -5 320.702 107.132   1
   0  -6   6 119.104 71.4656   2
   0  -6  -6 148.132 101.490   1
   0  -6   7 223.677 118.614   2
   0  -6  -7 158.249 94.6134   1
   0  -6  -8 115.033 102.512   1
   0  -6   8-134.867 93.5358   2
   0  -7   0-15.0532 53.1131   1
   0  -7   1 66.3211 66.4152   1
   0  -7  -1 210.112 84.8094   1
   0  -7   2 38.2128 58.8516   1
   0  -7  -2-100.539 92.3554   1
   0  -7  -3 22.6870 60.2473   1
   0  -7   3-19.6220 59.9888   1
   0  -7  -4 238.547 107.775   1
   0  -7   4-70.3062 59.0360   1
   0  -7   4 132.889 96.3374   2
   0  -7   5-37.0235 57.7357   2
   0  -7  -5 7.87587 63.0853   1
   0  -7  -6 161.618 89.6685   1
   0  -7   6 93.6058 70.4678   2
   0  -8   0 48.9757 85.9017   1
   0  -8   1 80.4129 79.6365   1
   0  -8  -1 182.445 87.9700   1
   0  -8  -2 196.980 105.413   1
   0  -8   2 196.171 97.8477   1
   0  -8   3 89.2081 65.8106   1
  -1   0  14 331.990 136.999   6
  -1   0  13 141.705 89.7109   6
  -1   0  12 755.078 164.619   6
  -1   0  11 517.824 105.565   2
  -1   0  11 627.815 156.263   6
  -1   0  10 1409.97 197.128   6
  -1   0  10 1727.21 189.286   2
  -1   0   9 2199.05 224.538   6
  -1   0   9 2087.33 188.884   2
  -1   0   8 1919.53 170.373   2
  -1   0   7 2535.02 180.724   2
  -1   0   6 1234.21 120.298   2
   1   0  -5 7898.36 283.772   1
  -1   0   5 7692.14 256.957   2
   1   0  -4 7056.98 236.422   1
  -1   0   4 7126.61 216.836   2
   1   0  -3 8071.51 170.552   4
   1   0  -3 8432.79 219.313   1
  -1   0   2 1063.63 66.7191   6
  -1   0   2 1252.45 69.7995   1
   1   0  -2 1288.15 71.6169   1
   1   0  -2 1157.16 61.8843   4
   1   0   2 1162.05 78.3417   2
   1   0   2 1148.59 60.5123   3
  -1   0  -2 1243.92 81.9357   2
  -1   0  -2 1127.90 58.6828   3
   1   0   3 142619. 905.783   2
  -1   0  -3 146688. 668.775   3
  -1   0  -4 13616.9 231.784   3
   1   0   4 13492.5 328.296   2
   1   0   5 81968.6 863.984   2
  -1   0  -5 81025.0 596.163   3
  -1   0  -6 857.818 70.2797   3
   1   0   6 823.714 104.697   2
   1   0   7 2999.00 208.642   2
  -1   0  -7 2906.85 130.924   3
  -1   0  -8 1376.27 94.8857   3
   1   0   8 1330.48 147.709   2
   1   0   9 2543.24 217.100   2
   1   0  10 257.220 82.1122   2
   1   0  11 331.572 87.5085   2
   1   0  12 336.690 96.4252   2
   1   0  12 447.495 152.212   6
   1   0  13 1196.00 223.109   6
  -1  -1  14 195.102 112.785   6
  -1  -1  13 441.219 144.704   6
  -1  -1  13 413.912 120.482   2
  -1   1  13 468.026 141.419   6
  -1  -1  12 1.61967 38.4091   2
  -1   1  12 10.4699 50.1282   6
  -1   1  11-3.94976 44.1466   6
  -1  -1  11 14.8179 38.5893   2
   1   1 -10 412.261 89.7232   5
  -1   1  10 393.237 82.1807   2
  -1  -1  10 287.020 91.8710   2
  -1   1  10 263.813 105.479   6
   1  -1  -9 2794.66 252.780   1
  -1   1   9 2517.72 179.202   2
  -1  -1   9 2380.10 221.665   2
  -1   1   9 2340.51 239.655   6
   1   1  -9 2269.66 178.947   5
  -1  -1   8 2745.55 223.656   2
   1  -1  -8 2504.68 221.833   1
  -1   1   8 2844.55 176.618   2
  -1   1   8 2473.64 231.968   6
   1   1  -8 2542.83 176.867   5
   1  -1  -7 3686.81 246.934   1
  -1   1   7 4011.69 263.731   6
  -1  -1   7 4288.41 260.562   2
  -1   1   7 3845.42 185.584   2
   1   1  -7 3621.29 196.967   5
   1   1  -6 9218.63 142.339   3
  -1   1   6 10177.1 270.778   2
   1   1  -6 10068.5 298.604   5
  -1  -1   6 10588.4 371.427   2
   1  -1  -6 10157.9 377.905   1
  -1   1   6 10040.4 379.688   6
  -1   1   5 4412.92 156.144   2
  -1  -1   5 4343.51 224.115   2
  -1   1   5 4496.19 235.122   6
   1   1  -5 4345.39 104.491   3
   1  -1  -5 4482.16 236.573   1
   1   1  -5 4565.74 191.298   5
  -1  -1   4 16639.5 391.780   2
  -1   1   4 16118.8 395.536   6
   1   1  -4 16129.4 203.446   3
   1   1  -4 16153.9 320.825   5
  -1  -1   4 15715.1 199.831   4
  -1   1   4 15969.8 237.931   2
   1  -1  -4 16723.2 396.450   1
  -1  -1   3 1577.91 98.0583   5
   1  -1  -3 1547.36 116.183   1
  -1   1   3 1754.75 59.9438   2
   1   1  -3 1630.25 97.1034   5
   1   1  -3 1616.86 72.3953   3
  -1   1   3 1541.08 118.925   6
  -1  -1   2 10695.4 189.309   3
   1   1  -2 10528.1 189.929   3
   1  -1  -2 10467.3 255.150   1
  -1  -1   2 10963.6 224.990   5
   1   1  -2 10686.6 225.325   5
   1   1  -1 275983. 1042.67   5
   1  -1  -1 284814. 1144.91   1
  -1  -1   1 279478. 1043.30   5
  -1  -1   1 275139. 991.000   3
  -1   1   1 290746. 1124.38   1
  -1   1   0 47578.0 393.787   2
  -1  -1   0 46722.6 459.437   5
   1   1   0 45493.3 349.387   1
   1   1   0 46770.3 453.783   5
  -1  -1   0 46718.3 349.413   1
   1  -1   0 46777.8 389.174   2
   1   1   1 74061.5 545.031   6
  -1  -1  -1 71649.7 526.531   6
   1   1   1 73196.7 601.074   5
  -1   1  -1 73622.8 601.801   2
   1  -1   1 72987.8 596.216   2
  -1  -1  -1 74310.6 605.593   5
   1   1   1 72707.3 532.654   1
  -1  -1  -1 71929.2 484.679   2
  -1  -1  -1 69880.5 522.672   1
  -1  -1  -2 7747.33 218.040   1
   1  -1   2 7427.23 136.214   4
   1   1   2 7681.68 170.813   2
   1   1   2 7530.21 218.637   6
  -1  -1  -2 7814.67 174.605   2
   1  -1   2 7636.92 233.870   2
   1  -1   3 10467.2 304.149   2
   1   1   3 10178.6 295.500   6
  -1  -1  -3 10262.3 227.143   2
  -1  -1  -3 10220.4 294.245   1
   1   1   3 10138.6 223.463   2
   1   1   4 14607.4 300.885   2
   1  -1   4 14742.5 395.359   2
   1   1   4 14802.0 394.841   6
  -1   1  -4 13937.4 188.700   5
  -1  -1  -4 14713.9 385.816   1
  -1  -1  -5 6432.07 287.189   1
  -1   1  -5 6201.96 156.075   5
   1   1   5 6491.45 294.700   6
   1  -1   5 6085.09 282.090   2
   1   1   5 6480.82 224.614   2
  -1  -1  -6 3457.82 233.729   1
   1   1   6 3314.52 180.232   2
   1  -1   6 3580.68 232.447   2
  -1   1  -6 3368.19 133.714   5
   1   1   6 3584.20 241.956   6
  -1   1  -7 2740.59 136.447   5
  -1  -1  -7 2877.13 230.298   1
   1   1   7 2601.77 174.919   2
   1  -1   7 2960.84 228.971   2
   1   1   7 2986.25 240.688   6
  -1   1  -8 2371.90 139.395   5
   1   1   8 2512.85 240.615   6
   1  -1   8 2555.12 225.291   2
   1   1   8 2252.35 177.782   2
   1  -1   9 49.0918 47.3027   2
  -1  -1  -9 102.154 45.5599   3
   1   1   9 131.386 50.3253   2
   1   1   9 89.1596 56.5163   6
   1   1  10 352.815 78.3779   2
   1   1  10 507.703 119.914   6
   1  -1  10 411.394 111.154   2
   1   1  11 952.093 182.827   6
   1  -1  11 913.804 164.574   2
   1   1  12-14.0373 74.9921   6
   1  -1  12-24.9803 66.1776   2
   1   1  13 1113.87 213.585   6
   1  -1  13 906.923 176.061   2
  -1  -2  14 72.1282 53.3324   2
  -1   2  13 236.293 92.9119   6
  -1  -2  13 92.4906 78.3392   2
  -1  -2  12 1026.42 191.586   2
  -1   2  12 1332.64 229.017   6
  -1   2  11 395.423 111.434   6
   1  -2 -11 373.174 124.818   1
  -1  -2  11 338.784 113.156   2
  -1  -2  10 2666.33 274.057   2
  -1   2  10 2781.07 286.850   6
   1  -2 -10 2865.38 282.296   1
   1   2  -9 5958.94 270.918   5
   1  -2  -9 6497.49 393.219   1
  -1  -2   9 6361.94 388.792   2
  -1   2   9 6714.93 412.373   6
  -1   2   8 5064.49 340.778   6
   1  -2  -8 5326.95 338.959   1
   1   2  -8 4776.66 233.402   5
  -1   2   8 4499.26 175.488   2
  -1  -2   8 5308.98 339.138   2
   1   2  -7 7780.16 280.036   5
  -1   2   7 8887.01 420.155   6
   1  -2  -7 8953.69 407.938   1
  -1  -2   7 8594.46 403.412   2
  -1   2   7 7818.07 198.808   2
  -1  -2   6 652.398 39.8168   4
  -1   2   6 724.195 51.3970   2
  -1   2   6 947.321 137.498   6
   1   2  -6 821.824 90.8296   5
   1  -2  -6 651.588 107.905   1
  -1  -2   6 930.383 132.952   2
   1  -2  -5 9568.51 361.944   1
   1   2  -5 9672.24 283.322   5
  -1  -2   5 9936.11 377.684   2
   1  -2  -4 13713.5 406.471   1
   1   2  -4 13641.4 323.436   5
  -1  -2   4 14008.7 258.075   3
   1  -2  -3 454.993 75.7925   1
   1   2  -3 466.294 65.1628   5
  -1  -2   3 569.414 61.8488   3
   1  -2  -2 13384.5 352.324   1
   1  -2  -2 12487.2 162.942   2
   1   2  -2 13731.2 319.076   5
   1   2  -1 16212.1 351.836   5
   1  -2  -1 17693.1 400.576   1
   1  -2  -1 16061.0 255.614   2
   1  -2   0 12460.2 272.424   2
   1   2   0 13297.8 334.086   5
  -1  -2   0 13584.6 296.493   1
   1  -2   1 300.471 47.8226   5
  -1  -2  -1 273.928 51.0199   1
   1  -2   1 302.017 57.8347   2
   1  -2   2 17111.8 408.252   2
   1  -2   2 17032.6 279.841   5
  -1  -2  -2 17443.3 381.440   1
  -1  -2  -2 16447.4 277.760   2
   1  -2   3 5945.24 152.323   5
  -1  -2  -3 5983.48 250.120   1
  -1   2  -3 5690.01 154.400   5
  -1  -2  -3 5631.08 165.889   2
   1  -2   3 6230.93 272.546   2
   1   2   4 7962.98 324.182   6
   1   2   4 7559.24 207.404   2
  -1   2  -4 7089.93 164.800   5
   1  -2   4 8202.69 333.794   2
   1  -2   4 7574.63 163.839   5
  -1  -2  -4 7424.90 303.362   1
  -1  -2  -5 1394.02 150.936   1
   1   2   5 1272.39 144.566   6
   1   2   5 1197.23 91.6172   2
  -1   2  -5 1039.89 65.6063   5
   1  -2   5 1466.89 161.096   2
   1  -2   6 1521.98 172.408   2
  -1   2  -6 1386.56 78.7396   5
   1   2   6 1737.65 180.087   6
   1   2   6 1489.78 109.141   2
  -1  -2  -6 1401.71 161.964   1
   1  -2   7 12088.7 486.828   2
   1   2   7 11759.9 485.264   6
  -1  -2  -7 11595.3 467.416   1
  -1   2  -7 11153.3 228.314   5
   1   2   7 11413.2 318.230   2
   1   2   8 1484.97 194.591   6
   1   2   8 1703.77 138.142   2
  -1  -2  -8 1905.79 217.093   1
   1  -2   8 1799.53 205.949   2
   1   2   9 1747.72 225.178   6
   1  -2   9 1745.93 215.145   2
  -1  -2  -9 1547.13 210.923   1
   1  -2  10 587.405 131.476   2
   1   2  10 897.749 172.855   6
  -1  -2 -10 1146.11 200.356   1
   1   2  11 608.896 157.243   6
   1  -2  11 367.762 112.939   2
   1  -2  12 486.807 136.698   2
   1   2  12 605.303 160.956   6
   1  -2  13 384.326 130.145   2
  -1  -3  13 65.3280 78.3457   2
   1  -3 -12 147.595 102.925   1
  -1  -3  12 14.0695 67.3413   2
  -1  -3  11 111.748 91.6032   2
   1  -3 -11 24.0551 87.1843   1
  -1  -3  10 29.1294 38.3488   2
   1  -3 -10 198.129 108.417   1
  -1  -3   9 609.674 151.569   2
   1  -3  -9 560.897 139.044   1
  -1  -3   8 3072.81 280.408   2
   1   3  -8 2724.37 182.197   5
   1  -3  -8 3122.55 282.423   1
   1   3  -7 80.9746 35.0161   5
   1  -3  -7 213.538 84.7519   1
  -1  -3   7 124.532 72.1700   2
   1   3  -6 3939.28 212.892   5
  -1  -3   6 3968.78 150.304   3
   1  -3  -6 4054.31 279.931   1
  -1  -3   6 3891.90 284.675   2
   1  -3  -5 1473.70 170.544   1
  -1  -3   5 1464.02 168.357   2
   1   3  -5 1269.15 120.814   5
  -1  -3   5 1361.04 103.432   3
   1   3  -4 3985.86 210.180   5
  -1  -3   4 3857.38 253.620   2
  -1  -3   4 4152.39 193.053   3
   1  -3  -4 3914.01 249.303   1
   1  -3  -3 20291.2 231.982   2
   1  -3  -3 22211.2 551.790   1
   1   3  -3 22950.7 491.384   5
   1   3  -2 14584.8 401.352   5
   1  -3  -2 14764.8 437.950   1
   1  -3  -2 14421.8 265.181   2
   1   3  -1 5728.68 263.614   5
   1  -3  -1 5920.69 287.842   1
   1  -3  -1 6070.85 208.485   2
  -1  -3   0 1119.78 112.359   1
   1  -3   0 1246.51 109.758   2
  -1  -3  -1 15955.2 406.189   1
   1  -3   1 16150.6 416.065   2
  -1  -3  -2 12293.2 382.535   1
   1  -3   2 12987.7 404.476   2
  -1  -3  -3 8534.29 333.287   1
   1  -3   3 9126.83 367.542   2
   1  -3   4 1888.97 181.426   2
  -1  -3  -4 1743.77 169.194   1
   1  -3   5 6962.31 368.136   2
  -1  -3  -5 7061.32 347.574   1
  -1  -3  -6 5323.47 323.665   1
   1  -3   6 5034.99 133.791   3
  -1   3  -6 4997.76 173.150   5
   1  -3   6 5276.27 339.289   2
  -1  -3  -7 3948.57 300.925   1
   1  -3   7 4021.30 311.689   2
   1   3   8 427.614 117.081   6
   1  -3   8 441.822 120.531   2
  -1  -3  -8 445.320 134.697   1
  -1  -3  -9 144.630 90.8522   1
   1   3   9-6.97756 59.1437   6
   1  -3   9 34.1026 46.9119   2
   1  -3  10 386.571 119.468   2
  -1  -3 -10 392.245 137.606   1
   1   3  10 202.901 103.803   6
   1   3  11 452.197 134.757   6
  -1  -3 -11 401.797 126.301   1
   1  -3  11 560.615 142.935   2
   1   3  12-99.1991 90.5276   6
   1  -3  12-80.0579 75.0065   2
  -1  -4  12-55.1306 66.0448   2
  -1  -4  11 498.030 143.719   2
   1  -4 -11 325.800 125.400   1
   1  -4 -10 412.142 133.699   1
  -1  -4  10 392.881 125.803   2
   1  -4  -9 282.310 101.762   1
  -1  -4   9 304.687 119.787   2
  -1  -4   8 810.720 166.143   2
   1  -4  -8 1000.48 175.514   1
   1   4  -7 3330.67 218.482   5
  -1  -4   7 3580.33 315.566   2
   1  -4  -7 2838.40 271.874   1
   1   4  -6 694.025 102.570   5
  -1  -4   6 714.962 88.7482   3
   1  -4  -6 838.407 151.127   1
  -1  -4   6 649.967 137.403   2
   1   4  -5 3866.05 238.512   5
  -1  -4   5 3869.72 298.377   2
  -1  -4   5 4097.49 219.944   3
   1  -4  -5 3644.27 282.130   1
   1  -4  -4 779.026 133.274   1
   1   4  -4 932.540 120.976   5
  -1  -4   4 854.639 109.915   3
  -1  -4   4 966.852 143.671   2
   1  -4  -3 781.782 125.205   1
   1  -4  -3 681.019 63.5139   2
  -1  -4   3 648.298 112.346   2
   1   4  -3 866.589 116.408   5
   1   4  -2 6628.11 325.664   5
   1  -4  -2 6016.68 324.191   1
   1  -4  -2 6185.07 224.053   2
  -1  -4   1 1839.80 167.635   1
   1  -4  -1 1828.34 142.279   2
   1  -4  -1 1990.42 189.009   1
   1  -4   0 1812.91 177.909   1
  -1  -4   0 1974.47 173.000   1
   1  -4   0 1770.34 152.619   2
  -1  -4  -1 494.905 96.9237   1
   1  -4   1 404.881 81.5948   2
   1  -4   2 241.617 68.7438   2
  -1  -4  -2 405.310 83.2717   1
  -1  -4  -3 760.741 120.460   1
   1  -4   3 587.467 113.619   2
  -1  -4  -4 192.088 82.3661   1
   1  -4   4 193.625 63.2819   2
   1  -4   5 3680.05 289.727   2
  -1  -4  -5 3140.58 256.400   1
  -1  -4  -6 449.564 109.452   1
   1  -4   6 608.209 143.401   2
  -1  -4  -7 4685.72 348.701   1
   1  -4   7 5424.21 392.439   2
  -1  -4  -8 147.742 91.7568   1
   1  -4   8-9.74734 44.8616   2
  -1  -4  -9 392.362 125.453   1
   1  -4   9 554.808 150.732   2
   1  -4  10 40.0575 68.4809   2
  -1  -4 -10 155.065 92.3032   1
  -1  -4 -11 30.2375 48.9800   1
   1  -4  11 33.2026 74.5937   2
  -1  -5  10 30.7083 49.7782   2
   1  -5 -10-66.2908 96.5090   1
   1  -5  -9 92.7015 68.3256   1
  -1  -5   9 48.1139 54.7081   2
   1  -5  -8 182.896 83.3589   1
  -1  -5   8-52.5999 71.5411   2
   1  -5  -7 85.9615 55.3502   1
  -1  -5   7-35.3139 68.1983   2
   1  -5  -6 429.077 120.576   1
  -1  -5   6 620.372 141.905   2
  -1  -5   5 123.957 74.5520   2
   1   5  -5 59.2551 47.4278   5
   1  -5  -5 73.1258 68.7563   1
  -1  -5   5 104.533 53.8020   3
  -1  -5   4 968.576 136.071   3
  -1  -5   4 917.016 155.092   2
   1  -5  -4 843.109 155.760   1
   1  -5  -3 32.3656 45.4996   1
  -1  -5   3 158.561 67.5224   2
   1  -5  -2 184.682 53.6469   2
  -1  -5   2 68.9932 52.4811   1
   1  -5  -2 51.4987 51.0070   1
  -1  -5   2 184.183 78.4866   2
  -1  -5   1 5843.30 327.583   2
  -1  -5   1 5852.94 340.945   1
   1  -5  -1 5291.59 336.773   1
   1  -5  -1 5471.24 271.282   2
   1  -5   0 3155.88 266.891   1
  -1  -5   0 2808.12 233.628   1
   1  -5   0 2746.69 212.582   2
  -1  -5  -1 1435.38 171.092   1
   1  -5   1 1582.91 186.633   1
   1  -5   1 1693.57 180.839   2
   1  -5   2 1700.85 189.909   2
  -1  -5  -2 1491.06 178.127   1
  -1  -5  -3 261.838 88.5384   1
   1  -5   3 418.951 101.866   2
   1  -5   4 1603.94 204.733   2
  -1  -5  -4 1788.33 205.927   1
   1  -5   5 249.017 86.2456   2
  -1  -5  -5 107.386 75.1990   1
  -1  -5  -6 905.273 160.969   1
   1  -5   6 1172.90 193.097   2
  -1  -5  -7-22.2204 46.1746   1
   1  -5   7 56.8816 69.5642   2
   1  -5   8 95.0760 85.2380   2
  -1  -5  -8 32.3058 47.0489   1
  -1  -5  -9 187.573 95.1928   1
   1  -5   9 112.570 72.5267   2
   1  -5  10 373.041 137.882   2
  -1  -5 -10 331.366 114.022   1
  -1  -6   8 64.0806 68.6444   2
   1  -6  -8 27.6717 76.6601   1
   1  -6  -7 97.5710 78.4007   1
  -1  -6   7 99.6293 83.8462   2
  -1  -6   6 123.394 92.6399   2
   1  -6  -6 21.1171 51.5358   1
  -1  -6   5 36.2269 47.6461   2
   1  -6  -5 75.0696 69.9895   1
  -1  -6   4 29.1690 41.1082   3
  -1  -6   4 86.3113 65.6342   2
   1  -6  -4-49.0431 44.6717   1
   1  -6  -3 311.302 107.202   1
  -1  -6   3 385.540 103.594   2
  -1  -6   3 320.210 95.7278   1
  -1  -6   2 390.500 102.265   2
   1  -6  -2 335.030 105.802   1
  -1  -6   2 495.046 121.876   1
  -1  -6   1 212.057 84.6658   2
  -1  -6   1 248.482 86.7521   1
   1  -6  -1 98.7799 51.3296   1
   1  -6   0 1891.56 236.974   1
   1  -6   0 1902.82 196.925   2
  -1  -6   0 2146.41 228.624   1
  -1  -6   0 2031.47 204.963   2
   1  -6   1 852.260 139.643   2
   1  -6   1 881.494 169.520   1
  -1  -6  -1 823.072 146.997   1
   1  -6   2 286.105 94.6110   2
   1  -6   2 425.068 116.278   1
  -1  -6  -2 374.539 106.401   1
  -1  -6  -3 440.488 119.202   1
   1  -6   3 353.101 100.870   2
  -1  -6  -4-15.6180 55.5845   1
   1  -6   4 65.5493 60.2163   2
   1  -6   5 289.323 98.4930   2
  -1  -6  -5 394.490 115.517   1
  -1  -6  -6 34.1662 47.2388   1
   1  -6   6 222.004 97.6660   2
   1  -6   7-16.6809 56.9456   2
  -1  -6  -7 145.736 97.5537   1
   1  -6   8 33.7197 80.7798   2
  -1  -6  -8 147.342 104.078   1
  -1  -7   6 521.376 148.483   2
   1  -7  -6 448.268 148.778   1
  -1  -7   5 169.836 76.8992   1
  -1  -7   5 141.868 100.488   2
   1  -7  -5 51.8976 80.0192   1
  -1  -7   4 179.201 99.1872   1
  -1  -7   4 366.472 126.173   2
   1  -7  -4 195.617 109.949   1
  -1  -7   3 573.699 140.926   2
  -1  -7   3 491.880 135.326   1
   1  -7  -3 411.782 125.144   1
  -1  -7   3 534.440 136.396   3
  -1  -7   2 89.0414 61.8933   2
   1  -7  -2-39.3281 71.4217   1
  -1  -7   2 40.9190 67.4586   1
   1  -7  -1 635.573 150.274   1
  -1  -7   1 416.218 121.807   1
  -1  -7   0 83.6466 74.3282   1
   1  -7   0-22.6333 54.1082   1
  -1  -7  -1 394.800 112.656   1
   1  -7   1 700.726 159.648   1
  -1  -7  -2-39.4482 81.3733   1
   1  -7   2 176.320 99.1046   1
   1  -7   3 236.321 98.9114   1
   1  -7   3 249.988 93.5845   2
  -1  -7  -3 250.703 107.989   1
  -1  -7  -4-39.5244 70.9813   1
   1  -7   4-18.4151 43.4633   1
  -1  -7  -5-4.00337 51.4137   1
   1  -7   5 176.074 98.4271   2
   1  -7   6-1.72604 68.8125   2
  -1  -7  -6 78.3791 82.3388   1
  -1  -8   2-112.570 95.9961   3
  -1  -8   1 188.328 108.779   3
   1  -8  -1 129.146 107.775   1
   1  -8   0 160.461 82.0441   1
  -1  -8   0 69.5286 62.6820   1
  -1  -8  -1 94.9408 55.1855   1
   1  -8   1 148.909 105.559   1
  -1  -8  -2-70.4394 76.9753   1
   1  -8   2 244.357 113.828   1
  -1  -8  -3 76.1585 77.6905   1
  -2   0  14 847.846 191.304   6
  -2   0  13-7.02215 55.2311   6
  -2   0  12 937.692 174.540   6
  -2   0  11 51.1854 40.1651   2
  -2   0  11 33.4466 42.6516   6
  -2   0  10 82.9628 58.4187   6
  -2   0  10 69.3205 55.1587   2
  -2   0   9 4455.97 267.626   2
  -2   0   9 4369.41 303.928   6
  -2   0   8 310.299 73.1102   2
  -2   0   8 387.140 88.7137   6
  -2   0   7 4632.88 265.595   6
  -2   0   7 4422.49 231.526   2
   2   0  -7 4961.64 267.035   1
  -2   0   6 1611.89 134.381   2
  -2   0   6 1619.71 147.000   6
   2   0  -6 1535.38 139.709   1
  -2   0   5 386.150 66.8024   6
   2   0  -5 505.243 75.0451   1
   2   0  -4 4882.15 191.646   1
  -2   0   4 4321.86 182.756   6
   2   0  -3 5407.32 172.542   1
   2   0  -3 5023.19 164.812   4
  -2   0   3 5426.47 169.687   1
  -2   0   3 5278.22 170.548   6
   2   0  -2 115166. 594.184   1
  -2   0   2 116944. 598.018   1
   2   0  -2 110688. 745.562   5
   2   0  -2 117653. 602.542   6
   2   0  -2 112733. 697.749   4
  -2   0   2 113447. 717.613   4
  -2   0   1 133502. 708.056   2
   2   0  -1 128226. 713.180   4
  -2   0   1 128891. 729.267   4
   2   0  -1 134716. 744.948   5
  -2   0   1 133144. 731.512   5
   2   0   0 25350.2 321.641   3
  -2   0   0 24502.3 318.700   4
  -2   0   0 25030.9 325.917   2
   2   0   0 24858.9 322.974   2
  -2   0   0 22604.2 289.669   5
   2   0   0 24946.7 292.498   5
   2   0   1 1959.71 81.5544   5
   2   0   1 1977.90 96.5398   3
  -2   0  -1 2155.20 109.422   2
  -2   0  -1 2112.55 84.6593   5
  -2   0  -1 2067.34 97.6426   3
   2   0   1 2039.44 107.938   2
  -2   0  -2 50452.6 398.119   5
   2   0   2 47238.2 390.707   5
   2   0   2 48365.7 546.359   2
   2   0   2 48308.9 469.600   3
  -2   0  -2 47730.9 459.165   3
  -2   0  -3 454.750 50.4876   3
   2   0   3 497.634 53.5994   3
  -2   0  -3 514.959 48.3480   5
   2   0   3 566.902 75.0151   2
  -2   0  -4 12286.1 245.784   5
  -2   0  -4 11964.4 254.666   3
   2   0   4 12011.7 340.333   2
  -2   0  -5 19.4975 17.1018   3
   2   0   5 11.3679 33.0312   2
  -2   0  -6 684.249 68.4732   3
   2   0   6 865.130 111.632   2
   2   0   7 177.541 60.4447   2
  -2   0  -7 199.049 41.8368   3
   2   0   8 417.063 94.4516   2
   2   0   9 315.845 87.6956   2
   2   0  10-5.63059 48.2265   2
   2   0  11 311.154 92.7989   2
   2   0  12 703.201 146.033   2
   2   0  12 755.950 174.480   6
   2   0  13 28.6396 103.399   6
  -2   1  14 96.8550 84.8821   6
  -2  -1  14 47.5754 67.0613   6
  -2  -1  13 314.465 109.573   2
  -2   1  13 243.630 84.5347   6
  -2  -1  13 330.027 119.288   6
  -2   1  12 191.828 99.2548   6
  -2  -1  12 298.936 108.730   6
  -2  -1  12 83.7763 66.8018   2
  -2   1  11 1433.75 210.894   6
  -2  -1  11 954.405 159.947   2
  -2  -1  11 1227.23 184.481   6
  -2   1  10 1821.23 220.215   6
   2   1 -10 1804.17 181.184   5
   2  -1 -10 1738.89 208.300   1
  -2  -1  10 1807.03 201.930   2
   2   1  -9 5322.06 289.911   5
  -2  -1   9 5266.56 325.550   2
  -2   1   9 5337.76 345.626   6
   2  -1  -9 5326.58 335.718   1
  -2   1   9 5276.32 252.628   2
  -2   1   8 1057.28 147.310   6
   2   1  -8 1087.89 127.835   5
  -2   1   8 1092.75 110.721   2
  -2  -1   8 921.472 132.443   2
   2  -1  -8 1028.44 146.473   1
  -2   1   7 2919.35 224.501   6
  -2   1   7 2731.78 156.497   2
   2   1  -7 2695.45 188.225   5
  -2  -1   7 2819.78 209.333   2
   2   1  -7 2679.37 116.522   3
   2  -1  -7 2974.91 223.120   1
  -2   1   6 15343.0 460.415   6
  -2  -1   6 14973.2 437.960   2
   2   1  -6 15047.5 270.089   3
  -2   1   6 15015.5 320.219   2
   2   1  -6 15500.6 408.080   5
   2  -1  -6 15839.1 463.119   1
   2   1  -5 100.661 29.9242   3
  -2   1   5 43.3539 33.8915   6
  -2  -1   5 85.2975 23.9292   4
  -2   1   5 59.4228 24.1455   2
   2  -1  -5 89.0839 46.9999   1
   2   1  -5 89.8706 31.7180   5
   2  -1  -4 8106.90 280.361   1
  -2  -1   4 7605.98 195.026   4
   2   1  -4 8138.29 202.385   3
   2   1  -4 8600.95 270.545   5
   2   1  -3 21791.6 330.513   3
   2  -1  -3 22293.2 408.637   1
  -2  -1   3 21708.9 307.629   1
   2   1  -3 21844.7 388.699   5
   2   1  -2 6332.56 187.501   3
  -2  -1   2 6573.14 187.283   3
   2   1  -2 6195.88 203.460   5
   2  -1  -2 6366.79 206.263   1
  -2   1   2 6189.29 130.319   2
   2  -1  -1 31779.5 419.090   1
  -2   1   1 32145.4 334.595   2
   2  -1  -1 32180.9 331.961   2
  -2  -1   1 32266.7 420.987   3
   2   1  -1 31075.2 416.840   3
   2   1  -1 32003.2 431.420   5
   2   1   0 34162.9 456.110   5
   2  -1   0 35022.6 430.103   4
  -2  -1   0 35587.2 458.219   3
  -2   1   0 35372.6 412.081   2
  -2  -1   0 34635.6 283.711   6
   2  -1   0 34828.0 404.546   2
  -2  -1   0 34832.5 282.503   1
   2   1   0 36044.4 290.479   1
   2   1   1 18124.0 318.725   2
   2   1   1 18522.6 282.159   1
   2  -1   1 18681.0 296.691   4
   2   1   1 18345.4 338.713   5
   2   1   1 18276.0 283.089   6
   2  -1   1 18380.3 344.410   2
  -2  -1  -1 18301.5 350.492   3
  -2  -1  -1 18214.0 283.289   1
   2   1   2 17990.9 324.192   2
   2   1   2 18240.2 347.673   6
  -2  -1  -2 16994.3 362.692   3
   2  -1   2 17771.9 374.598   2
  -2  -1  -2 17871.3 336.274   1
   2  -1   2 17122.6 265.323   4
   2   1   2 17338.1 347.273   5
  -2  -1  -3 3413.97 178.967   1
   2  -1   3 3461.51 116.771   3
  -2  -1  -3 3721.98 182.478   3
   2   1   3 3439.33 159.005   2
   2  -1   3 3460.13 189.111   2
  -2   1  -3 3405.91 118.743   4
  -2  -1  -4 42996.4 614.914   3
   2   1   4 42861.2 583.609   2
  -2  -1  -4 44515.3 678.649   1
   2  -1   4 42805.4 379.167   3
   2  -1   4 43028.8 693.452   2
  -2   1  -4 42764.5 380.010   4
  -2  -1  -5 3696.56 194.841   3
  -2  -1  -5 4040.26 238.028   1
  -2   1  -5 3107.89 80.8081   5
  -2   1  -5 3539.51 107.453   4
  -2   1  -5 3233.23 80.5003   5
   2  -1   5 3941.19 236.204   2
   2   1   5 3706.16 193.803   2
  -2   1  -6 6595.05 148.567   5
  -2   1  -6 6498.88 146.973   5
   2   1   6 7402.96 289.126   2
  -2  -1  -6 7040.72 276.361   3
   2  -1   6 7221.91 338.641   2
   2  -1   7 42.9487 47.9113   2
   2   1   7 88.9269 66.2821   6
  -2  -1  -7 32.3721 31.2457   3
  -2   1  -7-3.08046 11.0497   5
   2   1   7 38.3022 35.2306   2
  -2  -1  -8 1408.65 136.906   3
   2  -1   8 1659.75 189.757   2
   2   1   8 1465.21 152.300   2
   2   1   8 1829.67 209.419   6
   2   1   9 492.469 122.620   6
   2  -1   9 367.457 99.4746   2
   2   1   9 531.916 99.4563   2
   2  -1  10-8.40018 44.2936   2
   2   1  10 8.96743 35.0017   2
   2   1  10 101.317 83.9486   6
   2  -1  11 141.445 77.7479   2
   2   1  11 308.046 126.908   6
   2  -1  12 621.097 146.009   2
   2   1  12 704.427 170.973   6
   2   1  13 21.3452 59.5769   6
   2  -1  13-38.3896 55.9644   2
  -2  -2  14 88.1382 70.9952   6
  -2  -2  14 52.5985 50.0754   2
  -2  -2  13 27.0775 58.4236   2
  -2   2  13 76.8098 67.0645   6
  -2   2  12 48.8262 59.8803   6
   2  -2 -12 87.7276 69.2754   1
  -2  -2  12 22.5974 41.9564   2
  -2   2  11 107.317 62.7882   6
   2  -2 -11 162.584 89.4148   1
  -2  -2  11 161.082 86.0767   2
   2  -2 -10 1266.17 189.976   1
  -2   2  10 1089.63 186.111   6
  -2  -2  10 1233.07 188.810   2
   2   2  -9 2540.44 196.610   5
  -2  -2   9 2509.14 244.952   2
   2  -2  -9 2611.49 253.995   1
  -2   2   9 3142.58 289.176   6
  -2   2   8 31.7849 39.8947   6
  -2  -2   8 69.0082 47.8828   2
   2   2  -8 63.6861 47.8297   5
   2  -2  -8 220.067 85.1231   1
   2  -2  -7 5220.56 311.976   1
  -2  -2   7 5663.22 322.845   2
  -2   2   7 4733.46 138.643   2
   2   2  -7 5273.08 255.920   5
   2   2  -6 3910.32 213.332   5
  -2   2   6 3240.92 86.5067   2
  -2  -2   6 3691.57 140.227   4
   2  -2  -6 3740.54 248.521   1
   2  -2  -5 3364.36 221.723   1
   2   2  -5 2962.60 179.334   5
  -2  -2   4 26189.9 405.961   3
   2   2  -4 26386.6 495.629   5
   2  -2  -4 25701.7 552.935   1
   2  -2  -3 13573.8 387.279   1
   2   2  -3 14052.2 357.941   5
  -2  -2   3 14252.7 323.862   3
   2  -2  -2 13150.6 365.960   1
  -2  -2   2 14105.1 335.350   3
   2   2  -2 13437.6 349.470   5
  -2   2   2 12722.1 206.208   2
   2  -2  -2 13098.5 199.139   2
   2  -2  -1 6353.82 179.852   2
  -2   2   1 6239.49 182.788   2
  -2  -2   1 6448.56 241.446   3
   2  -2  -1 6216.63 247.637   1
  -2  -2   1 6336.19 180.075   1
   2   2  -1 6181.25 241.763   5
  -2  -2   0 10750.8 241.442   1
   2   2   0 10489.4 316.661   5
   2  -2   0 10808.4 269.861   2
  -2  -2   0 10738.9 320.129   3
   2   2   0 10631.4 247.204   1
   2   2   1 427.555 76.5575   5
   2  -2   1 448.883 71.2344   2
  -2  -2  -1 395.550 58.0793   1
  -2  -2  -2 483.967 72.0505   1
   2  -2   2 582.276 51.4606   5
   2  -2   2 573.129 82.1131   2
   2   2   3 1978.66 152.748   6
  -2  -2  -3 1757.05 142.404   1
   2  -2   3 1676.18 152.320   2
   2  -2   3 1699.82 65.2827   5
   2  -2   4 5809.46 295.297   2
   2  -2   4 5367.76 156.601   4
  -2  -2  -4 5849.74 276.646   1
   2   2   4 5829.43 280.534   6
   2   2   4 5981.72 222.171   2
   2  -2   5 3365.35 241.633   2
   2  -2   5 2703.77 96.0747   3
   2   2   5 3378.06 233.269   6
   2   2   5 3144.90 169.369   2
  -2  -2  -5 3234.95 227.635   1
   2  -2   6 3740.25 268.504   2
   2   2   6 3257.91 244.985   6
   2   2   6 3149.53 179.902   2
  -2  -2  -6 3529.33 250.293   1
   2   2   7 3512.44 202.394   2
   2  -2   7 4015.52 292.200   2
   2   2   7 4092.45 297.563   6
  -2  -2  -7 3878.93 281.477   1
  -2  -2  -8 921.705 129.317   3
   2   2   8 983.845 119.257   2
  -2  -2  -8 875.427 150.015   1
   2  -2   8 1052.92 161.652   2
   2   2   8 826.099 149.972   6
  -2  -2  -9 2921.36 231.724   3
   2   2   9 2873.03 285.320   6
   2  -2   9 3061.80 280.475   2
   2  -2  10 660.475 141.360   2
   2   2  10 872.032 172.238   6
   2  -2  11 681.022 152.125   2
   2   2  11 777.167 176.875   6
   2   2  12 1525.94 244.177   6
   2  -2  12 1222.26 212.813   2
   2  -2  13 70.8480 84.4729   2
  -2  -3  13-2.85120 75.2213   2
   2  -3 -12 46.7262 88.9093   1
  -2  -3  12 109.457 77.5117   2
   2  -3 -11 776.283 174.743   1
  -2  -3  11 578.649 150.215   2
  -2  -3  10 119.054 78.2311   2
   2  -3 -10 419.658 141.547   1
  -2  -3   9 1408.24 208.493   2
   2  -3  -9 1015.13 181.431   1
  -2  -3   8 1328.84 188.982   2
   2   3  -8 1179.38 134.474   5
   2  -3  -8 1138.68 172.981   1
   2  -3  -7 814.149 142.183   1
  -2  -3   7 1064.87 161.033   2
   2   3  -7 969.104 121.758   5
   2  -3  -6 3105.27 248.531   1
  -2  -3   6 2930.26 151.741   3
   2   3  -6 3081.92 205.679   5
  -2  -3   6 3331.50 265.131   2
   2  -3  -5 278.175 83.7405   1
   2   3  -5 259.949 69.3965   5
  -2  -3   5 245.926 52.8934   3
   2  -3  -4 689.894 117.828   1
  -2  -3   4 915.942 101.213   3
   2   3  -4 782.880 104.399   5
   2  -3  -3 5473.36 287.556   1
   2   3  -3 5478.27 269.426   5
  -2  -3   3 6094.78 259.708   3
   2  -3  -3 4875.57 112.888   2
  -2  -3   2 274.747 71.1763   3
   2   3  -2 293.398 68.4855   5
   2  -3  -2 333.001 83.8471   1
   2  -3  -2 252.601 46.3076   2
  -2  -3   1 8965.76 283.724   1
   2  -3  -1 8301.98 335.467   1
   2  -3  -1 8328.28 249.584   2
   2   3  -1 8968.45 344.718   5
   2   3   0 5191.61 272.983   5
   2  -3   0 5165.00 223.134   2
  -2  -3   0 4924.31 213.950   1
   2  -3   1 11668.6 368.283   2
  -2  -3  -1 11072.8 332.370   1
   2   3   1 11539.3 406.372   5
  -2  -3  -2 8927.49 316.506   1
   2  -3   2 9577.78 361.836   2
  -2  -3  -3 161.743 60.2178   1
   2  -3   3 209.931 57.7867   2
   2  -3   4 1839.24 190.010   2
   2  -3   4 1903.46 98.4217   5
  -2  -3  -4 2036.07 180.071   1
  -2  -3  -5 1662.95 175.556   1
   2  -3   5 1649.95 185.376   2
   2   3   6 12595.8 514.046   6
   2  -3   6 13059.4 529.564   2
  -2  -3  -6 12091.9 486.426   1
   2   3   7 6324.33 391.023   6
   2  -3   7 6500.08 395.955   2
  -2  -3  -7 5930.55 363.366   1
   2  -3   8 1557.20 219.655   2
   2   3   8 1373.37 208.794   6
  -2  -3  -8 1384.92 196.054   1
   2  -3   9 796.101 164.598   2
  -2  -3  -9 600.863 139.476   1
  -2  -3  -9 865.550 149.084   3
   2   3   9 741.805 154.206   6
   2  -3  10 1299.07 209.950   2
  -2  -3 -10 821.651 177.669   1
  -2  -3 -10 1052.57 165.240   3
   2   3  10 1194.90 199.600   6
   2   3  11 496.904 142.761   6
   2  -3  11 356.204 124.548   2
   2  -3  12 638.224 168.555   2
   2   3  12 443.998 155.156   6
  -2  -4  12 61.2044 85.1314   2
   2  -4 -11 94.8828 102.811   1
  -2  -4  11 168.010 97.1144   2
   2  -4 -10 17.0207 82.0071   1
  -2  -4  10 31.3369 53.9324   2
  -2  -4   9 334.464 110.520   2
   2  -4  -9 244.840 104.691   1
   2  -4  -8 1576.84 221.250   1
  -2  -4   8 1461.07 213.449   2
   2  -4  -7 156.162 72.7472   1
  -2  -4   7 262.218 87.6200   2
   2   4  -7 148.550 50.8318   5
  -2  -4   6 1317.13 186.260   2
   2  -4  -6 1052.07 168.512   1
  -2  -4   6 1062.39 111.805   3
   2   4  -6 1132.50 141.762   5
  -2  -4   5 1200.10 131.232   3
   2   4  -5 1065.49 134.851   5
   2  -4  -5 1000.58 156.478   1
  -2  -4   5 1093.05 164.570   2
   2  -4  -4 449.578 105.738   1
  -2  -4   4 485.404 91.7011   3
   2   4  -4 527.540 98.4851   5
   2  -4  -3 4185.14 145.837   2
   2   4  -3 4537.39 276.016   5
   2  -4  -3 4369.11 290.182   1
  -2  -4   3 4801.36 270.282   3
   2  -4  -2 7551.78 372.599   1
  -2  -4   2 7866.34 351.606   3
  -2  -4   2 7841.93 312.238   1
   2   4  -2 8070.99 369.509   5
   2  -4  -2 7358.62 239.523   2
   2   4  -1 8640.78 392.496   5
  -2  -4   1 9442.30 349.958   1
   2  -4  -1 8636.20 297.227   2
   2  -4  -1 8518.58 399.447   1
   2  -4   0 3451.41 250.567   1
   2  -4   0 3879.32 220.716   2
  -2  -4   0 3539.74 217.725   1
   2  -4   1 3111.14 216.696   2
  -2  -4  -1 2609.14 192.068   1
  -2  -4  -2 3816.12 241.172   1
   2  -4   2 4003.12 264.931   2
   2  -4   3 341.305 88.1536   2
  -2  -4  -3 418.594 89.9379   1
   2  -4   4 3020.54 255.702   2
  -2  -4  -4 3250.84 246.375   1
  -2  -4  -5 2259.46 219.833   1
   2  -4   5 2428.59 245.947   2
  -2  -4  -6 2181.94 231.112   1
   2  -4   6 2479.58 260.817   2
  -2  -4  -7 107.013 42.8339   1
   2  -4   7 49.6008 44.6315   2
   2  -4   8 218.195 100.986   2
  -2  -4  -8 181.839 97.5075   1
  -2  -4  -9 94.6193 76.5204   1
   2  -4   9 411.329 135.013   2
  -2  -4 -10 97.4837 79.0552   3
  -2  -4 -10-22.2829 60.9757   1
   2  -4  10 59.0285 76.3579   2
  -2  -4 -11 60.5118 60.8486   1
   2  -4  11 139.051 83.9452   2
  -2  -5  10 85.7164 66.6379   2
   2  -5 -10 218.715 112.765   1
   2  -5  -9 172.988 103.544   1
  -2  -5   9 269.446 140.641   2
   2  -5  -8 1239.42 213.945   1
  -2  -5   8 1182.66 205.143   2
   2  -5  -7 821.828 161.024   1
  -2  -5   7 748.982 163.009   2
   2   5  -6 897.925 139.288   5
  -2  -5   6 1022.31 184.444   2
   2  -5  -6 987.493 178.378   1
   2   5  -5 1373.51 171.290   5
   2  -5  -5 1137.85 186.176   1
  -2  -5   5 1093.92 140.950   3
  -2  -5   5 1238.34 191.383   2
   2   5  -4 1453.81 181.340   5
  -2  -5   4 1423.63 196.622   2
  -2  -5   4 1490.03 178.187   3
   2  -5  -4 1650.59 207.939   1
  -2  -5   3 1045.88 142.134   1
  -2  -5   3 1093.16 157.781   3
   2  -5  -3 852.745 158.292   1
   2   5  -3 1124.98 165.087   5
   2  -5  -2 5731.79 362.933   1
  -2  -5   2 5884.05 350.046   3
  -2  -5   2 5798.21 319.329   1
   2  -5  -2 5481.27 242.645   2
  -2  -5   1 2093.29 191.564   1
   2  -5  -1 1745.61 210.672   1
   2  -5  -1 1892.04 163.923   2
   2  -5   0 2893.05 261.477   1
   2  -5   0 2898.13 218.093   2
  -2  -5   0 3197.80 237.285   1
  -2  -5  -1 308.980 76.4842   1
   2  -5   1 418.580 114.361   1
   2  -5   1 255.267 78.1877   2
   2  -5   2 559.820 120.034   2
  -2  -5  -2 853.235 137.217   1
   2  -5   3 425.934 103.739   2
  -2  -5  -3 569.075 116.721   1
  -2  -5  -4 573.959 124.014   1
   2  -5   4 366.241 103.507   2
  -2  -5  -5 622.994 131.489   1
   2  -5   5 621.493 142.887   2
  -2  -5  -6 213.133 84.5866   1
   2  -5   6 117.887 66.7110   2
  -2  -5  -7 99.8731 71.6842   1
   2  -5   7 51.6323 57.0075   2
   2  -5   8 281.502 104.703   2
  -2  -5  -8 183.730 104.009   1
  -2  -5  -9 20.0834 51.0206   1
   2  -5   9 31.5271 48.8640   2
  -2  -5 -10-77.5520 86.7818   3
  -2  -5 -10-90.2466 88.6400   1
  -2  -5 -11 93.8912 107.396   3
  -2  -6   8 24.5657 75.2152   2
   2  -6  -8 60.6734 67.9113   1
  -2  -6   7 467.563 147.007   2
   2  -6  -7 263.362 124.295   1
   2  -6  -6 278.289 109.147   1
  -2  -6   6 250.446 106.568   2
  -2  -6   5 40.2403 67.2503   2
   2  -6  -5 226.809 101.873   1
  -2  -6   4 161.979 77.4159   2
  -2  -6   4 303.960 89.5344   1
  -2  -6   4 230.858 82.1765   3
   2  -6  -4 158.295 84.7272   1
  -2  -6   3 122.294 66.7314   1
  -2  -6   3 96.1511 47.1658   2
  -2  -6   3 118.991 66.4737   3
   2  -6  -3 60.9313 62.6240   1
   2  -6  -2 1668.51 221.973   1
  -2  -6   2 1854.26 225.801   2
  -2  -6   2 1830.15 221.250   3
  -2  -6   2 1920.42 208.236   1
  -2  -6   1 1627.85 191.421   1
   2  -6  -1 1345.11 198.813   1
   2  -6   0 727.478 123.994   2
   2  -6   0 802.004 160.662   1
  -2  -6   0 801.278 138.089   1
  -2  -6  -1 956.735 155.768   1
   2  -6   1 882.061 166.275   1
   2  -6   1 956.614 152.916   2
   2  -6   2 369.435 115.853   1
   2  -6   2 564.226 124.572   2
  -2  -6  -2 431.150 107.479   1
  -2  -6  -3 871.561 156.891   1
   2  -6   3 1071.38 180.205   2
  -2  -6  -4 657.457 142.002   1
   2  -6   4 601.693 138.577   2
  -2  -6  -5-15.4960 56.7331   1
   2  -6   5 151.443 84.0729   2
   2  -6   6 259.542 82.9096   2
  -2  -6  -6 149.278 83.9415   1
   2  -6   7 350.898 139.470   2
  -2  -6  -7 11.1657 53.3642   1
   2  -6   8 316.171 141.690   2
  -2  -6  -8 268.950 115.173   1
   2  -7  -6 54.1953 56.4610   1
  -2  -7   6 214.936 96.8376   2
   2  -7  -5 143.504 89.1384   1
  -2  -7   5 60.6136 83.2773   2
  -2  -7   4 356.441 126.089   2
   2  -7  -4-23.6067 56.5977   1
  -2  -7   3-92.9399 65.6881   3
   2  -7  -3-23.6439 77.3208   1
  -2  -7   3 15.2627 55.2244   2
   2  -7  -2 88.0635 72.5180   1
  -2  -7   2-68.6115 58.4739   2
  -2  -7   2 32.7285 50.7726   3
  -2  -7   1 144.934 92.3673   3
   2  -7  -1 155.648 77.4491   1
  -2  -7   1-15.9669 55.8858   1
   2  -7   0-19.3639 63.3507   1
  -2  -7   0 293.604 103.107   1
  -2  -7  -1 94.6973 55.4875   1
   2  -7   1 135.971 74.9885   1
  -2  -7  -2 0.86956 56.5291   1
   2  -7   2 140.584 82.3963   1
   2  -7   3 38.0294 66.6413   2
  -2  -7  -3 98.4811 75.6462   1
   2  -7   3-33.2504 63.5578   1
  -2  -7  -4 309.489 117.866   1
   2  -7   4 249.885 114.799   2
  -2  -7  -5 140.588 88.4839   1
   2  -7   5 45.9867 75.9308   2
   2  -7   6 85.0192 63.3947   2
  -2  -7  -6 497.821 157.429   1
  -2  -8   2 14.5796 54.9324   3
  -2  -8   1 63.0902 68.3608   3
  -3   0  14 64.3782 64.0144   6
  -3   0  13-11.0337 50.8681   6
   3   0 -12 102.364 75.3053   5
  -3   0  12 1.41527 56.4022   6
  -3   0  11 191.612 59.2435   2
  -3   0  11 205.578 78.7565   6
   3   0 -11 161.648 81.5227   5
  -3   0  10 87.7155 46.4699   2
  -3   0  10-15.8421 42.2619   6
   3   0 -10 163.156 86.0495   5
  -3   0   9 1107.33 139.154   2
  -3   0   9 1198.81 161.575   6
  -3   0   8 230.654 73.1079   6
  -3   0   8 300.998 71.0011   2
   3   0  -8 504.561 95.8799   1
  -3   0   7 2590.61 195.878   6
   3   0  -7 2599.71 189.876   1
   3   0  -6 298.590 70.4151   1
  -3   0   6 262.784 67.0153   6
  -3   0   5 208.853 52.3737   6
   3   0  -5 326.858 67.7645   1
   3   0  -4 1067.60 91.1805   1
  -3   0   4 953.009 87.3601   6
   3   0  -3 2311.26 146.301   5
   3   0  -3 2489.51 114.661   6
   3   0  -3 2432.82 113.196   1
  -3   0   3 2595.81 142.582   4
  -3   0   3 2516.38 115.686   1
   3   0  -2 18615.8 254.470   1
   3   0  -2 18022.7 368.954   5
  -3   0   2 18730.3 360.297   4
  -3   0   2 18947.7 257.922   1
   3   0  -1 179371. 1033.90   2
  -3   0   1 181472. 1052.61   4
   3   0  -1 189521. 1062.26   5
  -3   0   0 369.324 53.1772   5
   3   0   0 432.849 63.8096   5
  -3   0   0 494.043 77.2642   4
   3   0   0 475.800 74.0160   2
   3   0   1 190.145 35.7482   5
   3   0   1 225.996 52.0003   2
  -3   0  -1 211.032 37.2435   5
   3   0   2 22081.6 318.785   5
  -3   0  -2 22628.5 320.728   5
   3   0   2 22496.4 435.664   2
  -3   0  -2 21501.8 373.842   3
  -3   0  -3 74839.2 585.311   5
  -3   0  -3 74345.8 696.241   3
   3   0   3 75431.9 846.884   2
   3   0   3 77354.4 599.486   5
  -3   0  -4 37965.5 447.914   5
   3   0   4 39679.6 658.147   2
  -3   0  -4 38704.7 521.878   3
   3   0   5 12086.5 396.981   2
  -3   0  -5 11835.5 300.282   3
   3   0   6-10.5894 44.4508   2
  -3   0  -6 29.7792 29.2886   3
  -3   0  -7 10753.8 294.275   3
   3   0   7 10745.7 420.902   2
   3   0   8 115.836 63.0805   2
   3   0   9 55.5108 50.0042   2
   3   0  10 433.211 115.145   2
   3   0  11 273.221 92.1506   2
   3   0  12 67.8012 47.7412   2
  -3   1  14 127.049 83.9028   6
  -3  -1  14 148.192 120.004   6
  -3  -1  13 174.940 99.4522   6
  -3  -1  13 192.797 82.4046   2
  -3   1  13 219.394 105.281   6
  -3  -1  12 68.6782 50.5333   2
  -3  -1  12 100.061 66.3536   6
  -3   1  12 62.0840 52.2428   6
  -3   1  11 232.353 94.6524   6
   3   1 -11 330.198 98.8104   5
   3  -1 -11 128.664 81.6888   1
  -3  -1  11 179.064 81.4010   2
  -3  -1  11 265.331 101.933   6
  -3  -1  10 2005.50 210.923   2
  -3   1  10 2198.64 238.779   6
   3   1 -10 2096.82 205.493   5
   3  -1 -10 1956.21 220.475   1
  -3  -1  10 2073.78 222.265   6
  -3  -1   9 1345.49 165.865   2
  -3  -1   9 1376.41 167.184   6
   3   1  -9 1149.82 149.235   5
   3  -1  -9 1101.50 159.347   1
  -3   1   9 1154.58 166.001   6
  -3   1   9 1143.94 124.458   2
  -3   1   8 2038.95 152.126   2
  -3  -1   8 2071.16 196.626   2
  -3   1   8 2198.05 211.339   6
   3   1  -8 2059.43 189.739   5
   3  -1  -8 1983.45 193.735   1
  -3   1   7 3731.44 250.409   6
  -3   1   7 3293.36 171.718   2
   3  -1  -7 3807.12 250.717   1
   3   1  -7 3339.09 223.948   5
   3  -1  -6 1736.59 158.417   1
  -3  -1   6 1634.56 114.859   4
  -3   1   6 1821.19 166.423   6
   3   1  -6 1748.94 159.954   5
   3  -1  -5 20705.0 474.722   1
   3   1  -5 20538.8 483.304   5
  -3  -1   5 20329.2 385.301   4
   3   1  -4 21186.1 458.206   5
  -3  -1   4 20228.6 378.304   4
   3  -1  -4 20665.1 439.568   1
  -3  -1   3 23620.4 283.399   1
  -3   1   3 24258.1 335.350   2
   3   1  -3 23840.2 459.989   5
   3  -1  -3 24812.5 438.788   1
   3  -1  -2 54705.4 608.721   1
  -3  -1   2 52785.3 613.535   3
   3  -1  -2 51932.6 505.156   2
  -3   1   2 52180.9 496.470   2
   3   1  -2 52767.8 649.500   5
   3  -1  -1 33776.3 428.914   2
  -3  -1   1 33281.5 499.538   3
   3   1  -1 34585.7 510.469   5
   3   1   0 9044.24 160.511   6
  -3  -1   0 8662.53 266.668   3
  -3   1   0 8971.77 259.136   4
   3  -1   0 8996.80 249.361   2
   3   1   0 9049.65 158.895   1
   3   1   0 8898.89 264.754   5
   3   1   1 6729.73 232.585   5
   3  -1   1 7066.31 166.149   5
  -3   1  -1 6940.87 222.281   4
   3   1   1 6668.19 236.335   2
   3   1   1 7028.88 189.535   1
  -3  -1  -1 7250.82 253.024   3
   3  -1   1 7368.76 247.087   2
   3  -1   2 1617.42 132.234   2
   3   1   2 1428.06 113.650   5
  -3  -1  -2 1315.36 119.481   3
  -3   1  -2 1442.56 103.222   4
   3   1   2 1387.22 112.184   2
   3  -1   2 1301.48 59.8111   5
  -3   1  -3 6275.07 203.179   4
   3   1   3 6240.67 242.442   2
  -3  -1  -3 6024.07 247.514   3
   3  -1   3 5933.75 266.697   2
   3   1   4 1102.54 113.983   2
  -3   1  -4 907.282 78.7498   4
  -3  -1  -4 846.892 99.5442   3
   3  -1   4 953.412 120.045   2
  -3   1  -5 2521.54 125.263   4
  -3  -1  -5 2322.26 168.792   3
   3  -1   5 2570.52 201.669   2
   3   1   5 2505.26 177.453   2
   3   1   6 844.487 111.626   2
  -3   1  -6 763.018 66.8573   4
  -3  -1  -6 924.275 112.903   3
   3  -1   6 857.677 132.691   2
   3   1   7 628.118 107.387   2
  -3  -1  -7 702.320 102.022   3
   3  -1   7 843.255 136.943   2
   3   1   8 1445.92 162.180   2
   3  -1   8 1431.09 184.060   2
  -3  -1  -8 1311.58 136.492   3
   3  -1   9 272.731 91.1712   2
   3   1   9 403.434 108.862   6
   3   1   9 373.426 90.8905   2
   3   1  10 1013.48 184.147   6
   3  -1  10 1036.52 174.896   2
   3   1  10 1237.70 166.488   2
   3   1  11 581.676 155.297   6
   3  -1  11 410.274 124.000   2
   3  -1  12 285.372 104.473   2
   3   1  12 383.398 126.731   6
   3  -1  13 183.839 90.9532   2
  -3  -2  14 93.2165 81.5476   6
  -3  -2  14 207.191 107.772   2
  -3  -2  13 136.093 84.8335   6
   3  -2 -13 66.3652 83.6049   1
  -3  -2  13 114.111 76.4253   2
   3  -2 -12 860.713 186.038   1
  -3  -2  12 624.306 147.741   2
   3  -2 -11 222.677 101.412   1
  -3  -2  11 282.749 98.0017   2
  -3  -2  10 1792.17 220.312   2
   3   2 -10 1852.54 188.955   5
   3  -2 -10 1973.21 236.500   1
  -3  -2   9 594.654 125.209   2
   3   2  -9 451.047 98.6057   5
   3  -2  -9 671.130 136.807   1
   3  -2  -8 2004.63 210.342   1
   3   2  -8 2046.58 185.328   5
  -3  -2   8 2251.72 227.858   2
   3  -2  -7 2758.79 235.734   1
  -3  -2   7 2677.89 143.204   4
   3   2  -7 2762.69 207.410   5
  -3   2   7 2519.90 106.127   2
   3  -2  -6 3670.50 249.269   1
   3   2  -6 3833.10 229.305   5
  -3  -2   6 3505.89 167.287   4
  -3   2   6 3386.82 100.925   2
  -3   2   6 3314.94 104.038   2
   3  -2  -5 2445.06 193.873   1
  -3   2   5 2223.69 75.7928   2
   3   2  -5 2769.17 192.517   5
   3   2  -4 735.846 103.363   5
  -3  -2   4 818.244 89.8001   3
   3  -2  -4 807.993 110.942   1
  -3   2   4 632.966 44.1820   2
   3  -2  -3 4129.57 125.840   2
   3  -2  -3 4432.61 230.219   1
  -3  -2   3 4424.19 205.111   3
  -3   2   3 3883.25 123.032   2
   3   2  -3 4134.55 219.321   5
   3  -2  -2 736.970 98.3737   1
  -3  -2   2 674.508 91.4311   3
  -3   2   2 638.615 61.0443   2
   3   2  -2 529.411 79.7568   5
   3  -2  -2 502.460 53.8515   2
   3   2  -1 1179.98 120.444   5
  -3  -2   1 1147.64 68.7838   1
   3  -2  -1 1095.52 89.1202   2
  -3  -2   1 1153.25 117.459   3
   3   2   0 5565.32 254.540   5
  -3  -2   0 5606.89 166.553   1
   3   2   0 6444.07 192.587   1
  -3  -2   0 5590.82 167.072   6
   3  -2   0 5936.19 223.781   2
  -3  -2   0 5560.35 254.069   3
  -3  -2  -1 11141.8 271.472   1
  -3  -2  -1 11041.9 362.767   3
   3   2   1 10698.6 349.705   5
   3  -2   1 11057.4 333.030   2
   3   2   2 485.101 83.1087   5
   3  -2   2 483.300 81.4085   2
   3   2   2 550.906 78.4553   6
  -3  -2  -2 490.961 75.2465   1
  -3  -2  -2 389.142 76.0983   3
   3   2   3 16.5968 25.1798   2
   3   2   3 66.2039 37.7191   6
  -3  -2  -3 75.8629 36.8830   3
   3  -2   3 66.1228 39.0000   2
  -3  -2  -3 52.9778 38.1855   1
   3   2   4 891.107 102.035   2
  -3  -2  -4 957.222 119.618   1
  -3  -2  -4 971.744 125.322   3
   3   2   4 1016.16 122.139   6
   3  -2   4 951.565 136.737   2
  -3  -2  -5 2258.91 189.878   3
   3   2   5 2340.12 167.268   2
  -3  -2  -5 2539.00 203.618   1
   3  -2   5 2432.91 212.854   2
   3   2   5 2492.79 205.243   6
   3  -2   6 6578.25 358.608   2
  -3  -2  -6 6304.15 343.713   1
  -3  -2  -6 6455.91 325.244   3
   3   2   6 6683.29 355.021   6
   3   2   6 6352.25 281.501   2
  -3  -2  -7 2404.49 232.116   1
  -3  -2  -7 2439.90 207.479   3
   3   2   7 2574.54 242.196   6
   3   2   7 2322.61 181.856   2
   3  -2   7 2651.86 245.443   2
   3  -2   8 692.845 149.514   2
   3   2   8 641.706 106.519   2
  -3  -2  -8 613.882 110.732   3
   3   2   8 681.412 136.224   6
   3   2   9 952.674 129.503   2
   3  -2   9 1067.82 186.787   2
  -3  -2  -9 1032.42 151.027   3
   3   2   9 987.013 177.800   6
   3  -2  10 496.024 136.799   2
   3   2  10 578.453 145.091   6
   3  -2  11 798.458 173.960   2
   3   2  11 643.847 156.389   6
   3   2  12 116.008 88.5865   6
   3  -2  12 105.851 77.4926   2
  -3  -3  13 121.706 106.518   2
   3  -3 -12 423.616 136.781   1
  -3  -3  12 279.015 118.082   2
  -3  -3  11 212.182 83.0582   2
   3  -3 -11 260.206 111.132   1
  -3  -3  10 146.426 82.3787   2
   3  -3 -10 228.198 112.659   1
  -3  -3   9 923.978 167.343   2
   3   3  -9 903.762 131.580   5
   3  -3  -9 1153.39 188.169   1
   3  -3  -8 341.017 100.610   1
   3   3  -8 322.839 86.3531   5
  -3  -3   8 272.785 96.8981   2
   3  -3  -7 2081.37 220.863   1
  -3  -3   7 1987.36 135.445   4
   3   3  -7 1896.99 180.042   5
  -3  -3   6 964.469 104.423   3
   3   3  -6 719.189 109.651   5
   3  -3  -6 841.425 137.606   1
   3   3  -5 207.327 58.3742   5
  -3  -3   5 214.214 55.5201   3
   3  -3  -5 156.454 65.3773   1
   3  -3  -4 7432.77 353.987   1
   3   3  -4 7811.46 338.425   5
  -3  -3   4 7943.66 304.469   3
   3   3  -3 4444.29 254.418   5
  -3  -3   3 4211.53 230.741   3
   3  -3  -3 3721.99 124.751   2
   3  -3  -3 3918.83 255.876   1
  -3   3   3 3613.85 128.195   2
   3  -3  -2 4582.40 173.855   2
  -3  -3   2 4698.70 190.083   1
   3  -3  -2 5108.87 288.728   1
  -3  -3   2 4699.51 253.777   3
   3   3  -2 4994.35 270.799   5
   3   3  -1 4160.02 251.982   5
  -3  -3   1 4721.29 261.395   3
   3  -3  -1 4775.87 267.426   1
   3  -3  -1 4375.40 194.657   2
  -3  -3   1 4375.01 184.473   1
  -3  -3   0 1881.75 129.184   1
  -3  -3   0 1899.07 180.102   3
   3  -3   0 1828.91 141.622   2
   3   3   0 1685.33 168.181   5
   3   3   1 1513.80 160.619   5
  -3  -3  -1 1508.83 159.802   3
  -3  -3  -1 1620.23 127.880   1
   3  -3   1 1669.83 149.967   2
  -3  -3  -2 75.7652 46.0189   1
   3  -3   2 83.8275 40.8193   2
  -3  -3  -2 119.713 59.2654   3
  -3  -3  -3 725.711 104.349   1
  -3  -3  -3 532.188 100.875   3
   3  -3   3 701.128 111.815   2
   3  -3   3 693.649 64.9755   5
  -3  -3  -4 1493.76 163.557   1
   3  -3   4 1858.73 193.683   2
   3  -3   4 1445.03 68.3744   5
  -3  -3  -4 1724.11 182.358   3
  -3  -3  -5 1574.23 183.389   3
   3   3   5 2004.16 204.225   6
   3  -3   5 2046.90 211.263   2
  -3  -3  -5 1668.98 179.198   1
  -3  -3  -6 591.249 121.369   1
   3  -3   6 373.264 100.090   2
  -3  -3  -6 327.951 92.8251   3
   3   3   6 512.009 114.570   6
  -3  -3  -7 2608.90 243.367   3
   3   3   7 2705.88 193.075   2
   3   3   7 3101.00 280.265   6
   3  -3   7 3123.38 281.972   2
  -3  -3  -7 3120.92 270.074   1
  -3  -3  -8 548.143 123.351   3
   3   3   8 475.876 127.366   6
   3  -3   8 472.527 126.059   2
  -3  -3  -8 606.053 139.895   1
   3   3   9 108.347 73.5017   6
   3  -3   9 159.742 97.8916   2
  -3  -3  -9 109.149 91.4340   1
  -3  -3  -9-19.4631 42.9007   3
   3  -3  10 733.782 170.520   2
   3   3  10 681.717 156.161   6
   3   3  11 689.212 163.304   6
   3  -3  11 803.456 178.260   2
  -3  -4  12 430.385 146.205   2
  -3  -4  11 22.6911 82.3764   2
   3  -4 -11 95.0646 103.951   1
  -3  -4  10 631.558 158.810   2
   3  -4 -10 549.675 140.678   1
  -3  -4   9 1348.26 215.224   2
   3  -4  -9 1370.75 214.937   1
   3   4  -8 1417.85 171.892   5
   3  -4  -8 1185.54 192.513   1
  -3  -4   8 1489.23 210.328   2
  -3  -4   7 2233.29 252.125   2
   3  -4  -7 2285.88 250.990   1
   3   4  -7 1999.52 202.489   5
  -3  -4   6 1583.26 148.433   3
   3  -4  -6 1872.74 217.609   1
   3   4  -6 1648.07 181.397   5
   3  -4  -5 1971.92 216.473   1
  -3  -4   5 1950.02 171.478   3
   3   4  -5 1784.03 183.966   5
   3   4  -4 877.813 131.685   5
  -3  -4   4 773.613 113.526   3
   3  -4  -4 871.221 142.773   1
  -3  -4   3 6029.41 313.921   3
   3  -4  -3 6003.04 350.703   1
   3  -4  -3 5768.06 182.971   2
   3   4  -3 5805.95 327.914   5
   3  -4  -2 3799.73 182.417   2
   3  -4  -2 4246.36 295.070   1
  -3  -4   2 4089.12 226.712   1
  -3  -4   2 4115.63 269.585   3
   3   4  -2 3840.48 271.001   5
   3  -4  -1 1694.78 139.589   2
  -3  -4   1 1500.54 135.493   1
   3  -4  -1 1652.48 185.161   1
  -3  -4   1 1633.78 178.771   3
   3   4  -1 1585.73 179.640   5
   3   4   0 2272.12 216.380   5
  -3  -4   0 2402.95 218.844   3
   3  -4   0 2348.46 175.534   2
  -3  -4   0 2083.53 162.752   1
  -3  -4  -1 1544.27 183.688   3
  -3  -4  -1 1682.37 152.154   1
   3  -4   1 1822.08 171.371   2
   3  -4   2 1669.21 177.495   2
  -3  -4  -2 1379.10 171.666   3
  -3  -4  -2 1450.78 153.056   1
  -3  -4  -3 1181.97 141.735   1
   3  -4   3 1303.71 167.030   2
  -3  -4  -4 3623.27 262.911   1
   3  -4   4 3525.66 283.383   2
  -3  -4  -5 3334.44 267.843   1
  -3  -4  -5 3229.79 283.706   3
   3  -4   5 3248.43 282.961   2
   3  -4   6 2150.55 242.809   2
  -3  -4  -6 1786.90 221.875   3
  -3  -4  -6 1794.31 212.009   1
  -3  -4  -7 1287.60 194.574   3
  -3  -4  -7 1156.62 182.631   1
   3  -4   7 957.363 173.641   2
   3  -4   8 395.156 128.311   2
  -3  -4  -8 132.682 55.9373   3
  -3  -4  -8 220.558 101.262   1
   3  -4   9 737.765 159.181   2
  -3  -4  -9 752.151 152.774   3
  -3  -4  -9 844.616 176.350   1
   3  -4  10 39.2451 80.0866   2
  -3  -4 -10 32.1325 83.4079   1
  -3  -4 -10-10.6745 61.6587   3
   3  -5 -10 225.730 112.995   1
  -3  -5  10 422.437 140.820   2
   3  -5  -9 34.2438 59.8753   1
  -3  -5   9 352.215 125.670   2
   3  -5  -8 292.943 127.297   1
  -3  -5   8 284.881 110.206   2
   3   5  -7 391.229 98.8440   5
  -3  -5   7 470.763 131.341   2
   3  -5  -7 315.897 109.189   1
   3   5  -6 52.7494 55.2461   5
  -3  -5   6-65.1588 55.1480   2
   3  -5  -6 97.3700 86.2383   1
   3   5  -5 308.323 94.2807   5
  -3  -5   5 278.480 87.4475   3
   3  -5  -5 298.584 108.529   1
   3   5  -4 693.155 131.314   5
  -3  -5   4 893.180 140.233   3
   3  -5  -4 678.217 145.075   1
   3  -5  -3 3642.99 301.480   1
  -3  -5   3 4460.09 266.815   1
  -3  -5   3 4493.53 307.426   3
   3   5  -3 4347.61 315.983   5
   3  -5  -2 6034.15 384.754   1
  -3  -5   2 6210.62 369.437   3
  -3  -5   2 6427.13 315.369   1
   3   5  -2 6666.99 393.383   5
  -3  -5   1 2084.55 184.819   1
   3  -5  -1 2297.76 250.299   1
  -3  -5   1 1720.67 204.706   3
   3  -5  -1 1999.62 169.079   2
   3   5  -1 2249.05 234.173   5
   3  -5   0 700.780 131.770   1
  -3  -5   0 855.232 150.193   3
   3  -5   0 912.539 124.324   2
  -3  -5   0 926.493 132.126   1
  -3  -5  -1 4751.49 286.904   1
  -3  -5  -1 4721.60 345.639   3
   3  -5   1 4750.91 297.123   2
  -3  -5  -2-7.07421 41.9122   3
  -3  -5  -2 106.226 65.1240   1
   3  -5   2 15.1932 49.3803   2
   3  -5   3 3882.81 302.062   2
  -3  -5  -3 3663.75 272.536   1
   3  -5   4 284.392 98.1817   2
  -3  -5  -4 274.262 93.1528   1
  -3  -5  -5 1558.59 205.667   1
   3  -5   5 1732.20 225.839   2
   3  -5   6 304.519 112.670   2
  -3  -5  -6 48.1972 69.3115   3
  -3  -5  -6 110.910 70.8995   1
  -3  -5  -7 153.427 81.7307   1
   3  -5   7 219.063 106.407   2
  -3  -5  -7 63.1627 70.4342   3
  -3  -5  -8 157.645 94.1661   1
   3  -5   8 186.618 80.8828   2
  -3  -5  -8 131.236 81.6821   3
  -3  -5  -9 57.0657 59.8003   3
   3  -5   9-46.4479 56.6790   2
  -3  -5  -9 119.269 85.0184   1
  -3  -5 -10 111.800 79.4590   3
   3  -6  -8 243.523 119.281   1
  -3  -6   8 157.770 94.8334   2
  -3  -6   7 310.758 111.284   2
   3  -6  -7 431.213 147.592   1
   3   6  -6 293.770 106.812   5
  -3  -6   6 195.811 98.7652   2
   3  -6  -6 335.624 121.538   1
  -3  -6   5 180.298 84.2512   2
   3   6  -5 138.206 73.2239   5
   3  -6  -5 304.569 122.947   1
   3  -6  -4 333.331 119.394   1
  -3  -6   4 254.944 91.9065   2
  -3  -6   4 202.744 85.6398   3
   3   6  -4 240.896 92.6955   5
   3  -6  -3 495.327 129.609   1
  -3  -6   3 407.423 111.630   3
   3  -6  -2 633.754 142.990   1
  -3  -6   2 572.198 137.471   3
  -3  -6   2 651.084 123.565   1
   3  -6  -1 694.470 151.226   1
  -3  -6   1 789.239 129.116   1
  -3  -6   1 703.920 151.896   3
  -3  -6   0 201.488 70.5532   1
  -3  -6   0 207.382 96.9936   3
   3  -6   0 130.624 78.2871   1
   3  -6   1 15.4143 46.3711   2
  -3  -6  -1-60.6776 73.4059   3
  -3  -6  -1 73.3063 52.1563   1
   3  -6   1 6.79593 46.7842   1
  -3  -6  -2-4.11746 45.7148   1
   3  -6   2 29.3049 39.4517   2
  -3  -6  -2 37.5448 68.0548   3
  -3  -6  -3 76.4555 73.1605   1
   3  -6   3-22.7488 40.2914   2
  -3  -6  -3 81.6306 77.3998   3
  -3  -6  -4 281.215 90.2196   1
  -3  -6  -4 324.481 120.691   3
   3  -6   4 311.468 102.642   2
  -3  -6  -5 225.095 95.1706   1
   3  -6   5 310.932 113.487   2
  -3  -6  -5 300.075 108.896   3
   3  -6   6 161.428 84.6188   2
  -3  -6  -6 101.955 81.4152   3
  -3  -6  -6 256.034 101.271   1
   3  -6   7 169.674 116.623   2
  -3  -6  -7 260.061 104.332   3
  -3  -6  -7 147.354 93.9401   1
  -3  -6  -8-109.435 83.6828   1
  -3  -7   6 131.082 102.597   2
   3  -7  -5 47.0316 64.1481   1
  -3  -7   5 381.160 133.873   2
   3  -7  -4 315.463 118.962   1
  -3  -7   4 98.5583 86.8148   2
   3  -7  -3 41.3095 56.3669   1
  -3  -7   3-17.3093 47.3234   2
  -3  -7   3-65.2794 64.8370   3
   3  -7  -2 172.763 89.7207   1
  -3  -7   2 119.553 75.0800   3
  -3  -7   2 66.8372 54.9135   2
  -3  -7   1 405.477 123.752   3
   3  -7  -1 910.847 184.784   1
  -3  -7   0 448.635 135.056   3
   3  -7   0 680.634 163.907   1
  -3  -7  -1 149.980 91.6064   3
   3  -7   1 50.0809 85.2518   1
  -3  -7  -2 118.544 77.3841   3
   3  -7   2 106.150 97.1459   1
  -3  -7  -3 331.866 133.422   3
   3  -7   3 274.369 113.624   1
   3  -7   3 181.225 99.3463   2
  -3  -7  -4 142.368 94.6737   1
   3  -7   4-90.2532 81.3257   2
  -3  -7  -4 287.554 132.204   3
  -3  -7  -5 274.097 118.588   1
   3  -7   5 275.544 128.448   2
  -3  -7  -6-96.4310 96.7861   1
  -3  -8   2 15.5248 46.1226   3
  -4   0  14-28.6352 50.6804   6
  -4   0  13 331.737 115.011   6
   4   0 -13 490.196 140.110   5
  -4   0  12-27.1105 37.6591   6
   4   0 -12-17.9948 59.8848   5
  -4   0  11 21.4244 31.4444   2
  -4   0  11 36.9896 37.7042   6
   4   0 -11 59.9042 66.0079   5
  -4   0  10 2258.57 209.745   2
  -4   0  10 2316.82 231.219   6
   4   0 -10 2578.81 242.841   5
   4   0  -9 1788.23 195.013   5
  -4   0   9 1584.05 168.721   2
  -4   0   9 1904.25 195.142   6
   4   0  -8 1092.48 149.179   5
  -4   0   8 1141.36 142.712   6
   4   0  -8 1044.28 133.815   1
   4   0  -7 1032.55 140.350   5
  -4   0   7 1077.57 126.349   6
   4   0  -7 1039.44 124.118   1
  -4   0   6 2013.98 156.021   6
   4   0  -6 2096.25 184.157   5
   4   0  -6 2058.26 154.613   1
   4   0  -5 4365.17 243.047   5
   4   0  -5 4750.16 207.216   1
   4   0  -4 76.6181 40.3236   1
  -4   0   4 92.5763 45.2976   4
   4   0  -4 103.223 55.3826   5
   4   0  -3 2031.78 109.471   1
  -4   0   3 2324.46 161.450   4
  -4   0   3 2044.91 113.043   1
   4   0  -3 2101.80 110.352   6
   4   0  -3 2214.89 167.387   5
  -4   0   2 2282.57 157.485   4
   4   0  -2 2328.34 102.875   1
   4   0  -2 2361.40 162.730   5
  -4   0   1 6688.35 249.868   4
   4   0  -1 6710.81 235.543   5
   4   0  -1 6660.10 243.867   2
   4   0   0 6360.64 243.285   2
  -4   0   0 6116.78 235.522   4
   4   0   0 6321.07 217.196   5
   4   0   1 107.783 36.8638   5
   4   0   1 84.3090 41.9264   2
  -4   0  -1 108.641 44.1853   4
   4   0   2 6813.33 274.805   2
   4   0   2 6605.72 209.546   5
   4   0   3 3647.11 216.470   2
   4   0   3 3788.45 159.939   5
   4   0   4 3419.34 222.589   2
   4   0   5 118.096 56.8429   2
  -4   0  -5 107.245 48.3434   3
   4   0   6 816.586 123.750   2
   4   0   7 1426.37 172.366   2
   4   0   8 30.9958 45.0343   2
   4   0   9 73.8326 51.0025   2
   4   0  10 383.408 113.400   2
   4   0  11 133.075 80.7683   2
   4   0  12-9.49909 56.2272   2
  -4  -1  14 49.7426 78.3126   6
  -4   1  14 84.5803 102.649   6
  -4  -1  13 231.163 85.4642   6
  -4   1  13 152.756 104.400   6
  -4  -1  12 36.3443 66.5704   6
   4   1 -12 87.6656 78.5342   5
  -4   1  12-20.3218 57.0076   6
  -4  -1  12-36.8448 56.9587   2
   4   1 -11 397.151 112.129   5
  -4   1  11 201.774 77.0845   6
   4  -1 -11 477.160 125.376   1
  -4  -1  11 242.290 80.3580   6
  -4  -1  11 315.733 93.0315   2
  -4  -1  10 1495.03 186.384   2
   4   1 -10 1817.67 205.813   5
  -4  -1  10 1898.04 204.632   6
  -4   1  10 1756.91 217.131   6
   4  -1 -10 1686.64 209.723   1
  -4   1   9 1389.37 137.473   2
  -4  -1   9 1418.68 172.483   2
  -4   1   9 1519.91 188.884   6
  -4  -1   9 1448.55 169.471   6
   4   1  -9 1467.53 182.201   5
   4  -1  -9 1392.32 174.755   1
  -4   1   8 2351.07 164.610   2
  -4  -1   8 2245.50 187.075   6
   4   1  -8 2220.67 205.569   5
   4  -1  -8 2410.32 214.658   1
   4  -1  -7 1890.01 177.040   1
   4   1  -7 1830.75 185.665   5
  -4  -1   7 1835.89 154.594   6
   4  -1  -6 555.483 93.3206   1
  -4  -1   6 557.428 83.7601   4
  -4  -1   6 509.971 76.7625   6
   4   1  -6 512.560 97.3378   5
  -4  -1   5 644.950 88.1497   4
   4  -1  -5 694.571 96.8506   1
  -4  -1   5 603.943 71.0939   6
   4   1  -5 714.998 103.185   5
   4   1  -4 7005.36 292.586   5
  -4  -1   4 7411.90 186.595   1
   4  -1  -4 7270.13 270.543   1
  -4  -1   4 7444.85 268.776   4
  -4  -1   4 7653.43 190.309   6
  -4  -1   3 3313.13 182.609   4
   4  -1  -3 3511.76 177.351   1
   4   1  -3 3035.91 190.467   5
  -4  -1   3 3320.91 89.5425   1
   4  -1  -2 45194.3 565.085   2
   4  -1  -2 47745.5 615.565   1
   4   1  -2 44221.4 660.732   5
  -4   1   1 17154.6 414.718   4
  -4  -1   1 16229.5 402.146   3
   4  -1  -1 16452.1 362.305   2
   4   1  -1 15723.9 394.029   5
   4  -1   0 20717.1 373.019   5
   4   1   0 21583.4 445.595   5
  -4   1   0 22003.7 452.365   4
   4  -1   0 21766.4 438.806   2
  -4  -1   0 21596.3 462.506   3
   4   1   0 20950.0 272.214   1
  -4   1  -1 13416.2 355.431   4
  -4  -1  -1 13996.9 385.890   3
   4  -1   1 13951.1 378.117   2
   4   1   1 13616.0 357.223   5
   4   1   1 13211.7 372.437   2
   4  -1   1 14080.6 280.770   5
   4   1   2 657.990 90.8385   2
  -4   1  -2 619.873 78.7883   4
   4  -1   2 647.629 93.7216   2
  -4  -1  -2 735.075 97.3844   3
   4  -1   2 631.757 54.9595   5
   4   1   2 635.365 85.9982   5
  -4   1  -3 14927.8 364.563   4
  -4  -1  -3 14975.8 415.312   3
   4   1   3 14890.9 414.151   2
   4  -1   3 15203.1 448.568   2
   4  -1   3 14340.7 213.264   5
   4   1   3 15709.6 395.431   5
   4   1   4 597.636 94.9694   2
  -4   1  -4 467.404 71.3383   4
   4  -1   4 328.770 81.6340   2
  -4  -1  -4 309.597 63.1952   3
  -4   1  -5 2580.86 152.292   4
   4  -1   5 2480.72 214.092   2
   4   1   5 2592.58 197.514   2
  -4  -1  -5 2636.20 187.302   3
  -4  -1  -6 2314.58 181.480   3
  -4   1  -6 2356.38 143.646   4
   4   1   6 2658.03 208.481   2
   4  -1   6 2785.32 236.052   2
   4   1   7 134.755 72.5281   2
   4  -1   7 83.9169 78.6252   2
  -4  -1  -7 38.4011 47.8062   3
   4   1   8 888.174 140.570   2
   4  -1   8 805.913 144.255   2
  -4  -1  -8 868.979 116.845   3
   4   1   9 343.505 93.4489   2
   4  -1   9 520.158 123.628   2
   4   1  10 521.550 117.889   2
   4   1  10 546.206 158.302   6
   4  -1  10 420.257 119.926   2
   4   1  11 88.9842 84.6857   6
   4  -1  11 132.339 78.9474   2
   4  -1  12 447.221 134.184   2
   4   1  12 411.918 147.574   6
   4  -1  13 225.177 113.236   2
  -4  -2  14 457.172 151.076   2
   4  -2 -13 292.558 116.582   1
  -4  -2  13 207.740 99.7588   2
  -4  -2  13 188.344 90.4107   6
  -4  -2  12 317.528 94.7138   6
   4  -2 -12 393.990 123.777   1
  -4  -2  12 291.427 107.715   2
   4   2 -11-17.5394 49.8767   5
  -4  -2  11 10.6271 47.8509   2
  -4  -2  11 76.3132 55.5390   6
   4   2 -10 817.048 134.283   5
   4  -2 -10 1045.61 172.630   1
  -4  -2  10 779.518 150.551   2
   4   2  -9 298.920 83.4371   5
  -4  -2   9 362.470 104.312   2
   4  -2  -9 467.163 119.099   1
   4  -2  -8 1883.45 208.525   1
  -4  -2   8 1754.95 135.300   4
   4   2  -8 1690.01 177.420   5
   4  -2  -7 1234.57 155.656   1
  -4  -2   7 1098.45 110.108   4
  -4   2   7 964.083 76.6369   2
   4   2  -7 1126.71 143.078   5
   4   2  -6 305.608 76.8897   5
  -4   2   6 303.544 40.2439   2
  -4  -2   6 461.253 76.8585   4
   4  -2  -6 473.309 90.9187   1
   4  -2  -5 17704.0 506.392   1
  -4   2   5 16484.5 278.222   2
   4   2  -5 17676.0 498.640   5
  -4   2   4 796.241 68.7164   2
   4  -2  -4 974.665 121.885   1
  -4  -2   4 953.318 111.926   3
  -4  -2   4 773.253 63.7347   1
   4   2  -4 746.438 108.492   5
   4  -2  -3 23361.8 532.155   1
  -4  -2   3 23000.3 502.871   3
   4  -2  -3 22146.0 366.084   2
   4   2  -3 22515.3 534.941   5
   4  -2  -2 17278.7 347.500   2
  -4  -2   2 15844.7 172.742   1
  -4  -2   2 17831.7 453.437   3
   4  -2  -2 18248.4 464.873   1
  -4  -2   2 15618.9 175.848   6
   4   2  -2 17827.2 472.802   5
  -4  -2   1 3769.59 104.873   1
  -4  -2   1 3810.52 225.651   3
   4  -2  -1 3962.11 188.580   2
   4   2  -1 3847.45 224.980   5
   4   2   0 11408.1 238.513   1
  -4  -2   0 11696.0 391.637   3
   4   2   0 11747.0 383.135   5
   4  -2   0 12089.5 346.693   2
  -4  -2   0 12000.5 235.864   1
   4   2   1 315.996 74.1356   5
   4  -2   1 331.509 70.3321   2
  -4  -2  -1 397.005 89.6370   3
   4   2   1 259.966 48.0863   6
  -4  -2  -1 291.654 49.9154   1
   4   2   2 2648.41 195.305   5
  -4  -2  -2 2535.38 195.488   3
   4   2   2 2445.18 154.287   6
   4  -2   2 2572.92 193.223   2
  -4  -2  -2 2651.38 159.784   1
   4   2   3 840.445 108.710   2
   4   2   3 732.047 108.291   5
   4  -2   3 694.900 41.9106   5
   4  -2   3 785.211 118.798   2
  -4  -2  -3 1027.27 134.812   3
  -4  -2  -3 723.819 97.3477   1
   4   2   3 826.801 101.976   6
   4   2   4 1794.49 167.369   6
   4   2   4 1756.54 157.479   2
  -4  -2  -4 1975.21 169.997   1
   4  -2   4 1892.43 184.963   2
  -4  -2  -4 2077.19 189.849   3
   4   2   5 473.989 87.3703   2
   4  -2   5 526.662 108.857   2
  -4  -2  -5 666.300 116.293   3
   4   2   5 585.938 107.827   6
   4   2   6 8566.43 408.945   6
  -4  -2  -6 8629.94 387.008   3
   4   2   6 8002.22 344.996   2
   4  -2   6 8935.63 438.179   2
   4   2   7 142.823 53.3821   2
   4  -2   7 281.563 96.2750   2
   4   2   7 249.764 89.3822   6
  -4  -2  -7 197.825 70.1291   3
   4   2   8 1101.72 147.474   2
  -4  -2  -8 1121.97 154.575   3
   4   2   8 1519.47 204.690   6
   4  -2   8 1739.29 218.388   2
   4   2   9 1833.97 236.617   6
   4   2   9 1587.64 179.878   2
   4  -2   9 1942.52 246.736   2
   4  -2  10 44.1054 70.6445   2
   4   2  10 249.133 116.026   6
   4   2  11 1112.95 211.427   6
   4  -2  11 902.206 187.079   2
   4  -2  12 159.134 99.6669   2
   4  -3 -13 509.668 153.733   1
  -4  -3  13 614.818 167.178   2
  -4  -3  12 135.282 76.7533   2
   4  -3 -12 299.804 125.857   1
   4  -3 -11 380.114 122.432   1
  -4  -3  11 807.582 170.824   2
   4   3 -10 192.676 70.5435   5
  -4  -3  10 202.640 96.9471   2
   4  -3 -10 449.765 131.316   1
   4  -3  -9 627.557 139.633   1
   4   3  -9 568.581 116.284   5
  -4  -3   9 594.602 138.651   2
   4  -3  -8 1986.48 222.454   1
   4   3  -8 1991.13 199.279   5
  -4  -3   7 936.779 108.943   4
   4  -3  -7 701.814 136.726   1
   4   3  -7 1005.99 142.593   5
   4  -3  -6 1769.73 197.047   1
   4   3  -6 1521.13 167.844   5
   4   3  -5 319.874 82.2196   5
  -4  -3   5 438.881 81.9405   3
   4  -3  -5 350.243 85.8586   1
  -4   3   4 3342.86 127.968   2
   4  -3  -4 4001.20 267.183   1
  -4  -3   4 3722.71 227.555   3
   4   3  -4 4156.99 265.360   5
   4  -3  -3 1302.33 155.869   1
  -4  -3   3 1137.56 130.915   3
  -4  -3   3 1273.21 91.4986   1
   4  -3  -3 1225.45 91.9947   2
   4   3  -3 1366.78 157.047   5
   4  -3  -2 3654.99 174.871   2
  -4  -3   2 3420.87 143.560   1
   4  -3  -2 3822.33 260.481   1
  -4  -3   2 3606.24 238.766   3
   4   3  -2 3383.88 236.932   5
  -4  -3   1 2203.25 121.570   1
  -4  -3   1 2288.61 195.316   3
   4  -3  -1 2242.27 153.196   2
   4  -3  -1 2398.69 201.244   1
   4   3  -1 2533.23 210.715   5
  -4  -3   0 6704.21 227.246   1
  -4  -3   0 6880.31 337.940   3
   4  -3   0 7120.00 292.857   2
   4   3   0 7268.15 345.627   5
  -4  -3  -1 2001.04 140.492   1
  -4  -3  -1 1939.46 190.463   3
   4  -3   1 1980.78 171.819   2
   4   3   1 2099.17 197.082   5
   4   3   2 307.916 83.5972   5
  -4  -3  -2 302.355 80.2843   3
   4  -3   2 378.231 90.5648   2
  -4  -3  -2 333.800 70.4439   1
  -4  -3  -3 3292.07 257.157   3
   4  -3   3 3287.25 245.962   2
  -4  -3  -3 3159.18 212.740   1
   4  -3   4 851.990 139.472   2
  -4  -3  -4 728.679 128.518   3
   4   3   4 785.643 125.862   6
  -4  -3  -4 892.350 131.638   1
  -4  -3  -5 6554.21 375.760   3
   4   3   5 7133.59 373.336   6
   4  -3   5 6641.83 380.781   2
  -4  -3  -5 6920.10 352.979   1
   4   3   6 1322.46 178.044   6
   4  -3   6 1260.05 183.618   2
  -4  -3  -6 1079.81 161.482   1
  -4  -3  -6 1122.99 166.498   3
   4   3   7 131.835 60.2049   2
  -4  -3  -7 186.122 84.8674   1
  -4  -3  -7 82.7447 56.3718   3
   4   3   7 261.241 82.9368   6
   4  -3   7 218.012 96.8559   2
   4   3   8 1513.47 214.295   6
  -4  -3  -8 1651.42 206.000   3
   4  -3   8 1815.33 236.914   2
   4   3   9 95.4419 68.2228   6
   4  -3   9 181.206 94.3467   2
  -4  -3  -9 93.3290 51.6232   3
   4  -3  10 1252.54 216.113   2
   4   3  10 1065.22 198.519   6
   4  -3  11-50.0750 64.6702   2
   4   3  11 33.1381 65.5885   6
  -4  -4  12 160.072 100.137   2
  -4  -4  11-43.4773 52.6655   2
   4  -4 -11 34.4532 107.003   1
   4  -4 -10 515.661 165.781   1
  -4  -4  10 711.297 170.535   2
   4   4  -9 394.526 102.421   5
   4  -4  -9 376.797 124.344   1
  -4  -4   9 320.005 120.502   2
   4   4  -8 637.867 122.901   5
   4  -4  -8 809.269 154.449   1
   4   4  -7 133.985 61.1552   5
   4  -4  -7 166.057 87.3178   1
   4   4  -6 204.555 70.8748   5
  -4  -4   6 355.678 76.3323   3
   4  -4  -6 353.348 109.521   1
   4   4  -5 140.775 63.3718   5
  -4  -4   5 72.0346 37.5676   3
   4  -4  -5 109.954 66.3622   1
   4  -4  -4 3270.03 273.097   1
  -4  -4   4 3070.83 232.266   3
   4   4  -4 2818.23 244.156   5
   4  -4  -3 8569.06 428.912   1
  -4  -4   3 8774.34 304.181   1
  -4  -4   3 8144.74 382.974   3
   4   4  -3 8043.85 402.476   5
   4  -4  -3 7804.87 237.532   2
   4   4  -2 347.022 96.8662   5
   4  -4  -2 344.636 61.4757   2
   4  -4  -2 509.741 108.605   1
  -4  -4   2 371.695 64.1963   1
  -4  -4   2 361.706 95.3409   3
  -4  -4   1 1718.83 135.129   1
  -4  -4   1 1564.70 184.310   3
   4  -4  -1 1517.55 183.808   1
   4  -4  -1 1634.04 145.102   2
   4   4  -1 1933.92 210.318   5
  -4  -4   0 5505.06 246.248   1
  -4  -4   0 5051.01 325.366   3
   4  -4   0 5561.49 284.275   2
   4   4   0 5609.35 350.074   5
  -4  -4  -1 2193.18 167.808   1
  -4  -4  -1 2038.82 217.749   3
   4  -4   1 2527.54 206.836   2
   4   4   1 2362.54 231.176   5
  -4  -4  -2 2471.59 191.893   1
  -4  -4  -2 2439.76 242.489   3
   4  -4   2 2579.61 221.899   2
   4  -4   3 68.8499 42.8939   2
  -4  -4  -3 54.0351 65.0831   3
  -4  -4  -3 39.5414 44.4792   1
  -4  -4  -4 1319.27 185.950   3
   4  -4   4 1322.92 178.772   2
  -4  -4  -4 1402.41 168.221   1
   4  -4   5 363.754 97.4126   2
  -4  -4  -5 381.081 112.062   3
  -4  -4  -5 326.818 89.1900   1
  -4  -4  -6 1501.79 195.774   1
  -4  -4  -6 1813.71 226.093   3
   4  -4   6 1949.14 238.859   2
   4  -4   7 344.698 119.402   2
  -4  -4  -7 254.589 107.991   3
  -4  -4  -7 300.802 107.357   1
   4  -4   8-6.03719 40.7279   2
  -4  -4  -8 104.294 92.6605   1
  -4  -4  -8 10.4376 44.0972   3
   4  -4   9 152.667 95.6502   2
  -4  -4  -9 280.903 129.989   1
  -4  -4  -9 104.387 73.8922   3
   4  -4  10 324.921 138.178   2
  -4  -4 -10 349.602 122.353   3
   4  -5 -10 286.387 125.122   1
  -4  -5  10 201.347 110.139   2
   4  -5  -9 782.520 183.105   1
  -4  -5   9 1109.40 215.317   2
   4   5  -8 56.3324 40.0714   5
   4  -5  -8 145.385 90.6054   1
  -4  -5   8-2.27463 71.1443   2
   4   5  -7 597.802 127.220   5
   4  -5  -7 546.685 139.999   1
   4   5  -6 121.531 67.3515   5
  -4  -5   6 37.5394 37.7905   3
   4  -5  -6 41.5921 58.3101   1
   4  -5  -5 390.183 108.353   1
   4   5  -5 506.251 121.225   5
  -4  -5   5 465.192 105.202   3
   4   5  -4 254.368 96.6466   5
   4  -5  -4 320.085 110.325   1
  -4  -5   4 250.537 79.1789   3
   4  -5  -3 1506.64 205.723   1
  -4  -5   3 1982.74 171.803   1
  -4  -5   3 1942.80 214.576   3
   4   5  -3 1745.31 213.245   5
  -4  -5   2 2095.84 172.681   1
   4  -5  -2 1965.73 234.821   1
  -4  -5   2 2104.37 228.164   3
   4   5  -2 2020.02 235.384   5
  -4  -5   1 434.211 83.0192   1
   4   5  -1 297.187 92.5112   5
   4  -5  -1 318.785 69.0929   2
  -4  -5   1 360.907 106.020   3
   4  -5  -1 347.231 107.380   1
   4   5   0 161.611 78.8310   5
   4  -5   0 89.5244 48.5547   2
   4  -5   0 103.280 74.8084   1
  -4  -5   0-9.27766 45.2415   3
  -4  -5   0 120.936 58.7860   1
  -4  -5  -1 1020.72 134.618   1
   4  -5   1 867.657 133.417   2
  -4  -5  -1 598.033 133.659   3
  -4  -5  -2 482.910 96.8963   1
  -4  -5  -2 481.887 126.979   3
   4  -5   2 401.398 104.134   2
  -4  -5  -3 2224.02 214.958   1
  -4  -5  -3 2366.85 265.513   3
   4  -5   3 2190.29 232.112   2
   4  -5   4 500.514 125.806   2
  -4  -5  -4 621.195 125.720   1
  -4  -5  -4 404.582 117.625   3
   4  -5   5-9.18348 41.1615   2
  -4  -5  -5-30.4925 60.9333   3
   4  -5   6 785.676 166.801   2
  -4  -5  -6 834.515 173.805   3
  -4  -5  -6 1064.37 177.073   1
   4  -5   7 116.077 75.5390   2
  -4  -5  -7 14.1704 49.4960   3
  -4  -5  -7 79.9901 57.1408   1
   4  -5   8 557.163 167.368   2
  -4  -5  -8 346.380 130.115   3
  -4  -5  -8 266.248 116.453   1
  -4  -5  -9 169.556 101.254   1
  -4  -5  -9 38.0891 48.1917   3
  -4  -5 -10 148.701 87.5450   3
   4  -6  -8 253.641 124.786   1
  -4  -6   8 121.284 100.925   2
  -4  -6   7 275.692 113.475   2
   4  -6  -7 333.099 137.663   1
   4   6  -6 142.195 68.7835   5
   4  -6  -6 315.656 123.844   1
  -4  -6   6 236.215 97.6251   2
   4   6  -5 451.730 127.508   5
  -4  -6   5 650.370 133.849   3
   4  -6  -5 522.782 143.613   1
   4   6  -4 3.85270 39.4100   5
   4  -6  -4 2.52209 67.0772   1
  -4  -6   4 166.913 82.5020   3
   4   6  -3 831.484 164.424   5
   4  -6  -3 618.974 149.196   1
  -4  -6   3 748.767 150.437   3
   4   6  -2 465.539 132.156   5
  -4  -6   2 350.725 114.520   3
   4  -6  -2 339.564 113.148   1
   4  -6  -1 1587.09 240.522   1
  -4  -6   1 1259.42 202.051   3
  -4  -6   0 15.2902 55.0133   3
   4  -6   0-30.6273 61.4100   1
   4  -6   1 3.27974 45.1565   1
   4  -6   1 154.940 65.9653   2
  -4  -6  -1 146.652 90.4773   3
  -4  -6  -2 806.945 137.349   1
   4  -6   2 847.376 150.486   2
  -4  -6  -2 793.652 174.645   3
  -4  -6  -3 47.7995 58.2465   1
   4  -6   3 60.8877 41.5822   2
  -4  -6  -3 131.127 87.3836   3
  -4  -6  -4 1108.04 178.090   1
   4  -6   4 884.108 166.639   2
  -4  -6  -4 1331.09 229.023   3
   4  -6   5 52.9623 53.3139   2
  -4  -6  -5 81.3436 88.9363   3
  -4  -6  -5 49.7134 70.5189   1
   4  -6   6 277.322 107.527   2
  -4  -6  -6 213.468 102.751   3
  -4  -6  -6 212.169 105.965   1
  -4  -6  -7 63.7809 55.3184   1
   4  -6   7 199.929 94.2557   2
  -4  -6  -7 83.4707 79.2590   3
  -4  -6  -8 271.900 100.651   1
  -4  -7   6 45.0941 56.1176   2
  -4  -7   5 226.730 103.105   2
   4  -7  -4 76.0221 74.0272   1
  -4  -7   4 427.819 130.234   3
  -4  -7   4 243.825 113.134   2
   4  -7  -3 8.33733 56.9707   1
  -4  -7   3 147.370 90.0730   3
  -4  -7   2 149.767 84.9197   3
   4  -7  -2 139.388 83.2149   1
  -4  -7   1 120.909 74.4580   3
   4  -7  -1 136.423 86.3111   1
   4  -7   0-0.67990 56.7624   1
  -4  -7   0-45.5266 78.1759   3
  -4  -7  -1 73.0857 61.8573   3
   4  -7   1 50.2393 67.4344   1
  -4  -7  -2 60.3997 103.592   3
   4  -7   2 13.1650 54.0071   1
   4  -7   3 33.5287 79.1752   1
  -4  -7  -3 149.910 115.179   3
   4  -7   4 121.902 82.9421   2
   4  -7   5 201.729 100.463   2
  -5   0  14 58.6923 71.7410   6
  -5   0  13 404.904 125.931   6
   5   0 -13 428.733 125.984   5
   5   0 -12-3.23570 45.1500   5
  -5   0  12-47.5417 56.3081   6
  -5   0  11 1503.51 182.144   2
  -5   0  11 1388.91 191.951   6
   5   0 -11 1694.53 224.706   5
  -5   0  10 3855.74 268.870   2
  -5   0  10 4315.86 307.428   6
   5   0 -10 3873.54 311.523   5
   5   0  -9 1346.65 158.707   1
  -5   0   9 1494.94 172.052   6
   5   0  -9 1415.68 186.852   5
   5   0  -8 3490.76 230.845   1
  -5   0   8 3901.92 254.911   6
   5   0  -8 3779.42 280.251   5
   5   0  -7 943.438 116.011   1
   5   0  -7 845.446 136.272   5
   5   0  -6 355.945 70.6806   1
   5   0  -6 436.589 99.8789   5
   5   0  -5 1787.54 127.523   1
  -5   0   5 1585.46 149.920   4
   5   0  -5 1664.52 169.391   5
   5   0  -4 3092.59 146.740   1
  -5   0   4 3047.09 199.802   4
   5   0  -4 2897.88 208.575   5
   5   0  -3 23553.0 355.337   1
  -5   0   3 23907.9 530.291   4
   5   0  -3 23373.5 363.742   6
   5   0  -3 22193.1 532.426   5
  -5   0   2 23526.2 517.409   4
   5   0  -2 24079.9 360.640   1
   5   0  -2 23511.3 509.348   5
   5   0  -1 12539.7 375.716   2
  -5   0   1 11952.7 377.398   4
   5   0  -1 12230.5 352.464   5
   5   0   0 7346.63 265.315   5
   5   0   0 7583.86 301.181   2
  -5   0   0 7506.32 293.569   4
  -5   0  -1 5744.51 257.580   4
   5   0   1 6297.23 233.755   5
   5   0   1 6313.97 280.390   2
  -5   0  -2 1360.50 137.000   4
   5   0   2 1537.90 116.679   5
   5   0   2 1465.65 149.099   2
   5   0   3 5648.03 292.133   2
   5   0   3 5540.23 212.800   5
   5   0   4 526.392 102.902   2
   5   0   4 645.262 76.0706   5
   5   0   5 1389.40 163.088   2
   5   0   6 986.412 145.513   2
   5   0   7 259.319 81.9501   2
   5   0   8 48.7991 54.8394   2
   5   0   9 49.4313 55.7862   2
   5   0  10 142.887 78.8642   2
   5   0  11 325.127 111.188   2
   5   0  12-30.0874 69.4862   2
   5  -1 -14 80.6558 90.9050   5
  -5  -1  13 26.2227 58.6805   6
   5  -1 -13 81.4243 76.5042   5
   5  -1 -12 43.4528 47.5608   1
  -5  -1  12 63.5011 63.8431   2
  -5  -1  12-13.1214 47.6685   6
   5   1 -12 3.69390 43.4110   5
  -5  -1  11 687.317 137.942   2
   5  -1 -11 654.922 144.416   1
  -5  -1  11 786.653 138.232   6
   5   1 -11 856.776 160.693   5
  -5  -1  10 1337.52 182.416   2
   5  -1 -10 842.787 148.240   1
  -5  -1  10 1365.66 169.156   6
   5   1 -10 1412.06 194.437   5
  -5  -1   9 275.823 75.4025   6
   5  -1  -9 309.509 82.4395   1
   5   1  -9 495.364 119.373   5
  -5  -1   8 878.147 116.702   6
   5  -1  -8 889.880 134.390   1
   5   1  -8 985.046 155.837   5
   5  -1  -7 2398.50 196.501   1
   5   1  -7 2419.86 218.179   5
  -5  -1   7 2416.59 180.258   4
  -5  -1   7 2432.35 170.528   6
  -5  -1   6 2548.65 153.995   6
   5  -1  -6 2828.88 197.397   1
  -5  -1   6 2761.76 193.504   4
   5   1  -6 3022.29 232.533   5
   5  -1  -5 3536.61 207.084   1
  -5  -1   5 3663.14 215.959   4
   5   1  -5 3326.07 234.270   5
  -5  -1   5 3636.85 156.734   6
   5  -1  -4 8565.95 296.093   1
  -5  -1   4 8635.41 322.612   4
  -5  -1   4 8326.21 177.647   1
   5   1  -4 8731.00 351.198   5
  -5  -1   3 14805.9 414.905   4
   5  -1  -3 15783.7 384.013   1
   5   1  -3 14464.6 431.449   5
  -5   1   2 12715.5 406.117   4
   5  -1  -2 13503.4 351.444   1
   5  -1  -2 13262.4 365.122   2
   5   1  -2 12736.5 400.489   5
   5  -1  -2 12377.3 365.694   5
   5  -1  -1 8040.89 290.025   2
  -5   1   1 8057.85 316.523   4
   5  -1  -1 7782.47 276.001   5
   5   1  -1 7966.32 305.421   5
   5   1  -1 6939.16 124.635   1
  -5   1   0 4034.60 228.657   4
  -5  -1   0 3675.36 221.586   3
   5  -1   0 3525.29 178.716   5
   5   1   0 3735.20 207.138   5
   5  -1   0 4012.52 218.386   2
   5   1   0 3687.43 131.075   1
  -5   1  -1 5195.19 252.000   4
  -5  -1  -1 5676.96 280.813   3
   5   1   1 5725.53 278.538   2
   5  -1   1 5694.11 205.469   5
   5   1   1 5865.02 261.379   5
   5  -1   1 5923.13 276.845   2
  -5   1  -2 2143.37 163.260   4
   5  -1   2 1891.83 112.128   5
  -5  -1  -2 2607.66 186.873   3
   5   1   2 2277.07 183.225   2
   5  -1   2 2133.45 178.673   2
   5   1   2 2193.50 162.121   5
  -5   1  -3 8625.45 314.190   4
   5   1   3 8462.02 348.046   2
  -5  -1  -3 8926.78 348.836   3
   5  -1   3 9287.32 380.554   2
   5  -1   3 9032.23 214.909   5
   5   1   3 9120.83 327.074   5
   5   1   4 4545.82 236.766   5
  -5  -1  -4 4109.93 248.954   3
   5   1   4 4503.09 266.798   2
  -5   1  -4 4371.29 223.486   4
   5  -1   4 4477.22 285.454   2
   5  -1   4 4524.77 136.140   5
  -5   1  -5 3459.57 197.525   4
   5  -1   5 3523.78 263.487   2
  -5  -1  -5 3668.14 236.043   3
   5   1   5 3696.98 250.097   2
   5   1   6 797.365 128.528   2
  -5   1  -6 730.181 92.4385   4
   5  -1   6 804.909 140.476   2
  -5  -1  -6 847.115 118.374   3
   5  -1   7 2127.63 227.006   2
  -5  -1  -7 2068.77 185.213   3
   5   1   7 2210.30 214.518   2
   5   1   8 477.616 111.114   2
   5  -1   8 618.953 137.621   2
  -5  -1  -8 585.212 106.554   3
   5   1   9-87.3830 66.4922   2
   5  -1   9-76.5037 71.0744   2
   5   1  10 452.804 119.691   2
   5  -1  10 569.853 142.488   2
   5   1  10 828.154 173.841   6
   5   1  11 58.3265 66.1603   2
   5  -1  11 33.9918 63.7040   2
   5   1  11 31.6308 76.1964   6
   5  -1  12 129.842 89.0871   2
  -5  -2  14 13.7937 51.4767   2
   5  -2 -13 238.412 114.219   1
  -5  -2  13 83.5640 61.5881   2
   5  -2 -12 578.164 147.325   1
  -5  -2  12 428.431 119.499   2
   5   2 -11 206.561 85.2746   5
   5  -2 -11 459.095 124.689   1
  -5  -2  11 328.964 107.875   2
   5   2 -10 859.392 142.913   5
  -5  -2  10 851.474 131.860   6
   5  -2 -10 958.561 164.542   1
  -5  -2  10 847.152 162.361   2
   5   2  -9 843.434 141.612   5
  -5  -2   9 831.010 119.229   6
   5  -2  -9 789.584 142.269   1
   5  -2  -8 2354.22 226.888   1
  -5  -2   8 2279.26 175.617   4
  -5  -2   8 2148.94 173.469   6
   5   2  -8 2303.67 221.114   5
   5   2  -7 219.990 77.0404   5
   5  -2  -7 334.876 87.7407   1
  -5  -2   7 201.565 55.0368   4
  -5  -2   7 389.078 69.4142   6
   5   2  -6 61.6451 46.3586   5
  -5  -2   6 89.7910 53.7811   4
   5  -2  -6 66.9427 46.7568   1
  -5  -2   6 69.1299 31.4116   6
   5   2  -5 526.627 105.758   5
  -5  -2   5 583.163 94.2408   4
   5  -2  -5 366.491 81.3434   1
  -5  -2   5 540.563 56.5628   6
   5   2  -4 419.739 83.5623   5
  -5  -2   4 306.066 29.9482   1
   5  -2  -4 343.223 78.1907   1
  -5  -2   4 325.453 31.2067   6
   5   2  -3 5299.87 287.286   5
   5  -2  -3 5218.73 272.542   1
  -5  -2   3 5203.90 273.034   3
   5  -2  -3 5052.48 213.317   2
   5   2  -2 113.480 54.9603   5
   5  -2  -2 113.961 42.7834   2
   5  -2  -2 137.502 54.3673   1
  -5  -2   2 232.252 65.4347   3
  -5  -2   1 5454.92 281.840   3
   5   2  -1 4947.67 273.266   5
   5  -2  -1 5465.71 245.123   2
   5   2   0 2489.45 112.748   1
   5  -2   0 2567.68 183.978   2
  -5  -2   0 2577.09 203.153   3
   5   2   0 2393.64 195.732   5
  -5  -2  -1 786.718 123.442   3
   5   2   1 624.462 74.9911   6
   5  -2   1 692.972 75.3869   5
   5  -2   1 857.551 116.002   2
   5   2   1 814.101 119.195   5
  -5  -2  -2 5361.71 299.015   3
   5   2   2 5014.43 223.200   6
   5  -2   2 5433.06 183.139   5
   5  -2   2 5321.26 286.553   2
   5   2   2 5357.32 286.165   5
   5  -2   3 1223.01 69.9193   5
  -5  -2  -3 1575.02 174.274   3
   5   2   3 1374.81 133.961   6
   5   2   3 1339.03 150.376   2
   5  -2   3 1372.84 159.508   2
   5   2   3 1545.16 164.538   5
  -5  -2  -4 3521.22 254.426   3
   5   2   4 3442.33 231.946   6
   5   2   4 3651.50 246.944   2
   5  -2   4 3527.01 265.197   2
   5   2   5 1782.94 181.591   2
  -5  -2  -5 1928.48 195.707   3
   5   2   5 1892.88 190.609   6
   5  -2   5 1906.60 209.645   2
   5   2   6 181.637 67.3606   2
   5  -2   6 181.484 88.6079   2
  -5  -2  -6 99.9773 70.0721   3
   5   2   6 186.330 75.2233   6
   5   2   7 693.377 120.481   2
   5  -2   7 942.787 173.012   2
  -5  -2  -7 866.049 139.216   3
   5   2   7 611.136 131.423   6
   5   2   8 155.852 74.8302   2
   5  -2   8 362.804 122.496   2
  -5  -2  -8 187.219 57.2485   3
   5   2   8 280.497 105.336   6
   5  -2   9 1288.01 206.576   2
   5   2   9 1128.82 194.297   6
   5   2   9 1176.56 167.233   2
   5  -2  10 41.1461 66.2961   2
   5   2  10 151.773 99.8559   6
   5  -2  11 984.301 203.515   2
   5   2  11 1161.30 219.430   6
   5  -3 -13 383.314 137.593   1
  -5  -3  13 265.485 112.811   2
  -5  -3  12 178.120 81.4653   2
   5  -3 -12 172.831 88.7223   1
  -5  -3  11 586.575 142.842   2
   5  -3 -11 587.914 161.886   1
   5   3 -10 239.051 83.7934   5
  -5  -3  10 120.794 86.9130   2
   5  -3 -10 157.857 87.4796   1
   5   3  -9 1006.02 159.232   5
   5  -3  -9 755.402 149.420   1
   5   3  -8 38.1698 40.4115   5
   5  -3  -8 153.577 76.6501   1
   5   3  -7 363.501 90.8359   5
  -5  -3   7 551.566 95.3368   4
   5  -3  -7 373.918 107.176   1
   5   3  -6 774.403 134.075   5
   5  -3  -6 1037.77 159.737   1
   5   3  -5 36.4188 37.9369   5
   5  -3  -5 6.46505 39.9150   1
  -5  -3   5 104.119 55.7317   3
   5  -3  -4 2458.69 219.156   1
  -5  -3   4 2177.58 193.685   3
  -5  -3   4 2198.13 106.240   1
   5   3  -4 2407.45 217.514   5
  -5  -3   3 2398.42 96.6063   1
   5  -3  -3 2317.18 212.632   1
  -5  -3   3 2399.38 206.910   3
   5  -3  -3 2510.69 149.538   2
   5   3  -3 2571.46 221.646   5
  -5  -3   2 2121.36 92.9897   1
  -5  -3   2 2012.32 190.478   3
   5  -3  -2 2293.86 208.063   1
  -5  -3   2 1993.11 90.9579   6
   5  -3  -2 2367.12 160.354   2
   5   3  -2 2394.09 212.938   5
  -5  -3   1 3689.30 139.375   1
  -5  -3   1 4085.25 272.748   3
   5  -3  -1 4159.02 225.989   2
   5   3  -1 4302.71 284.840   5
  -5  -3   0 2913.20 237.962   3
   5  -3   0 2969.10 205.292   2
   5   3   0 3187.26 245.134   5
  -5  -3   0 2785.41 143.943   1
  -5  -3  -1 1124.86 156.945   3
   5  -3   1 938.340 126.453   2
   5   3   1 1135.33 153.563   5
  -5  -3  -1 869.547 95.7787   1
   5   3   2 397.537 92.9252   5
   5  -3   2 383.570 95.3382   2
  -5  -3  -2 508.617 119.706   3
  -5  -3  -2 449.714 78.8551   1
  -5  -3  -3 1331.40 175.850   3
   5  -3   3 1171.91 80.0693   5
   5  -3   3 1384.16 170.682   2
  -5  -3  -3 1301.22 137.102   1
   5   3   3 1449.42 175.230   5
  -5  -3  -4 1293.12 180.737   3
   5   3   4 1073.34 141.331   6
   5  -3   4 1244.07 174.144   2
  -5  -3  -4 1306.77 154.799   1
   5   3   5 9551.71 429.140   6
  -5  -3  -5 9444.47 460.119   3
  -5  -3  -5 9789.67 423.646   1
   5  -3   5 9932.12 483.802   2
   5   3   6 1349.84 182.433   6
   5  -3   6 1172.82 181.244   2
  -5  -3  -6 1382.60 190.785   3
   5   3   7 303.914 87.8350   2
   5   3   7 314.167 100.142   6
   5  -3   7 334.367 116.561   2
  -5  -3  -7 318.111 101.123   3
   5  -3   8 940.845 184.110   2
  -5  -3  -8 1085.20 175.411   3
   5   3   8 990.372 180.766   6
   5   3   9 120.752 69.9205   6
   5  -3   9 171.896 92.4905   2
  -5  -3  -9 126.627 75.8419   3
   5  -3  10 1204.00 223.697   2
   5   3  10 839.373 188.347   6
   5   3  11 5.93236 50.0293   6
  -5  -4  11 103.295 71.6042   2
   5  -4 -11 179.361 95.6691   1
   5  -4 -10 1001.42 196.741   1
  -5  -4  10 983.143 197.832   2
   5   4  -9 240.889 89.6736   5
   5  -4  -9 261.502 111.278   1
   5   4  -8 1091.91 169.709   5
   5  -4  -8 920.495 177.273   1
   5   4  -7 458.999 108.137   5
   5  -4  -7 588.834 142.773   1
   5   4  -6 800.982 145.123   5
  -5  -4   6 897.669 133.719   3
   5  -4  -6 1033.81 177.277   1
   5  -4  -5 1846.37 218.308   1
  -5  -4   5 2205.70 206.266   3
   5   4  -5 2095.99 225.259   5
   5   4  -4 650.097 129.236   5
   5  -4  -4 699.489 143.580   1
  -5  -4   4 641.653 118.706   3
   5  -4  -3 6364.91 242.121   2
   5   4  -3 7181.49 397.575   5
   5  -4  -3 6733.78 391.103   1
  -5  -4   3 6579.58 366.439   3
  -5  -4   2 2167.71 133.891   1
  -5  -4   2 2414.74 233.173   3
   5  -4  -2 2686.96 259.244   1
   5  -4  -2 2122.88 160.193   2
   5   4  -2 2225.25 229.646   5
   5  -4  -1 2804.61 198.284   2
  -5  -4   1 3003.03 164.544   1
  -5  -4   1 2884.46 255.001   3
   5  -4  -1 3046.46 265.239   1
   5   4  -1 2869.16 263.003   5
  -5  -4   0 472.310 74.7902   1
   5   4   0 357.085 108.580   5
   5  -4   0 476.062 90.3044   2
  -5  -4   0 580.115 120.993   3
   5   4   1 87.2077 55.2739   5
   5  -4   1 271.492 77.3043   2
  -5  -4  -1 253.590 83.8815   3
  -5  -4  -1 279.319 63.5628   1
  -5  -4  -2 3525.96 299.997   3
   5  -4   2 3630.21 277.502   2
   5   4   2 3544.81 299.169   5
  -5  -4  -2 3354.50 221.676   1
   5  -4   3 135.667 72.3185   2
  -5  -4  -3 174.048 93.2549   3
  -5  -4  -3 178.743 72.3414   1
   5  -4   4 1416.37 195.804   2
  -5  -4  -4 1389.89 197.994   3
  -5  -4  -4 1392.18 165.858   1
   5  -4   5 919.066 173.737   2
  -5  -4  -5 852.816 160.229   3
  -5  -4  -5 844.308 141.479   1
   5  -4   6 480.656 139.571   2
  -5  -4  -6 569.714 135.465   1
  -5  -4  -6 475.921 120.944   3
   5  -4   7 286.126 104.743   2
  -5  -4  -7 489.000 130.312   1
  -5  -4  -7 344.094 109.497   3
   5  -4   8 118.469 80.0164   2
  -5  -4  -8 29.0382 63.5316   3
   5  -4   9 781.995 188.471   2
  -5  -4  -9 566.400 151.359   3
   5  -5 -10 221.976 120.268   1
  -5  -5  10 261.525 140.437   2
   5  -5  -9 419.092 136.846   1
  -5  -5   9 99.5618 84.4378   2
   5   5  -8 300.540 100.890   5
   5  -5  -8 148.041 91.3331   1
   5   5  -7 51.5015 46.8763   5
   5  -5  -7 110.243 74.3477   1
   5   5  -6 393.833 110.274   5
   5  -5  -6 570.379 145.577   1
  -5  -5   6 475.418 111.406   3
   5  -5  -5 179.113 90.1580   1
   5   5  -5 207.622 98.4109   5
  -5  -5   5 157.202 67.6428   3
   5  -5  -4 2913.86 291.976   1
  -5  -5   4 2362.16 238.806   3
   5   5  -4 2559.81 267.413   5
   5  -5  -3 823.484 162.232   1
   5   5  -3 875.983 161.994   5
  -5  -5   3 692.611 145.519   3
   5  -5  -2 1730.01 231.051   1
  -5  -5   2 1270.76 187.069   3
   5   5  -2 1646.93 219.138   5
   5  -5  -1 642.684 141.040   1
   5   5  -1 530.386 137.595   5
   5  -5  -1 418.247 88.4870   2
  -5  -5   1 443.931 122.898   3
  -5  -5   0 2590.68 271.819   3
   5  -5   0 2612.86 276.443   1
   5  -5   0 3050.56 238.640   2
   5   5   0 2765.29 281.975   5
  -5  -5  -1 1303.87 197.248   3
   5  -5   1 1327.73 173.484   2
  -5  -5  -2 1287.23 156.144   1
   5  -5   2 1031.50 160.027   2
  -5  -5  -2 1306.87 206.523   3
  -5  -5  -3 1389.42 172.549   1
   5  -5   3 1097.52 183.321   2
  -5  -5  -3 1243.63 204.569   3
   5  -5   4 256.387 97.4181   2
  -5  -5  -4 86.0335 52.1600   3
  -5  -5  -4 223.935 64.4184   1
   5  -5   5 354.809 112.486   2
  -5  -5  -5 895.143 187.501   3
  -5  -5  -5 1021.85 167.942   1
   5  -5   6 346.332 124.200   2
  -5  -5  -6 491.300 143.205   3
  -5  -5  -6 350.248 104.382   1
   5  -5   7 702.311 165.659   2
  -5  -5  -7 599.797 163.314   3
  -5  -5  -7 625.666 140.725   1
   5  -5   8 84.0160 57.1659   2
  -5  -5  -8-22.7911 62.4456   1
  -5  -5  -8 4.15281 72.3627   3
  -5  -5  -9 58.3275 59.3988   3
  -5  -5  -9 148.315 97.0373   1
  -5  -6   8 524.863 152.562   2
   5   6  -7 346.527 115.783   5
   5  -6  -7 299.129 113.616   1
   5  -6  -6 296.799 124.081   1
   5   6  -6 129.337 58.4545   5
   5  -6  -5 26.1541 55.4046   1
   5   6  -5 62.1426 61.3787   5
  -5  -6   5 62.5205 51.5379   3
   5   6  -4-22.2372 42.4358   5
   5  -6  -4 108.572 67.9024   1
  -5  -6   4 73.4933 83.9165   3
   5   6  -3 546.936 139.041   5
  -5  -6   3 183.071 95.4325   3
   5  -6  -3 538.471 146.848   1
   5  -6  -2 299.708 120.017   1
   5   6  -2 376.194 126.878   5
  -5  -6   2 318.172 109.117   3
   5   6  -1 197.731 105.250   5
   5  -6  -1 179.126 98.6879   1
  -5  -6   1 11.5618 45.2925   3
   5  -6   0 385.140 115.270   1
  -5  -6   0 231.119 104.535   3
   5  -6   1 124.282 71.3540   2
  -5  -6  -1 92.6351 80.4887   3
   5  -6   1 118.313 60.5785   1
   5  -6   2 1034.49 174.510   2
  -5  -6  -2 1081.39 208.411   3
   5  -6   3 60.9506 55.5098   2
  -5  -6  -3 17.8549 96.5696   3
   5  -6   4 262.226 114.210   2
  -5  -6  -4 317.522 126.248   3
   5  -6   5 164.791 93.6859   2
  -5  -6  -5 112.128 101.264   3
   5  -6   6 251.636 100.093   2
  -5  -6  -6 220.252 118.174   3
   5   7  -5 78.6849 59.0186   5
  -5  -7   4-14.0910 49.2516   3
   5  -7  -3 471.287 142.728   1
  -5  -7   3 350.695 124.456   3
  -5  -7   2 724.051 174.031   3
   5  -7  -2 531.563 154.681   1
   5  -7  -1 265.002 128.152   1
  -5  -7   1 88.3824 92.9324   3
   5  -7   0 41.3780 76.8003   1
  -5  -7   0-4.36921 50.0845   3
   5  -7   1 95.8176 70.3826   1
  -5  -7  -1 132.129 100.228   3
   5  -7   4 210.329 83.9191   2
   6   0 -14 132.355 82.4414   5
   6   0 -13 187.061 105.204   5
   6   0 -12 253.274 101.791   5
   6   0 -11 248.897 96.4844   5
   6   0 -10 80.0776 70.2139   5
   6   0  -9 1176.24 146.187   1
   6   0  -9 949.703 163.635   5
   6   0  -8 44.4953 47.9035   1
   6   0  -8 70.1436 86.6907   5
   6   0  -7 185.058 60.6118   1
   6   0  -7 232.029 75.2323   5
   6   0  -6 101.261 41.4036   1
   6   0  -6 48.1870 62.3172   5
   6   0  -5 1618.19 121.588   1
  -6   0   5 1496.11 160.320   4
   6   0  -5 1541.27 174.929   5
  -6   0   4 129.735 54.6859   4
   6   0  -4 316.597 52.8832   1
   6   0  -4 281.590 69.1969   5
  -6   0   3 3908.79 250.596   4
   6   0  -3 3751.75 156.377   1
   6   0  -3 4069.70 253.380   5
  -6   0   2 63.3350 59.9590   4
   6   0  -2-7.91511 22.9519   1
   6   0  -2 119.211 54.6918   5
  -6   0   1 7138.61 321.256   4
   6   0  -1 7441.33 318.966   2
   6   0  -1 7219.07 298.961   5
   6   0   0 3465.62 200.631   5
  -6   0   0 3746.88 234.939   4
   6   0   0 3457.70 229.319   2
  -6   0  -1 3467.46 226.004   4
   6   0   1 3619.76 235.639   2
   6   0   1 3468.65 195.108   5
  -6   0  -2 18637.4 503.701   4
   6   0   2 18730.9 534.656   2
   6   0   2 19653.0 440.345   5
  -6   0  -3 9548.72 365.434   4
   6   0   3 9663.49 405.091   2
   6   0   3 10299.7 318.037   5
  -6   0  -4 7213.10 321.622   4
   6   0   4 7249.57 372.701   2
   6   0   4 7891.42 275.933   5
   6   0   5 463.931 113.743   2
  -6   0  -5 547.186 94.9793   4
  -6   0  -6 7322.64 329.684   4
   6   0   6 7666.05 413.082   2
   6   0   7 49.5398 45.7585   2
  -6   0  -7 64.6912 48.2960   4
   6   0   8 2.16012 41.6657   2
   6   0   9 1262.36 197.566   2
   6   0  10-57.9445 48.9723   2
   6   0  11 146.274 73.7830   2
   6   0  12 312.612 128.582   2
   6  -1 -14 344.826 140.598   5
   6  -1 -13 133.900 67.9716   5
   6   1 -13-65.5022 52.2718   5
   6  -1 -12 192.277 86.3879   1
  -6  -1  12 144.927 71.1798   2
   6  -1 -12 248.102 108.208   5
   6   1 -12 170.967 94.8232   5
  -6  -1  11 1617.26 213.627   2
   6  -1 -11 2047.84 253.477   5
   6   1 -11 2168.76 253.877   5
   6  -1 -11 1950.93 224.898   1
   6  -1 -10 39.8819 52.1677   1
  -6  -1  10 53.4950 28.5017   6
   6   1 -10 242.996 100.787   5
   6   1  -9 2721.78 261.331   5
  -6  -1   9 2847.95 215.563   6
   6  -1  -9 2832.35 240.298   1
  -6  -1   8 75.1051 45.3485   6
   6  -1  -8 154.479 68.5343   1
   6   1  -8 60.6751 55.8917   5
   6  -1  -7 973.712 129.451   1
  -6  -1   7 1205.84 145.066   4
   6   1  -7 1121.76 162.640   5
   6  -1  -6 2960.42 204.852   1
  -6  -1   6 2891.16 216.709   4
   6   1  -6 3147.32 252.806   5
   6   1  -5 5345.35 308.483   5
   6  -1  -5 5527.20 259.065   1
  -6  -1   5 5404.76 287.021   4
  -6  -1   5 5112.18 168.830   1
   6  -1  -4 5394.80 244.383   1
  -6  -1   4 5452.36 287.319   4
   6  -1  -4 5213.25 288.100   5
   6   1  -4 5455.49 299.453   5
  -6  -1   3 10440.8 392.006   4
   6  -1  -3 11299.7 399.177   5
   6  -1  -3 11349.3 343.281   1
   6   1  -3 11015.9 416.083   5
  -6   1   2 5438.30 292.693   4
  -6  -1   2 4859.27 268.547   4
   6  -1  -2 4988.18 229.119   1
   6  -1  -2 5368.49 264.040   2
   6  -1  -2 5325.84 265.097   5
   6   1  -2 4741.31 268.647   5
  -6   1   1 1452.99 154.598   4
   6   1  -1 1510.90 150.616   5
   6  -1  -1 1440.74 143.973   2
   6  -1  -1 1400.57 136.412   5
   6   1  -1 1191.84 65.0882   1
   6  -1   0 9521.23 317.818   5
  -6   1   0 9504.28 371.734   4
   6  -1   0 9113.36 356.732   2
   6   1   0 9317.55 352.969   5
   6   1   0 8135.28 212.530   1
  -6   1  -1 1933.15 172.324   4
  -6  -1  -1 2266.73 191.425   3
   6   1   1 1773.26 157.247   5
   6   1   1 2078.48 184.762   2
   6  -1   1 1770.04 167.265   2
   6  -1   1 2072.92 141.374   5
  -6   1  -2 2990.59 210.633   4
  -6  -1  -2 3445.00 236.246   3
   6   1   2 3123.24 234.329   2
   6  -1   2 3312.76 240.836   2
   6  -1   2 3035.86 159.274   5
   6   1   2 3198.98 208.267   5
  -6   1  -3 1869.62 166.514   4
  -6  -1  -3 1826.49 179.002   3
   6   1   3 1724.72 178.403   2
   6  -1   3 1971.51 196.275   2
   6  -1   3 1661.07 112.893   5
   6   1   3 1950.55 167.266   5
  -6   1  -4 2385.55 185.317   4
  -6  -1  -4 2517.88 211.477   3
   6   1   4 2417.41 214.000   2
   6  -1   4 2236.28 219.373   2
   6  -1   4 2372.34 120.610   5
   6   1   4 2519.56 189.920   5
   6   1   5 416.473 96.6432   2
   6  -1   5 281.628 87.2384   2
  -6   1  -5 303.052 71.3105   4
  -6  -1  -5 339.445 87.1427   3
   6   1   6 515.502 116.825   2
   6  -1   6 621.696 131.401   2
  -6   1  -6 465.400 85.5029   4
  -6  -1  -6 469.769 105.925   3
   6   1   7 945.590 152.827   2
   6  -1   7 1123.10 178.222   2
  -6  -1  -7 1157.66 148.550   3
   6   1   8 148.723 80.1291   2
   6  -1   8 277.820 101.382   2
   6   1   9 559.746 127.933   2
   6  -1   9 552.964 139.371   2
   6   1  10 768.588 164.635   2
   6  -1  10 821.531 174.363   2
   6   1  10 972.176 191.272   6
   6   1  11 23.4401 76.3754   2
   6  -1  11-60.8303 77.9974   2
   6   1  11 51.9222 74.6893   6
   6  -2 -13 235.691 117.190   1
  -6  -2  13 160.296 83.4582   2
   6  -2 -12 10.5554 47.4786   1
  -6  -2  12 123.016 59.7877   2
   6   2 -11 249.744 92.8966   5
   6  -2 -11 275.222 101.755   1
  -6  -2  11 435.180 128.242   2
   6   2 -10 456.366 115.103   5
   6  -2 -10 400.961 119.628   1
   6   2  -9 89.3410 65.1511   5
   6  -2  -9 180.069 89.8676   1
   6  -2  -8 1139.62 163.832   1
  -6  -2   8 1132.82 139.399   4
   6   2  -8 1264.17 178.835   5
   6  -2  -7 393.213 93.0526   1
  -6  -2   7 220.818 58.6612   4
   6   2  -7 246.219 84.0916   5
   6  -2  -6 1754.79 179.639   1
  -6  -2   6 1761.86 173.170   4
  -6  -2   6 1826.12 106.239   6
   6   2  -6 1791.64 199.760   5
   6  -2  -5 2406.03 202.294   1
  -6  -2   5 2416.17 199.913   4
   6   2  -5 2336.07 214.640   5
   6   2  -4 406.817 95.8393   5
   6  -2  -4 494.110 87.4393   1
   6  -2  -3 7619.95 338.754   1
   6  -2  -3 7268.00 288.143   2
   6   2  -3 7297.96 355.905   5
  -6  -2   2 3162.18 238.609   3
   6  -2  -2 3366.18 226.556   1
   6  -2  -2 3058.32 197.514   2
   6   2  -2 3132.33 233.829   5
  -6  -2   1 4590.14 284.335   3
   6  -2  -1 4527.33 245.606   2
   6   2  -1 4721.36 281.698   5
   6   2   0 114.183 55.8468   5
   6  -2   0 183.813 54.1150   5
   6  -2   0 165.655 54.4533   2
  -6  -2   0 150.529 65.6327   3
   6   2   0 136.199 30.6847   1
  -6  -2  -1 1973.25 198.527   3
   6   2   1 1825.44 123.857   6
   6  -2   1 1947.72 139.349   5
   6  -2   1 1750.57 173.932   2
   6   2   1 1767.02 177.183   5
   6  -2   2 1117.61 149.498   2
  -6  -2  -2 1250.10 157.381   3
   6   2   2 989.630 107.531   6
   6  -2   2 1099.96 94.9388   5
   6   2   2 1120.38 146.933   5
  -6  -2  -3 1396.18 172.611   3
   6   2   3 1811.53 160.370   6
   6   2   3 1656.63 178.739   2
   6  -2   3 1460.99 175.093   2
   6  -2   3 1618.18 94.5475   5
   6   2   3 1684.58 175.491   5
  -6  -2  -4 6795.96 364.526   3
   6   2   4 6777.14 327.962   6
   6   2   4 6932.52 366.691   2
   6  -2   4 7043.86 390.602   2
   6   2   4 7307.75 359.981   5
  -6  -2  -5 3888.61 283.830   3
   6   2   5 3949.86 274.180   6
   6   2   5 3820.75 279.666   2
   6  -2   5 4183.34 318.063   2
  -6  -2  -6 1395.68 177.675   3
   6   2   6 1565.74 189.163   6
   6   2   6 1340.99 174.690   2
   6  -2   6 1598.00 210.192   2
   6   2   7 187.231 62.7132   2
   6  -2   7 405.521 113.266   2
  -6  -2  -7 238.246 75.9652   3
   6   2   7 460.696 115.844   6
   6   2   8 663.295 134.037   2
   6  -2   8 793.219 163.682   2
   6   2   8 657.522 145.931   6
  -6  -2  -8 932.822 150.089   3
   6   2   9 530.302 128.798   2
   6  -2   9 557.197 141.162   2
   6   2   9 810.596 168.616   6
   6  -2  10 1123.42 208.288   2
   6   2  10 468.030 147.444   6
   6   2  11 119.471 100.206   6
  -6  -3  13 417.779 147.216   2
  -6  -3  12 184.598 97.7444   2
   6  -3 -12 151.984 51.1124   1
   6   3 -11 825.789 159.176   5
  -6  -3  11 842.446 179.961   2
   6  -3 -11 548.898 139.459   1
   6   3 -10 835.103 159.429   5
   6  -3 -10 553.478 143.960   1
   6  -3  -9 2237.21 248.863   1
   6   3  -9 2533.25 257.461   5
   6   3  -8 328.386 108.125   5
   6  -3  -8 220.851 86.7430   1
  -6  -3   8 250.990 68.7487   4
   6   3  -7 1121.23 167.438   5
  -6  -3   7 1189.64 149.727   4
   6  -3  -7 1076.48 172.340   1
   6   3  -6 760.548 139.887   5
   6  -3  -6 737.338 136.799   1
   6   3  -5 1055.25 158.270   5
   6  -3  -5 1058.05 154.212   1
   6  -3  -4 5080.85 317.187   1
   6   3  -4 4674.21 315.553   5
  -6  -3   4 4455.75 289.541   3
  -6  -3   3 3965.37 277.582   3
   6  -3  -3 4342.44 290.488   1
   6  -3  -3 3819.90 210.003   2
   6   3  -3 4155.51 298.469   5
  -6  -3   2 1323.67 170.838   3
   6  -3  -2 1426.20 173.413   1
   6  -3  -2 1609.51 146.007   2
   6   3  -2 1654.75 190.665   5
   6   3  -1 681.371 122.825   5
   6  -3  -1 727.288 111.336   2
  -6  -3   1 652.534 124.836   3
   6   3   0 291.475 85.1274   5
   6  -3   0 381.572 82.5205   2
  -6  -3   0 253.681 78.4581   3
   6  -3   1 1135.62 150.661   2
  -6  -3  -1 1223.55 171.635   3
   6   3   1 1408.48 175.437   5
   6   3   2 737.240 130.705   5
   6  -3   2 801.876 133.594   2
  -6  -3  -2 889.571 152.817   3
   6  -3   2 679.418 81.2136   5
  -6  -3  -3 1530.96 193.664   3
   6   3   3 1483.30 156.557   6
   6  -3   3 1635.85 194.816   2
   6   3   3 1292.04 174.763   5
   6  -3   4 690.672 142.451   2
  -6  -3  -4 468.391 121.447   3
   6   3   4 616.778 107.599   6
   6  -3   5 25.8071 38.5785   2
  -6  -3  -5 114.401 86.4371   3
   6   3   5 233.305 74.4980   6
   6  -3   6 335.498 109.379   2
  -6  -3  -6 603.858 136.487   3
   6   3   6 596.530 123.523   6
   6  -3   7 138.692 76.3024   2
  -6  -3  -7 192.996 91.3047   3
   6   3   7 244.317 81.5325   2
   6   3   7 134.780 80.6208   6
   6  -3   8 474.496 133.328   2
  -6  -3  -8 326.872 100.965   3
   6   3   8 252.703 94.9285   6
   6  -3   9 154.412 91.3479   2
   6   3   9 155.941 75.3024   6
   6   3  10 535.605 154.526   6
  -6  -4  11 280.525 115.722   2
   6  -4 -11 271.622 126.813   1
   6   4 -10 233.082 87.3171   5
   6  -4 -10 196.187 101.096   1
   6   4  -9 153.957 74.4495   5
   6  -4  -9-1.91682 54.7838   1
   6   4  -8 204.412 81.7705   5
   6  -4  -8 191.581 103.690   1
   6   4  -7 83.0192 66.5070   5
   6  -4  -7 195.628 92.0989   1
   6   4  -6 170.110 87.9399   5
  -6  -4   6 204.346 84.5759   3
   6  -4  -6 175.313 75.3649   1
   6  -4  -5 1123.30 183.334   1
  -6  -4   5 1216.61 168.210   3
   6   4  -5 1361.07 193.349   5
   6  -4  -4 5014.05 355.092   1
  -6  -4   4 5006.33 332.746   3
   6   4  -4 4902.02 349.045   5
   6  -4  -3 1030.23 167.540   1
   6   4  -3 1131.59 178.596   5
  -6  -4   3 834.676 143.485   3
   6  -4  -3 1109.80 118.861   2
  -6  -4   2 2880.48 263.768   3
   6  -4  -2 2982.96 275.647   1
   6  -4  -2 3180.99 211.341   2
   6   4  -2 3169.22 283.229   5
  -6  -4   1 4966.13 348.309   3
   6  -4  -1 5199.81 356.035   1
   6  -4  -1 4683.29 273.813   2
   6   4  -1 5012.03 351.823   5
   6   4   0 858.813 155.490   5
   6  -4   0 652.328 115.903   2
  -6  -4   0 915.998 158.520   3
  -6  -4  -1 1489.64 210.282   3
   6  -4   1 1499.89 178.551   2
   6   4   1 1557.61 201.545   5
  -6  -4  -2 2411.20 258.047   3
   6  -4   2 1991.88 215.348   2
   6   4   2 2315.46 250.407   5
  -6  -4  -2 2085.93 173.938   1
   6  -4   3 261.356 107.972   2
  -6  -4  -3 200.608 94.2581   3
  -6  -4  -3 227.604 75.1496   1
  -6  -4  -4 2944.33 294.952   3
   6  -4   4 2749.24 275.948   2
  -6  -4  -4 2640.04 227.534   1
   6  -4   5 36.0544 48.4604   2
  -6  -4  -5 205.984 74.9565   1
  -6  -4  -5 205.692 110.902   3
   6  -4   6 452.537 130.441   2
  -6  -4  -6 388.985 124.572   3
   6  -4   7 232.980 103.672   2
  -6  -4  -7 229.057 101.809   3
   6  -4   8 46.0514 60.4297   2
  -6  -4  -8 148.185 95.6956   3
  -6  -4  -9 507.419 162.757   3
   6   5  -9 15.5150 54.3758   5
   6  -5  -9 127.005 89.3611   1
   6   5  -8 203.445 92.5504   5
   6  -5  -8 281.831 120.744   1
   6   5  -7 125.466 74.1762   5
   6  -5  -7 120.038 85.7554   1
   6   5  -6 169.526 70.6779   5
   6  -5  -6 82.0939 54.2233   1
  -6  -5   6 144.537 63.6734   3
   6   5  -5 204.369 96.0477   5
   6  -5  -5 169.252 97.1830   1
  -6  -5   5 249.935 107.669   3
   6   5  -4 1064.83 178.087   5
   6  -5  -4 1238.01 200.848   1
  -6  -5   4 892.433 155.151   3
   6   5  -3 940.464 174.364   5
  -6  -5   3 588.793 134.538   3
   6  -5  -3 912.155 173.811   1
   6   5  -2 180.357 90.4587   5
   6  -5  -2 319.247 125.262   1
  -6  -5   2 252.057 89.2080   3
   6   5  -1 279.323 112.439   5
   6  -5  -1 304.402 111.714   1
   6  -5  -1 229.918 71.4385   2
  -6  -5   1 197.627 82.5710   3
   6   5   0 149.790 84.8061   5
   6  -5   0 104.939 57.5300   2
  -6  -5   0 140.918 85.1746   3
   6  -5   0 163.145 88.4365   1
  -6  -5  -1 1648.13 235.058   3
   6  -5   1 1797.09 207.495   2
   6   5   1 1552.77 228.185   5
   6  -5   2 104.134 63.5595   2
  -6  -5  -2 251.561 115.224   3
   6  -5   3 678.288 151.396   2
  -6  -5  -3 503.659 139.889   3
   6  -5   4 357.673 121.667   2
  -6  -5  -4 578.350 151.069   3
   6  -5   5 1043.83 187.787   2
  -6  -5  -5 1082.73 201.344   3
   6  -5   6 259.504 116.781   2
  -6  -5  -6 63.5197 59.1495   3
   6  -5   7 336.552 142.435   2
  -6  -5  -7 132.411 52.7519   3
  -6  -5  -8 554.414 159.500   3
   6   6  -7 395.919 126.504   5
   6  -6  -7 375.243 134.028   1
   6   6  -6 256.702 108.048   5
   6  -6  -6-21.6915 67.9542   1
   6   6  -5 278.852 108.002   5
   6  -6  -5 159.796 75.1608   1
  -6  -6   5 218.536 100.330   3
   6   6  -4 146.356 82.3051   5
   6  -6  -4 61.8368 71.1797   1
  -6  -6   4-107.239 81.3803   3
   6   6  -3 927.368 185.672   5
  -6  -6   3 737.865 163.417   3
   6  -6  -3 1187.00 219.579   1
   6  -6  -2 98.9051 90.7601   1
   6   6  -2 37.5549 69.8958   5
  -6  -6   2 96.8847 81.3370   3
   6   6  -1 91.4631 81.4626   5
  -6  -6   1 4.21651 53.9836   3
   6  -6  -1 95.9821 77.1360   1
   6  -6   0 300.976 125.895   1
  -6  -6   0 269.929 121.323   3
   6  -6   1 46.0677 54.1226   1
  -6  -6  -1 67.4484 66.1396   3
   6  -6   2 139.068 76.3325   2
  -6  -6  -2 176.482 74.0253   3
   6  -6   3 134.708 78.9945   2
  -6  -6  -3 129.433 84.3515   3
   6  -6   4 43.4786 48.4123   2
  -6  -6  -4 60.6119 95.5637   3
   6  -6   5 86.6507 75.3735   2
   6   7  -6 176.197 113.518   5
   6   7  -5 178.497 95.2237   5
   6   7  -4 3.49798 61.1004   5
  -6  -7   4-92.5282 78.0831   3
   6   7  -3 473.994 146.862   5
  -6  -7   3 140.437 88.8386   3
  -6  -7   2 566.224 158.926   3
  -6  -7   1 105.811 83.5989   3
  -6  -7   0 104.373 92.7404   3
   7   0 -14 250.330 122.746   5
   7   0 -13 93.6267 88.7445   5
   7   0 -12 1248.76 216.934   5
   7   0 -11 718.562 162.301   5
   7   0 -10 449.793 138.303   5
   7   0  -9 316.538 81.9691   1
   7   0  -9 191.608 84.2413   5
   7   0  -8 1270.71 137.621   1
   7   0  -8 1023.15 173.184   5
   7   0  -7 84.0319 44.7280   1
   7   0  -7 65.3468 70.9378   5
   7   0  -6 14630.8 382.250   1
  -7   0   6 13631.7 501.790   4
   7   0  -6 15224.8 564.118   5
   7   0  -5 216.520 57.1374   1
  -7   0   5 236.363 98.3598   4
   7   0  -5 315.530 107.348   5
   7   0  -4 15083.7 328.192   1
  -7   0   4 14707.3 507.647   4
   7   0  -4 15092.1 520.811   5
  -7   0   3 1833.07 188.454   4
   7   0  -3 1978.17 121.559   1
   7   0  -3 2225.32 197.523   5
  -7   0   2 4707.21 289.998   4
   7   0  -2 4960.03 195.429   1
   7   0  -2 4555.60 268.487   5
  -7   0   1 3848.59 267.457   4
   7   0  -1 4150.04 265.596   2
   7   0  -1 4114.41 245.482   5
   7   0   0 325.291 71.8332   5
   7   0   0 319.389 86.5713   2
  -7   0   0 344.559 88.4981   4
  -7   0  -1 3145.04 235.397   4
   7   0   1 3061.40 237.738   2
   7   0   1 3111.53 202.107   5
   7   0   2 486.821 81.2280   5
   7   0   2 488.545 106.006   2
  -7   0  -2 516.251 106.283   4
   7   0   3 128.666 47.7774   5
   7   0   3 148.339 59.4881   2
  -7   0  -3 64.9061 43.3036   4
   7   0   4 441.321 79.3821   5
   7   0   4 465.448 112.178   2
  -7   0  -4 535.232 110.798   4
  -7   0  -5 1069.46 143.645   4
   7   0   5 1079.34 170.640   2
   7   0   6 791.616 155.672   2
  -7   0  -6 844.719 129.071   4
   7   0   7 112.226 64.9432   2
   7   0   8 446.699 128.314   2
   7   0   9 461.410 124.646   2
   7   0  10-6.25576 50.8739   2
   7   0  11 673.130 166.459   2
   7  -1 -13 135.755 90.9942   5
   7   1 -13 183.719 95.9642   5
   7  -1 -12 49.4488 58.6110   1
  -7  -1  12 236.517 100.057   2
   7  -1 -12 179.364 104.511   5
   7   1 -12 303.535 108.805   5
   7  -1 -11 407.126 105.406   1
   7  -1 -11 279.647 112.927   5
   7   1 -11 201.870 102.635   5
   7  -1 -10 225.940 79.3744   1
   7  -1 -10 382.430 138.940   5
   7   1 -10 445.348 125.971   5
   7  -1  -9 524.148 111.358   1
   7  -1  -9 819.773 164.001   5
   7   1  -9 468.193 120.318   5
  -7  -1   8 69.8587 33.8001   4
   7  -1  -8 116.612 71.0270   5
   7  -1  -8 146.047 59.1442   1
   7   1  -8 222.426 89.8447   5
   7  -1  -7 872.716 123.343   1
  -7  -1   7 904.626 136.724   4
   7  -1  -7 917.790 157.481   5
   7   1  -7 907.456 153.984   5
   7  -1  -6 2917.84 204.480   1
  -7  -1   6 2818.25 231.355   4
   7   1  -6 2752.08 245.418   5
   7  -1  -6 3248.50 269.361   5
  -7  -1   5 207.241 66.3394   4
   7  -1  -5 250.253 60.8913   1
   7  -1  -5 222.335 88.5542   5
   7   1  -5 201.554 82.5302   5
  -7  -1   4 4674.48 290.626   4
   7  -1  -4 4867.56 241.070   1
   7   1  -4 4889.49 310.775   5
   7  -1  -4 4938.38 302.235   5
  -7   1   3 1439.80 166.352   4
  -7  -1   3 1529.43 174.690   4
   7  -1  -3 1481.39 139.355   1
   7  -1  -3 1506.53 165.836   5
   7   1  -3 1382.20 163.329   5
  -7   1   2 5791.68 325.629   4
  -7  -1   2 5734.86 316.785   4
   7  -1  -2 5831.20 262.458   1
   7  -1  -2 5774.76 298.486   2
   7  -1  -2 5781.84 301.570   5
   7   1  -2 5375.88 298.630   5
   7   1  -1 576.979 105.126   5
   7  -1  -1 583.542 105.006   2
  -7   1   1 737.874 124.688   4
  -7  -1   1 579.306 108.456   4
   7   1  -1 424.254 44.9782   1
   7  -1  -1 729.915 114.987   5
  -7   1   0 2081.72 198.149   4
   7  -1   0 1832.06 180.980   2
   7   1   0 2033.87 183.981   5
   7  -1   0 2207.73 167.687   5
  -7   1  -1 3308.98 248.265   4
   7   1   1 3606.79 263.168   2
   7  -1   1 3423.18 249.881   2
   7  -1   1 3499.52 200.081   5
   7   1   1 3633.95 241.516   5
  -7   1  -2 7766.42 371.230   4
   7   1   2 8374.95 404.252   2
   7  -1   2 7396.32 374.585   2
   7  -1   2 7580.37 276.093   5
   7   1   2 8313.06 352.500   5
  -7   1  -3 4419.13 279.314   4
   7   1   3 4648.81 313.134   2
   7  -1   3 5065.60 327.772   2
   7  -1   3 4791.76 210.710   5
   7   1   3 4977.45 275.093   5
  -7   1  -4 6880.43 340.167   4
   7   1   4 6845.37 379.890   2
   7  -1   4 6922.28 397.024   2
   7   1   4 7031.82 326.931   5
  -7   1  -5 3399.92 241.798   4
   7   1   5 3395.35 281.104   2
   7  -1   5 3665.91 305.277   2
   7   1   6 283.549 97.9550   2
   7  -1   6 437.927 121.233   2
  -7   1  -6 356.625 85.7660   4
   7   1   7 1074.48 174.312   2
   7  -1   7 970.145 181.560   2
   7   1   8 361.233 108.682   2
   7  -1   8 752.451 164.839   2
   7   1   9 367.060 124.265   2
   7  -1   9 379.191 124.641   2
   7   1  10 71.6327 53.3846   2
   7  -1  10 99.5994 78.3315   2
   7   1  10 193.556 100.025   6
   7  -2 -13 101.948 117.445   5
   7  -2 -13 153.658 96.7299   1
  -7  -2  13-20.2633 51.9015   2
   7   2 -12 466.444 140.807   5
   7  -2 -12 374.901 120.220   1
  -7  -2  12 517.442 144.195   2
   7   2 -11 145.681 73.7415   5
   7  -2 -11 137.438 74.6949   1
   7  -2 -10 1621.72 212.611   1
   7   2 -10 1861.32 237.724   5
   7   2  -9 445.914 116.934   5
   7  -2  -9 579.601 123.999   1
  -7  -2   9 468.627 119.002   4
   7   2  -8 828.033 155.373   5
   7  -2  -8 503.422 109.305   1
  -7  -2   8 990.072 145.716   4
   7   2  -7 290.770 97.1223   5
  -7  -2   7 287.922 78.5483   4
   7  -2  -7 313.850 92.8112   1
   7  -2  -6 2400.90 213.494   1
  -7  -2   6 2110.86 203.783   4
   7   2  -6 2396.12 237.821   5
   7  -2  -5 1947.25 190.029   1
  -7  -2   5 2183.81 207.980   4
   7   2  -5 1968.45 216.333   5
  -7  -2   4 3231.64 251.450   4
   7  -2  -4 3372.86 237.339   1
   7   2  -4 3696.96 278.940   5
   7  -2  -3 6448.62 323.521   1
   7  -2  -3 6058.10 292.339   2
   7   2  -3 6503.43 356.776   5
   7  -2  -2 1263.04 147.207   1
   7  -2  -2 1380.67 153.056   2
   7  -2  -2 1290.98 149.797   5
   7   2  -2 1317.57 165.947   5
  -7  -2   1 2776.09 240.485   3
   7  -2  -1 2803.96 214.414   2
   7  -2  -1 2318.77 188.840   5
   7   2  -1 2872.79 234.277   5
  -7  -2   0 1886.22 202.806   3
   7   2   0 1667.02 98.5076   6
   7  -2   0 1703.48 175.839   2
   7  -2   0 1563.20 147.717   5
   7   2   0 1889.53 195.280   5
  -7  -2  -1 2372.33 225.998   3
   7   2   1 1936.40 131.327   6
   7  -2   1 1931.86 198.545   2
   7  -2   1 1996.24 153.037   5
   7   2   1 2130.62 205.708   5
   7  -2   2 3350.93 177.444   5
  -7  -2  -2 3562.72 276.806   3
   7   2   2 3252.73 193.571   6
   7  -2   2 3393.91 267.715   2
   7   2   2 3671.74 266.501   5
  -7  -2  -3 2753.30 247.501   3
   7   2   3 2434.33 188.508   6
   7   2   3 2524.95 232.057   2
   7  -2   3 2453.50 239.329   2
   7   2   3 2822.39 236.663   5
  -7  -2  -4 1710.30 205.725   3
   7   2   4 1329.37 154.759   6
   7   2   4 1603.60 194.198   2
   7  -2   4 1558.11 198.678   2
   7   2   4 1760.64 191.533   5
   7   2   5 32.5617 54.4218   2
   7  -2   5 11.9553 48.6685   2
  -7  -2  -5 166.973 81.6313   3
   7   2   5 0.94331 30.3279   6
   7   2   6 748.413 143.046   2
   7  -2   6 762.072 159.157   2
  -7  -2  -6 753.915 141.825   3
   7   2   6 834.404 149.549   6
   7   2   7 219.589 91.8391   2
   7  -2   7 250.909 91.8917   2
  -7  -2  -7 373.007 109.290   3
   7   2   7 210.897 80.8158   6
   7   2   8 651.397 143.475   2
   7  -2   8 583.804 148.576   2
  -7  -2  -8 698.225 140.159   3
   7   2   8 737.173 155.762   6
   7   2   9 645.246 151.589   2
   7  -2   9 701.967 167.992   2
   7   2   9 930.248 183.030   6
   7   2  10 476.819 153.514   6
   7   3 -12 241.216 97.4939   5
   7  -3 -12 213.157 104.876   1
  -7  -3  12 163.900 85.9684   2
   7   3 -11 97.2625 55.4880   5
   7  -3 -11-10.3155 62.3964   1
   7   3 -10 402.361 129.514   5
   7  -3 -10 191.484 88.1778   1
   7   3  -9 486.546 127.249   5
   7  -3  -9 405.388 107.474   1
   7   3  -8 479.424 115.087   5
  -7  -3   8 553.177 116.522   4
   7  -3  -8 389.420 108.846   1
   7   3  -7 399.750 111.712   5
  -7  -3   7 433.889 105.690   4
   7  -3  -7 253.210 92.8994   1
   7   3  -6 1044.53 172.682   5
  -7  -3   6 1098.68 155.154   4
   7  -3  -6 976.434 154.363   1
   7  -3  -5 1468.41 184.362   1
   7   3  -5 1685.41 203.428   5
   7  -3  -4 4571.83 311.691   1
   7   3  -4 4586.41 329.545   5
   7   3  -3 468.317 111.034   5
   7  -3  -3 451.183 87.6098   2
   7  -3  -3 410.155 98.5133   1
  -7  -3   3 455.263 119.205   3
  -7  -3   2 2902.37 258.068   3
   7  -3  -2 2988.55 249.302   1
   7  -3  -2 2828.29 210.295   2
   7   3  -2 3050.35 271.488   5
   7   3  -1 256.632 84.6949   5
   7  -3  -1 259.521 79.6956   2
  -7  -3   1 148.963 82.4291   3
  -7  -3   0 2321.33 239.959   3
   7  -3   0 2471.89 219.602   2
   7   3   0 2787.52 253.445   5
  -7  -3  -1 1451.96 194.793   3
   7  -3   1 1239.00 125.367   5
   7  -3   1 1364.87 171.459   2
   7   3   1 1206.72 171.009   5
  -7  -3  -2 1730.24 212.902   3
   7  -3   2 1768.60 202.799   2
   7   3   2 1960.51 221.371   5
  -7  -3  -3 3699.98 309.870   3
   7   3   3 3458.71 235.109   6
   7  -3   3 3402.83 292.159   2
   7   3   3 3280.44 282.371   5
  -7  -3  -4 3372.11 303.205   3
   7   3   4 3217.62 244.472   6
   7  -3   4 3069.08 288.080   2
   7  -3   5 1320.24 203.443   2
  -7  -3  -5 1105.20 187.158   3
   7   3   5 1297.81 173.791   6
   7  -3   6 50.0205 64.2928   2
  -7  -3  -6 56.4575 49.8608   3
   7   3   6 185.851 70.3752   6
   7  -3   7 1466.82 227.740   2
  -7  -3  -7 811.901 162.180   3
   7   3   7 1042.16 174.138   6
   7  -3   8 259.221 108.494   2
  -7  -3  -8 137.629 82.1482   3
   7   3   8 119.970 91.1758   6
   7   3   9 604.099 154.968   6
   7   3  10 23.7141 49.6809   6
   7  -4 -11 223.380 161.248   1
   7   4 -10 424.210 122.852   5
   7  -4 -10 263.156 111.390   1
   7   4  -9 70.3922 68.7152   5
   7  -4  -9 111.398 75.6923   1
   7   4  -8 156.822 95.2255   5
   7  -4  -8 172.672 87.9635   1
   7   4  -7 41.7495 61.0300   5
  -7  -4   7 139.067 61.9829   4
   7  -4  -7 42.8620 46.2366   1
   7   4  -6 186.543 83.8002   5
   7  -4  -6 263.171 104.666   1
   7  -4  -5 1953.01 232.730   1
  -7  -4   5 2054.05 229.704   3
   7   4  -5 1748.46 231.660   5
   7  -4  -4 3372.80 300.209   1
  -7  -4   4 3269.91 289.452   3
   7   4  -4 3792.10 328.703   5
   7   4  -3 6.81799 56.1411   5
   7  -4  -3-24.5463 48.8787   1
  -7  -4   3 143.436 70.6604   3
   7   4  -2 979.042 169.198   5
   7  -4  -2 1407.29 200.445   1
  -7  -4   2 1102.38 174.620   3
   7  -4  -2 1159.83 142.789   2
   7   4  -1 1283.80 192.654   5
  -7  -4   1 1167.30 184.154   3
   7  -4  -1 1085.37 145.476   2
   7  -4  -1 1216.64 183.207   1
   7   4   0 100.774 64.3307   5
   7  -4   0 27.6219 37.2210   2
  -7  -4   0 153.886 75.3588   3
   7   4   1 986.460 172.574   5
   7  -4   1 925.586 147.874   2
  -7  -4  -1 839.343 165.355   3
   7   4   2 457.034 125.852   5
   7  -4   2 336.707 104.087   2
  -7  -4  -2 382.335 118.234   3
   7   4   3 87.9805 53.7214   5
   7  -4   3 61.7096 66.1110   2
  -7  -4  -3 137.326 67.5809   3
  -7  -4  -4 1806.11 242.310   3
   7  -4   4 1610.25 224.509   2
   7  -4   5 166.351 83.4576   2
  -7  -4  -5 105.127 63.0213   3
   7  -4   6 40.0692 73.1003   2
  -7  -4  -6-3.27815 59.0343   3
   7  -4   7 308.121 114.173   2
  -7  -4  -7 172.810 101.321   3
  -7  -4  -8-10.3382 85.2458   3
   7   5  -9-130.788 77.5745   5
   7  -5  -9 170.715 106.263   1
   7   5  -8-6.11649 50.1637   5
   7  -5  -8 38.1904 71.5464   1
   7   5  -7 243.397 108.471   5
   7  -5  -7 194.549 99.5332   1
   7   5  -6 22.0005 74.1564   5
   7  -5  -6-34.0760 61.9889   1
   7   5  -5 547.139 138.336   5
   7  -5  -5 291.713 107.357   1
  -7  -5   5 353.399 107.426   3
   7   5  -4 408.581 118.151   5
  -7  -5   4 468.424 128.182   3
   7  -5  -4 369.391 115.893   1
   7   5  -3 5.28523 44.7834   5
  -7  -5   3 38.0981 41.4787   3
   7  -5  -3 34.4120 58.0172   1
   7   5  -2 369.710 108.240   5
  -7  -5   2 581.960 135.511   3
   7  -5  -2 759.631 170.649   1
   7   5  -1 151.010 81.3649   5
   7  -5  -1-4.47174 58.4636   1
  -7  -5   1 14.5109 55.6703   3
   7   5   0 427.305 130.643   5
   7  -5   0 104.173 87.6601   1
   7  -5   0 208.333 74.3572   2
  -7  -5   0 267.117 104.564   3
   7   5   1 469.325 139.569   5
   7  -5   1 381.272 107.506   2
  -7  -5  -1 564.235 145.081   3
   7  -5   2 259.188 93.2722   2
  -7  -5  -2 446.717 143.283   3
   7  -5   3 143.470 62.1205   2
  -7  -5  -3 148.921 97.6571   3
   7  -5   4-41.2867 49.7898   2
  -7  -5  -4 225.514 107.478   3
   7  -5   5 361.856 116.133   2
  -7  -5  -5 500.952 162.146   3
   7  -5   6-94.7832 82.2749   2
  -7  -5  -6 131.881 94.3369   3
  -7  -5  -7 136.821 105.634   3
   7   6  -8 382.828 149.942   5
   7   6  -7 188.378 95.7428   5
   7   6  -6 6.62191 58.6598   5
   7  -6  -6 129.696 69.4627   1
   7   6  -5 155.453 99.8012   5
   7  -6  -5 9.39001 78.5640   1
  -7  -6   5 44.1517 60.7001   3
   7   6  -4 80.7895 70.5367   5
   7  -6  -4 214.743 109.564   1
  -7  -6   4 132.955 80.8096   3
   7   6  -3 238.203 98.9261   5
  -7  -6   3 83.6362 66.1328   3
   7  -6  -3 147.361 75.8438   1
   7  -6  -2 139.998 87.5446   1
   7   6  -2 34.5315 58.7372   5
  -7  -6   2 198.501 96.0645   3
   7   6  -1 74.5381 86.4200   5
  -7  -6   1 48.8276 57.8615   3
   7  -6  -1 95.0102 70.0323   1
   7   6   0 224.552 104.920   5
   7  -6   0 298.040 123.291   1
  -7  -6   0 120.064 104.975   3
   7  -6   1 142.180 68.7297   1
  -7  -6  -1 142.922 103.882   3
   7  -6   2 256.714 110.958   2
  -7  -6  -2 386.450 146.863   3
   7  -6   3 268.587 107.367   2
  -7  -6  -3 144.883 109.673   3
   7  -6   4 152.991 85.3906   2
  -7  -7   4 420.212 145.821   3
   8   0 -13 122.610 64.6541   5
   8   0 -12 354.604 136.229   5
   8   0 -11 535.052 149.690   5
   8   0 -10 914.287 180.267   5
   8   0  -9 374.680 112.884   5
   8   0  -8 309.422 116.066   5
   8   0  -7 2035.84 235.947   5
  -8   0   6 1078.18 168.970   4
   8   0  -6 1265.76 186.229   5
   8   0  -5 3722.12 180.375   1
  -8   0   5 3599.73 281.406   4
   8   0  -5 4153.98 303.968   5
  -8   0   4 566.611 124.730   4
   8   0  -4 519.807 71.2719   1
   8   0  -4 586.542 130.379   5
  -8   0   3 10760.0 472.879   4
   8   0  -3 11269.3 296.182   1
   8   0  -3 11221.0 458.304   5
  -8   0   2 1230.97 168.308   4
   8   0  -2 1593.23 122.205   1
   8   0  -2 1686.08 179.230   5
  -8   0   1 4544.37 306.095   4
   8   0  -1 4582.00 306.724   2
   8   0  -1 4554.81 280.191   5
   8   0   0 854.800 121.956   5
   8   0   0 1004.00 145.363   2
  -8   0   0 854.559 140.925   4
  -8   0  -1 10204.7 447.841   4
   8   0   1 9499.57 450.485   2
   8   0   1 10181.2 384.555   5
  -8   0  -2 1772.81 195.748   4
   8   0   2 1587.27 199.052   2
   8   0   2 1609.31 155.106   5
  -8   0  -3 8819.44 419.482   4
   8   0   3 8869.36 447.447   2
   8   0   3 8842.66 346.327   5
  -8   0  -4 2884.31 248.302   4
   8   0   4 2752.55 264.209   2
  -8   0  -5 2424.07 230.187   4
   8   0   5 2252.67 246.602   2
   8   0   6 1301.91 195.007   2
  -8   0  -6 982.309 151.006   4
   8   0   7 12.4887 70.0079   2
   8   0   8 626.278 159.066   2
   8   0   9 63.0726 56.9721   2
   8   0  10 154.076 101.478   2
   8  -1 -13 755.969 186.779   5
   8   1 -13 707.111 169.788   5
   8  -1 -12 433.332 145.381   5
   8   1 -12 455.515 141.259   5
   8  -1 -11 222.482 113.548   5
   8   1 -11 236.065 104.439   5
   8  -1 -10 119.317 92.0721   5
   8   1 -10 310.501 116.671   5
   8  -1  -9 150.060 61.4811   1
   8  -1  -9 313.278 121.028   5
   8   1  -9 224.791 86.7755   5
  -8  -1   8 46.8448 53.8261   4
   8  -1  -8 62.3296 68.2128   5
   8  -1  -8 221.640 72.8309   1
   8   1  -8 127.700 80.7232   5
   8  -1  -7 3477.65 237.829   1
  -8  -1   7 3261.88 269.285   4
   8  -1  -7 3106.32 293.579   5
   8   1  -7 4193.59 328.233   5
  -8  -1   6 487.456 108.566   4
   8  -1  -6 572.201 102.106   1
   8  -1  -6 562.506 138.717   5
   8   1  -6 514.149 120.610   5
   8  -1  -5 5545.19 275.831   1
  -8  -1   5 5472.94 341.010   4
   8  -1  -5 5394.93 348.060   5
   8   1  -5 5923.17 368.402   5
  -8  -1   4 5395.21 339.418   4
   8  -1  -4 5668.48 271.305   1
   8  -1  -4 5643.94 340.049   5
   8   1  -4 5631.17 347.945   5
  -8   1   3 5434.43 343.003   4
  -8  -1   3 5629.48 344.757   4
   8  -1  -3 5520.51 267.924   1
   8  -1  -3 5770.58 334.047   5
   8   1  -3 5537.46 336.685   5
  -8   1   2 2867.03 251.850   4
  -8  -1   2 2908.90 248.531   4
   8  -1  -2 3165.59 205.200   1
   8  -1  -2 3044.71 241.916   2
   8  -1  -2 3449.80 254.140   5
   8   1  -2 2853.14 239.374   5
   8   1  -1 259.852 85.0284   5
   8  -1  -1 145.995 69.5705   2
  -8   1   1 155.682 66.7735   4
  -8  -1   1 247.906 88.5092   4
   8  -1  -1 266.438 84.3124   5
  -8   1   0 4789.35 318.015   4
  -8  -1   0 4634.05 310.762   4
   8  -1   0 4595.44 303.743   2
   8  -1   0 4367.34 255.658   5
   8   1   0 4784.45 291.663   5
  -8   1  -1 1705.37 193.640   4
   8   1   1 1604.01 196.696   2
   8  -1   1 1671.24 192.156   2
   8  -1   1 1633.58 152.827   5
   8   1   1 1801.13 184.988   5
  -8   1  -2 2763.88 240.161   4
   8  -1   2 2540.84 241.420   2
   8   1   2 3038.72 270.852   2
   8  -1   2 2677.76 184.011   5
   8   1   2 2917.19 230.049   5
  -8   1  -3 2422.00 225.955   4
   8   1   3 2541.58 254.952   2
   8  -1   3 2626.54 254.254   2
   8   1   3 2414.15 207.453   5
   8   1   4 42.6623 38.7639   2
   8   1   4 96.9874 54.6936   5
   8  -1   4 109.514 72.2732   2
  -8   1  -4-51.6069 50.8110   4
  -8   1  -5 1527.54 183.534   4
   8   1   5 1742.87 222.967   2
   8  -1   5 1511.30 215.232   2
   8   1   6 398.008 105.781   2
   8  -1   6 660.948 147.645   2
   8   1   7 1189.24 191.067   2
   8  -1   7 1623.78 233.028   2
   8   1   8 292.731 111.004   2
   8  -1   8 686.919 162.821   2
   8   1   9 768.521 167.238   2
   8  -1   9 1068.51 212.774   2
   8   1  10 301.260 95.7939   2
   8   1  10 476.752 155.404   6
   8   2 -13 110.525 87.0030   5
  -8  -2  13 146.609 91.0917   2
   8   2 -12 69.7878 65.7403   5
   8  -2 -12 126.632 92.8620   5
   8   2 -11 282.998 112.535   5
   8  -2 -11 166.083 83.3112   1
   8  -2 -11 189.779 114.557   5
   8   2 -10 256.853 105.631   5
   8  -2 -10 272.356 122.814   5
   8  -2 -10 439.207 115.379   1
   8   2  -9 47.9357 43.7355   5
   8  -2  -9 135.769 78.0778   1
  -8  -2   9 127.478 56.0416   4
   8   2  -8 399.418 109.021   5
   8  -2  -8 469.184 110.085   1
  -8  -2   8 360.008 104.161   4
   8   2  -7 568.139 131.828   5
  -8  -2   7 491.463 114.569   4
   8  -2  -7 379.396 95.9200   1
   8   2  -6 642.651 139.074   5
  -8  -2   6 354.238 101.305   4
   8  -2  -6 394.581 99.9862   1
   8  -2  -5 4850.59 294.649   1
  -8  -2   5 4820.02 323.329   4
   8  -2  -5 4743.54 328.124   5
   8   2  -5 4377.39 328.776   5
   8  -2  -4 1259.39 156.572   1
  -8  -2   4 992.504 155.273   4
   8   2  -4 1363.93 189.113   5
   8  -2  -4 1178.23 165.751   5
   8   2  -3 655.952 135.571   5
   8  -2  -3 631.029 117.148   2
   8  -2  -3 720.710 122.453   1
  -8  -2   3 657.854 134.055   4
   8  -2  -3 708.202 127.178   5
   8   2  -2 542.981 114.615   5
   8  -2  -2 495.777 106.282   2
   8  -2  -2 515.296 107.387   5
   8  -2  -2 416.659 91.6879   1
   8   2  -1 604.540 119.634   5
   8  -2  -1 602.349 110.603   2
   8  -2  -1 500.249 97.2732   5
   8   2   0 553.634 117.402   5
   8  -2   0 497.236 101.592   2
  -8  -2   0 495.777 117.564   3
   8  -2   0 442.330 89.5606   5
  -8  -2  -1 2104.04 231.572   3
   8  -2   1 1783.57 200.232   2
   8  -2   1 1888.92 156.748   5
   8   2   1 1582.25 185.950   5
   8   2   2 728.265 131.000   5
   8  -2   2 656.018 139.298   2
  -8  -2  -2 777.797 148.808   3
  -8  -2  -3 4051.68 316.002   3
   8   2   3 3622.70 234.323   6
   8  -2   3 3828.51 313.940   2
   8   2   3 3756.92 288.907   5
   8   2   4 167.268 80.2000   2
   8   2   4 206.383 72.9959   5
   8  -2   4 101.175 70.0028   2
  -8  -2  -4 157.664 96.5945   3
   8   2   4 120.511 59.6181   6
   8   2   5 25.1451 50.1424   2
   8  -2   5-2.28264 46.7925   2
  -8  -2  -5 33.6606 56.1482   3
   8   2   5 26.2868 33.8020   6
   8   2   6 969.773 173.186   2
   8  -2   6 1233.28 206.548   2
  -8  -2  -6 1160.05 186.292   3
   8   2   6 1280.45 183.080   6
   8   2   7 97.4955 64.4813   2
   8  -2   7 54.3442 70.9254   2
  -8  -2  -7-1.40121 56.1692   3
   8   2   7 88.1925 41.5028   6
   8   2   8 828.081 172.080   2
   8  -2   8 950.739 202.193   2
   8   2   8 616.688 150.393   6
   8   2   9 91.3466 79.1148   2
   8   2   9 10.0394 60.3966   6
   8   2  10 210.528 100.501   6
   8   3 -12 68.9246 69.1916   5
   8  -3 -12-16.0067 59.6576   1
   8   3 -11 543.054 156.713   5
   8  -3 -11 781.741 180.969   1
   8   3 -10 573.110 147.101   5
   8  -3 -10 293.604 104.603   1
   8   3  -9-24.3591 60.8437   5
   8  -3  -9 113.664 65.3004   1
   8   3  -8 460.157 130.191   5
  -8  -3   8 383.275 111.499   4
   8  -3  -8 380.098 117.292   1
   8   3  -7 494.926 140.100   5
  -8  -3   7 381.858 110.452   4
   8  -3  -7 331.931 94.0595   1
   8   3  -6 233.007 89.2874   5
  -8  -3   6 239.501 89.6990   4
   8  -3  -6 210.594 76.0728   1
   8  -3  -5 1787.76 206.336   1
   8   3  -5 1659.11 224.321   5
   8   3  -4-18.6717 44.7748   5
   8  -3  -4 115.255 65.5123   1
   8   3  -3 591.043 137.540   5
   8  -3  -3 490.841 99.7150   2
   8  -3  -3 549.982 117.445   1
   8   3  -2 405.788 114.681   5
   8  -3  -2 156.979 58.5725   2
  -8  -3   2 140.470 62.5014   3
   8  -3  -2 224.056 78.6303   1
   8   3  -1 303.040 103.994   5
   8  -3  -1 146.623 64.0768   2
  -8  -3   1 359.276 118.202   3
   8  -3  -1 215.923 77.8652   5
   8   3   0 593.989 127.923   5
   8  -3   0 460.869 109.645   2
  -8  -3   0 690.488 150.012   3
   8  -3   0 673.698 108.459   5
   8   3   1 270.658 90.5906   5
   8  -3   1 256.134 87.0502   2
  -8  -3  -1 458.785 126.205   3
   8   3   2 395.381 113.058   5
   8  -3   2 272.668 92.4533   2
  -8  -3  -2 524.230 128.460   3
   8   3   3 1214.27 182.516   5
  -8  -3  -3 1278.24 198.165   3
   8  -3   3 1389.23 206.457   2
   8   3   4 231.159 85.6785   5
   8  -3   4 76.0687 67.7011   2
  -8  -3  -4 125.490 81.8036   3
   8  -3   5 248.995 116.543   2
  -8  -3  -5 371.914 115.991   3
   8  -3   6 163.300 91.5921   2
  -8  -3  -6 204.538 98.9350   3
   8  -3   7 313.702 128.332   2
  -8  -3  -7 344.790 116.039   3
  -8  -3  -8 467.463 130.622   3
   8  -4 -11 303.341 134.984   1
   8   4 -11 331.156 123.012   5
   8   4 -10-16.2489 53.9201   5
   8  -4 -10-13.6289 54.3972   1
   8   4  -9 23.5365 41.9171   5
   8  -4  -9 131.857 92.8772   1
   8   4  -8 101.445 64.9588   5
   8  -4  -8 132.045 70.2066   1
   8   4  -7 22.2460 65.8246   5
  -8  -4   7 116.701 75.4288   4
   8  -4  -7 199.957 97.6386   1
   8  -4  -6 137.945 78.4938   1
   8   4  -6 224.275 97.1121   5
   8   4  -5 1353.85 214.616   5
   8  -4  -5 1462.95 213.326   1
   8   4  -4 440.286 128.587   5
  -8  -4   4 318.713 111.463   3
   8  -4  -4 465.322 125.732   1
   8   4  -3 357.874 116.613   5
   8  -4  -3 292.945 106.832   1
  -8  -4   3 522.909 137.486   3
   8   4  -2 232.050 85.0315   5
   8  -4  -2 64.0782 53.4391   2
  -8  -4   2 43.6241 69.0185   3
   8  -4  -2 38.6533 53.1281   1
   8   4  -1 792.740 158.057   5
   8  -4  -1 799.817 133.912   2
  -8  -4   1 585.715 141.095   3
   8  -4  -1 752.756 154.324   1
   8   4   0 830.113 167.761   5
   8  -4   0 1004.27 161.080   2
  -8  -4   0 787.800 162.225   3
  -8  -4  -1 2940.80 304.793   3
   8  -4   1 3142.72 282.238   2
   8   4   1 3340.69 318.308   5
   8   4   2 338.033 115.049   5
   8  -4   2 281.683 102.210   2
  -8  -4  -2 149.948 92.0545   3
   8   4   3 1332.95 212.252   5
   8  -4   3 1203.94 193.139   2
  -8  -4  -3 1396.01 226.785   3
   8  -4   4 892.161 176.184   2
  -8  -4  -4 548.042 151.738   3
   8  -4   5 172.410 81.6070   2
  -8  -4  -5 131.781 80.3422   3
   8  -4   6 320.696 107.466   2
  -8  -4  -6 69.4097 85.4210   3
  -8  -4  -7 68.4441 68.1994   3
  -8  -4  -8 202.020 88.6928   3
   8   5 -10-5.56316 72.9442   5
   8   5  -9 5.90873 64.8558   5
   8  -5  -9 31.9356 62.3020   1
   8   5  -8 48.1660 72.0424   5
   8  -5  -8 93.8039 68.1068   1
   8   5  -7 278.004 103.847   5
   8  -5  -7 291.428 131.974   1
   8  -5  -6 512.894 159.005   1
   8   5  -6 387.895 128.321   5
   8   5  -5 494.405 134.838   5
   8  -5  -5 336.417 110.589   1
  -8  -5   5 432.740 139.115   3
   8   5  -4 487.075 144.256   5
  -8  -5   4 135.781 78.3167   3
   8  -5  -4 335.994 114.146   1
   8   5  -3 199.840 86.0466   5
  -8  -5   3 89.9823 54.5769   3
   8  -5  -3 190.305 94.0130   1
   8   5  -2 658.833 159.777   5
  -8  -5   2 405.753 122.729   3
   8  -5  -2 615.827 162.424   1
   8   5  -1 76.9851 80.6055   5
   8  -5  -1 17.1002 65.2075   1
  -8  -5   1 120.458 75.4149   3
   8   5   0 398.807 142.778   5
   8  -5   0 536.253 121.940   2
  -8  -5   0 508.677 150.212   3
   8  -5   0 567.442 155.544   1
   8   5   1 36.0891 57.0905   5
   8  -5   1 155.421 84.4592   2
  -8  -5  -1 25.1573 54.8748   3
   8   5   2 123.959 60.5675   5
   8  -5   2 169.630 84.5686   2
  -8  -5  -2 78.1949 78.3486   3
   8  -5   3 371.088 126.776   2
  -8  -5  -3 224.370 96.3638   3
   8  -5   4 217.281 106.039   2
  -8  -5  -4 263.272 111.522   3
   8  -5   5 25.4650 58.0973   2
  -8  -5  -5-5.33553 65.4682   3
   8   6  -6 161.595 99.6529   5
   8   6  -5 297.590 122.557   5
   8  -6  -5 168.512 99.3635   1
  -8  -6   5 101.023 99.3521   3
   8   6  -4 138.623 98.1684   5
   8  -6  -4 70.3113 67.0886   1
  -8  -6   4 126.230 78.8269   3
   8   6  -3 95.2265 65.5796   5
  -8  -6   3 174.327 107.677   3
   8  -6  -3 254.066 119.144   1
   8   6  -2 153.614 94.1276   5
   8  -6  -2 330.127 143.213   1
  -8  -6   2 138.731 94.6243   3
   8   6  -1 98.4823 82.4966   5
  -8  -6   1 44.7492 74.9127   3
   8   6   0-7.06286 55.9470   5
   8  -6   0 172.129 90.3366   1
  -8  -6   0 18.7051 74.2911   3
   8  -6   1 58.6681 83.3590   1
  -8  -6  -1-7.78208 70.2215   3
   8  -6   3 204.153 117.471   2
   9   0 -12 168.747 102.416   5
   9   0 -11 127.090 114.867   5
   9   0 -10 132.010 113.351   5
   9   0  -9 161.581 102.115   5
   9   0  -8 347.553 115.275   5
   9   0  -7 160.093 80.2507   5
  -9   0   6 1025.61 168.426   4
   9   0  -6 1238.44 184.646   5
  -9   0   5 174.741 65.9765   4
   9   0  -5 325.671 111.647   5
  -9   0   4 1389.56 184.786   4
   9   0  -4 1214.76 175.407   5
   9   0  -3 465.394 105.238   5
  -9   0   3 296.589 94.2294   4
   9   0  -2 563.214 113.067   5
  -9   0   2 563.761 131.630   4
  -9   0   1 2124.41 232.255   4
   9   0  -1 2037.55 200.067   5
   9   0   0 556.534 106.980   5
   9   0   0 820.137 144.186   2
  -9   0   0 600.034 138.226   4
  -9   0  -1 1561.19 191.846   4
   9   0   1 1854.51 228.637   2
   9   0   1 1538.01 170.997   5
  -9   0  -2 2236.67 235.168   4
   9   0   2 2234.76 245.385   2
   9   0   2 2390.36 200.794   5
   9   0   3 555.351 100.375   5
   9   0   3 404.767 111.741   2
  -9   0  -3 457.235 116.036   4
   9   0   4 872.915 171.176   2
  -9   0  -4 938.935 159.715   4
   9   0   5 84.1170 72.7540   2
  -9   0  -5 49.3013 48.8555   4
  -9   0  -6 1483.54 199.017   4
   9   0   6 1508.69 225.499   2
   9   0   7 556.934 155.322   2
   9   0   8 1465.35 239.163   2
   9  -1 -12 142.019 91.8239   5
   9   1 -12 210.309 105.259   5
   9  -1 -11 181.466 114.122   5
   9   1 -11 240.377 113.350   5
   9  -1 -10 513.383 139.374   5
   9   1 -10 499.351 137.847   5
   9  -1  -9 213.238 94.0669   5
   9   1  -9 229.549 100.977   5
  -9  -1   8 144.948 71.5274   4
   9  -1  -8 215.702 100.208   5
   9   1  -8 126.279 71.8687   5
   9   1  -7 764.873 156.875   5
  -9  -1   7 819.948 160.940   4
   9  -1  -7 1075.21 190.953   5
   9   1  -6 919.563 166.737   5
  -9  -1   6 900.203 159.742   4
   9  -1  -6 1012.66 177.067   5
   9  -1  -5 1452.38 150.950   1
  -9  -1   5 1319.93 190.387   4
   9   1  -5 1352.45 197.793   5
   9  -1  -5 1332.57 191.976   5
  -9  -1   4 2550.02 254.261   4
   9  -1  -4 2523.85 189.414   1
   9  -1  -4 2542.21 254.362   5
   9   1  -4 2394.71 246.610   5
  -9   1   3 2072.70 234.213   4
  -9  -1   3 2284.89 241.355   4
   9  -1  -3 2074.00 176.788   1
   9  -1  -3 2339.70 227.429   5
   9   1  -3 2053.20 218.777   5
  -9   1   2 1464.03 196.595   4
  -9  -1   2 1561.53 203.470   4
   9  -1  -2 1500.64 150.047   1
   9  -1  -2 1423.57 179.986   2
   9  -1  -2 1575.13 180.975   5
   9   1  -2 1481.18 189.664   5
  -9   1   1 1392.34 190.620   4
  -9  -1   1 1632.33 206.169   4
   9  -1  -1 1628.14 199.687   2
   9  -1  -1 1812.99 185.118   5
   9   1  -1 1751.17 196.447   5
  -9   1   0 3743.34 306.776   4
  -9  -1   0 3696.87 304.634   4
   9  -1   0 3636.78 296.569   2
   9  -1   0 3212.55 238.436   5
   9   1   0 3757.26 279.242   5
  -9   1  -1 1606.15 204.389   4
  -9  -1  -1 1352.61 191.488   4
   9  -1   1 1737.97 212.779   2
   9  -1   1 1420.04 152.769   5
   9   1   1 1392.76 177.675   5
  -9   1  -2 4039.29 311.896   4
  -9  -1  -2 3927.83 313.054   4
   9   1   2 4283.66 340.795   2
   9  -1   2 3679.98 308.332   2
   9  -1   2 4263.65 247.179   5
   9   1   2 3883.03 276.493   5
   9   1   3 915.411 169.375   2
   9   1   3 795.316 129.528   5
   9  -1   3 841.864 154.387   2
  -9   1  -3 735.429 136.492   4
  -9  -1  -3 918.946 164.304   4
   9   1   4 673.102 150.745   2
   9   1   4 451.975 102.024   5
   9  -1   4 565.377 133.737   2
  -9   1  -4 400.507 114.938   4
  -9  -1  -4 589.645 136.086   4
   9   1   5 1345.38 206.831   2
  -9   1  -5 1337.28 183.662   4
  -9  -1  -5 1139.42 180.170   4
   9  -1   5 1555.53 226.187   2
   9   1   6 104.377 66.7773   2
   9  -1   6 169.085 100.614   2
  -9  -1  -6 75.7785 70.6746   4
   9   1   7 311.114 109.239   2
   9  -1   7 354.076 140.490   2
   9   1   8 126.394 99.9823   2
   9  -1   8 100.444 101.218   2
   9   1   9 272.459 117.973   2
   9   1   9 297.296 126.773   6
   9   2 -12 187.450 104.564   5
   9   2 -11 285.337 123.708   5
   9  -2 -11 376.856 149.822   5
   9   2 -10 460.952 133.589   5
   9  -2 -10 731.385 179.528   5
   9   2  -9 163.854 92.1964   5
  -9  -2   9 134.919 63.8237   4
   9  -2  -9 209.150 97.3417   5
   9   2  -8 1025.62 180.888   5
   9  -2  -8 773.018 141.671   1
  -9  -2   8 607.949 132.198   4
   9  -2  -8 1015.17 194.111   5
   9   2  -7 249.995 91.5390   5
  -9  -2   7 209.480 90.7215   4
   9  -2  -7 221.320 78.9582   1
   9  -2  -7 194.285 96.7605   5
   9   2  -6 1193.51 193.653   5
   9  -2  -6 1250.28 164.164   1
  -9  -2   6 1199.35 182.844   4
   9  -2  -6 1321.87 201.720   5
   9   2  -5 606.538 141.467   5
   9  -2  -5 484.970 103.746   1
  -9  -2   5 475.623 122.060   4
   9  -2  -5 622.476 145.844   5
  -9  -2   4 1602.90 209.023   4
   9  -2  -4 1467.18 173.717   1
   9  -2  -4 1587.42 207.514   5
   9   2  -4 1603.76 212.440   5
   9   2  -3 155.492 73.6841   5
   9  -2  -3 205.267 72.5892   1
  -9  -2   3 236.642 96.2856   4
   9  -2  -3 138.746 64.7637   2
   9  -2  -3 208.703 75.0126   5
   9   2  -2 222.683 83.2202   5
   9  -2  -2 154.722 66.4971   2
  -9  -2   2 285.597 102.309   4
   9  -2  -2 257.591 75.4593   1
   9  -2  -2 252.566 82.1752   5
   9   2  -1 1020.81 159.975   5
   9  -2  -1 914.002 153.161   2
   9  -2  -1 1070.01 151.514   5
   9   2   0 56.7318 53.2683   5
   9  -2   0 117.444 68.0319   2
   9  -2   0 159.549 66.7991   5
   9  -2   1 1587.69 200.758   2
   9  -2   1 1844.33 168.210   5
   9   2   1 1432.16 186.026   5
   9   2   2 259.461 82.2961   5
   9  -2   2 340.102 102.526   2
   9  -2   3 1725.33 228.988   2
   9   2   3 1464.57 190.504   5
   9   2   4 540.592 120.421   5
   9  -2   4 533.747 134.463   2
   9   2   4 484.834 129.041   2
   9   2   5 561.361 143.526   2
   9  -2   5 319.705 108.110   2
   9   2   6 577.920 143.766   2
   9  -2   6 865.791 177.134   2
   9   2   7 60.5181 58.8506   2
   9  -2   7 3.20375 72.0331   2
   9   2   8 862.956 190.586   2
   9   2   9 174.490 103.335   2
   9   3 -11 143.692 76.6078   5
   9   3 -10 330.046 127.145   5
   9  -3 -10 180.541 89.1860   1
   9   3  -9 152.965 101.125   5
   9  -3  -9 138.971 65.4403   1
   9   3  -8 30.0264 59.5589   5
  -9  -3   8-79.7613 77.2970   4
   9  -3  -8 57.1581 57.4964   1
   9   3  -7 570.889 143.221   5
  -9  -3   7 324.183 111.537   4
   9  -3  -7 657.999 136.619   1
   9  -3  -6 1869.89 223.614   1
  -9  -3   6 2081.37 241.857   4
   9   3  -6 2017.04 257.555   5
  -9  -3   5 2516.22 264.261   4
   9  -3  -5 2514.93 250.949   1
   9   3  -5 2408.99 276.014   5
   9   3  -4 403.052 118.574   5
   9  -3  -4 248.584 86.3557   1
   9  -3  -4 286.388 99.3793   5
   9  -3  -3 103.547 59.0389   2
   9   3  -3 291.593 115.640   5
   9  -3  -3 26.5364 35.5174   1
   9  -3  -3 170.375 84.2805   5
   9   3  -2 966.249 173.547   5
   9  -3  -2 670.054 128.260   2
   9  -3  -2 793.598 148.150   1
   9  -3  -2 792.379 137.598   5
   9   3  -1 113.448 58.6531   5
   9  -3  -1 50.8147 34.8137   2
  -9  -3   1 24.9786 90.5718   3
   9  -3  -1 146.793 72.8619   5
  -9  -3   0 2755.23 293.297   3
   9  -3   0 2470.78 249.072   2
   9  -3   0 2525.85 216.906   5
   9   3   0 2516.31 265.305   5
   9   3   1 225.413 93.9473   5
   9  -3   1 344.670 104.269   2
  -9  -3  -1 394.453 128.859   3
  -9  -3  -2 2267.47 270.954   3
   9  -3   2 1868.56 236.956   2
   9   3   2 1581.29 214.741   5
   9   3   3 568.309 133.165   5
   9  -3   3 206.866 80.6464   2
  -9  -3  -3 361.045 122.023   3
   9   3   4 457.381 123.427   5
   9  -3   4 359.266 112.652   2
  -9  -3  -4 506.218 137.913   3
   9  -3   5 309.466 106.506   2
  -9  -3  -5 423.577 134.863   3
   9  -3   6 4.19474 72.5611   2
  -9  -3  -6 170.617 113.394   3
  -9  -3  -7 345.089 113.039   3
   9   4 -10 101.679 91.2358   5
   9  -4 -10 249.837 111.204   1
   9   4  -9 162.571 99.9737   5
   9  -4  -9 108.607 88.3647   1
   9   4  -8 134.838 80.6784   5
   9  -4  -8 173.485 79.0740   1
   9   4  -7 158.209 86.2913   5
  -9  -4   7 368.528 126.448   4
   9  -4  -7 238.615 96.9820   1
   9  -4  -6 598.932 141.354   1
   9   4  -6 635.453 156.451   5
  -9  -4   6 618.665 143.461   4
   9   4  -5 113.043 71.1149   5
   9  -4  -5 110.655 67.2517   1
   9   4  -4 217.950 90.3606   5
   9  -4  -4 124.198 79.0312   1
   9   4  -3 372.312 123.704   5
   9  -4  -3 458.216 125.078   1
  -9  -4   3 546.881 149.501   3
   9   4  -2 821.935 171.075   5
   9  -4  -2 708.094 140.078   2
  -9  -4   2 879.326 181.276   3
   9  -4  -2 856.857 170.874   1
   9   4  -1 288.860 110.731   5
   9  -4  -1 168.215 75.9448   2
   9  -4  -1 57.7170 66.7603   1
  -9  -4   1 188.000 99.7260   3
   9   4   0 478.942 131.627   5
   9  -4   0 478.909 119.229   2
  -9  -4   0 589.719 151.032   3
   9   4   1 100.638 81.7891   5
   9  -4   1 52.5220 62.5680   2
  -9  -4  -1 66.9183 76.1376   3
   9   4   2 122.680 76.0550   5
   9  -4   2 146.686 87.1404   2
  -9  -4  -2 356.631 145.812   3
   9   4   3 339.272 114.317   5
   9  -4   3 264.888 106.863   2
  -9  -4  -3 211.773 78.8866   3
   9  -4   4 109.411 95.4136   2
  -9  -4  -4 351.362 134.453   3
   9  -4   5-17.9645 47.9024   2
  -9  -4  -5 91.5472 82.5599   3
  -9  -4  -6 84.0821 93.5877   3
   9   5  -8 265.526 112.255   5
   9  -5  -8 254.894 114.391   1
   9   5  -7 17.4041 58.3989   5
   9  -5  -7 186.538 110.618   1
   9  -5  -6-46.8648 61.1459   1
   9   5  -6 9.29739 45.3470   5
   9   5  -5 189.960 91.9547   5
   9  -5  -5 233.672 85.0488   1
   9   5  -4 115.338 92.3116   5
  -9  -5   4 70.2127 88.0100   3
   9  -5  -4 111.937 67.4980   1
   9   5  -3 422.814 136.825   5
  -9  -5   3 197.961 92.2560   3
   9  -5  -3 401.216 125.973   1
   9   5  -2 139.994 89.8401   5
   9  -5  -2 66.5774 72.4838   1
  -9  -5   2 282.468 120.550   3
   9   5  -1 161.357 79.7595   5
   9  -5  -1 251.805 114.458   1
  -9  -5   1 409.230 153.999   3
   9  -5   0 894.983 192.483   1
   9   5   0 672.263 166.779   5
  -9  -5   0 774.135 190.448   3
   9   5   1 217.308 97.3107   5
   9  -5   1 100.754 61.6668   2
  -9  -5  -1 195.768 90.3333   3
   9   5   2 563.396 158.479   5
   9  -5   2 366.353 117.435   2
  -9  -5  -2 487.918 147.956   3
   9  -5   3 503.368 149.124   2
  -9  -5  -3 323.563 140.058   3
   9  -5   4 189.590 84.2029   2
  -9  -6   5 106.048 88.4172   3
  -9  -6   4 276.655 124.090   3
  -9  -6   3 94.7962 83.8231   3
  10   0 -11 184.303 103.120   5
  10   0 -10 73.4859 83.3701   5
  10   0  -9 125.269 90.9344   5
  10   0  -8 833.637 179.382   5
  10   0  -7 767.069 164.181   5
 -10   0   6 256.124 94.1995   4
  10   0  -6 641.209 145.169   5
 -10   0   5 45.6938 45.4262   4
  10   0  -5 175.231 92.8254   5
 -10   0   4 2377.15 267.568   4
  10   0  -4 1947.39 232.393   5
  10   0  -3 286.830 94.0670   5
 -10   0   3 60.7162 65.4261   4
  10   0  -2 935.446 152.039   5
 -10   0   2 551.862 133.502   4
 -10   0   1 2691.93 279.296   4
  10   0  -1 2443.75 231.894   5
  10   0   0 178.749 70.3573   5
  10   0   0 263.266 91.2447   2
 -10   0   0 119.482 87.3681   4
 -10   0  -1 3600.37 316.789   4
  10   0   1 3441.04 312.900   2
  10   0   1 3423.26 261.000   5
  10   0   2 167.293 58.6779   5
  10   0   2 309.094 102.899   2
 -10   0  -2 177.357 81.9170   4
  10   0   3 728.440 153.420   2
 -10   0  -3 416.269 114.184   4
  10   0   4 856.562 182.334   2
 -10   0  -4 1265.82 197.379   4
  10   0   5 19.0888 47.6850   2
 -10   0  -5-84.5774 52.3186   4
  10   0   6 280.261 114.780   2
  10   0   7 36.3979 87.7007   2
  10  -1 -11-114.297 103.469   5
  10   1 -11 362.656 122.789   5
  10  -1 -10 126.434 83.9232   5
  10   1 -10 60.9036 56.4085   5
  10   1  -9 269.736 108.424   5
  10  -1  -9 430.961 140.482   5
  10   1  -8 34.7383 74.4145   5
 -10  -1   8 48.0536 52.3828   4
  10  -1  -8 13.0269 72.4211   5
  10   1  -7 584.239 144.466   5
 -10  -1   7 562.266 146.047   4
  10  -1  -7 677.336 165.552   5
  10   1  -6 140.868 77.0128   5
 -10  -1   6-10.1959 52.2836   4
  10  -1  -6 74.0318 82.3674   5
  10   1  -5 1388.28 201.382   5
 -10  -1   5 1063.06 182.453   4
  10  -1  -5 1173.18 191.076   5
  10   1  -4 64.4334 57.2745   5
 -10  -1   4 100.406 67.4748   4
  10  -1  -4 284.880 110.576   5
  10   1  -3 692.042 146.595   5
 -10   1   3 563.406 123.571   4
 -10  -1   3 606.500 136.278   4
  10  -1  -3 875.188 152.135   5
  10   1  -2 380.962 113.057   5
 -10   1   2 277.287 97.3230   4
 -10  -1   2 379.322 114.778   4
  10  -1  -2 319.838 104.035   5
  10  -1  -1 258.935 80.6937   5
  10   1  -1 314.039 95.5573   5
  10  -1  -1 240.247 90.6689   2
 -10   1   1 329.522 104.654   4
 -10  -1   1 349.664 108.141   4
  10  -1   0 1107.55 190.067   2
 -10   1   0 1339.04 201.433   4
 -10  -1   0 1436.78 212.061   4
  10  -1   0 1215.13 155.397   5
  10   1   0 1360.66 184.129   5
  10  -1   1 783.978 126.011   5
  10   1   1 721.229 130.663   5
  10  -1   1 695.139 147.204   2
 -10   1  -1 949.465 169.574   4
 -10  -1  -1 701.705 153.484   4
 -10   1  -2 1933.28 238.185   4
 -10  -1  -2 2258.57 257.230   4
  10   1   2 2033.04 256.726   2
  10  -1   2 2259.57 261.687   2
  10   1   2 2052.81 215.919   5
  10   1   3 113.671 102.664   2
  10   1   3 65.2699 58.5938   5
  10  -1   3 234.673 110.634   2
 -10   1  -3-9.01022 51.0519   4
 -10  -1  -3 63.6733 63.1939   4
  10   1   4 363.432 131.784   2
  10  -1   4 252.164 99.4036   2
 -10   1  -4 241.695 90.2952   4
 -10  -1  -4 267.557 106.695   4
  10   1   5 158.783 86.6073   2
  10  -1   5 298.464 107.066   2
 -10  -1  -5 213.903 98.7848   4
  10   1   6-98.7346 78.1225   2
  10  -1   6 97.2387 88.1963   2
 -10  -1  -6-72.9869 67.6602   4
  10   1   7 1207.06 220.512   2
  10   2 -11 61.8373 47.5147   5
  10   2 -10 11.5701 64.7385   5
  10  -2 -10 104.763 101.629   5
  10   2  -9 121.337 94.2689   5
 -10  -2   9 23.2429 66.7465   4
  10  -2  -9 24.0245 58.3673   5
  10   2  -8 49.1488 73.0501   5
 -10  -2   8-13.2431 50.9059   4
  10  -2  -8 104.950 87.7424   5
  10   2  -7 1139.41 203.594   5
 -10  -2   7 724.837 161.420   4
  10  -2  -7 679.680 165.836   5
 -10  -2   6 1737.56 231.933   4
  10  -2  -6 1770.03 235.847   5
  10   2  -6 1948.06 255.338   5
  10   2  -5 244.224 100.332   5
  10  -2  -5 25.6197 39.9808   1
 -10  -2   5 46.0758 69.5741   4
  10  -2  -5 74.2364 71.3775   5
  10   2  -4 343.702 110.489   5
 -10  -2   4 237.440 100.224   4
  10  -2  -4 365.746 92.9460   1
  10  -2  -4 282.738 98.3902   5
  10   2  -3 404.857 115.623   5
  10  -2  -3 497.922 108.733   1
 -10  -2   3 548.097 142.482   4
  10  -2  -3 470.449 116.678   5
  10   2  -2 306.370 109.391   5
  10  -2  -2 12.5091 50.5940   2
 -10  -2   2 359.816 125.906   4
  10  -2  -2 65.4060 44.8484   1
  10  -2  -2 236.035 92.5485   5
 -10  -2   1 1617.73 228.664   4
  10  -2  -1 1403.16 198.419   2
  10  -2  -1 1350.79 170.187   5
  10   2  -1 1668.03 219.463   5
  10  -2   0 646.815 113.132   5
  10   2   0 843.163 156.613   5
  10  -2   0 683.970 146.026   2
 -10  -2   0 941.934 176.778   4
  10  -2   1 2048.63 242.528   2
  10   2   1 2180.48 242.708   5
  10   2   2 2.55069 51.9642   5
  10  -2   2 98.6136 81.7322   2
  10   2   3 438.203 116.364   5
  10  -2   3 310.390 107.543   2
  10   2   4 949.256 164.357   5
  10  -2   4 855.166 182.507   2
  10  -2   5 112.619 90.2707   2
  10   2   5 15.9514 79.0112   2
  10   2   6 287.736 116.580   2
  10  -2   6 381.103 137.623   2
  10   2   7 50.2002 57.3562   2
  10   3 -10 239.770 126.200   5
  10   3  -9 415.452 137.464   5
  10  -3  -9 370.576 142.251   5
  10   3  -8 348.855 119.412   5
 -10  -3   8 191.140 88.6924   4
  10  -3  -8 186.084 107.089   5
  10   3  -7 213.507 98.0192   5
 -10  -3   7 178.170 94.0230   4
  10  -3  -7 99.5245 49.9744   1
  10  -3  -7 212.637 109.242   5
  10   3  -6 160.334 96.1077   5
 -10  -3   6 87.3169 79.3555   4
  10  -3  -6 76.6611 59.6095   5
  10  -3  -6 50.7842 69.1667   1
  10   3  -5 1379.41 222.769   5
  10  -3  -5 1257.11 183.207   1
 -10  -3   5 1070.66 188.488   4
  10  -3  -5 1260.24 204.372   5
  10   3  -4 126.749 88.9946   5
 -10  -3   4 134.923 89.0696   4
  10  -3  -4 168.096 81.9050   1
  10  -3  -4 131.620 82.5638   5
  10  -3  -3 39.5416 38.9486   2
  10   3  -3 212.467 93.0948   5
  10  -3  -3 231.899 74.6794   1
  10  -3  -3 245.913 89.5259   5
  10  -3  -2 112.827 55.5967   2
  10   3  -2 166.866 70.8818   5
  10  -3  -2 43.6108 40.4054   1
  10  -3  -2 86.3305 53.8809   5
  10   3  -1-26.5734 48.9529   5
  10  -3  -1 91.7106 71.5872   2
  10  -3  -1 73.2309 70.4063   1
  10  -3  -1 38.3269 51.3998   5
  10   3   0 181.908 91.1689   5
  10  -3   0 278.452 97.4407   2
  10   3   1-6.97212 40.2937   5
  10  -3   1 156.450 83.2780   2
  10   3   2 332.725 106.706   5
  10  -3   2 332.147 120.738   2
 -10  -3  -2 409.363 141.114   3
  10   3   3 149.236 87.7022   5
  10  -3   3 92.1472 80.3218   2
 -10  -3  -3 365.970 136.791   3
  10   3   4 224.563 96.0867   5
  10  -3   4 161.775 92.8514   2
 -10  -3  -4 176.549 104.069   3
  10  -3   5 394.025 131.739   2
 -10  -3  -5 575.516 170.039   3
 -10  -3  -6 53.8162 76.1792   3
  10  -4  -9 32.8494 75.3942   1
  10   4  -8 33.4396 82.1468   5
  10  -4  -8 61.0143 57.3422   1
 -10  -4   7-19.1801 53.8387   4
  10  -4  -7-35.3683 49.8050   1
  10  -4  -6 557.005 140.353   1
  10   4  -6 433.238 138.841   5
 -10  -4   6 439.778 139.515   4
  10   4  -5 399.753 134.532   5
 -10  -4   5 244.126 102.523   4
  10  -4  -5 176.349 77.9076   1
  10   4  -4 219.049 109.104   5
  10  -4  -4 49.3848 53.5475   1
  10  -4  -4 103.429 80.3884   5
  10   4  -3 161.880 82.9302   5
  10  -4  -3 341.930 114.406   1
  10  -4  -3 293.176 100.697   5
  10   4  -2-35.5438 60.1522   5
  10  -4  -2 121.443 93.0247   1
  10  -4  -1 1082.88 190.814   1
  10   4  -1 975.430 188.581   5
  10  -4  -1 838.442 155.042   2
 -10  -4   1 787.322 179.850   3
  10   4   0 241.560 114.802   5
  10  -4   0 225.348 88.8653   2
 -10  -4   0 452.936 150.332   3
  10   4   1 639.518 152.949   5
  10  -4   1 421.689 125.622   2
 -10  -4  -1 790.955 194.055   3
  10   4   2 497.427 138.542   5
  10  -4   2 549.613 147.757   2
 -10  -4  -2 543.645 172.547   3
  10   4   3 1140.01 210.240   5
  10  -4   3 1146.03 209.710   2
 -10  -4  -3 1082.51 217.173   3
  10  -4   4 36.2143 99.2274   2
 -10  -4  -4 207.877 118.312   3
  10  -5  -7 164.846 111.612   1
  10  -5  -6-14.3414 75.6611   1
  10  -5  -5 190.371 102.560   1
  10   5  -4 221.764 110.149   5
  10  -5  -4 68.3260 64.4737   1
  10   5  -3 686.620 166.300   5
 -10  -5   3 534.367 169.528   3
  10  -5  -3 622.397 165.726   1
  10   5  -2 26.3071 60.6151   5
  10  -5  -2 280.471 129.687   1
 -10  -5   2 325.092 140.600   3
  10  -5  -1 317.569 115.575   1
  10   5  -1 385.790 144.195   5
 -10  -5   1 113.903 113.542   3
  10   5   0 122.642 102.988   5
  10  -5   0 79.2353 81.3515   1
 -10  -5   0 59.7775 96.1386   3
  10  -5   1-42.7345 72.9856   2
  10  -5   2 179.334 95.8426   2
  10  -5   3 238.604 101.245   2
  11   0 -10-21.1883 58.1519   5
  11   0  -9 69.3331 78.9860   5
  11   0  -8 705.189 166.944   5
  11   0  -7 103.028 101.970   5
 -11   0   6 583.084 142.230   4
  11   0  -6 867.523 181.246   5
  11   0  -5 512.356 131.434   5
 -11   0   5 724.628 156.748   4
 -11   0   4 2308.96 278.404   4
  11   0  -4 2378.42 265.390   5
  11   0  -3 31.3382 43.3497   5
 -11   0   3 31.7080 62.1748   4
  11   0  -2 25.0173 35.4965   5
 -11   0   2 138.428 85.1714   4
  11   0  -1 1002.35 161.544   5
 -11   0   1 985.581 183.453   4
  11   0   0 316.464 97.5911   5
 -11   0   0 323.741 117.586   4
 -11   0  -1 2021.41 268.271   4
  11   0   1 2172.83 273.017   2
  11   0   1 2198.67 223.131   5
  11   0   2 252.456 100.898   2
 -11   0  -2 215.287 102.513   4
  11   0   3 191.880 110.419   2
 -11   0  -3 143.272 83.2323   4
  11   0   4 9.81345 49.7282   2
 -11   0  -4 63.0468 60.7897   4
  11   0   5 76.2248 72.5195   2
 -11   0  -5 43.1324 60.3738   4
  11   1 -10 17.3339 63.9856   5
  11   1  -9 261.008 107.552   5
  11  -1  -9 349.841 138.171   5
  11   1  -8 53.4419 64.1068   5
 -11  -1   8 64.4475 63.6598   4
  11  -1  -8 301.061 129.724   5
  11   1  -7 89.1346 60.7180   5
 -11  -1   7-58.7835 83.0212   4
  11   1  -6 27.6575 71.7313   5
 -11  -1   6 232.420 103.570   4
  11  -1  -6 154.715 80.1758   5
  11   1  -5 53.4280 51.5889   5
 -11  -1   5 37.3256 51.9019   4
  11  -1  -5-24.2771 48.2102   5
  11   1  -4-1.39618 56.5374   5
 -11  -1   4 20.4274 61.6479   4
  11  -1  -4 53.5645 63.3487   5
  11   1  -3 311.293 104.094   5
 -11   1   3 177.916 77.6399   4
 -11  -1   3 248.443 99.0298   4
  11  -1  -3 266.565 99.1485   5
  11  -1  -2 468.387 113.951   5
  11   1  -2 756.789 148.855   5
 -11   1   2 611.631 140.709   4
 -11  -1   2 506.711 141.550   4
  11  -1  -1 935.092 151.648   5
  11  -1  -1 677.012 152.889   2
  11   1  -1 957.327 166.129   5
 -11   1   1 903.099 171.085   4
 -11  -1   1 1084.42 203.181   4
 -11   1   0 2139.16 264.319   4
 -11  -1   0 1822.22 247.473   4
  11  -1   0 1910.42 243.947   2
  11  -1   0 1842.43 205.299   5
  11   1   0 1587.18 209.150   5
  11  -1   1 124.602 85.1609   2
  11   1   1 89.1840 76.8112   5
 -11   1  -1 30.6945 52.0025   4
 -11  -1  -1 137.101 94.3111   4
  11  -1   2 924.980 184.412   2
  11   1   2 603.151 126.578   5
 -11   1  -2 485.711 128.657   4
 -11  -1  -2 859.039 180.541   4
  11   1   3 719.513 170.579   2
  11  -1   3 660.306 166.804   2
 -11   1  -3 642.702 159.407   4
 -11  -1  -3 525.279 150.325   4
  11   1   4 487.996 145.978   2
  11  -1   4 397.720 131.311   2
 -11   1  -4 291.720 109.880   4
 -11  -1  -4 311.130 112.232   4
  11   1   5 609.197 171.576   2
  11  -1   5 281.879 109.487   2
 -11  -1  -5 359.756 131.866   4
  11   2  -9 266.093 106.943   5
 -11  -2   9 242.359 101.125   4
  11  -2  -9 367.686 129.622   5
  11   2  -8 486.946 151.426   5
 -11  -2   8 284.096 88.5378   4
  11  -2  -8 269.158 122.431   5
  11   2  -7-81.9919 79.0715   5
 -11  -2   7 2.76658 55.7868   4
  11  -2  -7 72.5511 74.4480   5
  11   2  -6 1159.16 211.311   5
 -11  -2   6 1313.04 217.868   4
  11  -2  -6 1175.01 205.744   5
  11   2  -5 363.899 131.251   5
 -11  -2   5 190.013 98.9675   4
  11  -2  -5 96.9263 73.1506   5
  11   2  -4 419.386 136.057   5
 -11  -2   4 278.319 111.487   4
  11  -2  -4 415.576 130.556   5
  11   2  -3 273.091 104.594   5
 -11  -2   3 138.443 93.7191   4
  11  -2  -3 74.1797 58.6446   5
  11  -2  -2-33.5757 52.1936   2
  11   2  -2-0.77867 45.0139   5
 -11  -2   2 182.862 89.2412   4
  11  -2  -2 101.651 67.0761   5
  11  -2  -1 347.750 121.057   2
  11   2  -1 377.662 111.667   5
 -11  -2   1 144.292 91.8522   4
  11  -2  -1 513.518 113.904   5
  11   2   0 21.1781 55.7727   5
  11  -2   0 36.0937 43.7014   2
 -11  -2   0 158.520 100.749   4
  11   2   1 286.536 94.3682   5
  11  -2   1 386.137 118.078   2
 -11  -2  -1 293.136 103.706   4
  11   2   2 314.088 99.7091   5
  11  -2   2 366.451 132.552   2
 -11  -2  -2 207.783 105.954   4
  11   2   3 261.537 96.1372   5
  11  -2   3 286.216 115.364   2
 -11  -2  -3 301.374 114.827   4
  11  -2   4 108.783 105.420   2
 -11  -2  -4 161.053 94.5019   4
 -11  -2  -5-74.1202 59.0894   4
 -11  -2  -6 337.658 126.365   4
  11   3  -8 94.8404 92.8606   5
 -11  -3   8-14.3889 62.3815   4
  11  -3  -8 146.551 95.1729   5
  11   3  -7 700.820 173.877   5
 -11  -3   7 816.850 178.910   4
  11  -3  -7 586.630 162.238   5
  11   3  -6 621.630 176.810   5
 -11  -3   6 535.346 149.279   4
  11  -3  -6 464.866 127.343   5
  11   3  -5 121.115 94.1324   5
 -11  -3   5-33.2552 58.0050   4
  11  -3  -5-41.2477 72.3010   5
  11   3  -4 119.397 65.5397   5
 -11  -3   4-40.1842 63.2348   4
  11  -3  -4-12.8995 55.3027   5
  11   3  -3 46.9757 103.830   5
  11  -3  -3 70.0666 74.0190   1
  11  -3  -3 6.77488 46.9880   2
  11  -3  -3 107.196 62.8367   5
  11  -3  -2 325.096 104.827   2
  11   3  -2 215.106 107.460   5
 -11  -3   2 432.588 143.018   4
  11  -3  -2 185.660 87.6447   1
  11  -3  -2 429.621 119.884   5
  11  -3  -1 216.092 96.4366   2
  11   3  -1 100.613 88.0019   5
  11  -3  -1 72.9384 65.5010   1
  11   3   0 332.100 119.273   5
  11  -3   0 149.813 77.9256   2
  11   3   1 124.691 82.3805   5
  11  -3   1-92.0325 73.2328   2
  11   3   2 415.899 126.999   5
  11  -3   2 516.213 135.152   2
  11   3   3 17.9924 43.4697   5
  11  -3   3 56.6173 67.0795   2
  11   3   4 283.625 107.082   5
 -11  -4   7 285.619 122.132   4
  11  -4  -6 455.133 124.578   1
 -11  -4   6 304.611 122.608   4
  11  -4  -6 421.757 146.399   5
  11   4  -5 63.6620 85.6977   5
  11  -4  -5 182.353 74.3020   1
 -11  -4   5-0.31227 60.7810   4
  11  -4  -5-48.0830 74.8438   5
  11   4  -4 539.154 157.821   5
 -11  -4   4 514.642 152.161   4
  11  -4  -4 203.567 99.0666   1
  11  -4  -4 480.158 141.996   5
  11  -4  -3 36.8257 59.1578   1
  11   4  -3 148.058 96.2040   5
  11   4  -2 232.295 85.3652   5
  11  -4  -2 248.007 124.979   1
  11  -4  -1 537.461 132.407   2
  11   4  -1 520.674 155.097   5
  11  -4  -1 583.204 151.813   1
  11   4   0 191.877 94.2386   5
  11  -4   0 104.080 63.7484   2
  11  -4   0 124.422 80.3772   1
  11   4   1 161.092 88.9175   5
  11  -4   1 220.253 103.119   2
 -11  -4  -1 528.081 168.897   3
  11   4   2 18.4334 82.4482   5
  11  -4   2 23.0516 52.2105   2
  11   4   3 136.359 79.4238   5
  11  -5  -5-6.07201 66.6729   1
  11  -5  -5 192.453 108.463   5
  11  -5  -4-12.2215 52.8650   1
  11  -5  -3 209.267 115.441   1
  11  -5  -2 191.197 99.4455   1
  11  -5  -1 104.625 76.9791   1
  12   0  -8 141.163 119.384   5
  12   0  -7-6.92146 52.4361   5
  12   0  -6 35.8944 58.6385   5
 -12   0   6-61.5969 85.4951   4
  12   0  -5 139.190 77.3834   5
 -12   0   5 214.595 109.893   4
  12   0  -4-0.40571 60.0080   5
 -12   0   4 133.405 121.207   4
  12   0  -3 31.7110 44.9315   5
 -12   0   3 165.879 95.4354   4
  12   0  -2 255.095 94.6121   5
 -12   0   2 103.529 78.1234   4
  12   0  -1 311.082 99.4016   5
 -12   0   1 75.0999 59.9119   4
  12   0   0 43.5642 63.2704   5
 -12   0   0 9.68355 60.1864   4
 -12   0  -1 727.793 177.947   4
  12   0   1 974.174 198.558   2
  12   0   2 30.1824 68.1522   2
 -12   0  -2-82.9090 101.927   4
  12   0   3 260.241 117.780   2
 -12   0  -3 186.466 114.063   4
 -12   0  -4 151.335 100.925   4
  12   1  -8 39.8110 97.9683   5
 -12  -1   8-10.9593 77.3719   4
  12  -1  -8 139.979 101.545   5
  12   1  -7 536.044 149.255   5
 -12  -1   7 823.486 184.401   4
  12  -1  -7 656.496 173.349   5
  12   1  -6 162.491 97.1663   5
 -12  -1   6-115.332 87.5672   4
  12  -1  -6-35.3652 52.7803   5
  12   1  -5 1358.73 221.913   5
 -12  -1   5 1161.10 215.046   4
  12  -1  -5 947.635 187.234   5
  12  -1  -4 119.763 81.7311   5
  12   1  -4 174.417 94.5716   5
 -12  -1   4 36.5243 53.5732   4
  12  -1  -3 69.2867 64.5142   5
  12   1  -3 153.900 79.6310   5
 -12   1   3 13.5246 48.9847   4
 -12  -1   3 70.7913 86.4899   4
  12  -1  -2 181.575 76.0504   5
  12   1  -2 157.359 78.6635   5
 -12   1   2 71.9394 49.8279   4
 -12  -1   2 214.148 90.0513   4
  12  -1  -1 84.6869 58.5963   5
  12   1  -1 254.569 108.916   5
 -12   1   1 156.307 79.6073   4
 -12  -1   1 244.468 122.842   4
  12  -1   0 320.241 119.791   2
  12   1   0 702.105 149.689   5
 -12   1   0 693.430 165.301   4
 -12  -1   0 706.754 175.887   4
  12  -1   1 755.314 180.361   2
  12   1   1 498.268 124.497   5
 -12   1  -1 567.851 142.159   4
 -12  -1  -1 966.220 200.110   4
  12  -1   2 213.177 96.2959   2
 -12   1  -2 111.206 74.7201   4
 -12  -1  -2 130.941 83.0458   4
  12  -1   3 142.735 71.5410   2
 -12   1  -3 92.4804 59.1222   4
 -12  -1  -3 164.718 91.1277   4
 -12   1  -4 25.4757 66.2427   4
 -12  -1  -4 150.536 114.559   4
 -12  -1  -5 111.457 88.7827   4
 -12  -2   9 41.2428 67.9781   4
 -12  -2   8 268.424 101.044   4
  12   2  -7 175.687 109.814   5
 -12  -2   7 70.2219 74.4368   4
  12  -2  -7 166.559 86.0796   5
  12   2  -6 118.744 85.5732   5
 -12  -2   6 70.4393 76.8581   4
  12  -2  -6 167.462 91.2961   5
  12   2  -5 89.6049 76.3766   5
 -12  -2   5 53.8962 98.0961   4
  12  -2  -5-51.8205 54.0380   5
  12   2  -4 129.154 81.5872   5
 -12  -2   4 243.483 115.114   4
  12  -2  -4 206.022 91.9895   5
  12   2  -3 1.03008 38.9959   5
 -12  -2   3 164.846 107.512   4
  12  -2  -3 14.7361 61.5712   5
  12  -2  -2 378.522 108.855   5
  12   2  -2 292.397 105.906   5
 -12  -2   2 775.572 181.464   4
  12  -2  -1 353.657 115.123   2
  12   2  -1 493.099 141.322   5
 -12  -2   1 188.557 115.855   4
  12  -2   0 216.187 96.2739   2
  12   2   0 218.508 97.0023   5
 -12  -2   0 184.217 122.495   4
  12  -2   1 630.987 156.467   2
  12   2   1 317.847 119.247   5
 -12  -2  -1 211.926 115.362   4
  12  -2   2 17.4800 49.4395   2
  12   2   2 87.6839 81.1097   5
 -12  -2  -2 190.927 102.066   4
 -12  -2  -3 837.005 196.254   4
 -12  -2  -4 201.179 104.450   4
 -12  -3   8 295.334 129.653   4
 -12  -3   7 882.186 206.468   4
 -12  -3   6 518.695 154.608   4
  12  -3  -6 429.399 136.627   5
  12   3  -5 263.370 114.075   5
 -12  -3   5 134.341 97.5702   4
  12  -3  -5 235.357 112.793   5
  12   3  -4-74.9513 89.6514   5
 -12  -3   4 8.31481 87.7640   4
  12  -3  -4 70.6130 74.1720   5
  12   3  -3 184.700 95.0534   5
 -12  -3   3 184.182 96.7617   4
  12  -3  -3 82.4539 70.4174   5
  12  -3  -2 390.861 131.361   2
  12   3  -2 370.052 124.181   5
 -12  -3   2 363.312 142.698   4
  12  -3  -1 492.100 140.151   2
  12   3  -1 596.732 157.302   5
 -12  -3   1 550.948 176.273   4
  12  -3   0 73.6661 81.9619   2
  12   3   0 249.485 103.665   5
 -12  -3   0 70.3388 94.6928   4
  12  -3   1 9.74257 46.4564   2
  12   3   1 103.166 61.6632   5
  12  -3   2 69.0724 47.9662   2
  12   3   2 68.1686 68.3240   5
  12   3   3 85.3178 77.7296   5
  12  -4  -5 65.7431 78.9379   5
  12  -4  -1 225.900 128.831   1
  12  -4   0-31.3714 54.7598   2
  12  -4   0 94.4951 67.7484   1
  13   0  -6 743.637 180.913   5
 -13   0   6 1098.68 215.777   4
  13   0  -5 453.167 134.513   5
 -13   0   5 600.107 173.150   4
  13   0  -4 168.739 55.5690   5
 -13   0   4 233.155 120.217   4
  13   0  -3 34.6077 66.1553   5
 -13   0   3 9.19284 66.8057   4
  13   0  -2 515.053 139.712   5
 -13   0   2 474.150 154.335   4
  13   0  -1 57.1729 63.1747   5
 -13   0   1 95.3006 90.8397   4
 -13   0   0 1559.21 257.841   4
 -13   0  -1 69.8418 72.6906   4
 -13   0  -2 120.395 77.4422   4
 -13   0  -3 94.7678 90.2566   4
 -13  -1   6 74.8202 72.7859   4
  13  -1  -6 69.7823 65.6189   5
  13  -1  -5 65.3447 48.5126   5
  13   1  -5 191.438 97.2524   5
 -13  -1   5-80.2073 80.6949   4
  13  -1  -4-124.256 100.918   5
  13   1  -4 178.523 106.769   5
 -13  -1   4 48.8475 77.6321   4
  13  -1  -3 25.1885 57.9033   5
  13   1  -3 74.9473 57.3654   5
 -13  -1   3 110.376 72.7879   4
  13  -1  -2 117.218 72.1075   5
  13   1  -2 205.710 97.3240   5
 -13   1   2 284.824 108.864   4
 -13  -1   2 100.671 78.0721   4
  13   1  -1 15.3038 73.6189   5
 -13   1   1 3.43683 70.4147   4
  13   1   0 517.712 133.431   5
 -13   1   0 420.042 128.119   4
 -13  -1   0 502.742 171.841   4
 -13   1  -1 126.523 65.1963   4
 -13  -1  -1 24.1111 83.3620   4
 -13   1  -2 198.510 87.6201   4
 -13   1  -3-73.3201 93.8339   4
  13  -2  -6 101.854 93.6946   5
  13  -2  -5 99.2385 89.0215   5
  13   2  -4 98.1282 86.9312   5
  13  -2  -4 47.6764 61.1926   5
  13  -2  -3 116.017 82.1198   5
  13   2  -3 81.9693 72.8938   5
  13   2  -2 138.831 72.8945   5
  13   2  -1-27.7574 47.5471   5
  13  -2  -1-51.7725 66.1214   2
  13  -2   0 97.7511 85.6216   2
  13   2   0 109.642 82.8766   5
  13   2   1-10.6864 47.0936   5
  13  -3  -5 144.383 93.7290   5
  13  -3  -1-17.4845 47.7291   2
  14   0  -3 114.860 77.1280   5
  14   0  -2 177.302 99.1157   5
  14  -1  -4 65.3718 72.7111   5
  14  -1  -3 89.7998 62.4518   5
  14   1  -2 50.2710 74.9495   5
  14   1  -1 246.362 100.996   5
   0   0   0    0.00    0.00   0
;
_shelx_hkl_checksum              94534
loop_
_space_group_symop_operation_xyz
'x, y, z'
'-x, y+1/2, -z'
loop_
_atom_site_label
_atom_site_type_symbol
_atom_site_fract_x
_atom_site_fract_y
_atom_site_fract_z
_atom_site_U_iso_or_equiv
_atom_site_adp_type
_atom_site_occupancy
_atom_site_site_symmetry_order
_atom_site_calc_flag
_atom_site_refinement_flags_posn
_atom_site_refinement_flags_adp
S1 S 0.02840(8) 0.47218(19) 0.71392(9) 0.0567(3) Uani 1 1 d . .
O2 O 0.0318(3) 0.2627(6) 0.6596(3) 0.0836(11) Uani 1 1 d . .
O3 O -0.0929(3) 0.5611(6) 0.7164(3) 0.0903(13) Uani 1 1 d . .
C4 C 0.1122(5) 0.6551(11) 0.6387(4) 0.099(2) Uani 1 1 d . .
H4A H 0.0753 0.6567 0.5529 0.149 Uiso 1 1 calc R U
H4B H 0.1998 0.6107 0.6498 0.149 Uiso 1 1 calc R U
H4C H 0.1076 0.7981 0.6721 0.149 Uiso 1 1 calc R U
C5 C 0.1151(3) 0.4590(8) 0.8657(3) 0.0475(9) Uani 1 1 d . .
C6 C 0.1826(4) 0.2728(7) 0.9044(4) 0.0518(11) Uani 1 1 d . .
H6 H 0.1822 0.1567 0.8507 0.062 Uiso 1 1 calc R U
C7 C 0.2510(4) 0.2586(7) 1.0228(4) 0.0524(11) Uani 1 1 d . .
H7 H 0.2944 0.1306 1.0486 0.063 Uiso 1 1 calc R U
C8 C 0.2566(3) 0.4309(6) 1.1042(3) 0.0412(9) Uani 1 1 d . .
C9 C 0.1866(4) 0.6166(7) 1.0633(3) 0.0513(10) Uani 1 1 d . .
H9 H 0.1875 0.7339 1.1162 0.062 Uiso 1 1 calc R U
C10 C 0.1159(4) 0.6299(7) 0.9458(4) 0.0522(10) Uani 1 1 d . .
H10 H 0.0687 0.7545 0.9206 0.063 Uiso 1 1 calc R U
C11 C 0.3378(3) 0.4091(6) 1.2329(3) 0.0441(10) Uani 1 1 d . .
O12 O 0.3432(2) 0.1835(4) 1.2655(2) 0.0542(7) Uani 1 1 d . .
H12 H 0.2755 0.1470 1.2836 0.081 Uiso 1 1 calc R U
C13 C 0.2802(4) 0.5348(7) 1.3279(3) 0.0600(12) Uani 1 1 d . .
H13A H 0.1943 0.4868 1.3252 0.090 Uiso 1 1 calc R U
H13B H 0.2803 0.6875 1.3101 0.090 Uiso 1 1 calc R U
H13C H 0.3301 0.5087 1.4081 0.090 Uiso 1 1 calc R U
C14 C 0.4805(3) 0.4753(7) 1.2372(3) 0.0441(8) Uani 1 1 d . .
C15 C 0.5571(4) 0.4262(9) 1.3623(4) 0.0628(13) Uani 1 1 d . .
H15 H 0.5427 0.2907 1.3941 0.075 Uiso 1 1 calc R U
C16 C 0.5396(4) 0.3427(7) 1.1454(4) 0.0587(12) Uani 1 1 d . .
H16A H 0.6282 0.3795 1.1542 0.088 Uiso 1 1 calc R U
H16B H 0.4961 0.3754 1.0637 0.088 Uiso 1 1 calc R U
H16C H 0.5316 0.1903 1.1612 0.088 Uiso 1 1 calc R U
C17 C 0.4895(4) 0.7167(7) 1.2055(4) 0.0651(13) Uani 1 1 d . .
H17A H 0.4640 0.8038 1.2681 0.098 Uiso 1 1 calc R U
H17B H 0.4344 0.7461 1.1283 0.098 Uiso 1 1 calc R U
H17C H 0.5758 0.7514 1.2002 0.098 Uiso 1 1 calc R U
C18 C 0.6388(5) 0.5447(11) 1.4305(5) 0.104(2) Uani 1 1 d . .
H18A H 0.6577 0.6822 1.4041 0.124 Uiso 1 1 calc R U
H18B H 0.6797 0.4940 1.5067 0.124 Uiso 1 1 calc R U
loop_
_atom_site_aniso_label
_atom_site_aniso_U_11
_atom_site_aniso_U_22
_atom_site_aniso_U_33
_atom_site_aniso_U_23
_atom_site_aniso_U_13
_atom_site_aniso_U_12
S1 0.0449(5) 0.0691(8) 0.0525(6) -0.0016(7) 0.0009(4) -0.0024(6)
O2 0.095(2) 0.084(3) 0.063(2) -0.022(2) -0.0072(18) 0.000(2)
O3 0.0501(17) 0.120(4) 0.093(2) -0.006(2) -0.0055(15) 0.0223(18)
C4 0.107(4) 0.123(5) 0.062(3) 0.025(3) -0.001(3) -0.033(4)
C5 0.0383(17) 0.053(2) 0.051(2) 0.002(3) 0.0097(15) 0.002(2)
C6 0.052(2) 0.047(3) 0.056(3) -0.013(2) 0.011(2) 0.001(2)
C7 0.056(2) 0.044(3) 0.057(3) 0.004(2) 0.010(2) 0.010(2)
C8 0.0463(19) 0.035(2) 0.045(2) 0.000(2) 0.0146(16) 0.0040(18)
C9 0.063(3) 0.041(2) 0.051(2) -0.004(2) 0.013(2) 0.011(2)
C10 0.058(2) 0.044(3) 0.053(2) 0.001(2) 0.006(2) 0.012(2)
C11 0.053(2) 0.038(3) 0.044(2) 0.0052(18) 0.0148(17) 0.0060(17)
O12 0.0634(17) 0.0399(17) 0.0616(17) 0.0163(14) 0.0179(14) 0.0037(13)
C13 0.069(2) 0.067(3) 0.048(2) 0.000(2) 0.0210(19) 0.012(2)
C14 0.0524(19) 0.036(2) 0.0453(19) 0.000(2) 0.0129(16) 0.000(2)
C15 0.060(2) 0.076(4) 0.051(2) 0.001(3) 0.009(2) -0.001(2)
C16 0.057(2) 0.059(3) 0.063(3) -0.011(2) 0.021(2) 0.000(2)
C17 0.071(3) 0.042(3) 0.084(3) 0.010(2) 0.020(2) -0.005(2)
C18 0.120(4) 0.120(6) 0.062(3) -0.009(3) -0.006(3) -0.018(4)
loop_
_atom_type_symbol
_atom_type_description
_atom_type_scat_dispersion_real
_atom_type_scat_dispersion_imag
_atom_type_scat_source
C C 0.0033 0.0016 'International Tables Vol C Tables 4.2.6.8 and 6.1.1.4'
H H 0.0000 0.0000 'International Tables Vol C Tables 4.2.6.8 and 6.1.1.4'
O O 0.0106 0.0060 'International Tables Vol C Tables 4.2.6.8 and 6.1.1.4'
S S 0.1246 0.1234 'International Tables Vol C Tables 4.2.6.8 and 6.1.1.4'
loop_
_geom_angle_atom_site_label_1
_geom_angle_atom_site_label_2
_geom_angle_atom_site_label_3
_geom_angle
O3 S1 O2 117.2(2)
O3 S1 C4 108.6(3)
O2 S1 C4 108.6(3)
O3 S1 C5 108.19(18)
O2 S1 C5 108.2(2)
C4 S1 C5 105.4(2)
S1 C4 H4A 109.5
S1 C4 H4B 109.5
H4A C4 H4B 109.5
S1 C4 H4C 109.5
H4A C4 H4C 109.5
H4B C4 H4C 109.5
C10 C5 C6 119.7(3)
C10 C5 S1 121.4(3)
C6 C5 S1 118.9(3)
C5 C6 C7 119.9(4)
C5 C6 H6 120.0
C7 C6 H6 120.0
C6 C7 C8 121.6(4)
C6 C7 H7 119.2
C8 C7 H7 119.2
C7 C8 C9 117.4(4)
C7 C8 C11 119.3(3)
C9 C8 C11 123.3(3)
C10 C9 C8 121.2(4)
C10 C9 H9 119.4
C8 C9 H9 119.4
C5 C10 C9 120.1(4)
C5 C10 H10 119.9
C9 C10 H10 119.9
O12 C11 C8 108.1(3)
O12 C11 C13 108.3(3)
C8 C11 C13 111.8(3)
O12 C11 C14 104.6(3)
C8 C11 C14 112.1(3)
C13 C11 C14 111.5(3)
C11 O12 H12 109.5
C11 C13 H13A 109.5
C11 C13 H13B 109.5
H13A C13 H13B 109.5
C11 C13 H13C 109.5
H13A C13 H13C 109.5
H13B C13 H13C 109.5
C15 C14 C17 111.1(4)
C15 C14 C16 106.8(3)
C17 C14 C16 107.9(3)
C15 C14 C11 109.1(3)
C17 C14 C11 110.4(3)
C16 C14 C11 111.4(3)
C18 C15 C14 128.8(5)
C18 C15 H15 115.6
C14 C15 H15 115.6
C14 C16 H16A 109.5
C14 C16 H16B 109.5
H16A C16 H16B 109.5
C14 C16 H16C 109.5
H16A C16 H16C 109.5
H16B C16 H16C 109.5
C14 C17 H17A 109.5
C14 C17 H17B 109.5
H17A C17 H17B 109.5
C14 C17 H17C 109.5
H17A C17 H17C 109.5
H17B C17 H17C 109.5
C15 C18 H18A 120.0
C15 C18 H18B 120.0
H18A C18 H18B 120.0
loop_
_geom_bond_atom_site_label_1
_geom_bond_atom_site_label_2
_geom_bond_distance
S1 O3 1.413(3)
S1 O2 1.427(4)
S1 C4 1.750(5)
S1 C5 1.765(3)
C4 H4A 0.9600
C4 H4B 0.9600
C4 H4C 0.9600
C5 C10 1.376(6)
C5 C6 1.378(6)
C6 C7 1.380(5)
C6 H6 0.9300
C7 C8 1.389(5)
C7 H7 0.9300
C8 C9 1.392(5)
C8 C11 1.530(5)
C9 C10 1.381(5)
C9 H9 0.9300
C10 H10 0.9300
C11 O12 1.432(4)
C11 C13 1.533(5)
C11 C14 1.571(5)
O12 H12 0.8200
C13 H13A 0.9600
C13 H13B 0.9600
C13 H13C 0.9600
C14 C15 1.503(5)
C14 C17 1.533(6)
C14 C16 1.537(5)
C15 C18 1.269(6)
C15 H15 0.9300
C16 H16A 0.9600
C16 H16B 0.9600
C16 H16C 0.9600
C17 H17A 0.9600
C17 H17B 0.9600
C17 H17C 0.9600
C18 H18A 0.9300
C18 H18B 0.9300
loop_
_geom_torsion_atom_site_label_1
_geom_torsion_atom_site_label_2
_geom_torsion_atom_site_label_3
_geom_torsion_atom_site_label_4
_geom_torsion
O3 S1 C5 C10 -44.3(4)
O2 S1 C5 C10 -172.2(3)
C4 S1 C5 C10 71.7(4)
O3 S1 C5 C6 135.4(3)
O2 S1 C5 C6 7.5(4)
C4 S1 C5 C6 -108.6(4)
C10 C5 C6 C7 -0.2(6)
S1 C5 C6 C7 -179.9(3)
C5 C6 C7 C8 -1.8(6)
C6 C7 C8 C9 2.3(6)
C6 C7 C8 C11 -177.8(3)
C7 C8 C9 C10 -0.9(6)
C11 C8 C9 C10 179.2(3)
C6 C5 C10 C9 1.6(6)
S1 C5 C10 C9 -178.7(3)
C8 C9 C10 C5 -1.0(6)
C7 C8 C11 O12 -28.2(4)
C9 C8 C11 O12 151.7(3)
C7 C8 C11 C13 -147.4(4)
C9 C8 C11 C13 32.5(5)
C7 C8 C11 C14 86.5(4)
C9 C8 C11 C14 -93.6(4)
O12 C11 C14 C15 -56.9(4)
C8 C11 C14 C15 -173.7(3)
C13 C11 C14 C15 60.0(5)
O12 C11 C14 C17 -179.2(3)
C8 C11 C14 C17 63.9(4)
C13 C11 C14 C17 -62.3(4)
O12 C11 C14 C16 60.8(4)
C8 C11 C14 C16 -56.0(4)
C13 C11 C14 C16 177.7(3)
C17 C14 C15 C18 -12.3(6)
C16 C14 C15 C18 105.3(6)
C11 C14 C15 C18 -134.2(5)
