#------------------------------------------------------------------------------
#$Date: 2015-09-06 02:25:50 +0300 (Sun, 06 Sep 2015) $
#$Revision: 154660 $
#$URL: svn://www.crystallography.net/cod/cif/4/12/42/4124258.cif $
#------------------------------------------------------------------------------
#
# This file is available in the Crystallography Open Database (COD),
# http://www.crystallography.net/
#
# All data on this site have been placed in the public domain by the
# contributors.
#
data_4124258
loop_
_publ_author_name
'Egami, Hiromichi'
'Asada, Junshi'
'Sato, Kentaro'
'Hashizume, Daisuke'
'Kawato, Yuji'
'Hamashima, Yoshitaka'
_publ_section_title
;
 Asymmetric Fluorolactonization with a Bifunctional Hydroxyl Carboxylate
 Catalyst.
;
_journal_issue                   32
_journal_name_full               'Journal of the American Chemical Society'
_journal_page_first              10132
_journal_page_last               10135
_journal_paper_doi               10.1021/jacs.5b06546
_journal_volume                  137
_journal_year                    2015
_chemical_absolute_configuration ad
_chemical_formula_moiety         'C15 H12 O3'
_chemical_formula_sum            'C15 H12 O3'
_chemical_formula_weight         240.25
_space_group_crystal_system      monoclinic
_space_group_IT_number           4
_space_group_name_Hall           'P 2yb'
_space_group_name_H-M_alt        'P 1 21 1'
_symmetry_space_group_name_Hall  'P 2yb'
_symmetry_space_group_name_H-M   'P 1 21 1'
_atom_sites_solution_hydrogens   difmap
_atom_sites_solution_primary     direct
_atom_sites_solution_secondary   difmap
_audit_creation_method           SHELXL-2014/7
_cell_angle_alpha                90
_cell_angle_beta                 111.4630(11)
_cell_angle_gamma                90
_cell_formula_units_Z            2
_cell_length_a                   8.80640(16)
_cell_length_b                   5.77199(10)
_cell_length_c                   11.9726(2)
_cell_measurement_reflns_used    9636
_cell_measurement_temperature    90
_cell_measurement_theta_max      68.200
_cell_measurement_theta_min      3.965
_cell_volume                     566.371(18)
_computing_cell_refinement       PROCESS-AUTO
_computing_data_collection       PROCESS-AUTO
_computing_data_reduction        PROCESS-AUTO
_computing_molecular_graphics    SV
_computing_publication_material  'SHELXL-2014/7 (Sheldrick, 2014)'
_computing_structure_refinement  'SHELXL-2014/7 (Sheldrick, 2014)'
_computing_structure_solution    SHELXS-97
_diffrn_ambient_temperature      90
_diffrn_detector_area_resol_mean 10
_diffrn_measured_fraction_theta_full 1.000
_diffrn_measured_fraction_theta_max 1.000
_diffrn_measurement_device_type  'Rigaku Raxis-Rapid'
_diffrn_measurement_method       \w-scan
_diffrn_radiation_type           CuK\a
_diffrn_radiation_wavelength     1.54184
_diffrn_reflns_av_R_equivalents  0.0401
_diffrn_reflns_av_unetI/netI     0.0299
_diffrn_reflns_laue_measured_fraction_full 1.000
_diffrn_reflns_laue_measured_fraction_max 1.000
_diffrn_reflns_limit_h_max       10
_diffrn_reflns_limit_h_min       -10
_diffrn_reflns_limit_k_max       6
_diffrn_reflns_limit_k_min       -6
_diffrn_reflns_limit_l_max       14
_diffrn_reflns_limit_l_min       -14
_diffrn_reflns_number            9770
_diffrn_reflns_point_group_measured_fraction_full 0.949
_diffrn_reflns_point_group_measured_fraction_max 0.949
_diffrn_reflns_theta_full        67.684
_diffrn_reflns_theta_max         68.199
_diffrn_reflns_theta_min         3.967
_diffrn_source                   'fine-focus sealed tube'
_exptl_absorpt_coefficient_mu    0.801
_exptl_absorpt_correction_T_max  0.8884
_exptl_absorpt_correction_T_min  0.7779
_exptl_absorpt_correction_type   numerical
_exptl_absorpt_process_details
;
 Numabs
;
_exptl_crystal_colour            colourless
_exptl_crystal_density_diffrn    1.409
_exptl_crystal_description       pillar
_exptl_crystal_F_000             252
_exptl_crystal_size_max          0.473
_exptl_crystal_size_mid          0.191
_exptl_crystal_size_min          0.183
_refine_diff_density_max         0.200
_refine_diff_density_min         -0.123
_refine_diff_density_rms         0.041
_refine_ls_abs_structure_details
;
 Flack x determined using 760 quotients [(I+)-(I-)]/[(I+)+(I-)]
 (Parsons, Flack and Wagner, Acta Cryst. B69 (2013) 249-259).
;
_refine_ls_abs_structure_Flack   -0.02(11)
_refine_ls_extinction_method     none
_refine_ls_goodness_of_fit_ref   1.099
_refine_ls_hydrogen_treatment    mixed
_refine_ls_matrix_type           full
_refine_ls_number_parameters     167
_refine_ls_number_reflns         1960
_refine_ls_number_restraints     1
_refine_ls_restrained_S_all      1.099
_refine_ls_R_factor_all          0.0352
_refine_ls_R_factor_gt           0.0330
_refine_ls_shift/su_max          0.000
_refine_ls_shift/su_mean         0.000
_refine_ls_structure_factor_coef Fsqd
_refine_ls_weighting_details
'w=1/[\s^2^(Fo^2^)+(0.0450P)^2^+0.1261P] where P=(Fo^2^+2Fc^2^)/3'
_refine_ls_weighting_scheme      calc
_refine_ls_wR_factor_gt          0.0783
_refine_ls_wR_factor_ref         0.0875
_reflns_Friedel_coverage         0.712
_reflns_friedel_fraction_full    0.884
_reflns_friedel_fraction_max     0.885
_reflns_number_gt                1905
_reflns_number_total             1960
_reflns_threshold_expression     'I > 2\s(I)'
_cod_data_source_file            ja5b06546_si_003.cif
_cod_data_source_block           S8
_cod_depositor_comments          'Adding full bibliography for 4124258.cif.'
_cod_original_cell_volume        566.370(18)
_cod_database_code               4124258
_shelx_shelxl_version_number     2014/7
_shelx_space_group_comment
;
The symmetry employed for this shelxl refinement is uniquely defined
by the following loop, which should always be used as a source of
symmetry information in preference to the above space-group names.
They are only intended as comments.
;
_shelx_estimated_absorpt_t_min   0.703
_shelx_estimated_absorpt_t_max   0.867
_shelx_res_file
;

    S8.res created by SHELXL-2014/7


TITL hamashima_S8
CELL 1.54184 8.80640 5.77199 11.97260 90 111.4630 90
ZERR 2 0.00016 0.00010 0.00020 0 0.0011 0
LATT -1
SYMM -x, 1/2+y, -z
SFAC C H O
UNIT 30 24 6
L.S. 10
FMAP 2
PLAN 10
TEMP -183
SIZE 0.473 0.191 0.183
BOND $H
CONF
ACTA
EQIV $1 x, y-1, z
HTAB O3 O1_$1
WGHT    0.045000    0.126100
FVAR       3.49471
O1    3    0.520201    0.562272    0.779504    11.00000    0.03029    0.02583 =
         0.03985   -0.00170    0.01981    0.00167
O2    3    0.650934    0.350394    0.686149    11.00000    0.02727    0.02381 =
         0.02644    0.00097    0.01293    0.00494
O3    3    0.480381   -0.073139    0.617976    11.00000    0.02216    0.03152 =
         0.03379   -0.00025    0.01112   -0.00084
H3H   2    0.492749   -0.191608    0.672739    11.00000    0.05707
C1    1    0.604979    0.396233    0.780135    11.00000    0.02123    0.02653 =
         0.02951   -0.00324    0.01221   -0.00341
C2    1    0.675495    0.220668    0.872670    11.00000    0.02245    0.03286 =
         0.02641   -0.00203    0.00883   -0.00569
C3    1    0.663102    0.201509    0.985154    11.00000    0.02984    0.04155 =
         0.02845   -0.00300    0.01436   -0.00392
AFIX  43
H3    2    0.604220    0.312086    1.012079    11.00000   -1.20000
AFIX   0
C4    1    0.739738    0.015606    1.055800    11.00000    0.03241    0.05068 =
         0.02448    0.00392    0.01141   -0.00775
AFIX  43
H4    2    0.735376   -0.002260    1.133448    11.00000   -1.20000
AFIX   0
C5    1    0.823524   -0.146038    1.013598    11.00000    0.02686    0.04460 =
         0.02922    0.01121    0.00749   -0.00247
AFIX  43
H5    2    0.874945   -0.273242    1.063442    11.00000   -1.20000
AFIX   0
C6    1    0.834312   -0.127279    0.901126    11.00000    0.02372    0.03289 =
         0.03086    0.00471    0.00936    0.00080
AFIX  43
H6    2    0.890821   -0.239860    0.873278    11.00000   -1.20000
AFIX   0
C7    1    0.759367    0.062411    0.830556    11.00000    0.02043    0.02861 =
         0.02468   -0.00045    0.00777   -0.00495
C8    1    0.741918    0.130344    0.704031    11.00000    0.02307    0.02111 =
         0.02590    0.00288    0.00956    0.00502
C9    1    0.633325   -0.036456    0.607664    11.00000    0.02365    0.02877 =
         0.02671    0.00043    0.01101    0.00317
AFIX  23
H9A   2    0.615934    0.027709    0.527229    11.00000   -1.20000
H9B   2    0.690105   -0.186924    0.614910    11.00000   -1.20000
AFIX   0
C10   1    0.900850    0.171703    0.683552    11.00000    0.02312    0.02541 =
         0.02149   -0.00209    0.00918    0.00021
C11   1    0.924970    0.371425    0.627197    11.00000    0.02639    0.02444 =
         0.02668    0.00135    0.01101    0.00320
AFIX  43
H11   2    0.842631    0.487192    0.602983    11.00000   -1.20000
AFIX   0
C12   1    1.068939    0.403061    0.605973    11.00000    0.02959    0.02709 =
         0.02754    0.00075    0.01260   -0.00131
AFIX  43
H12   2    1.084622    0.540839    0.568137    11.00000   -1.20000
AFIX   0
C13   1    1.189034    0.235047    0.639680    11.00000    0.02122    0.03786 =
         0.02667   -0.00262    0.01113   -0.00243
AFIX  43
H13   2    1.287443    0.257397    0.625644    11.00000   -1.20000
AFIX   0
C14   1    1.164933    0.033387    0.694185    11.00000    0.02458    0.03212 =
         0.02753   -0.00095    0.00947    0.00493
AFIX  43
H14   2    1.246875   -0.083017    0.716917    11.00000   -1.20000
AFIX   0
C15   1    1.021656    0.000737    0.715702    11.00000    0.02841    0.02366 =
         0.02656    0.00210    0.01107    0.00081
AFIX  43
H15   2    1.005755   -0.138364    0.752416    11.00000   -1.20000
AFIX   0
HKLF 4

REM  hamashima_S8
REM R1 =  0.0330 for    1905 Fo > 4sig(Fo)  and  0.0352 for all    1960 data
REM    167 parameters refined using      1 restraints

END

WGHT      0.0450      0.1261

REM Highest difference peak  0.200,  deepest hole -0.123,  1-sigma level  0.041
Q1    1   0.7695  0.0914  0.7718  11.00000  0.05    0.20
Q2    1   0.6392  0.1725  0.9020  11.00000  0.05    0.16
Q3    1   0.6975  0.0504  0.6571  11.00000  0.05    0.16
Q4    1   0.8210  0.1382  0.6968  11.00000  0.05    0.16
Q5    1   0.6606  0.2264  0.7604  11.00000  0.05    0.16
Q6    1   0.5099  0.5501  0.6984  11.00000  0.05    0.15
Q7    1   0.8726 -0.0822  0.9821  11.00000  0.05    0.15
Q8    1   0.9509  0.2987  0.7007  11.00000  0.05    0.15
Q9    1   1.2255  0.1894  0.7170  11.00000  0.05    0.15
Q10   1   0.7307 -0.0836  1.0034  11.00000  0.05    0.15
;
_shelx_res_checksum              38788
_shelx_hkl_file
;
   0   0  -1  567.41   20.11
   0   0   1  570.21   16.56
   0   0  -1  637.30   15.69
   0   0  -1  520.07   18.70
   0   0   1  537.72   13.27
   0   0  -1  607.09   21.43
   0   0   1  609.45   15.73
   0   0   1  585.73   22.31
   0   0   1  571.07   20.08
   0   0   1  506.71   14.39
   0   0   1  559.48   15.49
   0   0  -1  604.78   22.14
   0   0  -1  612.38   17.74
   0   0  -1  599.89   13.51
   0   0  -1  550.94   15.81
   0   0   1  554.15   15.79
   1   0   0  367.60   12.89
  -1   0   0  353.32   13.21
   1   0   0  373.20   13.70
   1   0   0  369.58   20.54
  -1   0   0  335.37   12.80
  -1   0   0  394.20   18.91
   1   0   0  356.90   10.73
  -1   0   0  376.81   16.51
  -1   0   0  385.08   14.32
  -1   0   0  394.68   22.19
   1   0   0  340.11   13.78
  -1   0   0  345.91   12.33
   1   0   0  333.34   10.45
   1   0   0  345.23   16.27
   1   0  -113565.70  633.32
   1   0  -113602.79  651.79
  -1   0   113207.18  610.38
  -1   0   112896.77  609.33
  -1   0   112688.17  591.59
  -1   0   113551.32  648.35
  -1   0   113805.74  644.23
  -1   0   114241.72  677.77
   1   0  -114071.76  658.94
   1   0  -113457.69  625.98
   1   0  -113957.42  667.53
   1   0  -113188.45  618.48
  -1   0   113304.12  617.10
   1   0  -113283.24  611.89
   0  -1   0    9.04    6.35
   0  -1   0   16.00    4.35
   0  -1   0    8.15    3.90
   0   1   0    8.35    4.18
   0  -1   0    8.52    7.75
   0  -1   0   11.42    3.39
   0  -1   0   12.14    3.23
   0   1   0    7.85    4.05
  -1   0  -126959.40 1580.27
   1   0   128377.57 1637.84
   1   0   126523.69 1571.26
   1   0   127622.32 1633.96
   1   0   126067.69 1543.16
   1   0   126517.21 1501.91
   1   0   125149.66 1454.50
   1   0   124926.80 1439.11
  -1   0  -125983.18 1503.40
  -1   0  -124275.61 1399.32
  -1   0  -127017.92 1571.84
  -1   0  -128027.18 1625.05
  -1   0  -126961.17 1561.50
   1   0   127974.40 1609.28
  -1   0   2 3694.96  139.18
  -1   0   2 4064.13  170.59
  -1   0   2 4181.45  176.32
  -1   0   2 4095.20  155.97
   1   0  -2 4206.44  175.33
   1   0  -2 4685.83  177.12
   1   0  -2 4292.09  163.11
   1   0  -2 3986.41  142.89
   1   0  -2 4196.47  158.04
   1   0  -2 4178.02  156.53
   1   0  -2 3990.13  150.86
  -1   0   2 4227.80  148.39
   0   0   216044.97  824.10
   0   0   216111.83  849.65
   0   0   215867.90  804.20
   0   0  -217187.05  859.64
   0   0   217037.08  844.48
   0   0  -216371.60  804.40
   0   0  -215151.44  756.73
   0   0   216646.79  865.79
   0   0  -214831.22  744.13
   0   0  -215726.97  789.34
   0   0  -214902.65  747.47
   0   0  -216407.03  825.02
   0  -1   128112.11 1701.12
   0  -1   128916.58 1685.57
   0  -1  -129359.63 1712.98
   0  -1  -127458.10 1666.10
   0  -1  -129682.21 1709.78
   0  -1   130467.27 1802.24
   0   1  -129842.54 1811.46
   0  -1  -129208.73 1710.43
   0  -1  -127424.50 1622.86
   0  -1  -129779.95 1716.71
   0  -1  -130123.65 1799.21
   0  -1  -128910.03 1745.42
   0  -1   130137.42 1778.70
   0  -1   128721.78 1687.87
   0   1  -127792.70 1678.35
   0   1   128588.68 1709.15
   0  -1   129812.85 1773.27
   0  -1   128090.56 1656.80
   0   1   128698.98 1735.92
   0   1   128213.96 1703.25
   0  -1   127560.52 1633.94
  -1  -1   014675.16  728.99
  -1  -1   014137.49  657.05
  -1  -1   013954.36  716.89
  -1  -1   014890.30  707.18
  -1  -1   014849.33  746.13
   1   1   014063.12  693.03
  -1  -1   014358.98  713.71
  -1  -1   014795.15  728.74
  -1   1   015204.83  778.48
   1   1   013876.37  696.68
   1  -1   013960.52  671.97
  -1   1   014518.83  722.65
   1  -1   013960.25  682.94
   1  -1   014559.54  716.31
   1  -1   014554.82  717.27
   1  -1   014256.27  681.83
   1   1   014558.07  744.86
   1  -1   014361.30  721.38
   1  -1   014255.00  687.88
   1  -1  -1  670.37   18.04
   1  -1  -1  715.31   29.91
  -1   1   1  721.17   29.21
   1  -1  -1  701.05   31.46
   1  -1  -1  759.55   19.60
  -1  -1   1  756.76   43.52
  -1  -1   1  708.69   28.73
  -1  -1   1  757.41   35.05
   1   1  -1  777.56   31.21
   1   1  -1  737.47   29.07
   1   1  -1  764.27   42.90
  -1  -1   1  717.62   21.83
  -1  -1   1  737.73   43.04
  -1  -1   1  723.44   27.87
  -1  -1   1  734.69   28.46
  -1  -1   1  792.47   29.32
  -1  -1   1  741.24   18.32
   1  -1  -1  724.50   40.70
   1  -1  -1  719.47   27.16
   1  -1  -1  688.53   20.71
   1  -1  -1  703.24   41.29
   1  -1  -1  713.91   18.84
  -1   1   1  730.14   42.32
   2   0  -175589.48 6016.80
   2   0  -175382.98 5916.56
   2   0  -171674.54 5625.95
   2   0  -174845.21 5964.70
  -2   0   176739.80 6095.95
  -2   0   172837.79 5788.36
  -2   0   172842.39 5763.96
  -2   0   175103.45 5891.16
  -2   0   173200.00 5804.19
   2   0  -176417.80 6095.84
   2   0  -175334.09 6041.09
  -2   0   170567.65 5581.95
  -2   0   0 2456.31  113.34
   2   0   0 2297.50   86.52
   2   0   0 2332.17   90.48
  -2   0   0 2375.97   82.78
   2   0   0 2252.20   86.32
  -2   0   0 2480.82   98.71
  -2   0   0 2264.52  104.78
   2   0   0 2387.31   88.96
   2   0   0 2352.06   76.70
  -2   0   0 2148.83   97.53
  -2   0   0 2153.53   81.85
  -2   0   0 2366.06   88.37
  -2   0   2  168.79   22.47
  -2   0   2  153.28   20.92
  -2   0   2  170.98   14.87
  -2   0   2  171.57   13.72
  -2   0   2  178.46   15.56
  -2   0   2  182.01   12.22
  -2   0   2  175.55   14.05
   2   0  -2  173.36   12.33
   2   0  -2  178.64   21.14
   2   0  -2  163.61   10.74
   2   0  -2  165.13   12.91
   2   0  -2  160.92   13.69
   2   0  -2  154.98   16.93
  -1  -1  -128346.04 1688.91
  -1  -1  -128113.78 1704.32
  -1  -1  -126698.56 1619.03
  -1  -1  -129236.60 1705.21
  -1  -1  -127483.68 1633.70
   1   1   126478.24 1586.93
   1  -1   127084.63 1607.55
   1  -1   126602.45 1575.49
   1  -1   128640.33 1710.48
   1  -1   128975.29 1744.64
   1  -1   126995.45 1566.63
   1  -1   127550.81 1662.23
  -1   1  -127967.43 1673.46
   1  -1   127417.55 1577.89
  -1   1  -127665.83 1653.14
  -1   1  -128421.50 1700.56
   1   1   126988.72 1628.46
  -1  -1  -127198.27 1650.27
   1   1   127552.37 1633.85
  -1  -1   2 1859.55   64.87
  -1  -1   2 1855.16   85.21
   1  -1  -2 1782.89   62.55
   1  -1  -2 1966.98   88.49
   1  -1  -2 1817.21   55.57
   1  -1  -2 1745.26   56.75
   1  -1  -2 1808.44   65.74
   1  -1  -2 1926.48   60.77
  -1   1   2 1818.67   68.93
  -1   1   2 1939.69   89.26
   1  -1  -2 1837.56   67.74
   1   1  -2 1902.34   69.20
  -1  -1   2 1900.16   69.62
  -1  -1   2 1966.38   87.82
   1   1  -2 1920.86   88.24
  -1  -1   2 1994.24   58.10
   1   1  -2 1998.58   74.29
  -1  -1   2 1874.84   83.04
  -1  -1   2 1937.96   73.74
   0   1  -210712.49  501.38
   0  -1  -211180.55  524.49
   0   1   2 9742.14  457.81
   0  -1   210750.06  505.98
   0  -1   211029.51  500.16
   0  -1   210878.93  501.08
   0   1   210855.45  505.67
   0  -1  -211480.63  554.36
   0  -1  -211146.78  524.15
   0   1  -211035.02  525.14
   0   1  -211322.24  532.63
   0  -1  -211004.96  518.82
   0  -1  -211363.99  486.73
   0  -1  -210662.99  515.48
   0  -1   210910.60  510.16
   0  -1  -210916.00  468.27
   0  -1  -210661.09  501.16
   0  -1   210715.24  495.53
   0  -1   211443.24  541.96
   0  -1   211140.61  478.91
   0  -1   210129.90  503.30
   0   1   210468.21  490.61
   1   0   2  329.38   21.21
   1   0   2  335.50   21.90
   1   0   2  298.11   15.76
   1   0   2  318.59   25.82
   1   0   2  323.69   33.12
  -1   0  -2  318.79   25.49
  -1   0  -2  278.74   18.33
  -1   0  -2  332.04   20.52
   1   0   2  330.18   23.01
  -1   0  -2  353.06   29.82
  -1   0  -2  320.40   24.68
  -1   0  -2  315.16   34.60
  -1   0  -2  326.80   16.59
   1   0   2  360.35   23.70
  -1   0   3 1864.93   57.99
  -1   0   3 1751.72   69.50
  -1   0   3 1860.72   73.41
  -1   0   3 1779.44   85.60
  -1   0   3 1708.88   74.24
   1   0  -3 1887.90   72.42
   1   0  -3 1786.67   63.31
   1   0  -3 1902.98   62.69
   1   0  -3 1745.43   67.86
   1   0  -3 1859.17   71.71
  -1   0   3 1746.45   74.73
   1   0  -3 1786.18   67.99
   1   0  -3 1876.85   72.86
   0   0  -354828.97 4035.13
   0   0  -354570.08 3960.78
   0   0  -352753.71 3821.19
   0   0  -351010.87 3736.58
   0   0   353677.24 3961.12
   0   0   353617.12 3908.55
   0   0   355898.37 4061.70
   0   0   352721.28 3744.60
   0   0   350130.80 3648.04
   0   0  -356429.66 4104.40
   0   0   356826.78 4107.46
   0   0  -353183.29 3892.69
   0   0  -354578.17 4012.41
   0   0  -356657.68 4088.11
   2  -1  -1 9113.80  409.75
   2  -1  -1 8740.11  367.93
  -2   1   1 9245.07  440.39
   2  -1  -1 8771.29  418.80
   2  -1  -1 9110.81  409.15
   2  -1  -1 8839.31  388.90
   2  -1  -1 9261.26  384.74
   2  -1  -1 9178.75  409.30
  -2   1   1 9274.87  419.91
  -2  -1   1 8617.26  385.91
   2   1  -1 9198.01  433.03
   2   1  -1 8615.30  395.61
  -2  -1   1 9146.96  414.95
  -2  -1   1 9216.94  417.03
  -2  -1   1 8696.98  374.48
  -2  -1   1 8880.72  421.87
   2   1  -1 8745.28  390.91
   2   1  -1 8924.88  402.15
   2   1  -1 8868.10  411.42
  -2  -1   1 8933.39  380.02
  -2  -1   1 8891.28  404.40
  -2   1   1 9329.73  445.38
   2   0   1  101.09   22.30
  -2   0  -1   97.94   12.62
   2   0   1   98.88   12.09
   2   0   1  145.33   21.16
   2   0   1  167.75   22.97
  -2   0  -1   96.15   10.84
   2   0   1  130.72   12.11
   2   0   1  110.72    8.16
  -2   0  -1  102.00   11.44
  -2   0  -1  120.04   13.25
   2   0   1  116.07    9.45
  -2   0  -1  106.10   13.21
  -2   0  -1   96.61   13.95
   2   0  -3   13.23    7.44
  -2   0   3   11.13    3.41
   2   0  -3   23.93   10.04
   2   0  -3   13.68   10.76
   2   0  -3   10.96    3.11
  -2   0   3   10.12   11.57
   2   0  -3   16.58    5.99
  -2   0   3   11.13    7.08
  -2   0   3   16.95    6.92
  -2   0   3   11.68    5.82
  -2   0   3   16.44    8.17
  -2   0   3   10.60    6.20
   2  -1   022355.81 1204.50
   2  -1   021283.92 1210.36
   2  -1   020222.22 1121.65
   2  -1   022134.00 1226.45
   2  -1   020660.68 1149.48
   2  -1   021477.27 1189.66
   2   1   021056.50 1208.33
  -2  -1   020947.67 1180.20
  -2  -1   020895.88 1187.98
  -2  -1   021864.49 1217.10
  -2  -1   021006.91 1158.36
  -2  -1   019883.08 1100.58
   2   1   021306.85 1172.37
  -2  -1   019051.40 1004.83
  -2   1   021378.75 1188.76
   2   1   019644.82 1143.26
   2   1   019751.89 1096.66
  -2  -1   021735.73 1139.86
  -2  -1   022151.89 1204.71
  -2   1   021328.70 1185.32
  -2   1   2 1699.88   65.35
   2  -1  -2 1697.36   64.27
   2  -1  -2 1694.28   52.07
   2  -1  -2 1680.41   62.22
   2  -1  -2 1759.23   65.34
  -2  -1   2 1697.07   71.45
   2  -1  -2 1639.96   77.90
   2   1  -2 1643.59   59.88
  -2  -1   2 1700.60   64.91
   2   1  -2 1774.99   68.34
  -2  -1   2 1585.82   60.96
  -2  -1   2 1551.62   57.15
  -2  -1   2 1736.15   59.41
  -2  -1   2 1702.52   65.69
  -2  -1   2 1649.86   71.73
   2   1  -2 1718.60   80.32
   2   1  -2 1645.67   63.32
  -2   1   2 1690.38   63.12
  -2   1   2 1725.62   64.68
   2  -1  -2 1653.62   60.52
  -1   1  -256044.67 4154.91
   1  -1   260492.98 4391.80
   1  -1   258247.84 4318.81
  -1   1  -257291.90 4194.96
   1  -1   254862.94 4082.08
   1  -1   256071.19 4165.27
  -1  -1  -259337.11 4260.51
  -1  -1  -259619.07 4293.32
  -1  -1  -255378.18 4075.30
  -1  -1  -246107.10 3271.54
   1  -1   259625.91 4430.19
  -1  -1  -256060.13 4113.06
  -1  -1  -252261.52 3820.12
  -1  -1  -256342.69 4112.82
  -1  -1  -258749.37 4301.54
   1   1   257745.61 4277.65
   1   1   257704.11 4308.78
   1   1   256138.08 4173.70
   1   1   255232.31 4173.28
   1  -1   258471.05 4372.43
   1   1  -324695.33 1444.04
   1  -1  -325525.33 1524.05
   1  -1  -325999.89 1505.23
   1   1  -324009.94 1424.46
  -1  -1   325085.90 1454.51
  -1  -1   325284.22 1467.30
  -1   1   324228.89 1423.37
  -1  -1   323674.16 1397.95
   1  -1  -325141.73 1458.65
  -1  -1   324612.15 1477.57
   1  -1  -325101.26 1457.42
   1  -1  -325536.44 1516.32
  -1  -1   323450.78 1329.40
  -1   1   324361.24 1415.58
  -1   1   326311.84 1512.77
  -1  -1   325181.23 1456.67
  -1   1   323950.65 1428.44
   1  -1  -324822.83 1451.33
   1   1  -326765.66 1601.19
   1   1  -325957.31 1550.70
   1  -1  -326612.20 1557.70
  -1  -1   325125.28 1461.88
  -1   1   325005.33 1440.95
   0   1   3  123.14   10.98
   0   1   3  121.60   20.88
   0  -1  -3  147.85   13.38
   0  -1  -3  134.28   18.88
   0  -1  -3  157.58   18.87
   0  -1  -3  113.60   16.89
   0  -1  -3  143.53    3.75
   0  -1  -3  149.43   21.92
   0   1  -3  148.25   21.17
   0  -1   3  143.27   17.74
   0  -1   3  145.12   12.59
   0   1   3  118.03   10.81
   0   1   3  146.82   22.01
   0  -1   3  126.24   10.17
   0  -1   3  152.86   20.55
   0   1  -3  143.72   22.65
   0   1  -3  153.93   24.79
   0  -1   3  131.26   20.27
   0  -1   3  145.89   13.67
   0  -1  -3  145.35   14.43
   0  -1  -3  153.66    5.45
   0  -1  -3  158.45   12.98
  -1   0  -3 6219.73  267.35
   1   0   3 6331.81  276.43
  -1   0  -3 6193.17  257.20
   1   0   3 6184.30  267.40
   1   0   3 6073.18  245.66
   1   0   3 6160.64  245.54
  -1   0  -3 5857.21  265.49
  -1   0  -3 6588.02  268.26
  -1   0  -3 6147.12  266.06
  -1   0  -3 5801.09  265.42
  -1   0  -3 6361.77  280.11
   1   0   3 6522.99  277.98
  -1   0  -3 5992.86  257.79
  -1   0  -3 6165.95  263.71
   1   0   3 5859.50  255.63
   1   0   3 6012.93  250.23
   1   0  -4 2728.54  126.55
  -1   0   4 2786.94  124.10
   1   0  -4 2550.94   99.01
  -1   0   4 2658.12   91.58
  -1   0   4 2564.33   95.13
  -1   0   4 2621.84  121.28
  -1   0   4 2664.34  106.02
   1   0  -4 2790.82   95.49
   1   0  -4 2722.21  100.50
   1   0  -4 2791.71  109.81
   1   0  -4 2729.84  123.28
  -1   0   4 2533.85  115.48
   1   0  -4 2810.05  109.19
   2   1   121650.97 1204.83
   2  -1   122328.69 1285.66
   2   1   122484.03 1250.53
   2   1   122711.44 1289.12
  -2  -1  -120863.15 1195.40
  -2  -1  -120930.86 1098.99
   2   1   120865.47 1168.62
   2   1   120848.46 1192.15
  -2   1  -122347.83 1295.50
  -2   1  -122314.44 1298.97
   2  -1   121013.77 1214.84
   2   1   121566.34 1212.32
   2  -1   120984.02 1152.30
   2  -1   122419.06 1266.80
   2  -1   121666.06 1224.60
   2  -1   121200.54 1221.44
  -2  -1  -121901.43 1254.50
  -2  -1  -122254.80 1268.72
  -2  -1  -122135.95 1254.00
  -2  -1  -120560.54 1158.41
  -2  -1  -122545.21 1262.07
  -2   1  -121502.64 1248.60
  -2  -1  -122857.19 1271.72
  -2  -1   3 7239.57  326.69
  -2  -1   3 7048.93  330.08
  -2  -1   3 7321.34  323.33
  -2  -1   3 7516.89  342.09
  -2  -1   3 7372.02  322.61
   2   1  -3 7414.45  338.79
   2   1  -3 7883.86  370.51
   2   1  -3 7536.11  332.89
   2   1  -3 7799.90  367.12
  -2  -1   3 7038.14  311.09
  -2  -1   3 7626.37  329.97
   2  -1  -3 7234.84  286.67
   2  -1  -3 7543.06  327.00
  -2   1   3 7427.90  324.16
   2  -1  -3 7551.05  331.35
   2  -1  -3 7727.04  309.77
   2  -1  -3 7664.27  353.58
   2  -1  -3 7538.94  315.33
  -2   1   3 7102.64  330.29
  -2   1   3 7407.98  324.60
   3   0  -1 1438.17   61.64
  -3   0   1 1547.52   65.13
  -3   0   1 1608.88   80.45
  -3   0   1 1466.11   69.83
   3   0  -1 1523.12   57.01
   3   0  -1 1485.15   58.45
   3   0  -1 1480.55   54.06
   3   0  -1 1535.29   61.43
  -3   0   1 1478.28   72.97
  -3   0   1 1537.24   54.64
  -3   0   1 1406.28   55.67
   3   0  -1 1408.88   48.14
   3   0  -1 1473.40   48.81
  -3   0   1 1625.41   68.84
  -3   0   2   67.89   16.03
   3   0  -2   70.80    5.99
  -3   0   2   71.48    5.95
   3   0  -2   78.89    9.07
   3   0  -2   78.22   10.42
  -3   0   2   75.29    9.60
  -3   0   2   63.22   11.06
  -3   0   2   69.76    8.30
   3   0  -2   84.66   10.10
   3   0  -2   67.69    9.13
   3   0  -2   79.99   10.74
  -3   0   2   83.48   11.71
   0  -2   013143.49  645.71
   0  -2   013107.69  639.74
   0  -2   012424.09  619.36
   0  -2   012564.36  589.78
   0  -2   013431.12  647.82
   0  -2   012650.16  605.84
   0  -2   013124.20  668.08
   2   0   211065.33  525.14
   2   0   210846.59  523.93
   2   0   210864.54  505.66
   2   0   211541.90  541.27
  -2   0  -211028.73  521.18
   2   0   210430.75  478.82
  -2   0  -211511.05  555.99
  -2   0  -210423.98  501.89
   2   0   210526.85  534.52
  -2   0  -210856.49  520.19
  -2   0  -211362.99  560.86
   2   0   210943.71  551.97
  -2   0  -210778.41  531.79
   2   0   211122.96  526.10
   2   0  -4    9.04    5.34
   2   0  -4    6.08    9.88
  -2   0   4    0.78    5.80
   2   0  -4    7.36    5.84
  -2   0   4   14.79    5.72
  -2   0   4    9.19    6.21
   2   0  -4    6.92    5.71
   2   0  -4    8.21    3.25
  -2   0   4   11.05    9.60
  -2   0   4   10.13   11.22
  -2   0   4    9.21    3.13
  -2   0   4    4.65    3.10
  -2   0   4    3.26   10.91
   0  -2   1 4405.58  193.32
   0  -2   1 4293.99  182.40
   0  -2  -1 4517.28  170.36
   0  -2   1 4517.97  188.31
   0  -2   1 4142.73  145.17
   0  -2  -1 4321.10  197.75
   0  -2  -1 4385.04  196.63
   0  -2  -1 4611.46  193.05
   0  -2  -1 4519.13  190.39
   0  -2  -1 4389.78  161.30
   0  -2   1 4600.95  170.05
   0  -2   1 4858.86  183.25
   0  -2  -1 4264.04  162.32
   0  -2   1 4602.00  181.79
   0  -2   1 4639.10  200.42
   0   0   4 5585.74  232.17
   0   0   4 5216.60  198.65
   0   0  -4 5389.93  224.47
   0   0  -4 5664.52  221.18
   0   0  -4 5255.52  225.20
   0   0  -4 4903.71  222.72
   0   0   4 4939.51  211.51
   0   0  -4 5154.21  214.80
   0   0  -4 5393.10  222.19
   0   0  -4 5186.32  220.41
   0   0   4 5080.04  238.90
   0   0   4 4817.08  224.13
   0   0  -4 5260.48  223.55
   3   0   0  440.13   31.43
   3   0   0  422.10   15.29
  -3   0   0  390.31   20.70
   3   0   0  439.29   25.43
  -3   0   0  402.13   17.04
   3   0   0  400.24   35.46
   3   0   0  454.78   27.99
   3   0   0  402.97   10.99
  -3   0   0  540.96   26.73
   3   0   0  420.53   20.99
   3   0   0  434.20   35.22
  -3   0   0  441.33   24.48
  -3   0   0  420.91   34.42
  -3   0   0  521.09   23.66
   3   0  -3   19.74   11.12
   3   0  -3   21.20    4.05
   3   0  -3   21.64    5.37
  -3   0   3   17.96    6.42
  -3   0   3   17.42    5.78
  -3   0   3   20.46    7.69
  -3   0   3   19.25   13.10
  -3   0   3   17.25    9.97
  -3   0   3   19.58   13.37
  -3   0   3   16.15    6.61
   3   0  -3   23.88    6.56
  -3   0   3   21.37    6.77
   3   0  -3   17.79    4.76
   3   0  -3   20.41    9.71
   1  -2   0  441.59   19.53
   1  -2   0  462.72   21.62
   1   2   0  458.11   36.10
   1  -2   0  442.67   17.70
  -1  -2   0  449.62   19.94
  -1  -2   0  409.00   15.02
  -1  -2   0  422.05   20.86
   1  -2   0  443.06   13.14
   1  -2   0  448.79   16.71
  -1  -2   0  401.18   13.69
  -1  -2   0  440.59   22.95
  -1  -2   0  427.23   17.60
   1  -2   0  484.30   31.88
   1  -2   0  486.67   22.63
  -1  -2   0  391.81   33.62
   1  -2  -1 2509.78   93.43
  -1  -2   1 2572.78  113.11
   1  -2  -1 2688.50   99.78
   1   2  -1 2770.08  108.19
   1   2  -1 2634.16  101.54
   1  -2  -1 2734.65  112.27
  -1  -2   1 2626.61  114.70
   1  -2  -1 2767.97  119.39
  -1  -2   1 2698.92   95.72
   1  -2  -1 2698.82   98.43
  -1  -2   1 2690.70  101.25
  -1  -2   1 2498.54   86.09
  -1  -2   1 2643.19  102.60
  -1  -2   1 2642.73   98.54
   1  -2  -1 2618.60  121.05
   1  -1   330509.55 1795.47
  -1   1  -329245.40 1802.82
  -1  -1  -330469.06 1827.11
  -1  -1  -327146.87 1626.53
  -1  -1  -329767.91 1780.11
   1  -1   328994.41 1813.23
  -1  -1  -330337.16 1883.94
   1  -1   329084.06 1815.95
   1   1   328613.09 1783.05
   1   1   329587.41 1814.43
   1   1   329064.26 1816.08
   1  -1   329338.32 1790.26
   1  -1   328299.86 1746.87
  -1  -1  -328381.19 1755.98
  -1   1  -329014.33 1834.46
   1   1   328433.35 1771.00
   1  -1   329104.97 1796.36
  -1  -1  -329621.85 1825.82
   1   1   328424.85 1768.07
   1  -1   328839.28 1694.71
  -1  -1  -327683.10 1719.20
  -1  -1  -329304.68 1795.82
  -1   1  -330276.18 1851.45
  -1  -1   4 6861.51  298.63
  -1   1   4 7262.92  316.04
  -1   1   4 7165.06  307.85
   1  -1  -4 6763.56  291.42
  -1   1   4 6300.83  294.82
   1  -1  -4 6827.47  301.15
  -1  -1   4 6934.41  309.29
  -1   1   4 6408.05  284.20
  -1   1   4 6519.42  276.53
   1  -1  -4 6918.58  327.14
  -1  -1   4 6799.98  289.63
  -1  -1   4 6509.93  285.91
  -1  -1   4 6803.60  281.67
  -1  -1   4 6814.56  294.02
   1  -1  -4 6461.24  299.04
  -1  -1   4 6582.36  307.44
   1   1  -4 7234.19  333.74
   1   1  -4 6992.46  338.16
   1  -1  -4 6719.48  293.04
   1  -1  -4 7347.37  331.40
   1  -1  -4 7257.94  305.66
   1   1  -4 7071.69  307.59
   1  -1  -4 6903.45  324.14
  -3  -1   1 9131.66  414.31
  -3  -1   1 9015.41  411.21
   3  -1  -1 8941.85  426.67
  -3  -1   1 8844.50  383.23
  -3  -1   1 8829.97  410.01
  -3   1   1 9064.21  418.17
  -3   1   1 9479.09  441.20
   3  -1  -1 9033.69  388.37
   3   1  -1 6952.32  341.73
  -3   1   1 9294.51  430.30
  -3  -1   1 8998.31  417.11
   3   1  -1 8780.79  408.48
  -3  -1   1 8486.25  403.50
   3  -1  -1 8768.67  421.80
  -3  -1   1 8674.11  373.35
   3  -1  -1 9388.84  427.22
  -3  -1   1 8376.69  374.34
   3  -1  -1 9516.02  436.09
   3   1  -1 8982.38  401.09
   3   1  -1 8590.25  399.11
  -3   1   1 9520.25  435.90
   3   1  -1 9525.85  463.39
   3   1  -1 8730.87  409.13
   3  -1  -2 1898.16   72.25
   3  -1  -2 1783.02   70.51
   3  -1  -2 1819.12   60.10
   3  -1  -2 1815.68   59.31
  -3  -1   2 1752.88   64.42
  -3  -1   2 1821.58   66.40
  -3  -1   2 1796.26   72.28
  -3  -1   2 1715.06   63.22
  -3  -1   2 1770.58   71.62
   3  -1  -2 1930.42   93.16
  -3  -1   2 1705.82   59.13
  -3   1   2 1853.34   74.09
  -3   1   2 1944.18   70.50
  -3   1   2 1879.34   74.17
  -3  -1   2 1616.60   78.11
  -3   1   2 1893.13   85.42
   3  -1  -2 1890.55   73.22
   3   1  -2 1783.55   73.40
   3   1  -2 1847.32   93.40
   3   1  -2 1809.31   81.39
   3   1  -2 1978.11   95.79
   3   1  -2 1755.64   63.27
   3  -1  -2 1680.60   57.16
   1  -2   1 3017.20  119.44
  -1  -2  -1 2846.65  107.04
   1  -2   1 3073.56  117.87
  -1  -2  -1 3104.58  122.04
   1  -2   1 3062.19  119.51
   1  -2   1 3082.07  116.95
   1   2   1 2914.93  117.11
   1  -2   1 2943.08  109.58
   1  -2   1 2882.53  111.65
   1   2   1 2778.18  115.19
   1  -2   1 2981.25  108.56
  -1  -2  -1 3034.70  113.18
  -1  -2  -1 2932.14  105.36
  -1  -2  -1 2947.57  114.28
  -1  -2  -1 2931.53  139.04
   1  -2  -2  937.31   28.39
   1  -2  -2 1039.06   44.46
   1  -2  -2 1008.40   35.47
  -1  -2   2  961.24   31.10
   1  -2  -2 1028.54   39.72
  -1  -2   2  968.67   33.72
  -1  -2   2  988.12   46.67
  -1  -2   2  951.61   40.46
   1  -2  -2  921.60   24.57
   1  -2  -2  990.64   40.05
   1   2  -2  985.07   40.44
  -1  -2   2 1034.31   31.97
  -1  -2   2  977.18   53.46
   1  -2  -2 1006.99   38.92
   1  -2  -2  927.88   27.24
  -1  -2   2 1037.68   42.70
  -1  -2   2 1010.01   44.53
  -1  -2   2 1010.41   40.54
  -1   2   2  960.57   55.69
   0   2   2 4563.44  193.73
   0  -2   2 4963.67  201.97
   0  -2   2 4458.59  175.25
   0  -2   2 4814.87  188.12
   0  -2  -2 4828.84  213.52
   0  -2   2 4721.51  189.32
   0  -2   2 4647.67  193.37
   0  -2  -2 4635.13  184.13
   0  -2  -2 4539.47  183.80
   0  -2  -2 4812.15  202.42
   0  -2  -2 4628.58  168.12
   0  -2   2 4698.12  185.98
   0  -2  -2 4544.85  188.22
   0   2   2 5029.22  207.88
   0  -2   2 4805.61  213.94
   0  -2   2 4877.34  197.00
   2   1   2 2575.51  105.03
   2   1   2 2523.62  104.44
   2   1   2 2630.32  126.79
   2   1   2 2560.95  116.38
   2  -1   2 2477.45   99.68
  -2  -1  -2 2510.86  106.85
  -2  -1  -2 2202.81   69.60
  -2  -1  -2 2523.46   93.81
  -2  -1  -2 2267.33   88.46
  -2   1  -2 2535.48  100.13
  -2   1  -2 2659.52  107.27
  -2   1  -2 2312.27   94.58
  -2   1  -2 2446.50   96.52
  -2  -1  -2 2365.95   97.80
  -2  -1  -2 2618.72  105.71
  -2  -1  -2 2452.26  103.17
  -2  -1  -2 2433.97   97.56
  -2   1  -2 2446.01  101.18
   2   1   2 2478.13   95.58
   2  -1   2 2573.13  121.57
   2  -1   2 2354.19   94.47
   2  -1   2 2477.02   98.33
   2  -1   2 2554.55   91.10
   2   1   2 2416.15  114.55
  -2  -1   4 2206.44   86.43
  -2  -1   4 2111.94   83.55
   2  -1  -4 2108.43   69.26
  -2  -1   4 2264.60  104.84
  -2  -1   4 2144.75   81.20
  -2  -1   4 2078.51   81.86
  -2   1   4 2183.19  100.43
   2  -1  -4 2197.55   83.96
   2  -1  -4 2301.26   89.04
   2  -1  -4 2245.44   78.40
   2  -1  -4 2144.45   76.96
   2  -1  -4 2188.51   84.81
  -2   1   4 2042.58   85.97
  -2   1   4 2128.57   96.59
  -2  -1   4 2046.22  101.08
  -2  -1   4 1794.64   58.60
  -2   1   4 2347.09   91.65
  -2   1   4 2133.72   92.57
   2   1  -4 2020.98   84.33
   2   1  -4 2235.40   91.27
   2   1  -4 2070.46   79.65
   2   1  -4 2243.96  103.17
  -2  -1   4 1991.46   75.67
  -2  -1   4 1810.31   57.53
   0  -1   4 7017.71  313.14
   0   1  -4 7159.05  318.99
   0   1   4 6707.61  318.22
   0  -1   4 7100.38  311.74
   0  -1   4 6884.84  308.61
   0   1  -4 7004.70  346.68
   0  -1  -4 7152.25  332.91
   0  -1  -4 7404.95  325.20
   0  -1  -4 7479.15  334.43
   0  -1  -4 7025.74  310.64
   0  -1  -4 7099.43  316.36
   0  -1  -4 7221.81  331.61
   0  -1  -4 7591.88  300.77
   0   1   4 7255.76  331.13
   0   1  -4 7917.12  360.89
   0  -1  -4 6763.31  302.73
   0  -1  -4 6797.48  272.11
   0   1  -4 7531.49  355.72
   0   1   4 7342.57  322.39
   0  -1   4 7150.74  331.46
   0   1   4 7042.15  301.45
   0   1   4 5882.32  293.56
   0  -1   4 7083.37  324.81
   3   1   0 9359.97  431.44
   3   1   0 9461.27  433.00
  -3   1   0 9278.86  433.41
  -3  -1   0 8474.74  387.03
  -3  -1   0 9089.31  454.00
   3  -1   0 9443.50  419.67
   3  -1   0 9475.17  465.60
  -3  -1   0 9937.93  431.77
   3  -1   010071.17  466.90
  -3  -1   0 8886.37  416.71
   3   1   0 9072.13  430.65
   3   1   0 9058.79  461.65
   3   1   0 9070.10  410.33
  -3  -1   0 9047.02  411.59
  -3  -1   0 8813.57  406.34
   3  -1   0 9229.14  429.37
  -3  -1   0 9462.75  401.86
   3  -1   0 8828.82  435.90
  -3   1   0 9458.10  443.55
  -3  -1   0 9706.23  461.97
   3  -1   0 8926.89  441.00
  -3  -1   0 8807.69  413.15
   3   1   0 8971.00  432.76
   3  -1  -3 3721.23  162.24
   3   1  -3 3670.36  149.65
   3   1  -3 3430.49  141.79
   3   1  -3 3621.94  160.88
   3   1  -3 3598.94  145.64
   3  -1  -3 3547.73  139.63
  -3  -1   3 3450.09  141.64
   3  -1  -3 3555.35  142.31
   3  -1  -3 3412.93  126.64
  -3  -1   3 3316.69  131.14
  -3  -1   3 3475.62  138.04
  -3   1   3 3753.92  171.56
  -3  -1   3 3340.12  128.93
   3   1  -3 2953.23  131.70
   3  -1  -3 3538.45  129.10
  -3  -1   3 3517.68  162.93
  -3   1   3 3616.40  145.17
   3  -1  -3 3504.03  140.68
  -3  -1   3 3430.06  156.78
  -3  -1   3 3500.18  148.14
  -3  -1   3 3540.08  157.39
  -3   1   3 3519.86  152.83
  -3   1   3 3567.14  144.06
  -3   0  -1 1001.33   44.09
  -3   0  -1 1041.85   47.04
   3   0   1 1047.53   43.95
  -3   0  -1 1073.45   46.23
  -3   0  -1 1023.44   58.37
   3   0   1 1040.85   36.76
   3   0   1 1033.97   63.03
   3   0   1 1132.27   48.83
  -3   0  -1 1014.93   45.47
   3   0   1 1055.89   46.21
   3   0   1  963.28   44.88
   3   0   1 1090.58   45.59
  -3   0  -1 1015.77   43.61
  -3   0  -1  927.47   43.15
   3   0   1  931.67   26.09
  -3   0   4 3603.41  164.10
   3   0  -4 3909.56  152.56
   3   0  -4 3597.10  136.04
  -3   0   4 3364.13  130.57
  -3   0   4 3665.08  171.93
   3   0  -4 3912.40  150.19
  -3   0   4 3701.80  152.27
   3   0  -4 3515.20  157.42
  -3   0   4 3531.24  146.33
   3   0  -4 3796.32  170.62
  -3   0   4 3637.70  141.25
  -3   0   4 3881.08  163.80
  -3   0   4 3666.88  173.45
   3   0  -4 3767.17  163.23
   2   2  -1 9862.24  500.41
   2   2  -110130.54  481.65
  -2  -2   110175.43  499.23
  -2  -2   1 9961.38  438.26
   2  -2  -1 9137.98  433.90
   2  -2  -110223.69  443.94
   2  -2  -110109.76  482.39
  -2  -2   1 9136.42  406.85
  -2  -2   110208.21  451.05
  -2   2   110336.45  517.19
  -2  -2   1 9607.05  458.52
   2  -2  -110033.38  474.51
   2  -2  -110375.63  470.65
  -2  -2   1 9857.19  465.59
  -2  -2   110024.48  504.16
   2  -2  -110662.05  527.72
  -2  -2   1 9622.99  460.03
   2  -2  -1 9892.26  445.27
  -1   0  -4   27.61    8.52
  -1   0  -4   -2.74   10.69
  -1   0  -4   30.87    9.26
  -1   0  -4   19.41    9.77
  -1   0  -4   20.40   10.82
  -1   0  -4   26.68   14.17
   1   0   4   24.22    6.00
   1   0   4   20.41    6.54
   1   0   4   21.81    4.39
   1   0   4   24.06    9.52
   1   0   4   24.45    9.55
   1   0   4   17.15   10.12
   1   0   4   51.44    6.29
  -1   0  -4   26.51    7.99
  -1   0  -4   28.43    5.56
  -1   0   517497.61  959.60
   1   0  -518115.67 1025.45
   1   0  -517648.77  957.58
   1   0  -518102.95 1030.94
   1   0  -518148.18  986.42
   1   0  -517806.46  983.77
  -1   0   516525.51  892.77
  -1   0   517903.11  918.97
   1   0  -518142.96 1027.65
   1   0  -518204.60  964.33
   1   0  -517729.03  995.38
  -1   0   516818.55  919.51
  -1   0   517458.86  950.45
  -1   0   518139.11  990.62
  -2  -2   0 6439.28  280.68
   2   2   0 6669.23  321.90
   2   2   0 6737.55  297.81
  -2  -2   0 7093.54  281.80
  -2  -2   0 6291.32  285.52
  -2  -2   0 6524.95  309.40
  -2  -2   0 6453.40  284.31
  -2  -2   0 6164.48  272.29
   2  -2   0 7046.60  286.81
   2  -2   0 6586.67  291.90
   2  -2   0 7000.87  308.15
   2  -2   0 6240.88  273.20
   2  -2   0 6756.42  295.84
   2  -2   0 6751.47  295.04
   2  -2   0 7083.59  292.64
  -2  -2   2 1202.64   56.69
  -2  -2   2 1573.38   81.37
  -2   2   2 1630.23   85.81
   2   2  -2 1646.52   66.09
  -2  -2   2 1680.52   85.99
  -2  -2   2 1573.47   50.23
  -2  -2   2 1631.21   55.20
   2  -2  -2 1658.26   63.18
  -2   2   2 1569.73   63.87
   2  -2  -2 1587.63   50.68
   2  -2  -2 1590.42   84.31
  -2  -2   2 1585.55   61.18
   2  -2  -2 1692.76   84.47
   2  -2  -2 1589.71   48.82
  -2  -2   2 1550.31   61.52
   2  -2  -2 1601.27   56.37
   2   2  -2 1633.47   87.52
  -2  -2   2 1522.01   60.56
  -2   0  -3 1081.19   62.66
  -2   0  -3 1116.84   42.08
  -2   0  -3 1114.81   60.91
   2   0   3 1118.74   50.94
   2   0   3 1099.83   50.34
   2   0   3 1143.45   44.19
  -2   0  -3 1154.52   53.33
  -2   0  -3 1138.04   56.45
   2   0   3 1109.49   49.47
  -2   0  -3 1157.15   78.63
   2   0   3 1128.38   42.13
   2   0   3 1167.20   47.45
   2   0   3 1066.36   40.25
   2   0   3 1048.22   41.36
   2   0  -5 3550.16  149.28
   2   0  -5 3376.25  125.41
   2   0  -5 3507.23  144.32
  -2   0   5 3451.01  145.20
   2   0  -5 3553.63  147.64
  -2   0   5 3298.88  134.94
  -2   0   5 3391.66  164.78
  -2   0   5 3195.58  124.29
   2   0  -5 3567.76  147.33
  -2   0   5 3312.20  131.74
  -2   0   5 3301.25  125.53
  -2   0   5 3508.95  125.19
   2   0  -5 3711.54  153.75
   1  -2   2 3502.56  133.92
   1  -2   2 3520.59  139.74
   1  -2   2 3543.14  138.39
   1  -2   2 3494.79  135.57
   1  -2   2 3696.10  141.29
  -1  -2  -2 3588.12  147.63
  -1  -2  -2 3627.05  174.22
   1   2   2 3387.60  166.67
   1  -2   2 3459.14  160.95
   1  -2   2 3367.62  138.41
   1   2   2 3436.78  143.72
  -1  -2  -2 3296.78  120.30
  -1  -2  -2 3697.80  138.89
  -1  -2  -2 3586.21  141.28
  -1  -2  -2 3470.91  139.99
   1   2   2 3686.24  151.07
   1  -2  -3  437.37   23.37
   1   2  -3  421.20   24.27
   1  -2  -3  444.94   17.33
   1   2  -3  448.32   26.56
  -1  -2   3  431.85   23.55
  -1  -2   3  406.89   23.49
  -1   2   3  445.52   20.00
  -1  -2   3  449.63   24.05
  -1  -2   3  417.77   19.57
  -1  -2   3  432.76   25.59
   1  -2  -3  427.78   40.28
  -1   2   3  410.96   38.29
  -1   2   3  441.33   25.20
  -1  -2   3  407.70   22.54
  -1  -2   3  426.54   15.98
   1  -2  -3  445.25   19.79
   1  -2  -3  431.41   21.44
   1  -2  -3  464.24   26.42
   0  -2   3 3894.37  183.43
   0   2   3 4043.82  168.23
   0   2   3 3894.18  166.12
   0   2  -3 4135.31  197.39
   0  -2   3 3786.57  131.43
   0  -2   3 4074.25  168.23
   0  -2  -3 3681.47  157.93
   0  -2  -3 3993.49  159.70
   0  -2   3 4174.45  187.05
   0  -2   3 3800.09  160.17
   0  -2   3 3626.64  158.32
   0  -2  -3 4091.62  173.37
   0  -2  -3 4194.20  194.35
   0  -2  -3 3992.04  154.81
   0  -2   3 4120.26  171.57
   0  -2   3 3961.82  162.00
   0  -2  -3 4223.62  198.49
   0  -2  -3 3851.47  142.05
   3  -1   1 4637.62  215.75
   3   1   1 4708.97  194.36
  -3   1  -1 4324.44  172.96
  -3  -1  -1 4686.57  194.96
  -3  -1  -1 4244.11  171.40
  -3   1  -1 4671.84  217.28
   3  -1   1 4422.47  212.16
  -3  -1  -1 4800.95  221.77
  -3  -1  -1 4618.80  169.08
  -3  -1  -1 4592.96  222.35
  -3  -1  -1 4755.09  197.28
   3  -1   1 4563.42  194.00
  -3   1  -1 4826.38  233.11
   3  -1   1 4480.23  215.10
   3  -1   1 4787.39  198.24
   3  -1   1 4509.04  189.93
   3   1   1 4655.04  226.42
   3   1   1 5297.93  258.20
   3   1   1 4155.68  191.02
   3   1   1 4462.06  192.01
  -3   1  -1 4474.73  192.04
   3   1   1 4600.50  204.01
   3   1   1 4525.10  189.24
  -3  -1  -1 4431.42  185.06
  -3   1   4  864.24   49.32
  -3  -1   4  858.83   35.60
   3  -1  -4 1065.19   53.02
   3  -1  -4  968.61   49.41
   3  -1  -4 1003.35   43.86
   3  -1  -4 1059.59   42.72
  -3   1   4 1255.82   53.92
   3   1  -4  926.57   44.18
   3   1  -4  922.05   45.29
  -3   1   4 1108.20   48.05
   3   1  -4  990.93   60.73
   3   1  -4  901.33   40.94
  -3   1   4  970.35   44.23
  -3  -1   4  939.67   59.59
  -3   1   4  970.53   43.09
  -3  -1   4  924.02   53.81
  -3  -1   4  971.84   43.91
  -3  -1   4  950.63   59.92
  -3  -1   4  936.49   43.50
  -3  -1   4  956.28   44.48
   3  -1  -4 1006.05   45.59
  -3   1   4  887.17   34.88
  -3  -1   4  841.77   37.78
   3   1  -4  912.41   35.35
   0   0  -5 1164.33   50.26
   0   0   5 1217.34   67.52
   0   0   5 1124.19   52.61
   0   0   5 1015.83   34.62
   0   0   5 1166.94   54.28
   0   0  -5 1121.38   48.15
   0   0  -5 1203.27   64.45
   0   0  -5 1160.52   53.81
   0   0  -5 1054.60   51.82
   0   0  -5 1113.80   48.16
   0   0  -5 1151.80   49.65
   0   0  -5 1109.27   69.32
   0   0   5 1032.87   47.64
   0   0   5 1077.13   38.97
   2  -2   1  262.15   21.78
   2  -2   1  229.67   17.27
  -2   2  -1  300.52   22.08
  -2  -2  -1  295.91   19.58
  -2  -2  -1  264.05   23.46
  -2  -2  -1  273.47   10.57
   2   2   1  256.26   22.96
   2   2   1  285.97   20.69
   2   2   1  336.45   31.96
  -2  -2  -1  356.89   24.58
   2   2   1  239.01   21.85
   2  -2   1  335.85   15.41
  -2  -2  -1  289.83   31.52
   2  -2   1  255.81   28.65
   2  -2   1  281.59   20.58
  -2  -2  -1  263.71   19.55
   2  -2   1  269.61   19.26
   2  -2   1  253.47    7.78
   2  -2  -3 7556.17  339.54
  -2   2   3 7254.29  330.83
   2  -2  -3 6613.08  269.08
   2  -2  -3 7088.34  310.16
  -2   2   3 6690.30  304.58
  -2  -2   3 7178.22  320.08
   2  -2  -3 7455.42  327.23
  -2  -2   3 6343.93  282.12
  -2  -2   3 7102.13  349.24
   2  -2  -3 6662.21  274.58
   2  -2  -3 7646.24  306.64
  -2  -2   3 7330.26  319.38
  -2  -2   3 7009.88  299.07
   2   2  -3 6925.31  318.19
   2   2  -3 7260.18  325.16
   2   2  -3 6956.58  342.31
   2  -2  -3 7566.77  342.78
  -2  -2   3 7279.78  351.89
  -2  -2   3 7335.83  344.90
  -1   1  -4  535.34   30.95
  -1   1  -4  522.48   30.53
   1   1   4  586.84   28.08
  -1  -1  -4  547.88   27.56
   1   1   4  469.60   44.85
  -1  -1  -4  591.59   41.69
  -1  -1  -4  552.80   28.46
   1   1   4  553.42   26.15
   1   1   4  538.52   51.13
  -1  -1  -4  594.75   32.04
  -1  -1  -4  624.30   25.41
  -1  -1  -4  585.61   20.46
  -1  -1  -4  589.76   33.35
  -1  -1  -4  592.82   44.65
  -1  -1  -4  600.10   27.10
   1   1   4  555.88   40.86
  -1   1  -4  552.90   42.40
   1  -1   4  582.48   31.33
  -1   1  -4  633.35   31.40
   1  -1   4  604.61   31.31
  -1   1  -4  464.35   50.45
   1  -1   4  577.88   31.94
   1  -1   4  574.85   31.24
  -1  -1   5 1135.93   53.05
   1  -1  -5 1087.47   63.57
  -1   1   5  972.98   60.10
  -1   1   5 1100.36   69.01
   1  -1  -5 1115.41   43.62
   1   1  -5 1070.08   52.99
  -1  -1   5 1077.39   46.04
  -1   1   5 1059.44   59.06
   1  -1  -5 1065.78   59.98
   1   1  -5 1111.51   58.80
   1  -1  -5 1119.08   55.13
  -1   1   5 1032.71   38.21
  -1  -1   5 1041.73   44.32
   1  -1  -5 1074.93   45.91
  -1   1   5 1002.93   51.40
  -1  -1   5 1058.00   62.32
   1  -1  -5 1128.04   67.90
  -1  -1   5  838.36   37.03
  -1   1   5 1030.24   46.63
  -1  -1   5  885.14   37.05
  -1  -1   5 1081.48   49.12
   1   1  -5 1190.48   69.22
   1  -1  -5 1124.57   43.36
   1   1  -5 1079.60   46.36
   4   0  -215777.44  841.76
   4   0  -215533.43  796.33
   4   0  -216130.14  874.54
  -4   0   215880.18  861.31
  -4   0   215440.08  826.44
  -4   0   215944.76  870.46
   4   0  -213831.66  703.40
   4   0  -216106.99  810.20
  -4   0   215241.60  836.39
   4   0  -214835.35  765.14
   4   0  -215631.66  820.89
  -4   0   216025.92  861.36
  -4   0   215673.42  834.00
   4   0  -216362.58  866.67
   2   1   3  844.15   61.20
  -2  -1  -3  850.16   35.27
  -2  -1  -3  849.55   50.35
   2   1   3  834.98   51.11
   2   1   3  810.91   38.74
   2   1   3  860.98   43.55
   2   1   3  883.63   35.80
   2   1   3  832.73   52.30
   2  -1   3  834.61   39.83
   2  -1   3  862.94   58.51
   2  -1   3  832.83   54.27
   2  -1   3  972.97   33.03
   2  -1   3  897.81   31.14
  -2   1  -3  881.39   41.55
  -2   1  -3  868.30   36.97
  -2   1  -3  893.99   43.03
  -2   1  -3  818.93   44.52
   2  -1   3  859.37   41.96
  -2  -1  -3  851.01   43.55
  -2  -1  -3  810.35   41.51
  -2  -1  -3  866.41   59.81
  -2  -1  -3  774.95   26.60
  -2  -1  -3 1014.81   56.23
  -2  -1  -3  923.99   33.84
  -2   1   5  371.93   35.92
   2  -1  -5  353.42   22.33
  -2  -1   5  327.99   32.18
   2   1  -5  348.27   23.44
   2   1  -5  337.71   19.58
  -2  -1   5  339.17   25.16
  -2  -1   5  333.01   16.56
  -2   1   5  363.68   24.15
   2   1  -5  319.58   24.65
  -2  -1   5  328.18   18.22
   2   1  -5  356.90   23.74
   2  -1  -5  363.90   23.00
  -2  -1   5  323.65   22.50
  -2  -1   5  383.90   21.17
  -2  -1   5  352.27   24.07
  -2   1   5  324.42   20.34
   2  -1  -5  344.89   28.43
  -2   1   5  329.35   19.87
  -2   1   5  350.03   26.11
   2   1  -5  362.27   24.66
   2  -1  -5  349.04   27.11
   2   1  -5  346.49   20.10
   2  -1  -5  310.72   19.28
   2  -1  -5  350.61   19.31
  -4   0   1 2743.32  115.40
   4   0  -1 2609.42  115.03
   4   0  -1 2651.39   92.58
  -4   0   1 3017.32  130.15
   4   0  -1 2868.57  145.43
  -4   0   1 2733.01  114.78
  -4   0   1 2995.83  129.72
   4   0  -1 2831.28  121.52
   4   0  -1 2913.16  101.22
   4   0  -1 2921.21  113.82
  -4   0   1 3058.01  117.54
  -4   0   1 2805.40  117.94
   4   0  -1 2908.81  116.43
   3   0   2   89.40   13.64
   3   0   2   78.76   11.03
   3   0   2   71.68   12.18
  -3   0  -2   70.01    7.51
  -3   0  -2   73.94   14.24
  -3   0  -2   89.70   19.94
  -3   0  -2   96.18   23.40
  -3   0  -2   81.44    9.12
   3   0   2   68.13   12.19
   3   0   2   98.67   20.62
   3   0   2   79.72    4.36
  -3   0  -2   83.53   12.62
   3   0   2   72.54   11.01
  -3   0  -2   76.04   20.26
   4   0  -3  217.17   23.42
   4   0  -3  129.68    9.02
  -4   0   3  160.61   31.05
   4   0  -3  164.20   16.20
  -4   0   3  149.80   21.74
   4   0  -3  140.64    9.19
   4   0  -3  163.19   16.26
  -4   0   3  172.38   16.99
  -4   0   3  169.65   14.00
   4   0  -3  169.48    6.19
  -4   0   3  155.15   23.33
  -4   0   3  169.08   17.07
  -4   0   3  155.90   14.95
  -3   0   5  641.65   25.46
  -3   0   5  604.86   51.67
  -3   0   5  552.23   31.88
  -3   0   5  528.80   26.13
  -3   0   5  601.42   34.17
   3   0  -5  572.31   26.61
   3   0  -5  599.19   30.43
   3   0  -5  583.44   31.71
  -3   0   5  593.88   45.36
   3   0  -5  567.71   28.66
  -3   0   5  541.02   30.75
   3   0  -5  589.24   30.25
  -3   0   5  543.98   32.66
   3   0  -5  563.87   23.16
   0  -1  -5 5038.83  242.93
   0  -1  -5 5315.78  227.75
   0   1  -5 5333.86  226.75
   0  -1   5 5102.36  246.75
   0   1  -5 5687.63  256.97
   0  -1   5 5183.50  251.48
   0  -1   5 5277.71  226.15
   0  -1   5 5269.92  240.90
   0   1  -5 5271.47  228.16
   0   1  -5 5529.07  241.75
   0   1  -5 5255.06  234.77
   0   1   5 5024.25  219.98
   0   1   5 5263.67  238.70
   0  -1  -5 5114.03  221.73
   0  -1  -5 5178.44  231.16
   0  -1  -5 5254.03  248.26
   0  -1  -5 5258.92  243.32
   0  -1  -5 4991.94  189.14
   0  -1   5 5135.45  219.63
   0   1   5 5119.51  224.94
   0  -1  -5 4466.49  172.12
   0   1   5 4320.57  215.83
   0  -1  -5 5368.06  237.11
   0   1   5 5515.75  236.64
   0   1   5 4708.99  220.84
  -1  -2  -3 2013.71   68.48
   1  -2   3 2082.42   82.25
  -1  -2  -3 1915.81   63.88
   1   2   3 2048.87   90.62
  -1  -2  -3 1856.52   72.77
   1  -2   3 1884.91   74.30
  -1   2  -3 1992.49   84.75
  -1   2  -3 2112.56  112.67
  -1  -2  -3 2016.81   80.08
   1  -2   3 1968.43   82.44
   1  -2   3 1969.99   82.86
   1  -2   3 2134.22   68.54
   1  -2   3 2009.50   77.70
  -1  -2  -3 2040.37   82.13
  -1  -2  -3 1895.82   79.14
  -1  -2  -3 1951.04   84.16
   1   2   3 2048.46   84.44
   1   2   3 1803.67   79.20
   1  -2  -4 2703.66  110.18
   1  -2  -4 2729.44  102.21
  -1  -2   4 2388.58  103.18
   1   2  -4 2510.59  107.21
   1  -2  -4 2554.58  107.31
   1  -2  -4 2638.90   97.66
  -1   2   4 2993.40  122.01
   1  -2  -4 2662.28  107.07
  -1   2   4 2302.27  115.36
   1  -2  -4 2677.58  112.13
   1   2  -4 2602.07  106.97
  -1  -2   4 2717.14  109.09
  -1  -2   4 2650.99  130.50
  -1  -2   4 2638.06  106.63
  -1  -2   4 2428.52   88.58
  -1  -2   4 2454.96   96.35
  -1  -2   4 2529.01  122.69
  -1   2   4 2308.57  116.41
  -4  -1   2 1570.11   73.57
  -4  -1   2 1276.37   48.09
  -4  -1   2 1290.04   44.35
  -4   1   2 1418.59   76.70
   4  -1  -2 1456.72   62.85
  -4  -1   2 1314.19   58.49
   4   1  -2 1321.92   80.68
  -4  -1   2 1125.37   45.25
  -4  -1   2 1289.21   76.42
   4   1  -2 1597.55   95.77
  -4   1   2 1354.27   53.52
   4   1  -2 1673.67   75.59
  -4   1   2 1390.30   81.79
  -4   1   2 1387.19   70.29
  -4  -1   2 1099.02   55.81
   4  -1  -2 1448.62   59.51
   4  -1  -2 1401.38   60.70
   4   1  -2 1269.96   61.26
   4   1  -2 1287.06   58.42
   4   1  -2 1394.19   63.40
   4  -1  -2 1425.83   64.62
   4  -1  -2 1385.11   57.96
  -4  -1   2 1236.16   49.00
   3   2  -1 2563.57  113.55
  -3  -2   1 2403.50  101.37
  -3  -2   1 2596.13  122.83
  -3   2   1 2464.62  104.41
  -3  -2   1 2462.21  103.53
  -3  -2   1 2508.40   89.55
  -3   2   1 2621.56  128.37
   3   2  -1 2365.18   97.44
   3  -2  -1 2488.36  102.64
   3  -2  -1 2592.34  106.31
   3  -2  -1 2359.25   91.15
   3  -2  -1 2461.36  101.15
   3  -2  -1 2487.94  109.50
   3   2  -1 2326.59   95.18
   3  -2  -2 8700.37  402.75
   3   2  -2 8064.32  380.05
   3   2  -2 8392.37  424.29
  -3   2   2 8530.61  380.95
   3  -2  -2 8563.95  395.98
   3  -2  -2 7463.09  359.01
  -3  -2   2 8018.58  404.13
  -3  -2   2 7722.28  383.41
   3  -2  -2 7895.73  398.02
  -3  -2   2 7758.42  349.63
  -3  -2   2 7894.64  387.07
  -3  -2   2 8538.68  385.63
  -3  -2   2 7341.26  318.41
   3   2  -2 8438.13  388.62
  -3  -2   2 8599.02  377.49
   3  -2  -2 8328.29  364.26
  -3   2   2 8424.92  417.77
   4   0   0    0.31    4.66
  -4   0   0    1.71    9.86
   4   0   0   -0.02    1.23
   4   0   0    2.42    5.68
   4   0   0    2.98    4.56
   4   0   0    1.67    2.07
  -4   0   0    4.37    4.70
  -4   0   0    0.63    7.29
  -4   0   0    0.46    5.28
  -4   0   0    1.85    5.22
   4   0   0    0.50    3.73
   4   0   0    2.63    4.57
   4   0   0    3.81    9.01
  -4   0   0    2.30    9.84
  -4   0   4 8922.40  422.99
  -4   0   4 8877.42  428.06
   4   0  -4 9654.20  448.28
  -4   0   4 9188.18  443.95
  -4   0   4 8985.23  433.51
  -4   0   4 8740.93  439.68
   4   0  -4 7767.78  394.75
   4   0  -4 9629.31  454.35
  -4   0   4 9773.25  438.05
   4   0  -4 9551.20  451.87
  -4   0   4 8409.87  422.68
   4   0  -4 9632.83  420.87
  -4   0   4 9243.76  460.04
   4   0  -4 9988.13  495.46
  -2  -2  -2 4485.59  212.32
  -2  -2  -2 5359.16  252.67
   2  -2   2 5137.92  217.34
  -2  -2  -2 5288.85  249.85
  -2  -2  -2 5152.69  222.21
   2  -2   2 5316.02  253.35
   2   2   2 4719.36  238.61
   2   2   2 4937.14  215.47
   2  -2   2 5383.71  215.00
   2  -2   2 5013.20  203.58
   2  -2   2 5174.50  243.24
  -2  -2  -2 5037.81  210.13
   2  -2   2 5036.13  238.41
  -2   2  -2 5052.13  224.81
  -2  -2  -2 5003.83  226.14
  -2  -2  -2 5542.68  233.13
   2   2   2 5178.28  222.77
   2   2   2 4737.03  224.30
  -4   1   110711.00  537.99
  -4  -1   1 9807.22  465.74
   4   1  -110991.00  582.48
   4  -1  -110048.36  531.67
   4   1  -110632.47  510.62
   4   1  -110705.40  555.45
   4   1  -110528.43  530.23
  -4  -1   110694.58  536.59
  -4  -1   110548.49  513.64
  -4  -1   110153.93  473.95
  -4  -1   110514.46  512.51
  -4  -1   1 9831.81  482.68
   4  -1  -110856.58  534.84
  -4  -1   1 9073.87  468.29
  -4  -1   1 9370.54  443.03
  -4  -1   1 8541.82  444.62
  -4   1   110480.91  504.88
  -4   1   111256.63  543.33
   4   1  -110337.21  494.71
   4   1  -110537.46  563.71
   4  -1  -111033.06  563.80
   4  -1  -111404.81  562.61
   4  -1  -111509.10  597.57
  -3   1  -2 4851.67  208.65
  -3  -1  -2 4808.27  210.44
  -3  -1  -2 4812.53  222.52
  -3   1  -2 4746.74  237.07
  -3  -1  -2 4718.61  198.06
  -3   1  -2 4749.44  201.67
   3   1   2 5028.26  226.44
   3  -1   2 4847.59  210.11
   3  -1   2 4831.96  232.94
  -3   1  -2 4401.29  194.54
   3  -1   2 5720.56  238.11
  -3  -1  -2 4300.85  157.31
   3  -1   2 4830.44  213.45
   3   1   2 4749.92  193.36
   3   1   2 4735.26  232.16
  -3  -1  -2 4696.10  199.65
   3   1   2 4801.93  205.07
   3   1   2 4838.09  210.63
   3  -1   2 4857.45  215.15
   3   1   2 4870.28  242.51
  -3  -1  -2 4766.83  197.68
   3   1   2 4847.42  210.87
   3  -1   2 4971.20  207.15
  -3   1  -2 4978.83  213.22
  -3  -1  -2 4621.01  188.54
   2  -2  -4 3840.37  172.35
   2  -2  -4 3870.45  161.93
   2  -2  -4 3400.39  132.20
   2  -2  -4 3700.89  132.29
  -2   2   4 3414.63  166.03
  -2   2   4 4451.09  182.51
  -2   2   4 3767.80  150.31
  -2   2   4 3652.58  156.21
   2  -2  -4 3712.40  176.68
   2  -2  -4 3457.49  129.96
  -2  -2   4 3683.07  147.14
  -2  -2   4 3809.40  156.43
   2   2  -4 3605.97  153.56
   2   2  -4 3694.04  152.85
  -2  -2   4 3754.17  159.77
  -2  -2   4 3504.99  147.01
  -2  -2   4 3630.94  156.94
  -2  -2   4 3589.71  152.63
  -2  -2   4 3631.75  170.54
   2   2  -4 3658.83  154.99
   2  -2  -4 3434.43  128.61
  -4   1   3 2892.19  127.25
   4  -1  -3 3070.07  148.71
  -4  -1   3 2554.39  114.05
  -4  -1   3 2750.67  122.49
  -4   1   3 3037.11  119.13
   4   1  -3 2987.64  125.83
   4  -1  -3 3126.60  111.26
  -4   1   3 3093.88  147.26
   4  -1  -3 3246.70  114.50
  -4  -1   3 2988.77  124.08
   4   1  -3 3115.07  157.68
  -4  -1   3 2780.15  117.31
   4  -1  -3 3045.65  122.66
   4   1  -3 3018.38  129.67
   4  -1  -3 3132.57  129.77
  -4  -1   3 3123.95  125.67
  -4  -1   3 2967.96  117.80
   4   1  -3 2829.42  120.41
  -4  -1   3 2810.84  114.86
   4  -1  -3 3105.52  128.65
   4   1  -3 2929.83  130.45
  -4  -1   3 2918.22  123.31
  -4   1   3 2939.64  111.26
  -4   1   3 3046.87  133.02
   4  -1  -3 3408.76  127.25
  -3  -1   5 3498.47  154.22
  -3  -1   5 3612.93  152.61
  -3  -1   5 3393.92  140.93
  -3   1   5 3634.39  146.71
  -3   1   5 3290.72  133.43
  -3   1   5 3353.07  134.85
  -3   1   5 3645.44  156.06
  -3   1   5 3609.41  155.88
  -3  -1   5 3553.59  150.59
   3  -1  -5 3695.46  150.76
   3  -1  -5 3805.99  154.80
   3  -1  -5 3598.26  153.06
   3  -1  -5 3218.29  113.73
   3  -1  -5 3777.13  169.55
   3  -1  -5 3433.13  124.46
  -3  -1   5 3660.88  153.00
   3   1  -5 3375.77  138.74
   3   1  -5 3510.39  150.97
   3   1  -5 3762.66  158.16
   3  -1  -5 3901.52  173.91
  -3  -1   5 3508.69  152.13
   3   1  -5 3658.64  175.28
   0  -2  -4 4296.52  177.30
   0  -2  -4 4579.31  203.69
   0  -2  -4 4225.73  173.02
   0  -2  -4 4550.35  216.73
   0  -2   4 4315.08  186.24
   0  -2   4 4599.85  187.63
   0  -2   4 4359.61  189.81
   0  -2   4 4254.03  190.55
   0  -2   4 4578.55  210.56
   0  -2   4 4618.42  185.76
   0   2  -4 4408.99  214.68
   0  -2   4 4055.52  164.87
   0  -2  -4 4190.72  177.98
   0   2   4 4096.61  177.82
   0   2   4 4447.68  191.44
   0  -2  -4 4382.31  187.07
  -2   0  -4   41.42    9.78
   2   0   4   94.61   10.40
  -2   0  -4   66.31   14.08
   2   0   4   49.36   11.59
  -2   0  -4   56.58   17.08
   2   0   4   48.29    5.94
  -2   0  -4   53.45   18.69
   2   0   4   41.50   10.49
   2   0   4   42.74    8.70
   2   0   4   39.60    6.96
   2   0   4   52.17   12.28
  -2   0  -4   60.07   12.00
  -2   0  -4   43.35    7.14
  -2   0  -4   52.70   12.62
  -2   0   6 6233.14  309.78
   2   0  -6 6357.45  289.18
   2   0  -6 6253.47  273.34
   2   0  -6 6502.54  274.38
  -2   0   6 5944.15  256.46
  -2   0   6 5889.00  262.38
   2   0  -6 6340.73  287.28
  -2   0   6 6476.35  269.55
   2   0  -6 6487.33  296.42
  -2   0   6 6252.61  286.48
   2   0  -6 6479.75  293.19
  -2   0   6 6337.83  306.14
   2   0  -6 6696.72  302.84
  -3  -2   0 1200.40   44.68
   3  -2   0 1332.69   57.05
   3  -2   0 1315.23   72.89
  -3   2   0 1338.35   59.34
  -3   2   0 1341.63   76.45
  -3  -2   0 1281.20   55.25
  -3  -2   0 1341.68   75.00
  -3  -2   0 1212.12   67.12
  -3  -2   0 1296.23   68.46
   3   2   0 1314.87   55.06
   3  -2   0 1329.65   53.43
   3  -2   0 1235.03   62.57
   3   2   0  998.58   55.08
   3  -2   0 1269.76   61.12
   3   2   0 1207.59   50.25
   3   2  -3 1233.16   51.19
   3   2  -3 1191.00   50.17
  -3   2   3 1292.52   75.59
   3  -2  -3 1361.24   59.94
   3   2  -3 1280.84   57.63
   3  -2  -3 1347.46   46.75
   3  -2  -3 1341.12   57.61
   3  -2  -3 1408.93   73.37
  -3  -2   3 1313.62   71.13
  -3   2   3 1300.79   60.35
  -3   2   3 1307.33   57.00
  -3  -2   3 1183.87   70.38
  -3  -2   3 1334.83   57.54
  -3  -2   3 1317.25   51.65
  -3  -2   3 1286.94   53.27
  -3  -2   3 1308.22   69.64
  -3  -2   3 1277.03   75.73
  -3  -2   3 1207.51   44.90
   3   2  -3 1219.93   55.19
  -1   0  -5  625.24   47.76
  -1   0  -5  610.74   34.58
   1   0   5  592.58   28.36
  -1   0  -5  554.00   38.10
  -1   0  -5  626.11   25.65
  -1   0  -5  610.39   31.76
  -1   0  -5  583.13   33.80
  -1   0  -5  647.05   32.82
   1   0   5  599.41   50.14
   1   0   5  598.15   50.19
   1   0   5  582.10   24.75
   1   0   5  593.04   33.88
   1   0   5  556.09   25.16
  -1   0  -5  630.23   27.30
  -1   0   6 2164.40  109.98
  -1   0   6 2099.40   91.46
   1   0  -6 2144.81   84.96
   1   0  -6 2177.55   78.10
  -1   0   6 2009.49   67.01
   1   0  -6 2242.80  113.70
   1   0  -6 2101.08  100.43
   1   0  -6 2251.22   96.69
   1   0  -6 2043.81   89.69
   1   0  -6 2169.09   90.24
   1   0  -6 2035.72   87.91
  -1   0   6 1992.34   84.46
  -1   0   6 1886.55   89.37
  -4  -1   010014.62  446.95
  -4  -1   0 9742.61  441.12
   4   1   0 9597.85  449.27
   4   1   0 7236.84  421.52
   4   1   0 8379.56  431.07
   4   1   0 9426.64  472.77
  -4  -1   0 9691.83  459.71
   4   1   0 9618.17  502.89
  -4   1   0 9760.37  469.34
  -4   1   010114.68  479.40
  -4   1   0 9556.63  459.45
   4   1   0 9629.81  475.36
  -4   1   0 7970.49  435.54
  -4  -1   0 8167.57  416.75
   4  -1   0 9789.29  482.50
   4  -1   010078.25  479.18
  -4  -1   0 8888.18  437.50
  -4  -1   0 9048.58  435.14
  -4  -1   0 7514.68  422.89
  -4  -1   0 9389.57  454.32
   4  -1   0 9934.67  478.08
   4  -1   0 9929.86  477.83
  -4  -1   0 9456.99  453.84
   4  -1   0 9563.65  461.96
   4   1   010057.59  488.29
   4   1  -4  160.16   15.52
   4   1  -4  131.81   12.22
  -4   1   4  153.80   16.15
  -4   1   4  145.01   11.55
  -4   1   4  158.42   15.67
  -4   1   4  127.16   10.01
   4   1  -4  146.18   14.01
  -4   1   4  159.30   26.65
  -4   1   4  136.83   10.58
  -4  -1   4  151.45   14.50
  -4  -1   4  140.03   17.44
   4  -1  -4  152.50   12.74
   4  -1  -4  141.26   14.80
   4  -1  -4  143.34   10.24
   4  -1  -4  154.29    9.73
   4  -1  -4  167.08   15.79
  -4  -1   4  143.82   14.05
  -4   1   4  161.36   18.95
  -4  -1   4  155.60   16.15
  -4  -1   4  155.00   15.07
  -4  -1   4  145.01   13.15
  -4  -1   4  150.66   15.93
  -4  -1   4  137.38    9.93
   4   1  -4  154.23   27.79
   4   1  -4  151.05   19.84
   0  -3   0    4.97    5.92
   0  -3   0   -0.93    4.22
   0  -3   0    0.55    3.40
   0  -3   0   -0.13    2.90
   0  -3   0    0.61    2.38
   0  -3   0   -0.55    6.19
   0  -3  -1  378.94   14.19
   0  -3  -1  437.26   20.64
   0  -3  -1  422.78   20.89
   0  -3   1  380.41   28.77
   0  -3   1  422.83   22.93
   0  -3  -1  393.91   34.69
   0  -3   1  463.41   22.00
   0  -3   1  426.33   20.98
   0  -3   1  458.16   19.43
   0  -3   1  401.99   29.93
   0  -3  -1  415.33   26.55
   0  -3  -1  417.01   20.98
  -4   0  -1  907.64   44.94
   4   0   1  947.62   43.83
   4   0   1 1006.91   47.14
  -4   0  -1  879.21   57.14
   4   0   1  970.59   43.67
  -4   0  -1 1060.60   40.09
  -4   0  -1 1039.85   48.50
  -4   0  -1 1050.02   68.93
  -4   0  -1  948.34   43.79
   4   0   1  984.82   46.37
  -4   0  -1 1011.93   46.93
   4   0   1  921.32   45.04
   4   0   1 1050.21   48.30
   3   0   3    7.41    5.29
  -3   0  -3   11.03    5.01
   3   0   3    1.99    3.51
   3   0   3    3.55    3.76
   3   0   3    0.97    1.83
  -3   0  -3   -0.42   13.65
  -3   0  -3    5.55    6.58
  -3   0  -3    7.20   12.39
  -3   0  -3    4.06    6.27
  -3   0  -3    4.81    5.17
  -3   0  -3    1.33    5.93
   3   0   3    4.40    5.72
   3   0   3    2.00    3.28
   4   0  -5 2387.61   85.87
   4   0  -5 2463.43  114.61
  -4   0   5 2288.05   94.68
   4   0  -5 2276.04   91.67
  -4   0   5 2193.94   98.67
   4   0  -5 2311.71   99.87
   4   0  -5 2344.89  104.53
   4   0  -5 2287.17  101.07
  -4   0   5 2353.52   83.14
  -4   0   5 2164.90   91.97
  -4   0   5 2292.39  118.20
  -4   0   5 2396.45  123.10
  -4   0   5 2418.16   96.49
  -4   0   5 2359.78  103.77
   3   0  -6 3693.48  144.64
  -3   0   6 3580.53  139.93
  -3   0   6 3268.72  165.41
  -3   0   6 3677.45  161.35
  -3   0   6 3788.41  154.68
  -3   0   6 4051.77  164.48
  -3   0   6 3434.61  172.08
  -3   0   6 3660.48  162.20
  -3   0   6 3722.83  180.46
  -3   0   6 3670.31  145.45
   3   0  -6 3757.98  179.33
   3   0  -6 3904.73  151.36
   3   0  -6 3771.28  159.84
   3   0  -6 3618.21  154.78
  -2   1  -4 4016.74  171.37
   2   1   4 3947.19  169.60
   2   1   4 3806.23  172.44
   2   1   4 3945.60  159.46
  -2  -1  -4 3843.28  178.84
  -2  -1  -4 4007.12  177.79
  -2  -1  -4 4328.27  182.16
  -2  -1  -4 3615.51  136.27
  -2   1  -4 4097.33  171.53
   2  -1   4 3967.31  171.29
  -2  -1  -4 3959.79  172.72
   2  -1   4 3988.54  191.22
   2  -1   4 4168.10  159.85
  -2  -1  -4 4277.51  183.53
   2   1   4 3836.53  170.42
  -2  -1  -4 3896.22  166.24
  -2   1  -4 4113.50  192.79
  -2   1  -4 3891.58  164.44
   2  -1   4 3926.61  151.03
   2  -1   4 3957.38  169.66
   2  -1   4 4055.94  176.37
  -2  -1   6  352.60   24.05
  -2  -1   6  327.70   29.71
  -2   1   6  344.45   35.24
  -2   1   6  319.64   19.60
   2  -1  -6  357.83   25.90
   2  -1  -6  377.66   17.30
   2   1  -6  350.16   40.51
   2  -1  -6  386.61   23.44
  -2  -1   6  360.29   39.61
   2   1  -6  369.90   24.57
   2  -1  -6  410.85   25.85
  -2  -1   6  279.87   18.10
  -2  -1   6  375.75   22.40
   2   1  -6  362.27   20.50
   2   1  -6  369.54   24.75
  -2   1   6  365.46   17.08
   2  -1  -6  371.90   24.41
   2   1  -6  348.99   19.00
   2  -1  -6  323.90   28.52
  -2   1   6  354.78   23.88
  -2  -1   6  329.15   20.99
   2   1  -6  375.35   24.77
   2  -1  -6  360.58   23.56
  -2  -1   6  368.91   24.06
   1  -3   0  585.37   37.45
  -1  -3   0  472.62   24.81
   1  -3   0  497.70   23.30
   1  -3   0  598.25   32.72
  -1  -3   0  499.81   22.85
   1  -3   0  475.48   22.50
   1  -3   0  517.33   27.17
  -1  -3   0  504.20   20.14
  -1  -3   0  509.73   41.93
  -1  -3   0  492.07   28.25
   1  -3   0  504.83   23.06
  -1  -3   0  502.50   25.97
  -1  -3   1 4862.04  239.74
  -1  -3   1 6639.11  313.24
  -1  -3   1 6285.59  274.52
  -1  -3   1 5345.10  265.59
  -1  -3   1 6140.46  267.77
   1  -3  -1 5412.61  259.21
   1  -3  -1 6232.59  283.34
   1  -3  -1 6383.22  278.96
   1  -3  -1 6582.50  306.17
   1  -3  -1 6694.70  300.19
   1  -3  -1 6409.88  292.79
  -1  -3   1 5950.05  255.93
  -1  -3   1 6555.27  273.37
   3   2   1 5693.43  288.29
   3   2   1 5726.82  248.97
  -3   2  -1 5992.41  272.51
   3  -2   1 5630.84  251.18
  -3  -2  -1 5679.78  273.07
  -3  -2  -1 5356.23  258.56
  -3  -2  -1 6108.77  267.20
  -3  -2  -1 6032.19  295.02
  -3  -2  -1 5637.77  251.46
  -3  -2  -1 5925.36  257.08
   3   2   1 6045.77  264.75
   3  -2   1 5749.65  253.02
  -3   2  -1 6362.14  287.57
   3  -2   1 6112.50  260.45
   3   2   1 4479.58  238.81
   3  -2   1 5975.36  274.05
   3  -2   1 6014.53  266.69
  -1  -1  -5 6306.58  300.94
  -1  -1  -5 5799.97  237.68
  -1   1  -5 6074.35  268.73
  -1   1  -5 6082.88  261.25
  -1   1  -5 5897.23  268.18
   1   1   5 6308.02  275.69
   1  -1   5 6135.30  278.33
   1  -1   5 5936.70  270.57
   1   1   5 5476.13  252.68
  -1  -1  -5 5698.53  256.46
   1  -1   5 6103.11  273.32
  -1  -1  -5 5622.46  248.89
   1   1   5 5746.62  280.92
  -1   1  -5 5883.51  283.57
   1   1   5 5579.64  241.29
  -1  -1  -5 6270.08  284.08
  -1  -1  -5 6183.36  273.83
  -1  -1  -5 6197.58  290.46
   1  -1   5 6110.45  291.19
   1   1   5 5893.05  274.78
  -1  -1  -5 5047.13  249.60
  -1  -1  -5 5983.56  269.73
  -1  -1  -5 6291.44  255.70
  -1   1  -5 6058.34  295.02
  -3  -2   4  329.58   20.93
   3   2  -4  340.18   23.24
   3  -2  -4  333.75   34.14
   3  -2  -4  306.69   13.10
  -3  -2   4  352.73   24.59
  -3  -2   4  313.27   21.82
  -3   2   4  342.85   22.00
  -3  -2   4  338.19   35.37
   3  -2  -4  343.78   21.60
   3  -2  -4  292.56   13.78
   3  -2  -4  316.89   23.23
   3   2  -4  318.51   22.62
  -3  -2   4  311.27   19.29
  -3   2   4  326.09   26.59
  -3  -2   4  334.08   22.98
  -3  -2   4  307.55   25.15
   3   2  -4  334.42   29.69
  -3   2   4  327.87   35.29
  -1  -1   6 2796.33  114.83
   1  -1  -6 2742.12  129.90
  -1  -1   6 2889.24  120.41
   1   1  -6 2934.64  121.66
  -1  -1   6 2474.35  116.45
   1  -1  -6 2711.37  113.23
  -1   1   6 2878.40  151.62
  -1   1   6 2623.15  129.09
  -1   1   6 3092.84  127.97
  -1   1   6 2807.47  115.67
  -1  -1   6 2832.82  123.27
  -1  -1   6 2809.05  141.48
   1  -1  -6 3006.17  119.34
  -1   1   6 2788.74  119.87
   1   1  -6 2737.44  123.05
  -1  -1   6 2739.78  140.08
   1  -1  -6 2837.43  120.60
   1  -1  -6 2917.21  123.20
   1  -1  -6 3055.76  130.21
   1  -1  -6 2912.19  115.27
   1   1  -6 2940.53  152.72
   1   1  -6 3174.00  150.53
  -1  -1   6 2708.76  110.00
  -1   1   6 2789.60  129.21
   0   0  -6  723.60   34.42
   0   0  -6  771.61   39.57
   0   0  -6  812.93   30.73
   0   0  -6  762.56   57.67
   0   0  -6  777.46   41.12
   0   0   6  763.44   40.72
   0   0  -6  797.09   36.12
   0   0   6  671.08   47.23
   0   0   6  752.76   36.40
   0   0  -6  798.66   51.42
   0   0  -6  797.46   52.56
   0   0   6  750.10   29.58
   0   0   6  773.31   39.88
   1  -2   4 5339.84  259.45
   1  -2   4 5309.10  232.31
  -1   2  -4 5606.32  254.40
  -1  -2  -4 5625.68  252.23
   1  -2   4 5617.33  241.52
  -1  -2  -4 5563.96  261.19
  -1  -2  -4 4440.30  216.42
   1   2   4 5097.16  229.98
  -1   2  -4 5522.15  246.58
   1   2   4 5478.13  253.95
   1   2   4 5752.20  253.27
   1  -2   4 5341.70  239.63
   1  -2   4 5834.06  269.11
   1   2   4 5061.11  227.33
  -1   2  -4 5559.59  271.97
  -1  -2  -4 5443.48  240.65
  -1  -2  -4 5391.73  234.61
  -1  -2  -4 5644.97  246.07
   1  -2  -5 5834.86  264.78
  -1   2   5 5094.82  220.45
  -1  -2   5 4289.80  211.20
  -1  -2   5 5618.27  237.58
  -1  -2   5 5781.49  247.89
   1  -2  -5 5847.42  267.05
  -1   2   5 5021.00  223.37
   1  -2  -5 5560.42  240.33
   1  -2  -5 5772.33  259.15
   1  -2  -5 5873.38  283.76
   1   2  -5 5706.85  254.76
  -1  -2   5 5455.78  239.87
  -1   2   5 5157.08  249.97
  -1  -2   5 5400.63  238.80
  -1  -2   5 5483.47  235.37
  -1  -2   5 4192.07  206.03
   1   2  -5 5771.80  260.32
  -1   2   5 5493.77  233.81
  -1   2   5 5749.22  269.64
   1  -2  -5 5702.14  242.22
   1  -2  -5 5864.10  283.64
   2   2   3  147.53   14.98
   2   2   3  131.17   15.38
   2   2   3  114.24   14.34
   2   2   3  126.34   13.11
  -2  -2  -3  128.00   14.59
  -2  -2  -3  130.00   11.58
  -2  -2  -3  152.84   14.32
  -2  -2  -3  137.22   14.50
  -2   2  -3  104.15   10.27
   2  -2   3  133.58   24.35
   2  -2   3  146.82   15.83
   2  -2   3  138.90   14.31
   2  -2   3  137.70    9.58
  -2   2  -3  173.32   25.82
  -2   2  -3  158.32   17.54
   2  -2   3  134.27   13.04
  -2  -2  -3  130.18    8.54
  -2  -2  -3  123.59    8.60
  -2  -2  -3  132.23   15.88
   2   2   3  121.96   14.41
   2  -2  -5  534.33   20.93
   2   2  -5  574.91   41.63
   2   2  -5  550.32   30.49
   2  -2  -5  464.19   18.31
  -2  -2   5  516.16   29.16
  -2  -2   5  571.32   31.69
   2  -2  -5  576.31   30.75
  -2  -2   5  531.76   30.16
  -2   2   5  549.11   28.85
  -2   2   5  537.71   30.10
  -2  -2   5  576.71   29.00
  -2  -2   5  543.99   41.19
   2  -2  -5  566.38   31.47
   2  -2  -5  552.83   29.64
   2  -2  -5  577.85   29.82
   2  -2  -5  498.40   19.54
  -2   2   5  589.06   38.53
  -2  -2   5  489.83   21.95
  -2  -2   5  520.67   34.34
  -2   2   5  529.66   26.14
   1  -3   1  869.37   37.89
  -1  -3  -1  846.55   57.33
  -1  -3  -1  807.54   36.40
   1  -3   1  881.43   44.18
   1   3   1  879.57   41.90
   1  -3   1  811.17   35.44
   1  -3   1  938.60   37.50
   1  -3   1  831.26   34.43
   1  -3   1  918.44   44.11
  -1  -3  -1  798.94   36.44
  -1  -3  -1  865.34   40.83
  -1  -3  -1  786.57   30.57
  -1  -3  -1  788.25   33.55
   1  -3  -2  300.87   18.80
   1  -3  -2  306.02   20.20
  -1  -3   2  269.22   29.14
   1  -3  -2  301.07   22.28
  -1  -3   2  288.83   29.01
  -1  -3   2  273.02   21.52
  -1  -3   2  286.93   17.81
   1  -3  -2  301.37   28.65
   1  -3  -2  304.58   14.63
  -1  -3   2  312.49   19.29
  -1  -3   2  247.79   22.10
   0  -3  -2 4607.57  187.96
   0  -3   2 4183.45  178.75
   0  -3  -2 3980.87  156.80
   0  -3   2 4349.40  184.09
   0  -3   2 4242.11  182.57
   0  -3  -2 4509.12  186.43
   0  -3   2 4461.92  185.49
   0  -3   2 4394.20  183.97
   0  -3   2 4478.90  180.21
   0  -3  -2 3707.24  151.37
   0  -3  -2 4455.43  190.56
   0  -3  -2 4417.63  215.98
   4  -1   1  156.35   15.77
   4  -1   1  167.31   27.04
  -4   1  -1  165.68   13.80
   4   1   1  141.23   12.02
  -4   1  -1  165.10   17.78
  -4   1  -1  163.97   17.69
  -4  -1  -1  172.46   17.31
   4  -1   1  164.79   14.25
   4  -1   1  184.65   15.55
  -4  -1  -1  174.28   15.49
   4   1   1  152.66   11.87
  -4   1  -1  163.19   16.77
  -4  -1  -1  148.48   12.50
  -4  -1  -1  173.75   14.52
   4  -1   1  154.66   21.79
   4   1   1  145.93   14.17
   4   1   1  160.04   28.45
   4   1   1  160.34   17.86
   4  -1   1  158.75   17.03
   4   1   1  145.08   13.17
   4   1   1  178.14   18.30
  -4  -1  -1  178.56   23.47
  -4   1  -1  167.37   17.45
  -4  -1  -1  152.96    9.66
   3  -1   3 2535.96  114.24
   3  -1   3 2451.51  116.89
  -3  -1  -3 2478.54  107.00
  -3  -1  -3 2481.24  126.62
  -3  -1  -3 2481.26   97.93
  -3   1  -3 2133.65   87.85
  -3  -1  -3 2414.09  100.19
  -3   1  -3 2536.45  124.72
  -3  -1  -3 2433.83  100.51
  -3   1  -3 2365.82  107.44
  -3   1  -3 2551.87  105.11
   3   1   3 2566.05  129.19
   3   1   3 2435.96  118.58
   3   1   3 2486.25  130.64
  -3   1  -3 2395.14  106.76
   3  -1   3 2096.29   95.42
   3   1   3 2571.75  107.10
   3   1   3 2427.79  104.02
   3   1   3 2447.75  102.07
  -3  -1  -3 2535.36   97.72
   3  -1   3 2487.11  107.54
   3  -1   3 2513.55  128.29
   3   1   3 2514.66  102.83
   3  -1   3 2421.34  119.79
  -4   1   5 5563.49  240.80
  -4   1   5 5672.72  266.84
  -4   1   5 5760.08  260.25
   4   1  -5 5277.28  237.32
  -4  -1   5 5456.03  267.60
  -4  -1   5 5019.89  223.02
   4   1  -5 5635.00  244.08
   4  -1  -5 5629.20  262.89
  -4   1   5 5413.92  246.34
  -4  -1   5 5187.96  247.79
  -4  -1   5 5530.67  248.23
  -4  -1   5 5535.76  248.32
   4  -1  -5 5897.00  261.88
   4  -1  -5 6003.03  257.48
  -4   1   5 5216.97  256.41
  -4   1   5 5798.32  281.36
   4   1  -5 5961.02  269.55
   4  -1  -5 5716.14  260.47
  -4  -1   5 5391.54  242.38
   4  -1  -5 5941.10  268.18
   4   1  -5 5581.29  248.74
   4   1  -5 5969.16  265.57
  -4  -1   5 5651.15  241.23
   3   1  -6 2766.32  123.00
   3   1  -6 2940.66  125.97
  -3   1   6 2960.66  128.17
   3  -1  -6 2852.75  113.58
   3  -1  -6 2644.56   95.71
   3  -1  -6 2879.74  115.59
  -3  -1   6 3048.45  129.14
  -3   1   6 3103.98  134.10
  -3  -1   6 2763.21  133.36
   3   1  -6 3135.38  132.13
   3  -1  -6 3096.58  143.42
   3  -1  -6 2848.25  102.22
   3  -1  -6 3029.65  125.90
  -3  -1   6 2894.88  120.55
   3  -1  -6 2885.13  133.14
  -3  -1   6 2794.76  125.99
  -3  -1   6 2873.75  122.96
  -3   1   6 2943.97  115.70
  -3   1   6 2787.59  124.88
  -3  -1   6 2944.12  149.54
  -3   1   6 2801.61  114.59
   3   1  -6 3115.85  131.28
   3   1  -6 2975.98  116.21
   0  -1   6 5481.82  244.71
   0   1   6 5287.86  256.71
   0  -1   6 5287.51  234.38
   0  -1  -6 5201.16  234.44
   0   1   6 4419.80  227.92
   0   1  -6 5509.17  246.13
   0  -1  -6 5700.75  274.36
   0  -1  -6 5579.60  253.41
   0  -1  -6 5570.67  245.87
   0   1  -6 5400.86  271.33
   0  -1  -6 5291.85  239.75
   0   1  -6 5565.21  275.21
   0   1  -6 5639.85  250.73
   0  -1  -6 5497.79  241.04
   0  -1   6 5257.20  242.77
   0   1  -6 5461.29  253.78
   0   1  -6 5556.05  259.86
   0   1   6 4526.68  205.60
   0  -1  -6 5518.14  239.49
   0  -1   6 5442.36  248.01
   0  -1   6 5347.00  230.60
   0   1   6 5809.75  251.03
   0   1   6 5478.95  279.12
   0   1   6 4209.32  206.99
   0   2   5 2857.16  115.52
   0   2  -5 3054.60  149.67
   0  -2   5 2965.21  121.84
   0  -2  -5 3000.22  126.85
   0  -2   5 3004.96  137.59
   0  -2  -5 2864.39  123.45
   0  -2   5 3126.49  153.87
   0   2   5 3177.37  140.68
   0   2   5 2374.18  102.18
   0  -2  -5 2882.19  131.14
   0  -2  -5 3088.95  130.00
   0  -2  -5 2944.17  119.88
   0   2  -5 3005.72  134.74
   0  -2   5 2917.78  140.31
   0  -2  -5 2997.49  136.89
   0  -2   5 2803.71  134.42
   0   2   5 2719.97  126.02
   0   2  -5 3094.81  157.87
   0   2   5 2985.97  124.91
   0   2  -5 2891.26  118.85
   2  -3  -1 1602.05   65.54
   2  -3  -1 1545.69   73.55
   2   3  -1 1458.43   83.37
   2  -3  -1 1590.36   67.34
   2   3  -1 1487.40   83.85
   2  -3  -1 1354.30   53.30
  -2  -3   1 1374.40   80.02
   2  -3  -1 1523.64   62.20
  -2  -3   1 1635.09   90.71
   2  -3  -1 1633.10   83.83
  -2  -3   1 1708.26   91.68
  -2  -3   1 1526.95   64.00
  -2  -3   1 1605.68   64.12
  -5   0   2  269.26   16.00
  -5   0   2  367.35   24.09
   5   0  -2  290.73   34.51
  -5   0   2  263.16   18.13
   5   0  -2  318.88   25.73
   5   0  -2  263.96   17.26
   5   0  -2  305.13   22.56
   5   0  -2  234.06   20.92
  -5   0   2  278.34   21.04
  -5   0   2  211.86   14.46
   5   0  -3 5536.10  274.83
   5   0  -3 6352.98  301.03
  -5   0   3 8062.97  375.84
   5   0  -3 7483.71  342.03
   5   0  -3 5120.13  253.91
  -5   0   3 7767.35  346.82
  -5   0   3 7391.92  358.77
  -5   0   3 7262.21  335.33
  -5   0   3 6894.28  324.46
  -5   0   3 7680.70  363.83
  -5   0   3 7310.27  344.95
   5   0  -3 7332.57  329.08
   5   0  -3 7515.84  333.64
   4  -2  -2 1115.27   50.65
   4  -2  -2 1091.18   63.02
  -4   2   2 1120.88   50.54
   4   2  -2 1026.90   42.17
   4   2  -2 1058.74   68.41
  -4  -2   2 1009.56   45.91
  -4  -2   2 1085.18   51.76
   4  -2  -2 1071.57   56.16
  -4   2   2 1118.40   52.14
   4  -2  -2 1174.30   67.96
  -4  -2   2 1026.07   58.50
  -4   2   2 1191.33   48.12
  -4  -2   2 1165.64   51.99
  -4  -2   2 1133.25   43.96
  -4  -2   2 1079.33   51.46
   4   2  -2  997.04   55.63
   2  -3   0 3713.22  156.30
   2  -3   0 4181.28  191.79
  -2  -3   0 4067.63  177.05
   2   3   0 4171.55  200.16
   2  -3   0 4193.69  172.82
   2  -3   0 4389.80  185.42
  -2  -3   0 3941.86  180.67
   2  -3   0 3853.86  162.20
   2  -3   0 4271.89  178.61
  -2  -3   0 4334.73  195.30
  -2  -3   0 4192.30  181.20
  -2  -3   0 3930.20  176.93
   2   3   0 4036.47  195.75
  -2  -3   2 1473.67   80.67
  -2  -3   2 1494.73   64.51
   2  -3  -2 1561.91   72.32
   2  -3  -2 1633.61   84.64
   2   3  -2 1460.01   66.30
  -2  -3   2 1592.63   61.56
   2  -3  -2 1529.34   67.85
  -2  -3   2 1338.34   63.01
   2   3  -2 1472.40   66.11
   2  -3  -2 1589.67   60.77
  -2  -3   2 1463.73   79.77
  -1  -3  -2 5383.62  251.57
   1  -3   2 5347.64  254.43
   1  -3   2 5488.51  234.60
  -1  -3  -2 4963.77  226.98
   1  -3   2 5562.69  236.63
   1  -3   2 5317.51  237.13
  -1  -3  -2 5166.51  231.22
   1   3   2 5319.84  237.32
   1  -3   2 5153.04  226.20
   1   3   2 4689.51  238.20
  -1  -3  -2 5268.91  239.54
   1  -3   2 4566.72  218.53
  -1  -3   3  841.21   39.88
   1  -3  -3  866.95   34.03
  -1   3   3  765.12   39.90
  -1  -3   3  782.80   34.62
  -1  -3   3  861.64   41.31
   1  -3  -3  911.75   42.68
   1  -3  -3  863.14   60.53
  -1  -3   3  905.09   33.51
   1  -3  -3  902.89   41.03
  -1  -3   3  890.57   40.02
   4  -2  -1  288.00   20.80
   4  -2  -1  357.31   32.80
   4  -2  -1  289.31   27.96
  -4   2   1  319.52   19.94
  -4   2   1  381.27   37.46
   4   2  -1  282.29   24.25
   4   2  -1  258.97   24.36
   4   2  -1  279.05   17.72
  -4  -2   1  284.05   14.79
  -4  -2   1  550.36   41.33
  -4  -2   1  292.89   28.88
  -4  -2   1  283.57   33.01
  -4  -2   1  268.17   29.43
   4  -2  -1  295.75   21.30
  -4   2   1  289.45   36.84
   3   2   2 6586.08  314.77
   3   2   2 7303.83  333.65
  -3  -2  -2 7446.99  344.53
  -3  -2  -2 6477.76  317.50
  -3  -2  -2 6533.60  301.56
  -3  -2  -2 7107.96  331.42
   3   2   2 6836.57  325.48
   3   2   2 6915.05  331.76
   3   2   2 6355.76  302.81
  -3   2  -2 7020.37  328.66
  -3   2  -2 6742.35  296.66
   3  -2   2 6608.39  305.11
   3  -2   2 6687.37  309.24
   3  -2   2 6774.23  310.36
   3  -2   2 7599.71  333.79
   3  -2   2 6895.87  319.63
  -3  -2  -2 6257.78  314.16
  -3  -2  -2 7761.11  363.97
  -4   0  -2  883.30   55.75
   4   0   2  867.49   55.19
  -4   0  -2  871.27   45.01
   4   0   2  867.30   42.53
  -4   0  -2  911.03   43.06
  -4   0  -2  943.86   63.72
  -4   0  -2  955.93   44.90
  -4   0  -2  805.05   33.28
  -4   0  -2 1020.91   58.39
   4   0   2  979.98   43.79
   4   0   2  970.54   43.67
   4   0   2  876.82   35.06
   4   0   2  915.20   41.51
  -4  -2   3   50.99   11.40
   4  -2  -3   57.22   16.44
   4   2  -3   49.24   19.88
   4   2  -3   45.90    9.39
  -4  -2   3   49.91   11.01
  -4  -2   3   44.16    7.11
  -4  -2   3   32.77    9.48
  -4   2   3   45.96    8.51
  -4   2   3   54.19    6.28
   4  -2  -3   85.99   11.56
   4  -2  -3   62.12   18.42
   4   2  -3   46.46    9.58
  -4   2   3   81.51   11.66
  -4   2   3   47.84   11.73
  -4  -2   3   33.69    5.01
  -4   2   3   52.26   10.47
  -4  -2   3   52.86    6.76
  -4  -2   3   43.12   14.51
   4   2  -3   31.85   14.04
  -4  -2   3   49.12    9.97
   3   2  -5 1382.39   60.92
  -3  -2   5 1365.16   77.64
  -3   2   5 1270.50   53.04
  -3   2   5 1327.26   72.31
  -3   2   5 1420.72   78.76
  -3  -2   5 1281.72   59.29
  -3  -2   5 1380.17   61.17
  -3  -2   5 1336.06   62.66
  -3  -2   5 1417.73   59.35
  -3  -2   5 1362.90   56.29
  -3  -2   5 1384.66   59.85
  -3   2   5 1282.37   71.36
   3  -2  -5 1059.31   42.52
   3  -2  -5 1459.29   61.86
   3  -2  -5 1408.83   59.30
   3  -2  -5 1230.22   47.92
   3  -2  -5 1414.76   56.03
   3   2  -5 1359.11   75.72
   3   2  -5 1320.97   54.33
   4   0  -6 1145.53   49.27
  -4   0   6 1233.44   47.86
  -4   0   6 1136.41   71.02
   4   0  -6 1208.01   47.53
  -4   0   6 1144.58   72.72
  -4   0   6 1126.14   45.70
  -4   0   6 1132.85   50.27
  -4   0   6  825.64   40.64
  -4   0   6 1097.35   51.33
   4   0  -6 1100.21   47.97
  -4   0   6 1010.52   47.75
   4   0  -6 1067.29   51.76
   4   0  -6 1109.81   42.86
   4   0  -6 1160.24   48.00
   5   0  -1    6.49    3.78
  -5   0   1    8.25    4.01
  -5   0   1    2.04    7.45
   5   0  -1   -1.99   11.37
   5   0  -1    1.96    3.73
  -5   0   1   12.00   10.38
   5   0  -1    2.11    4.41
  -5   0   1    2.25    6.79
  -5   0   1    1.98    5.17
   5   0  -1    0.06    5.69
  -5   0   1    1.95    6.17
   5   0  -1    0.43    5.48
  -5   0   4  182.41   17.99
  -5   0   4  157.26   14.07
  -5   0   4  148.50   14.17
  -5   0   4  162.91   15.84
   5   0  -4  159.21   24.02
  -5   0   4  174.06   17.50
  -5   0   4  173.59    9.20
   5   0  -4  125.84    9.39
   5   0  -4  132.45   13.34
   5   0  -4  169.48   13.30
  -5   0   4  142.83   13.44
  -5   0   4  156.77   28.89
  -2   0  -5 4144.54  208.85
  -2   0  -5 4377.95  191.56
   2   0   5 4240.43  182.08
   2   0   5 4095.95  175.27
   2   0   5 3917.35  160.05
   2   0   5 4301.06  205.22
   2   0   5 2934.64  142.63
  -2   0  -5 3697.49  176.71
  -2   0  -5 4361.56  186.58
   2   0   5 4001.10  164.59
   2   0   5 2852.43  151.61
  -2   0  -5 4129.56  176.66
  -2   0  -5 4026.59  199.49
  -2   0   7 4134.20  193.46
  -2   0   7 4078.54  170.53
  -2   0   7 4303.17  191.78
   2   0  -7 4300.25  173.94
   2   0  -7 4806.85  209.49
  -2   0   7 4621.89  204.51
   2   0  -7 4527.42  200.84
   2   0  -7 4538.23  206.39
   2   0  -7 4655.03  207.85
   2   0  -7 4678.64  227.11
   2   0  -7 4538.05  204.06
  -2   0   7 4327.68  188.85
   0  -3  -3 2150.45   87.77
   0  -3   3 2131.22   94.29
   0  -3  -3 2230.41  113.12
   0  -3   3 2233.39   88.23
   0  -3  -3 2203.73  106.12
   0  -3   3 2096.11  100.08
   0  -3   3 1944.23   79.27
   0  -3  -3 1750.08   71.03
   0  -3   3 2088.33   87.30
   0  -3  -3 1668.71   66.26
   0   3   3 1882.36   84.07
   0  -3  -3 2248.98   97.05
   1   0   6 2532.34  109.08
   1   0   6 2320.93  102.38
   1   0   6 2414.58  104.56
  -1   0  -6 2468.32  107.72
  -1   0  -6 2547.83  107.35
  -1   0  -6 2347.14   98.11
  -1   0  -6 2515.32  112.31
   1   0   6 2174.72  104.17
   1   0   6 2467.43   95.98
  -1   0  -6 2587.67  107.74
  -1   0  -6 2352.52   94.73
  -1   0  -6 2670.41  102.93
  -1   0  -6 2442.23  128.46
  -1   0   7 1383.31   82.98
   1   0  -7 1415.35   64.40
   1   0  -7 1443.61   66.90
   1   0  -7 1454.22   61.19
  -1   0   7 1523.12   67.15
  -1   0   7 1196.76   49.07
   1   0  -7 1564.23   83.31
   1   0  -7 1494.75   88.34
   1   0  -7 1460.22   59.05
  -1   0   7 1240.19   51.86
   1   0  -7 1463.18   73.78
  -1   0   7 1452.70   76.82
   1   0  -7 1525.45   67.64
  -2  -3  -1 1747.79   75.15
  -2  -3  -1 1695.43   77.65
  -2  -3  -1 1786.28   74.73
  -2  -3  -1 1765.35   68.81
  -2  -3  -1 1703.75   72.88
   2  -3   1 1765.84   70.68
   2  -3   1 1676.65   81.58
   2  -3   1 1864.85   77.14
   2   3   1 1782.14   77.18
   2  -3   1 1674.07   71.61
   2  -3   1 1965.64   75.08
  -2   3   3 6801.81  317.85
  -2  -3   3 6643.51  329.70
   2   3  -3 4865.46  277.26
   2  -3  -3 7112.43  351.86
   2  -3  -3 7090.44  316.81
   2  -3  -3 6898.63  315.66
  -2  -3   3 7117.43  342.76
  -2  -3   3 7052.19  315.77
   2  -3  -3 7778.94  344.74
   2   3  -3 7195.29  327.49
  -2  -3   3 5415.83  304.58
  -2  -3   3 6914.84  339.44
  -5   1   2  582.98   29.83
   5  -1  -2  623.41   34.33
  -5   1   2  510.85   23.25
   5   1  -2  594.96   33.01
  -5  -1   2  473.53   22.50
  -5   1   2  647.52   55.51
  -5   1   2  632.86   42.21
  -5   1   2  562.46   36.73
   5   1  -2  563.27   23.30
  -5  -1   2  508.19   27.46
   5  -1  -2  644.33   33.03
   5  -1  -2  637.28   33.42
  -5  -1   2  593.66   31.21
  -5  -1   2  560.89   45.38
  -5  -1   2  651.79   42.02
  -5  -1   2  527.08   23.27
  -5  -1   2  559.56   31.78
  -5  -1   2  466.37   29.13
   5  -1  -2  621.31   31.48
   5   1  -2  632.63   41.28
   5   1  -2  475.31   22.28
   5  -1  -2  553.97   28.20
   5  -1  -3  483.28   27.35
   5  -1  -3  535.23   44.69
  -5   1   3  477.47   24.24
  -5  -1   3  471.75   27.00
  -5  -1   3  402.50   30.03
  -5  -1   3  490.54   27.76
   5  -1  -3  454.56   23.47
  -5   1   3  457.59   27.80
  -5   1   3  501.59   31.92
  -5   1   3  527.58   32.54
  -5  -1   3  467.91   26.55
  -5  -1   3  427.00   22.50
   5   1  -3  478.98   40.68
  -5  -1   3  451.67   26.22
   5   1  -3  493.65   19.95
  -5  -1   3  453.07   28.35
   5  -1  -3  504.64   28.30
   5   1  -3  480.11   29.65
  -5   1   3  557.52   41.31
   5  -1  -3  512.53   28.41
   4  -2   0 7743.26  374.32
   4   2   0 6928.28  337.85
   4   2   0 6749.74  353.16
   4   2   0 7268.26  333.63
  -4  -2   0 6958.50  324.03
   4  -2   0 7468.33  344.94
   4  -2   0 7228.52  337.65
  -4   2   0 7640.86  383.89
  -4   2   0 7895.77  395.04
   4  -2   0 6973.78  326.10
   4   2   0 6885.05  315.85
  -4  -2   0 6754.47  330.98
  -4  -2   0 7231.27  363.77
  -4  -2   0 6997.63  344.94
  -4  -2   0 6475.91  327.16
  -4  -2   0 7211.45  337.95
  -4   2   4  683.63   36.94
   4  -2  -4  656.52   24.41
   4  -2  -4  718.47   34.40
   4   2  -4  670.58   38.79
   4   2  -4  680.95   35.24
   4   2  -4  656.93   36.19
   4   2  -4  653.16   31.85
  -4  -2   4  575.92   26.96
  -4  -2   4  683.28   34.65
  -4  -2   4  708.19   31.13
  -4  -2   4  566.41   37.89
  -4  -2   4  623.87   40.79
  -4   2   4  643.50   31.40
   4  -2  -4  743.74   49.36
  -4  -2   4  671.36   50.78
  -4  -2   4  683.73   28.58
   4  -2  -4  678.27   25.24
   4  -2  -4  721.51   37.18
  -4  -2   4  687.59   35.01
  -4   2   4  687.97   34.17
   3   0   4   83.73    8.76
   3   0   4   87.41   14.07
   3   0   4   77.89   13.87
  -3   0  -4   91.35   25.23
   3   0   4   97.29   12.94
   3   0   4   81.27   13.45
  -3   0  -4   86.59   12.06
  -3   0  -4  106.05   13.59
  -3   0  -4   97.72   10.69
  -3   0  -4   82.99   18.28
  -3   0  -4  128.99   17.63
  -3   0  -4   81.94    8.86
  -3   0   7 4374.49  214.33
  -3   0   7 4711.83  200.41
  -3   0   7 4732.32  209.14
  -3   0   7 3640.83  190.18
   3   0  -7 5002.29  238.79
  -3   0   7 4357.52  214.22
  -3   0   7 4916.71  232.49
   3   0  -7 4929.09  215.64
   3   0  -7 4863.89  203.22
  -3   0   7 4844.75  214.28
   3   0  -7 5089.61  210.67
  -3   0   7 3988.00  199.44
   3   0  -7 3769.14  181.76
   3   0  -7 5191.59  226.64
  -4  -1  -2 2079.76   91.17
  -4   1  -2 2274.97   85.52
  -4   1  -2 2366.35  101.24
  -4   1  -2 2252.29   92.02
  -4  -1  -2 2215.56   97.12
  -4   1  -2 2344.57  105.82
  -4   1  -2 2132.94   99.88
   4   1   2 2152.81   92.31
   4   1   2 2331.56   92.91
   4   1   2 1981.67   95.94
   4  -1   2 2260.42   97.69
   4   1   2 2273.63  118.45
   4   1   2 2371.32  104.51
   4   1   2 2354.16  116.91
   4   1   2 1987.13   81.96
   4  -1   2 2171.20   94.77
   4  -1   2 2543.69  102.81
   4  -1   2 2741.06  109.29
   4  -1   2 2198.28   91.75
  -4  -1  -2 2068.22   86.96
  -4  -1  -2 2349.68  108.04
  -4  -1  -2 2303.85   95.74
  -4   1  -2 2292.53   98.49
  -4  -1  -2 2319.06  108.95
  -4  -1   6 4070.53  179.83
   4   1  -6 4318.65  206.63
   4  -1  -6 4225.15  181.85
   4  -1  -6 3919.84  181.30
   4   1  -6 4302.58  211.24
  -4  -1   6 4078.39  177.95
  -4   1   6 4255.24  192.72
   4  -1  -6 4526.20  201.49
  -4  -1   6 3970.85  166.76
  -4  -1   6 3990.10  172.85
  -4  -1   6 3917.33  171.96
   4  -1  -6 4316.03  183.85
   4  -1  -6 4344.95  182.48
  -4   1   6 3809.49  169.01
  -4  -1   6 4015.37  180.04
  -4  -1   6 3877.19  168.78
  -4   1   6 3975.61  169.49
  -4   1   6 3870.00  160.61
  -4   1   6 4221.84  210.56
   4   1  -6 4244.51  186.60
  -4   1   6 4287.26  210.31
   4   1  -6 3906.29  168.69
   4   1  -6 4273.58  176.13
   5   1  -1  455.70   41.94
   5  -1  -1  477.42   28.46
   5  -1  -1  482.51   28.75
   5   1  -1  411.14   24.56
  -5  -1   1  463.86   34.33
  -5  -1   1  341.38   16.52
   5  -1  -1  423.34   24.06
  -5   1   1  462.70   40.08
   5  -1  -1  445.42   21.00
   5  -1  -1  453.85   36.20
  -5  -1   1  398.17   19.90
  -5  -1   1  435.86   26.53
   5   1  -1  456.43   30.81
  -5  -1   1  434.70   26.13
  -5   1   1  452.09   33.75
   5   1  -1  372.39   22.08
  -5   1   1  378.59   19.64
  -5  -1   1  462.75   27.90
   5   1  -1  451.78   28.92
   5   1  -1  438.12   20.18
  -5   1   1  456.34   24.73
   5  -1  -4   75.64   11.74
   5  -1  -4   78.01   11.73
   5  -1  -4   69.83    8.95
   5   1  -4   70.95   13.07
  -5  -1   4   54.11    9.07
  -5  -1   4   65.98    8.11
  -5   1   4   71.53   12.47
  -5  -1   4   60.58   18.03
  -5   1   4   84.55   14.29
  -5   1   4   80.03   14.24
  -5  -1   4   61.97    7.02
  -5   1   4   87.75    8.49
  -5  -1   4   72.22   16.54
  -5  -1   4   99.27   19.16
  -5   1   4   67.45    8.92
  -5   1   4  107.23   12.96
   5   1  -4   82.31   12.25
  -5  -1   4   67.65   12.67
   5   1  -4   64.14    8.17
   5   1  -4   60.35   10.66
  -5  -1   4   70.64   12.29
  -5   1   4   62.35   12.69
   5   1  -4   70.39    6.29
  -2  -1  -5  506.08   20.31
  -2   1  -5  460.00   25.53
  -2  -1  -5  463.07   29.02
  -2   1  -5  433.32   25.83
   2  -1   5  487.26   29.52
  -2   1  -5  428.59   25.12
   2   1   5  441.10   29.33
   2  -1   5  427.97   26.55
  -2  -1  -5  464.47   42.69
  -2  -1  -5  465.70   27.10
   2  -1   5  438.77   25.53
   2   1   5  475.08   22.39
   2   1   5  377.56   21.82
  -2  -1  -5  400.96   25.51
  -2  -1  -5  422.10   30.69
   2   1   5  433.30   26.08
  -2  -1  -5  460.31   39.49
  -2  -1  -5  418.51   24.60
  -2   1  -5  442.80   37.02
   2  -1   5  444.26   25.32
   2   1   5  445.03   26.10
   2  -1  -7  224.87   16.85
   2  -1  -7  246.47   21.39
   2  -1  -7  250.56   20.40
   2  -1  -7  275.43   21.79
  -2  -1   7  258.22   21.48
  -2  -1   7  196.87   12.79
  -2  -1   7  200.57   22.63
  -2   1   7  204.55   15.47
  -2   1   7  244.84   21.28
  -2   1   7  220.31   17.81
  -2   1   7  226.62   17.90
  -2  -1   7  242.75   17.54
   2   1  -7  229.31   14.78
   2  -1  -7  233.92   29.77
   2   1  -7  248.78   17.04
   2   1  -7  265.06   21.19
  -2  -1   7  221.26   19.88
  -2  -1   7  247.06   22.46
   2  -1  -7  266.40   31.29
   2  -1  -7  255.57   15.22
  -2  -1   7  185.66   16.61
   2   1  -7  247.80   30.19
   2   1  -7  253.64   37.49
  -2   1   7  232.30   19.52
   5   0   0  622.16   28.07
   5   0   0  670.85   37.66
  -5   0   0  669.49   34.83
  -5   0   0  571.09   39.64
  -5   0   0  676.52   48.67
  -5   0   0  654.63   36.37
   5   0   0  647.99   31.86
   5   0   0  636.57   48.37
   5   0   0  605.89   33.69
   5   0   0  545.64   37.04
  -5   0   0  574.69   40.49
  -5   0   0  699.92   36.40
  -5   0   0  480.87   27.46
   2   2   4 1252.68   60.46
   2   2   4 1279.60   57.61
  -2  -2  -4 1362.35   80.08
   2  -2   4 1315.35   58.74
   2  -2   4 1360.38   59.47
  -2   2  -4 1315.23   61.14
   2  -2   4 1392.02   60.47
  -2   2  -4 1313.05   60.22
  -2  -2  -4 1112.69   57.97
  -2  -2  -4 1354.62   58.92
  -2  -2  -4 1323.42   56.72
  -2   2  -4 1355.13   63.41
   2  -2   4 1302.72   59.69
  -2  -2  -4 1274.42   73.61
   2   2   4 1282.74   53.46
  -2   2  -4 1240.21   52.18
   2   2   4 1232.87   70.75
   2   2   4 1344.37   56.76
  -5   0   5  348.02   21.05
  -5   0   5  401.55   25.11
  -5   0   5  342.22   21.75
  -5   0   5  388.91   25.87
  -5   0   5  394.74   26.33
  -5   0   5  345.06   21.58
  -5   0   5  384.64   38.52
   5   0  -5  377.37   19.02
   5   0  -5  389.89   22.78
   5   0  -5  393.35   22.00
   5   0  -5  325.34   25.30
  -2  -2   6   30.38    7.93
   2   2  -6   28.30    9.00
   2   2  -6   30.32    9.14
  -2   2   6   25.70    7.56
   2   2  -6   27.78   10.10
   2  -2  -6   24.00    9.11
  -2  -2   6   46.90   14.85
   2  -2  -6   30.64    4.66
   2  -2  -6   30.52    8.39
   2  -2  -6   25.50   10.03
   2  -2  -6   31.68    6.70
   2  -2  -6   16.89    7.93
  -2  -2   6   26.22    9.63
   2  -2  -6   41.57    9.55
  -2  -2   6   49.34    9.66
  -2  -2   6   23.98    8.52
  -2   2   6   19.15    7.84
  -2   2   6   28.81   14.03
  -2   2   6   29.15    9.49
   1  -2   5 1348.01   60.77
   1   2   5 1299.82   68.76
   1   2   5 1312.21   65.33
  -1  -2  -5 1364.00   75.09
  -1  -2  -5 1313.04   73.66
  -1  -2  -5 1322.34   56.68
  -1  -2  -5 1315.56   53.98
   1   2   5 1456.04   92.38
   1  -2   5 1482.86   74.22
   1  -2   5 1350.03   61.88
  -1   2  -5 1433.23   66.87
   1  -2   5 1377.10   60.82
  -1   2  -5 1062.22   47.91
  -1   2  -5 1409.88   69.89
  -1  -2  -5 1430.31   76.45
  -1   2  -5 1440.36   64.31
  -1  -2  -5 1487.64   64.62
   1   2   5 1434.24   61.93
  -1   2   6 2606.80  117.05
  -1   2   6 2807.00  116.08
  -1   2   6 3261.39  146.64
  -1   2   6 2497.03  119.31
   1  -2  -6 3296.04  161.63
  -1  -2   6 3066.23  133.03
   1   2  -6 3156.28  154.59
  -1  -2   6 3026.30  142.99
   1   2  -6 3093.22  134.50
  -1  -2   6 3190.65  131.91
  -1  -2   6 3218.32  131.32
   1  -2  -6 3386.34  136.57
  -1   2   6 2865.51  135.38
   1  -2  -6 2955.22  128.27
   1  -2  -6 3083.77  128.35
   1  -2  -6 3219.87  136.45
   1  -2  -6 3411.61  138.01
   1   2  -6 3208.42  155.11
  -1  -2   6 3132.90  132.26
  -1   2   6 3252.63  138.70
   1  -3   3 1472.66   64.98
   1  -3   3 1638.37   64.71
   1  -3   3 1476.85   69.61
   1  -3   3 1514.81   80.25
   1  -3   3 1377.02   62.70
   1   3   3 1332.02   63.96
  -1  -3  -3 1529.45   70.86
  -1  -3  -3 1542.92   61.94
  -1  -3  -3 1532.25   64.79
  -1  -3  -3 1522.30   85.59
   1   3   3 1462.28   65.40
   1   3   3 1464.18   66.49
   1  -3  -4  658.01   35.59
  -1  -3   4  659.69   35.29
  -1  -3   4  662.86   33.53
  -1   3   4  599.45   34.09
  -1  -3   4  670.34   27.75
  -1  -3   4  687.92   33.77
  -1  -3   4  675.05   45.02
   1  -3  -4  668.79   35.45
   1  -3  -4  657.98   47.49
   1  -3  -4  695.72   38.18
   1  -1   6 7147.95  332.11
   1   1   6 7572.60  339.31
   1   1   6 6523.22  308.23
  -1  -1  -6 5253.05  283.15
  -1   1  -6 7193.68  339.74
  -1  -1  -6 7178.91  362.87
  -1   1  -6 7122.38  329.55
   1  -1   6 7164.37  330.06
   1  -1   6 6968.51  324.54
   1  -1   6 6672.92  304.32
  -1   1  -6 7158.01  338.17
   1   1   6 5089.09  288.92
   1   1   6 4859.83  280.18
   1   1   6 7010.77  356.22
  -1  -1  -6 7312.93  338.76
  -1   1  -6 7260.47  329.09
  -1  -1  -6 6964.42  339.01
  -1  -1  -6 6966.54  322.58
  -1  -1  -6 7176.50  339.91
  -1   1  -6 7186.21  347.64
  -1  -1  -6 6847.72  340.46
  -1  -1  -6 7198.27  333.40
   1  -1   6 7334.79  335.53
   1   1   6 6556.53  308.24
  -1  -1   7 3428.13  150.98
   1  -1  -7 3682.33  152.84
   1  -1  -7 3512.93  151.59
  -1   1   7 2693.45  126.20
   1  -1  -7 3617.15  162.75
   1  -1  -7 3282.47  160.62
  -1   1   7 3437.99  154.23
  -1  -1   7 2705.46  133.58
  -1  -1   7 3307.63  144.36
   1   1  -7 3524.44  151.88
   1  -1  -7 3421.48  171.18
   1  -1  -7 3514.33  154.00
  -1   1   7 3516.53  162.09
   1   1  -7 3687.30  163.34
   1   1  -7 3327.88  138.50
   1  -1  -7 3319.58  162.44
   1  -1  -7 3546.98  152.45
  -1  -1   7 3752.18  166.32
   1   1  -7 3566.62  151.18
  -1   1   7 3121.23  135.21
  -1  -1   7 3133.43  130.69
   1   1  -7 3351.44  152.43
  -1   1   7 3356.45  166.23
   1   1  -7 3546.90  152.47
   3  -3  -1 4509.06  216.69
   3   3  -1 4418.80  198.56
   3   3  -1 4790.03  229.27
  -3  -3   1 4467.21  197.05
  -3  -3   1 4598.93  204.11
  -3  -3   1 4361.22  192.65
   3  -3  -1 4453.54  188.05
   3  -3  -1 4560.46  201.98
   3  -3  -1 4670.62  205.22
   3   3  -2 2147.86   97.42
  -3  -3   2 2311.92  100.55
   3   3  -2 2318.53  102.73
   3   3  -2 2825.53  132.06
   3  -3  -2 2521.12  107.17
   3  -3  -2 2421.41  114.64
   3  -3  -2 2383.10  104.46
  -3  -3   2 2377.34  102.74
  -3  -3   2 2437.06  103.06
  -3  -1  -4 2263.21   89.61
   3  -1   4 2241.64   94.67
  -3   1  -4 2256.96   95.58
   3   1   4 2176.38   93.81
   3  -1   4 2049.90  102.04
   3   1   4 1762.94   86.27
   3  -1   4 2181.41  114.62
  -3  -1  -4 2151.21   90.76
  -3   1  -4 2122.11  101.52
  -3   1  -4 2151.69   90.12
  -3   1  -4 1889.82   94.69
  -3  -1  -4 2095.52   92.74
   3   1   4 2048.58   87.88
   3   1   4 2033.98   84.72
  -3  -1  -4 2048.09   87.85
  -3  -1  -4 2286.79   99.44
   3   1   4 2132.09  108.77
   3   1   4 2145.18   95.38
  -3   1  -4 2046.58   97.32
  -3  -1  -4 2133.90   84.86
   3  -1   4 2239.85   98.22
  -3  -1   7  987.86   50.71
   3   1  -7  991.67   39.88
   3  -1  -7  783.23   32.04
  -3   1   7  892.78   39.54
  -3   1   7  967.75   48.83
  -3  -1   7  981.83   64.04
   3   1  -7  888.95   45.89
  -3   1   7  973.25   48.65
  -3  -1   7  891.90   40.58
   3  -1  -7 1051.01   46.72
  -3   1   7  969.21   47.07
   3   1  -7 1014.02   47.87
   3  -1  -7 1068.44   47.35
  -3  -1   7  927.60   51.35
  -3  -1   7  902.44   56.13
   3  -1  -7  996.65   40.58
   3  -1  -7  734.18   38.57
   3  -1  -7  750.92   31.73
   3  -1  -7  949.33   40.28
   3   1  -7  980.55   47.80
   3   1  -7 1030.57   48.42
  -3  -1   7  972.74   46.83
   2  -3   2  699.81   47.36
  -2  -3  -2  731.06   49.30
   2   3   2  737.67   37.76
   2  -3   2  747.25   38.11
   2  -3   2  746.67   36.80
   2  -3   2  743.05   46.64
   2   3   2  642.51   38.22
   2   3   2  689.32   44.14
  -2  -3  -2  704.21   50.78
  -2  -3  -2  748.55   35.56
  -2  -3  -2  713.39   41.16
  -2  -3   4 2407.70  122.34
   2  -3  -4 2448.22  108.65
   2  -3  -4 2516.47  108.71
   2   3  -4 2510.09  125.02
  -2   3   4 2296.18  102.88
  -2   3   4 2609.10  114.38
  -2  -3   4 2304.08  102.06
   2  -3  -4 2494.10  116.81
  -2  -3   4 2486.84  122.83
  -2  -3   4 2379.99  100.66
  -2  -3   4 2574.58  114.66
   0   0  -7   33.56   10.84
   0   0  -7   47.71    9.94
   0   0  -7   32.13   11.54
   0   0   7   33.80   11.12
   0   0  -7   51.04    9.85
   0   0   7   36.16   10.33
   0   0  -7   35.24   19.14
   0   0  -7   36.67   14.09
   0   0  -7   38.69    8.33
   0   0   7   34.43    8.88
   0   0   7   29.97    8.95
   0   0   7   23.02   13.54
   0   0  -7   25.35    5.37
   4   2   1 5210.73  228.96
   4   2   1 4761.17  251.34
  -4  -2  -1 4882.30  213.31
  -4   2  -1 4876.18  222.55
   4  -2   1 4962.32  244.73
  -4  -2  -1 4520.43  211.09
  -4  -2  -1 4952.89  219.60
  -4  -2  -1 4588.89  201.25
  -4  -2  -1 5027.31  227.34
  -4   2  -1 5171.44  261.89
   4  -2   1 5717.76  261.90
   4  -2   1 5062.24  224.73
   4  -2   1 5012.81  224.10
   4  -2   1 4785.22  235.51
  -4  -2  -1 4922.51  219.02
   4   2   1 4757.35  206.72
   4   2   1 4664.69  222.10
  -3  -2  -3  354.50   26.47
   3   2   3  302.08   18.30
   3  -2   3  358.52   24.41
   3  -2   3  350.52   24.03
   3  -2   3  385.00   24.08
  -3   2  -3  362.55   25.93
   3   2   3  370.99   28.53
   3  -2   3  440.27   25.44
  -3  -2  -3  343.29   20.63
   3   2   3  406.28   38.27
   3   2   3  313.36   30.41
  -3  -2  -3  369.01   34.22
  -3  -2  -3  355.42   38.64
   3   2   3  370.72   24.42
  -3  -2  -3  356.07   25.41
  -3  -2  -3  327.63   24.59
  -3   2  -3  345.36   25.79
  -3   2  -3  393.47   28.32
   3   2   3  324.19   27.75
   0  -3   4  103.87   22.09
   0   3   4   94.86   13.98
   0  -3   4   78.51   12.34
   0   3   4   83.90   13.51
   0  -3   4   93.54   16.65
   0  -3   4   99.73   11.87
   0  -3  -4   71.39    7.96
   0  -3   4   79.64   11.58
   0  -3  -4   85.32   12.90
   0  -3  -4   90.82   10.02
   0  -3  -4   82.85   14.16
   0  -3  -4   99.11   13.70
   0  -3  -4   90.05   11.53
  -4  -2   5   29.67    9.84
  -4  -2   5   30.82    7.90
  -4  -2   5   29.41   11.76
  -4  -2   5   55.80   10.55
   4  -2  -5   28.55   10.21
   4  -2  -5   30.78   16.24
   4  -2  -5   34.79   14.90
  -4   2   5   33.35   17.42
  -4   2   5   31.82    9.17
  -4   2   5   34.05    8.39
   4  -2  -5   29.93    9.54
   4   2  -5   30.66   16.28
   4   2  -5   27.54   10.11
  -4  -2   5   28.11   16.78
  -4  -2   5   33.82    6.75
  -4   2   5   35.75   11.66
  -4  -2   5   30.38   13.43
   4   2  -5   36.63    7.13
  -4  -2   5   30.60   14.87
   3  -2  -6   43.18    9.25
  -3  -2   6   49.64    8.36
   3   2  -6   63.16   19.66
   3   2  -6   56.31   17.42
   3   2  -6    1.95   11.28
  -3  -2   6   55.30    9.83
  -3   2   6   49.32   18.13
  -3   2   6   47.18   15.61
  -3  -2   6   64.72   19.37
  -3   2   6   51.51    9.65
   3  -2  -6   51.43    9.79
   3  -2  -6   44.48    6.62
   3   2  -6   52.37    9.49
  -3   2   6   48.22   10.37
  -3  -2   6   52.76   11.48
  -3  -2   6   56.78   11.51
  -3  -2   6   49.97   10.34
   3  -2  -6   59.92   11.11
   3  -2  -6   60.90   10.49
  -5   1   0   48.20   14.55
   5  -1   0   54.66   17.83
  -5  -1   0   42.14   17.69
  -5  -1   0   37.24    7.44
  -5  -1   0   32.27   14.78
  -5  -1   0   48.32   17.52
  -5  -1   0   40.03   17.18
  -5   1   0   61.57   12.04
  -5   1   0   52.48   11.26
   5   1   0   45.59    9.77
   5   1   0   43.96   19.97
   5   1   0   54.61    7.11
   5   1   0   28.12   20.76
   5   1   0   30.82    6.37
   5   1   0  136.96   20.20
   5  -1   0   35.35    9.64
   5  -1   0   74.35   19.04
  -5   1   0   36.34   10.15
   5  -1   0   52.69   11.59
   5  -1   0   43.05    9.08
   5  -1   0   36.61    6.93
  -5   1   0   35.52    7.09
  -5  -1   5 2842.37  111.01
  -5   1   5 3034.19  121.40
  -5  -1   5 2550.12  118.49
  -5  -1   5 2705.25  137.84
   5   1  -5 2857.64  139.66
   5   1  -5 2926.71  123.13
   5   1  -5 2813.09  117.51
   5   1  -5 2798.27  114.93
   5   1  -5 2803.85  108.06
   5   1  -5 3028.42  131.40
   5  -1  -5 3024.22  122.12
  -5  -1   5 2718.64  117.94
   5  -1  -5 2494.07  110.12
  -5   1   5 2670.57  122.65
  -5  -1   5 2760.44  116.89
  -5  -1   5 2759.21  119.10
  -5   1   5 2987.15  130.72
   5  -1  -5 2883.48  140.68
   5  -1  -5 2630.83  124.46
   5  -1  -5 3012.31  129.52
  -5   1   5 2713.47  119.65
  -5   1   5 3056.75  150.07
  -5   1   5 3025.58  153.68
  -5   1   5 2379.35  109.96
  -5  -1   5 2885.40  142.03
  -3  -3   0  632.28   42.43
  -3  -3   0  603.38   33.24
   3  -3   0  628.80   30.19
   3  -3   0  637.77   31.03
  -3  -3   0  608.88   47.61
  -3  -3   0  649.00   38.83
  -3  -3   0  608.71   42.66
   3   3   0  605.66   33.91
   3   3   0  611.60   34.18
   3  -3   0  634.83   33.33
   3  -3   0  656.30   48.85
   3   3  -3  359.42   37.70
  -3  -3   3  341.03   37.23
   3   3  -3  260.09   26.63
  -3  -3   3  356.12   23.12
  -3  -3   3  363.93   29.81
   3  -3  -3  401.08   31.40
   3  -3  -3  343.54   22.24
   3  -3  -3  374.37   35.75
   3  -3  -3  341.61   38.34
  -3  -3   3  347.40   24.74
  -3   3   3  347.99   25.07
   3   3  -3  355.22   23.23
   4   0   3 2012.44   83.89
   4   0   3 1864.10   82.81
  -4   0  -3 2080.34  100.60
  -4   0  -3 1797.43   73.29
  -4   0  -3 1969.17   77.58
   4   0   3 2002.80  109.19
  -4   0  -3 2024.44  112.96
  -4   0  -3 1984.95   93.29
  -4   0  -3 1902.74   84.41
  -4   0  -3 2069.06   88.32
   4   0   3 1890.57   84.45
   4   0   3 2026.92   87.52
   4   0   3 2108.34   86.31
   4   0  -7  538.70   26.68
   4   0  -7  614.62   25.70
   4   0  -7  596.23   30.72
   4   0  -7  507.45   21.09
  -4   0   7  561.14   31.50
   4   0  -7  607.30   31.19
  -4   0   7  576.84   51.55
  -4   0   7  458.49   24.00
  -4   0   7  469.76   43.72
   4   0  -7  537.44   30.07
  -4   0   7  561.17   43.46
   4   0  -7  584.03   43.58
  -4   0   7  546.67   47.25
  -4   0   7  580.80   34.65
   0   2  -6 2978.13  129.82
   0   2  -6 3216.87  149.05
   0   2   6 2769.81  119.70
   0  -2  -6 2828.65  131.77
   0   2   6 2857.37  134.60
   0  -2  -6 2843.31  122.99
   0  -2  -6 3140.68  143.15
   0  -2  -6 2963.95  128.21
   0   2   6 3172.15  135.76
   0  -2  -6 2889.78  122.72
   0  -2  -6 2923.53  141.25
   0   2   6 2722.23  114.56
   0  -2   6 3109.18  130.19
   0  -2   6 2994.45  129.71
   0  -2   6 3190.31  132.04
   0  -2   6 3067.94  135.27
   0  -2   6 2885.32  140.12
   0   2  -6 3006.28  137.96
   0  -2  -6 3027.82  126.44
   0   2  -6 2844.35  137.47
   0   2   6 2464.09  115.04
  -5   0  -1 1169.10   54.97
  -5   0  -1 1167.88   57.90
  -5   0  -1 1029.58   50.97
  -5   0  -1 1132.23   53.33
   5   0   1 1153.42   50.76
   5   0   1 1180.48   70.98
  -5   0  -1 1124.73   52.23
   5   0   1 1137.00   53.88
   5   0   1 1077.06   51.99
   5   0   1 1082.48   52.04
   5   0   1  972.61   45.98
  -5   0  -1 1030.19   48.76
  -5   0   6   38.25   10.12
  -5   0   6   40.73   19.97
  -5   0   6   43.08    9.74
  -5   0   6   37.26    8.09
  -5   0   6   41.43   11.42
  -5   0   6   47.27   12.53
  -5   0   6   51.97   10.05
   5   0  -6   41.40    7.91
   5   0  -6   41.49   13.98
   5   0  -6   48.69    7.06
   5   0  -6   37.11    6.98
   5   0  -6    0.48    6.69
   0  -1   7 2275.95   94.99
   0   1   7 1968.12   89.32
   0   1   7 2171.18   97.17
   0   1  -7 2351.13  120.97
   0  -1  -7 2311.44  125.11
   0   1  -7 2246.71   92.38
   0   1  -7 2226.63  102.22
   0  -1  -7 2188.95  111.82
   0  -1  -7 2412.13  102.13
   0  -1  -7 2430.13  100.95
   0  -1   7 2275.09  100.24
   0  -1   7 2154.19   88.92
   0  -1   7 2230.35   99.84
   0   1   7 1661.87   82.35
   0  -1  -7 2314.39  115.54
   0   1  -7 2336.68  104.56
   0  -1  -7 2190.33   97.75
   0   1  -7 2199.91   92.63
   0   1  -7 2324.98  122.00
   0   1   7 2250.90  103.60
   0  -1   7 2232.41   91.51
   3  -3   1 1873.53   81.00
   3  -3   1 1636.71   66.40
   3  -3   1 1645.17   70.11
   3  -3   1 1674.12   74.82
  -3  -3  -1 1828.41   88.89
   3   3   1 1821.51   80.62
  -3  -3  -1 1751.53   78.48
  -3  -3  -1 1635.42   66.89
  -3  -3  -1 1726.46   72.32
   3  -3   1 1845.86   74.02
  -3  -3  -1 1711.34   74.43
   3   3   1 1707.55   92.68
  -3  -3  -1 1765.67   77.39
  -3   3   4  473.27   29.22
  -3   3   4  293.66   23.48
  -3   3   4  451.84   29.66
  -3  -3   4  462.30   29.49
  -3  -3   4  463.85   26.88
  -3  -3   4  394.95   28.17
  -3  -3   4  467.47   28.00
   3   3  -4  465.55   30.79
   3  -3  -4  510.96   24.61
   3  -3  -4  487.69   31.92
   3  -3  -4  490.97   42.91
   3   3  -4  473.51   28.04
  -3  -3   4  475.23   33.89
   4  -1   3 2244.74  118.16
  -4  -1  -3 2221.10   96.76
  -4  -1  -3 2195.55  105.92
  -4   1  -3 2349.29   98.56
   4  -1   3 2061.71   93.27
  -4   1  -3 2100.48   85.12
  -4  -1  -3 2170.43   92.81
  -4   1  -3 2221.30  108.19
  -4   1  -3 2057.66   89.24
   4   1   3 2022.44  103.29
   4   1   3 2135.97   93.28
  -4  -1  -3 2252.17  105.50
   4   1   3 2218.81  114.42
   4  -1   3 2313.32  103.25
  -4  -1  -3 2169.55  118.82
   4  -1   3 2263.09  120.59
   4   1   3 2355.71  106.15
  -4   1  -3 2325.07  120.31
   4   1   3 2242.85   97.20
  -4   1  -3 2383.14  130.71
   4  -1   3 2074.10   87.96
  -4   1  -3 2311.33  101.45
   4   1  -7  842.07   38.17
   4   1  -7  912.83   47.23
   4  -1  -7  930.84   42.13
  -4  -1   7  863.13   45.58
   4  -1  -7  943.92   42.26
   4  -1  -7  927.07   43.62
   4   1  -7  956.56   47.88
   4   1  -7  874.14   44.87
  -4   1   7  903.04   47.91
  -4   1   7  943.11   52.36
  -4   1   7  824.68   46.93
   4  -1  -7  924.21   43.45
  -4  -1   7  837.75   56.41
  -4  -1   7  815.93   42.69
  -4   1   7  878.87   41.15
  -4  -1   7  875.99   65.35
   4  -1  -7  931.23   52.34
   4   1  -7  922.56   38.27
  -4  -1   7  824.06   39.67
  -4  -1   7  903.36   45.76
  -4  -1   7  824.39   36.93
  -4   1   7  893.97   65.73
   5  -2  -2  983.41   51.98
   5  -2  -2  639.93   50.48
   5   2  -2  650.09   38.18
   5   2  -2  565.48   37.78
   5   2  -2  614.68   38.77
  -5   2   2  618.59   33.38
  -5   2   2  602.53   34.49
  -5  -2   2  502.43   27.02
  -5  -2   2  591.25   35.05
  -5  -2   2  545.38   37.73
  -5  -2   2  612.50   36.95
  -5   2   2  644.21   44.11
  -5  -2   2  592.15   28.25
   5   2  -2  582.95   37.60
   5  -2  -2  667.99   36.50
   5  -2  -2  644.16   36.69
  -5  -2   3 1326.40   65.21
  -5  -2   3 1187.87   50.68
   5  -2  -3 1279.30   59.16
   5   2  -3 1175.73   60.83
   5   2  -3 1172.18   48.52
   5   2  -3 1288.79   61.63
   5   2  -3 1135.05   61.23
   5  -2  -3 1252.99   56.13
   5  -2  -3 1260.49   74.05
  -5   2   3 1258.66   77.06
   5   2  -3 1138.97   71.85
  -5   2   3 1271.98   63.58
  -5   2   3 1260.96   61.69
  -5   2   3 1222.07   54.99
  -5  -2   3 1002.54   60.96
  -5  -2   3 1153.11   75.12
  -5  -2   3 1098.65   59.70
  -2   0  -6 1153.63   58.90
  -2   0  -6 1148.06   50.85
   2   0   6  863.70   43.54
   2   0   6 1191.00   73.46
  -2   0  -6 1245.31   51.19
  -2   0  -6 1189.99   53.97
  -2   0  -6 1156.48   75.58
   2   0   6 1148.54   73.04
   2   0   6 1201.91   57.31
   1  -3   4  978.20   62.25
   1  -3   4  943.85   41.12
   1  -3   4  956.81   48.51
   1  -3   4  898.56   39.98
  -1  -3  -4  994.93   58.96
   1   3   4  840.00   46.50
   1   3   4  885.99   63.55
   1   3   4  953.84   47.98
  -1  -3  -4  921.46   49.31
  -1  -3  -4  914.86   52.23
  -1  -3  -4  921.35   50.26
  -1  -3  -4  960.99   47.60
  -1  -3   5  342.24   23.29
   1  -3  -5  359.17   26.26
   1  -3  -5  351.04   18.67
  -1   3   5  312.71   23.70
   1  -3  -5  348.87   26.33
   1  -3  -5  342.30   25.18
  -1  -3   5  338.61   24.55
  -1  -3   5  342.46   18.62
  -1  -3   5  333.43   23.82
  -1  -3   5  325.99   21.94
  -2   0   8  160.54   13.30
  -2   0   8  142.80   23.10
  -2   0   8  155.74   19.93
   2   0  -8  159.24   14.06
   2   0  -8  164.41   18.11
   2   0  -8  176.23   19.37
   2   0  -8  174.08   28.53
   2   0  -8  158.09   18.23
  -2   0   8  169.32   31.03
   2   0  -8  155.29   13.21
  -2  -3  -3  919.79   45.62
  -2  -3  -3  927.41   50.28
  -2  -3  -3  947.02   56.87
  -2  -3  -3  941.71   45.49
   2   3   3  802.08   54.02
   2  -3   3  658.85   32.57
   2   3   3  914.69   44.29
   2  -3   3  914.68   58.10
   2  -3   3  904.70   41.81
   2  -3   3  922.80   37.36
   2  -3   3  917.42   45.19
   5   1   1  675.03   29.70
   5   1   1  591.75   36.36
   5   1   1  522.02   42.67
   5  -1   1  612.64   45.26
   5  -1   1  630.17   33.60
  -5   1  -1  492.44   34.48
  -5  -1  -1  580.44   43.57
  -5  -1  -1  599.43   45.31
  -5  -1  -1  518.11   37.37
   5  -1   1  561.10   43.52
  -5   1  -1  566.06   38.91
  -5  -1  -1  563.73   33.62
   5  -1   1  538.31   38.65
  -5  -1  -1  625.17   34.18
  -5   1  -1  551.95   34.96
   5   1   1  570.10   50.02
   5  -1   1  569.73   27.95
   5  -1   1  588.52   34.62
   5   1   1  476.17   26.57
  -5   1  -1  582.00   34.72
   5   1   1  600.45   36.36
   2  -3  -5 1093.41   53.28
  -2  -3   5 1026.50   67.32
  -2  -3   5 1021.43   51.38
   2  -3  -5 1021.18   51.88
  -2  -3   5  965.01   46.57
   2  -3  -5 1082.35   50.01
  -2  -3   5 1105.21   57.77
  -2  -3   5 1042.24   49.50
  -2   3   5 1128.01   57.75
   5  -1  -6 3548.06  151.90
   5   1  -6 2751.34  134.87
  -5  -1   6 3290.77  144.57
  -5   1   6 3642.98  163.77
  -5  -1   6 3529.64  156.71
  -5  -1   6 3304.22  135.73
   5  -1  -6 3650.65  161.95
  -5  -1   6 3385.81  170.74
   5   1  -6 3456.65  168.01
  -5   1   6 3563.29  171.90
  -5   1   6 3149.63  149.07
  -5   1   6 3578.31  161.55
   5  -1  -6 3543.20  148.88
   5  -1  -6 3692.28  151.87
  -5  -1   6 3052.34  133.34
   5   1  -6 3462.28  162.64
  -5  -1   6 3375.61  152.08
   5   1  -6 3370.45  161.06
   5   1  -6 3121.12  139.83
  -5   1   6 3572.21  184.47
  -5  -1   6 3325.00  165.88
   5  -1  -6 3527.67  146.26
  -4  -2  -2 2425.41  108.74
  -4  -2  -2 2649.53  133.32
   4   2   2 2278.65   98.20
   4   2   2 2754.58  117.45
   4   2   2 2398.46  101.99
  -4  -2  -2 2873.28  139.55
  -4  -2  -2 2597.89  124.90
   4  -2   2 2682.17  118.56
   4   2   2 2648.22  148.02
  -4  -2  -2 2923.93  122.09
   4   2   2 2849.38  116.09
   4  -2   2 2753.63  120.44
   4  -2   2 2845.43  125.02
   4  -2   2 2693.90  121.70
   4  -2   2 2706.92  117.82
   4  -2   2 2622.30  132.67
  -4  -2  -2 2785.35  145.51
  -3   0  -5  930.09   43.18
  -3   0  -5 1097.56   49.59
  -3   0  -5 1113.81   49.01
  -3   0  -5 1079.14   52.63
   3   0   5 1002.97   52.80
   3   0   5 1142.40   56.89
  -3   0  -5 1163.60   48.23
   3   0   5 1108.19   72.12
  -4  -2   6  743.70   39.22
  -4  -2   6  720.75   35.87
  -4  -2   6  725.25   38.99
  -4  -2   6  625.87   41.84
   4   2  -6  732.69   44.65
  -4  -2   6  695.63   39.18
   4  -2  -6  778.46   36.11
  -4   2   6  679.79   35.75
  -4   2   6  769.97   42.63
   4  -2  -6  770.61   40.45
   4  -2  -6  792.36   54.48
  -4  -2   6  731.69   40.75
  -4  -2   6  707.18   44.11
  -4  -2   6  706.54   45.91
  -4   2   6  729.83   51.50
   4  -2  -6  801.83   46.31
  -4   2   6  686.47   34.67
  -3   0   8 3106.34  133.59
  -3   0   8 3556.78  158.80
  -3   0   8 2596.65  137.85
  -3   0   8 3736.12  161.67
   3   0  -8 3890.10  172.97
   3   0  -8 3780.83  157.42
  -3   0   8 3624.19  161.43
   3   0  -8 3570.46  150.88
   5  -2  -1  779.12   40.31
  -5  -2   1  694.27   34.09
  -5   2   1  751.82   37.64
   5   2  -1  746.65   44.72
   5   2  -1  741.78   43.37
   5   2  -1  773.02   44.92
   5  -2  -1  820.58   42.84
   5  -2  -1  816.31   40.54
  -5  -2   1  781.05   58.72
  -5  -2   1  698.68   34.06
  -5  -2   1  739.81   42.17
   5  -2  -1  784.64   55.09
  -5  -2   1  754.46   56.65
   5   2  -4 1325.44   54.05
  -5  -2   4 1416.80   65.86
  -5  -2   4 1268.96   66.62
  -5  -2   4 1281.40   59.20
  -5  -2   4 1444.55   70.89
  -5   2   4 1360.86   74.59
  -5   2   4 1357.39   76.30
   5   2  -4 1304.66   73.35
   5  -2  -4 1480.72   85.50
  -5  -2   4 1465.62   73.21
   5  -2  -4 1518.87   65.70
   5   2  -4 1355.50   59.80
  -5  -2   4 1385.30   66.67
  -2   2  -5 1088.80   59.63
   2   2   5 1137.96   50.58
   2  -2   5 1233.97   72.29
   2  -2   5 1175.11   56.54
  -2  -2  -5 1079.77   58.51
  -2  -2  -5 1258.29   57.05
  -2  -2  -5 1175.89   57.04
  -2  -2  -5 1175.13   53.52
  -2  -2  -5 1181.94   57.97
  -2  -2  -5 1157.04   54.70
   2  -2   5 1153.19   55.01
   2  -2   5 1246.98   58.11
   2   2   5 1045.65   49.26
   2   2   5 1040.56   48.61
  -2   2  -5 1161.26   65.25
   2   2   5 1181.39   77.29
  -2   2   7  535.27   37.28
   2  -2  -7  483.66   28.81
   2  -2  -7  529.31   28.26
  -2   2   7  494.73   37.79
   2  -2  -7  509.79   27.57
   2  -2  -7  500.24   24.91
  -2   2   7  476.78   29.16
  -2   2   7  457.87   34.24
   2   2  -7  562.68   48.02
  -2  -2   7  502.97   28.95
   2   2  -7  512.92   29.01
  -2  -2   7  535.37   43.18
   2  -2  -7  448.46   28.63
   2  -2  -7  519.25   31.87
  -2  -2   7  503.02   32.55
  -2  -2   7  500.97   43.98
  -2  -2   7  496.06   29.56
  -6   0   3 3752.52  168.69
   6   0  -3 3735.95  169.55
   6   0  -3 3878.37  172.02
  -6   0   3 3734.14  159.70
   6   0  -3 3799.95  164.61
  -6   0   3 3978.12  192.40
  -6   0   3 3475.23  171.72
  -1   0  -7  958.58   54.58
   1   0   7  970.90   51.31
  -1   0  -7  962.70   63.45
  -1   0  -7  903.12   43.48
   1   0   7  846.30   37.22
  -1   0  -7  921.97   38.38
  -1   0  -7  946.74   49.71
   1   0   7  896.31   43.65
   1   0   7  946.09   49.60
   1   0  -8  368.99   24.98
   1   0  -8  331.52   24.95
  -1   0   8  343.24   27.02
   1   0  -8  350.44   23.54
   1   0  -8  346.93   27.72
  -1   0   8  311.52   22.11
  -1   0   8  307.64   33.96
  -1   0   8  272.88   18.72
   0   3   5  371.82   31.04
   0  -3  -5  387.16   41.85
   0   3  -5  332.39   20.56
   0  -3   5  357.55   25.80
   0  -3   5  344.71   25.45
   0  -3  -5  301.85   17.90
   0  -3  -5  312.19   26.20
   0  -3  -5  387.78   39.95
   0  -3   5  369.79   23.84
   0  -3  -5  352.33   29.30
  -6   0   2   41.27    9.37
  -6   0   2   35.01    7.51
  -6   0   2   41.62    7.98
  -6   0   2   42.55   19.08
   6   0  -2   37.21    7.15
   6   0  -2   50.04    9.32
   6   0  -2   42.34   12.34
   6   0  -4   55.22    9.92
  -6   0   4   43.27   10.41
  -6   0   4   50.99   10.59
  -6   0   4   45.71   10.71
   6   0  -4   54.65   21.10
  -6   0   4   52.63   12.64
  -6   0   4   42.72    9.03
  -1   2  -6 1095.95   51.64
  -1  -2  -6  905.22   52.90
   1   2   6  919.86   42.91
   1   2   6  947.99   53.58
   1  -2   6 1012.72   49.93
   1  -2   6 1015.32   50.89
   1  -2   6 1045.48   67.70
  -1  -2  -6 1034.14   64.99
  -1  -2  -6 1071.31   50.95
   1  -2   6 1061.46   48.48
  -1   2  -6 1024.52   48.57
  -1  -2  -6  959.82   46.62
  -1  -2  -6  991.49   66.10
   1   2   6  877.04   54.07
  -1  -2   7 1385.83   64.74
  -1   2   7 1305.24   60.89
   1   2  -7 1403.85   65.47
  -1   2   7 1429.99   97.08
  -1   2   7 1418.18   74.45
   1  -2  -7 1525.81   63.41
   1  -2  -7 1223.59   66.19
   1   2  -7 1416.26   65.12
   1  -2  -7 1621.05   78.01
   1  -2  -7 1487.07   65.25
   1  -2  -7 1460.12   85.70
   1  -2  -7 1371.83   61.70
  -1  -2   7 1366.01   67.21
  -1  -2   7 1465.89   65.05
  -1  -2   7 1387.07   79.29
   2   1   6  245.87   33.61
  -2   1  -6  176.58   27.16
  -2  -1  -6  192.34   23.23
   2   1   6  149.71   21.28
   2   1   6  135.76   11.99
  -2   1  -6  175.94   16.27
   2   1   6  199.91   15.29
  -2   1  -6  160.73   17.10
  -2   1  -6  199.81   18.33
   2  -1   6  180.06   18.72
   2  -1   6  215.78   16.91
   2  -1   6  155.76   16.08
  -2  -1  -6  171.12   17.22
  -2  -1  -6  167.55   18.27
   2  -1   6  177.64   20.27
   2   1   6  160.51   17.96
  -2  -1  -6  192.08   20.29
   4  -3  -2 1100.06   70.42
   4  -3  -2 1125.10   54.82
  -4  -3   2 1035.92   52.08
  -4  -3   2  999.98   48.60
  -4  -3   2 1086.07   69.82
  -4  -3   2 1094.19   52.99
   4  -3  -2 1139.28   53.85
   4   3  -2  950.57   50.81
  -2   1   8 1180.85   59.70
  -2  -1   8 1185.14   80.45
  -2   1   8 1126.61   53.89
  -2  -1   8 1070.56   60.09
   2  -1  -8 1237.17   59.09
   2   1  -8 1178.20   57.60
   2   1  -8 1218.72   54.86
   2  -1  -8 1174.64   49.02
   2  -1  -8 1185.51   57.73
   2   1  -8 1148.99   59.58
   2  -1  -8 1187.83   49.41
  -2  -1   8 1138.96   77.02
  -2   1   8 1120.81   58.73
  -3  -2  -4  174.11   28.25
   3  -2   4  186.17   18.45
   3  -2   4  189.24   19.37
   3  -2   4  183.85   19.35
   3   2   4  158.32   26.48
   3  -2   4  186.58   18.76
   3   2   4  167.77   20.94
   3   2   4  148.95   21.75
   3   2   4  195.20   21.42
  -3  -2  -4  167.02   15.20
  -3  -2  -4  197.11   20.01
  -3   2  -4  174.22   22.07
  -3  -2  -4  168.07   13.33
   0  -4   0  738.25   40.96
   0  -4   0  811.91   36.89
   0  -4   0  724.71   50.61
   0  -4   0  767.13   51.59
   3  -2  -7  355.79   26.32
  -3  -2   7  335.22   35.32
   3  -2  -7  348.12   32.96
   3  -2  -7  360.68   24.56
  -3   2   7  317.26   23.01
   3  -2  -7  278.04   25.60
  -3   2   7  313.35   29.88
  -3  -2   7  312.45   21.38
  -3  -2   7  355.20   36.85
  -3  -2   7  347.38   23.14
  -3   2   7  333.73   24.44
  -3  -2   7  334.33   38.48
  -3  -2   7  328.06   36.30
   3   2  -7  341.82   26.50
   3  -2  -7  278.95   23.55
   4   3  -1 1515.64   95.32
  -4  -3   1 1621.49   92.79
  -4   3   1 1468.39   65.20
   4  -3  -1 1650.86   75.33
   4  -3  -1 1431.35   59.52
   4  -3  -1 1686.72   90.86
   4  -3  -1 1597.90   71.11
  -4  -3   1 1568.67   71.03
  -4  -3   1 1520.40   68.66
  -4  -3   1 1566.41   71.53
  -3  -3  -2  900.36   44.87
  -3  -3  -2  931.77   62.42
   3  -3   2  905.67   43.94
   3  -3   2  831.28   37.58
   3  -3   2  980.78   47.39
   3  -3   2  909.21   45.87
  -3  -3  -2  919.49   46.17
  -3  -3  -2  931.71   53.76
   5   0   2  138.88   23.28
   5   0   2  124.21   14.90
   5   0   2  134.29   26.70
   5   0   2  112.49   23.66
  -5   0  -2  110.40   10.50
  -5   0  -2  155.97   26.55
  -5   0  -2  131.64   23.62
   4   3  -3  260.79   31.37
   4  -3  -3  337.37   25.10
   4  -3  -3  306.75   25.06
   4  -3  -3  343.65   35.73
  -4  -3   3  276.36   23.27
  -4  -3   3  324.15   22.58
  -4  -3   3  321.26   23.07
  -4  -3   3  318.38   26.35
  -3   3   5  284.62   31.60
  -3  -3   5  267.86   18.85
  -3  -3   5  222.32   17.40
  -3  -3   5  276.18   21.28
  -3  -3   5  260.44   22.89
   3  -3  -5  265.13   18.36
   3  -3  -5  271.85   23.42
   3  -3  -5  299.79   37.28
  -3  -3   5  267.08   22.79
   3   1   5  770.92   39.19
   3   1   5  762.35   37.60
  -3  -1  -5  762.77   38.27
  -3  -1  -5  809.29   43.72
  -3   1  -5  684.51   48.03
  -3   1  -5  808.09   38.29
  -3   1  -5  780.31   39.25
  -3  -1  -5  765.20   33.17
  -3  -1  -5  748.10   33.62
   3  -1   5  833.75   62.67
   3  -1   5  836.47   46.67
   3   1   5  790.45   58.08
   3   1   5  809.64   43.85
   3   1   5  805.75   62.44
   3  -1   5  830.46   42.87
   3  -1   5  765.74   52.30
  -3  -1  -5  784.18   43.76
   5   0  -7 1886.97   94.66
  -5   0   7 2030.29   90.35
  -5   0   7 2101.85   98.12
  -5   0   7 2118.76  100.52
   5   0  -7 2083.11   87.83
   5   0  -7 2035.55   84.45
  -5   0   7 1872.12   79.05
  -5   0   7 2265.00   96.09
  -3  -1   8  115.46   12.74
  -3  -1   8  132.39   19.28
  -3   1   8  107.10   12.02
  -3  -1   8  128.35   27.41
   3   1  -8  124.90   16.81
  -3   1   8  138.16   16.81
  -3  -1   8  120.79   29.38
   3  -1  -8  141.70   26.68
  -3   1   8  140.72   17.57
  -3   1   8  126.78   25.79
   3  -1  -8  125.87   15.59
   3   1  -8  129.84   12.48
   3   1  -8  120.50   11.77
   0  -4  -1  677.11   42.15
   0  -4   1  696.81   32.12
   0  -4   1  575.76   42.38
   0  -4  -1  692.69   36.33
   0  -4   1  651.90   43.13
   0  -4   1  633.16   41.92
   0  -4  -1  696.55   39.08
   0  -4  -1  675.66   31.90
  -5  -2   0  590.29   39.67
  -5  -2   0  642.06   33.54
  -5  -2   0  715.53   38.86
   5   2   0  684.89   59.92
   5  -2   0  688.49   49.19
   5  -2   0  667.09   38.30
  -5  -2   0  672.41   39.57
  -5   2   0  707.14   53.66
   5   2   0  658.35   40.21
   5  -2   0  688.59   37.66
   5  -2   0  685.20   38.06
  -5  -2   0  615.72   40.81
  -5  -2   5 2458.82  118.77
  -5   2   5 2394.25  122.37
   5  -2  -5 2441.70  104.34
  -5   2   5 2829.97  128.12
   5  -2  -5 2537.76  112.44
   5   2  -5 2480.89  101.18
  -5  -2   5 2119.87  100.17
  -5  -2   5 2198.37  108.65
  -5  -2   5 2428.08  108.62
  -5  -2   5 2456.44  132.90
  -5  -2   5 2418.39  118.44
  -5  -2   5 2364.68  106.77
   5   2  -5 2103.54   91.78
  -5  -2   5 2436.92  117.90
   6  -1  -3 3964.70  174.19
  -6  -1   3 3775.50  175.07
  -6  -1   3 4054.33  183.93
  -6   1   3 4069.87  179.08
  -6   1   3 3634.90  162.87
   6   1  -3 3906.23  181.68
   6  -1  -3 3884.72  201.62
   6  -1  -3 4036.69  183.63
  -6  -1   3 3906.44  181.95
  -1  -4   0  100.39   17.19
   1  -4   0    9.82   10.95
   1  -4   0   12.78    5.33
   1  -4   0    2.02    7.50
   1  -4   0    2.70    5.37
  -1  -4   0    7.84   16.54
   1  -4   0   13.00    7.79
  -1  -4   0    5.35   18.42
   1  -4  -1 2798.68  124.06
   1  -4  -1 2867.84  128.79
  -1  -4   1 2968.56  131.89
  -1  -4   1 2658.89  128.92
  -1  -4   1 2949.37  126.62
   1  -4  -1 2663.16  120.08
   1  -4  -1 3109.31  146.77
  -1  -4   1 2691.39  120.83
  -4   0  -4 1265.00   57.92
   4   0   4 1247.33   59.93
  -4   0  -4 1120.23   49.22
   4   0   4 1038.10   51.38
   4   0   4 1146.04   60.61
   4   0   4 1286.36   62.70
  -4   0  -4 1186.00   57.19
  -1  -1  -7 2599.23  113.97
  -1   1  -7 2611.63  139.05
   1  -1   7 2507.94  130.30
   1  -1   7 2500.94  116.02
  -1  -1  -7 2465.76  105.78
  -1   1  -7 2645.52  134.21
  -1   1  -7 2460.54  113.93
  -1  -1  -7 2548.60  141.60
   1   1   7 2416.97  111.58
   1  -1   7 2550.20  115.55
   1   1   7 2579.07  120.99
   1  -1   7 2326.84  115.89
  -1   1  -7 2439.87  104.30
  -6   0   1  201.77   17.53
   6   0  -1  183.42   14.51
  -6   0   1  220.39   15.12
  -6   0   1  222.66   20.84
   6   0  -1  211.65   32.90
   6   0  -1  237.42   21.08
  -6   0   1  204.23   25.47
  -1  -1   8 2277.68   97.35
  -1   1   8 2333.92  109.08
   1  -1  -8 2556.42  118.01
   1   1  -8 2601.85  115.65
  -1   1   8 2341.82  104.84
   1   1  -8 2525.13  130.08
   1   1  -8 2565.32  142.86
   1   1  -8 2465.72  116.75
  -1   1   8 2385.84  109.45
   1  -1  -8 2508.90  131.04
  -1  -1   8 2401.41  132.73
  -1  -1   8 2000.91  102.85
  -1  -1   8 2291.48  110.97
   1  -1  -8 2445.82  106.10
  -1  -1   8 2287.37  124.81
   6   0  -5  345.61   25.52
  -6   0   5  326.78   26.15
  -6   0   5  284.35   20.28
  -6   0   5  274.97   31.06
  -6   0   5  308.01   24.35
   4   0  -8  225.44   20.76
  -4   0   8  201.03   31.63
  -4   0   8  213.06   23.14
  -4   0   8  204.28   22.33
   6  -1  -2 3427.29  165.66
   6   1  -2 1955.88   93.77
   6  -1  -2 1958.15   86.92
   6  -1  -2 2068.31   92.73
  -6  -1   2 2058.73  118.49
  -6   1   2 2069.76  111.29
   6   1  -2 2037.25   97.18
   6  -1  -2 2171.20  101.75
   6   1  -4 1300.05   53.59
   6  -1  -4 1513.34   63.42
   6   1  -4 1411.58   81.57
  -6   1   4 1652.89   78.54
  -6   1   4 1476.01   70.42
  -6  -1   4 1464.16   71.19
  -6  -1   4 1302.03   56.41
  -6  -1   4 1284.15   58.35
  -6  -1   4 1485.56   94.23
  -6  -1   4 1458.86   69.53
  -6   1   4 1396.63   63.53
  -6   1   4 1510.39   63.15
   6  -1  -4 1488.93   68.42
   6   1  -4 1190.71   52.41
   4   3   0  381.56   33.80
  -4  -3   0  362.98   25.80
  -4  -3   0  346.68   24.69
  -4  -3   0  370.24   37.81
  -4  -3   0  369.29   38.33
   4  -3   0  330.98   19.33
   4  -3   0  402.00   36.00
   4  -3   0  412.77   40.01
   4  -3   0  398.09   27.57
   4  -3  -4  402.14   25.59
   4  -3  -4  380.33   27.31
  -4  -3   4  379.68   43.15
  -4  -3   4  386.81   38.90
  -4  -3   4  355.82   40.45
  -4  -3   4  385.84   25.33
   4  -3  -4  378.69   28.98
   1  -4   1 1386.02   76.02
  -1  -4  -1 1661.84   80.77
   1  -4   1 1738.57   82.14
  -1  -4  -1 1684.93   73.25
   1  -4   1 1545.13   66.33
   1  -4   1 1653.66   65.78
  -1  -4  -1 1721.65   80.51
   1  -4   1 1601.34   78.53
   1  -4   1 1431.32   62.78
   1  -4  -2  775.37   37.67
   1  -4  -2  846.94   46.67
  -1  -4   2  814.45   41.96
  -1  -4   2  783.66   52.00
   1  -4  -2  862.84   53.37
  -1  -4   2  874.98   42.27
   0  -4  -2  996.60   49.80
   0  -4   2  934.93   51.22
   0  -4  -2 1057.30   45.53
   0  -4  -2  974.56   59.15
   0  -4   2 1048.40   45.94
   0  -4  -2 1050.84   55.14
   0  -4   2  939.64   57.27
   0  -4   2 1002.14   46.82
   5  -1   2  173.94   20.29
   5  -1   2  180.64   30.81
   5   1   2  173.43   17.61
   5   1   2  196.77   31.10
  -5  -1  -2  174.85   17.31
  -5  -1  -2  164.70   15.22
  -5  -1  -2  171.87   31.13
  -5   1  -2  193.16   32.61
  -5   1  -2  169.42   13.99
   5  -1   2  191.07   25.33
   5  -1   2  169.76   25.32
   5  -1   2  200.48   25.57
   5   1   2  163.28   16.09
   0  -2  -7  861.55   43.65
   0  -2   7  826.55   39.30
   0  -2   7  815.30   48.00
   0  -2   7  875.69   43.99
   0   2   7  759.22   46.23
   0  -2  -7  839.87   55.85
   0   2  -7  751.24   37.19
   0   2  -7  896.65   45.34
   0   2  -7  868.30   45.33
   0  -2  -7  891.93   41.97
   0   2   7  733.99   50.90
   0  -2   7  788.78   42.67
   0  -2  -7  810.40   42.12
   0   2   7  843.07   73.35
   0  -2  -7  767.51   38.52
   0  -2   7  863.44   48.45
   0   0   8  279.60   21.30
   0   0  -8  343.98   28.43
   0   0  -8  332.14   24.59
   0   0   8  334.85   27.94
   0   0   8  308.76   25.47
   0   0  -8  323.69   22.44
   5  -1  -7  856.69   39.45
  -5  -1   7  825.79   46.47
  -5  -1   7  821.41   46.46
  -5  -1   7  836.16   61.95
   5   1  -7  713.24   30.66
   5   1  -7  835.10   43.89
   5  -1  -7  790.11   48.04
  -5  -1   7  718.78   51.74
   5  -1  -7  868.33   40.34
   5  -1  -7  845.66   38.35
   5  -1  -7  817.80   39.71
  -5   1   7  751.28   34.86
  -5   1   7  860.10   48.43
  -5   1   7  853.63   49.72
  -5   1   7  733.42   37.07
  -2   3  -4  291.35   19.82
  -2  -3  -4  328.70   23.31
   2  -3   4  298.84   30.85
   2  -3   4  272.55   26.74
   2   3   4  278.56   24.71
  -2  -3  -4  347.40   26.32
  -2  -3  -4  320.47   43.00
   2  -3   4  377.00   39.65
  -2  -3  -4  360.12   38.21
   2  -3   4  309.76   24.55
  -2  -3   6  286.40   24.73
  -2  -3   6  279.41   23.61
   2  -3  -6  309.37   24.06
   2  -3  -6  308.70   26.57
  -2  -3   6  249.10   21.95
   2  -3  -6  304.65   26.70
  -2  -3   6  286.91   23.36
  -2  -3   6  289.36   19.41
  -4  -1  -4  432.86   35.15
   4  -1   4  441.12   26.73
   4  -1   4  484.24   48.88
  -4   1  -4  395.86   22.86
  -4   1  -4  460.21   31.29
  -4   1  -4  392.77   25.60
   4   1   4  402.61   26.84
  -4  -1  -4  442.98   31.20
  -4  -1  -4  448.52   27.17
   4  -1   4  477.77   32.55
   4   1   4  417.41   41.06
   4   1   4  422.16   40.85
  -6  -1   1 1650.52   79.80
   6   1  -1 1627.85  100.83
   6  -1  -1 1510.09   82.61
   6  -1  -1 1745.76   83.22
   6  -1  -1 1680.84   80.35
  -6  -1   1 1621.23   78.72
  -6   1   1 1685.82   79.19
   6   1  -1 1649.54   76.12
   6  -1  -1 1662.60   90.07
  -1  -3  -5  759.49   38.85
   1  -3   5  678.78   43.80
   1  -3   5  731.92   42.55
  -1  -3  -5  755.69   42.34
  -1  -3  -5  712.90   62.14
   1  -3   5  734.81   41.58
   1   3   5  745.20   45.79
  -1  -3  -5  714.66   37.81
   1  -3   5  738.40   36.73
   1  -3  -6  740.94   41.58
   1  -3  -6  647.90   39.80
   1  -3  -6  669.77   38.89
  -1  -3   6  712.57   38.88
   1  -3  -6  733.41   41.82
  -1  -3   6  703.39   41.70
  -1  -3   6  672.35   39.70
  -1   3   6  715.95   47.33
   1   3  -6  671.96   36.44
  -4  -2  -3  419.61   30.47
  -4  -2  -3  362.64   22.38
  -4  -2  -3  386.46   32.25
   4   2   3  402.23   31.20
  -4  -2  -3  412.82   23.37
  -4  -2  -3  368.71   22.18
   4   2   3  360.09   22.30
   4  -2   3  402.92   27.38
   4  -2   3  407.12   28.75
   4  -2   3  410.94   28.92
   4  -2   3  403.64   27.89
   4   2   3  390.97   22.23
   4   2   3  334.19   23.15
  -4  -2  -3  393.73   26.91
  -6   1   5 2034.19   95.51
   6  -1  -5 2062.50  112.45
  -6  -1   5 2106.85   94.90
  -6   1   5 2007.12   94.28
  -6   1   5 1891.06   82.30
   6   1  -5 1832.48   82.62
   6   1  -5 1855.65   79.15
   6   1  -5 1909.11   80.63
  -6  -1   5 1981.17  111.98
  -6   1   5 2102.44   98.74
  -6  -1   5 1849.52   84.48
   6  -1  -5 1921.88   78.90
   6  -1  -5 2021.16   83.21
  -6  -1   5 2084.39  115.40
   4   1  -8  722.96   57.23
  -4   1   8  679.75   42.12
  -4   1   8  719.51   62.97
  -4  -1   8  735.22   41.31
  -4   1   8  711.48   40.03
  -4   1   8  676.11   32.55
  -4  -1   8  642.25   35.13
  -4  -1   8  767.83   46.88
  -4  -1   8  668.56   33.85
  -4  -1   8  715.66   60.64
   4  -1  -8  755.60   55.31
   4  -1  -8  706.83   33.85
  -4  -2   7  379.16   34.71
   4  -2  -7  401.61   27.38
   4  -2  -7  414.07   26.52
   4   2  -7  408.99   30.52
  -4  -2   7  367.82   40.75
  -4   2   7  399.33   30.57
  -4   2   7  347.13   24.72
  -4  -2   7  372.61   28.93
  -4  -2   7  365.44   25.47
   4  -2  -7  440.93   29.41
  -4  -2   7  392.48   28.25
   2  -4  -1   21.79   11.54
   2  -4  -1   32.44   15.10
   2  -4  -1   21.82    8.55
  -2  -4   1   23.48   16.87
  -2  -4   1   21.54    9.69
  -2  -4   1   31.00   10.78
  -2  -4   1   27.32   12.58
  -6   0   0 1746.05   79.63
   6   0   0 2015.92   91.64
   6   0   0 2006.14  114.00
  -6   0   0 1971.98   90.69
   6   0   0 1692.00   76.40
   6   0  -6  939.60   48.32
  -6   0   6 1086.63   56.78
  -6   0   6 1108.51   78.19
  -6   0   6  961.19   61.40
   6   0  -6  986.64   46.42
   6   0  -6  857.98   46.20
  -6   0   6  996.12   48.54
  -2  -4   0  298.31   22.88
   2  -4   0  294.41   29.92
   2  -4   0  302.55   32.04
  -2  -4   0  249.07   35.85
  -2  -4   0  311.24   38.84
   2  -4   0  311.96   21.46
   2  -4  -2  296.65   31.97
   2  -4  -2  285.96   24.98
  -2  -4   2  276.55   23.73
  -2  -4   2  277.83   22.70
  -2  -4   2  263.29   31.72
   2  -4  -2  253.41   16.64
  -2  -4   2  255.09   19.48
   2  -4  -2  301.86   37.08
   5  -2   1 9306.59  476.76
   5   2   1 8210.01  405.07
   5  -2   1 8325.89  421.44
  -5  -2  -1 8695.14  468.82
  -5   2  -1 9148.67  461.68
  -5  -2  -1 8655.33  435.09
  -5  -2  -1 8426.32  438.80
  -5  -2  -1 8180.25  406.60
   5  -2   1 8842.56  466.35
   5   2   1 7834.24  410.36
   5   2   1 8570.05  468.71
  -5  -2  -1 8366.37  438.91
   5  -2   1 9007.44  472.77
  -5  -2   6  526.11   47.84
   5  -2  -6  649.50   55.09
   5  -2  -6  629.34   35.25
  -5  -2   6  598.27   45.72
  -5   2   6  642.10   40.44
  -5   2   6  587.14   35.15
  -5  -2   6  599.91   43.09
  -5  -2   6  604.79   53.69
  -5  -2   6  600.06   38.75
  -1  -4  -2 3296.71  157.63
  -1  -4  -2 3166.96  168.84
   1  -4   2 3160.27  138.88
  -1  -4  -2 3251.13  143.58
   1  -4   2 3236.77  137.16
   1  -4   2 3195.82  136.41
   1   4   2 2923.99  135.39
   1  -4   2 3100.79  138.05
  -1  -4   3  285.62   21.19
   1  -4  -3  238.28   29.62
  -1  -4   3  237.25   19.72
   1  -4  -3  239.85   19.80
  -1  -4   3  243.39   20.45
   1  -4  -3  254.34   40.26
   0  -1   8 1866.98  112.34
   0   1   8 1865.48  110.42
   0  -1  -8 1941.86   93.68
   0  -1  -8 2013.10   90.66
   0   1  -8 1970.36   87.38
   0  -1  -8 2020.09   90.30
   0   1  -8 2019.11  119.16
   0  -1   8 1915.26  109.95
   0  -1   8 1895.34   86.30
   0   1  -8 1993.83   91.30
   0  -1   8 1807.14   79.94
   0   1   8 1859.49   91.48
   4  -3   1  574.73   39.10
   4  -3   1  521.55   27.84
  -4  -3  -1  532.71   30.61
  -4  -3  -1  558.17   46.14
  -4  -3  -1  557.26   33.85
   4   3   1  583.58   42.97
   4  -3   1  546.78   31.71
   4  -3   1  603.43   36.66
  -4  -3  -1  554.25   33.77
   4  -3   1  562.22   34.58
  -3  -3  -3   80.33   14.37
  -3  -3  -3   82.88   13.88
   3  -3   3   68.16   16.12
  -3  -3  -3   81.59   17.78
   3   3   3   62.99   11.54
   3  -3   3   83.80   13.44
   3  -3   3  100.69   24.20
   3  -3   3   92.44   14.22
  -3  -3  -3   76.19   13.52
   4  -3  -5  234.38   22.97
  -4  -3   5  218.65   21.98
  -4  -3   5  219.55   31.17
   4  -3  -5  242.02   24.58
  -4  -3   5  208.80   23.37
  -4  -3   5  216.09   31.97
  -4   3   5  269.86   23.90
  -3   3   6 1929.79  105.17
  -3  -3   6 1855.78   88.33
  -3  -3   6 1849.37   81.31
   3  -3  -6 1898.86   91.79
  -3  -3   6 1782.43  107.13
  -3  -3   6 1863.69  103.13
   3  -3  -6 1936.20   87.10
   3  -3  -6 1913.86   89.76
  -3  -3   6 1687.09   79.35
   0  -4   3  992.58   58.56
   0  -4   3  948.17   55.13
   0  -4   3  930.19   45.44
   0  -4   3  928.50   46.79
   0  -4  -3  998.71   51.52
   0  -4  -3  976.04   76.01
   0  -4  -3  995.35   46.14
   0  -4  -3 1010.28   50.23
   0   3   6  595.13   64.21
   0  -3   6  630.19   35.36
   0  -3  -6  632.45   38.85
   0  -3  -6  616.10   55.03
   0  -3  -6  630.67   33.30
   0   3  -6  531.75   29.29
   0  -3  -6  532.73   40.39
   0  -3   6  595.45   37.70
   0  -3   6  598.70   38.24
   2  -4   1  815.71   39.51
   2  -4   1  839.94   41.42
  -2  -4  -1  922.27   50.43
   2  -4   1  983.53   59.24
  -2  -4  -1  925.41   52.78
  -2  -4  -1  899.15   46.19
  -2  -4   3  733.26   42.90
   2  -4  -3  830.32   44.25
   2  -4  -3  716.12   36.09
   2  -4  -3  831.91   66.95
  -2  -4   3  771.36   41.10
  -2  -4   3  720.54   40.10
   5   0   3 1856.96  110.59
   5   0   3 1958.74   87.89
  -5   0  -3 1891.18  105.93
   5   0   3 1818.95   87.21
  -5   0  -3 1766.17   75.89
  -5   0  -3 1737.93   81.68
  -2  -2  -6  206.38   18.94
  -2  -2  -6  210.96   22.72
   2   2   6  226.82   24.81
   2   2   6  184.17   18.04
   2  -2   6  276.70   35.55
  -2  -2  -6  238.66   21.42
   2  -2   6  206.72   31.44
   2  -2   6  204.43   21.61
   2  -2   6  243.35   23.54
  -2   2  -6  214.61   19.47
  -2   2  -6  178.97   26.38
   6  -1   0  112.66   15.07
   6  -1   0  139.08   19.03
   6   1   0  136.50   26.17
  -6   1   0  137.13   17.94
   6  -1   0  129.08   17.58
   6  -1   0  116.32   14.11
  -6  -1   0  127.36   18.41
  -6  -1   0  104.98   10.84
  -6  -1   0  152.20   18.34
   6   1   0  144.01   18.74
   2   0   7  348.98   31.89
   2   0   7  444.01   33.02
   2   0   7  438.98   31.95
  -2   0  -7  441.35   32.31
  -2   0  -7  434.02   29.29
  -2   0  -7  399.33   23.09
   2   2  -8 1663.13   99.09
  -2  -2   8 1451.67   67.53
  -2  -2   8 1445.49   70.51
   2  -2  -8 1518.25   83.09
   2  -2  -8 1542.30   95.66
   2  -2  -8 1468.05   85.15
  -2  -2   8 1530.37   70.25
  -2   2   8 1392.98   88.73
  -2   2   8 1336.36   62.94
  -2   2   8 1579.50  109.70
  -2  -2   8 1444.25   94.22
  -5   0   8  558.96   56.76
  -5   0   8  550.06   34.30
  -5   0   8  568.21   39.40
   5   0  -8  568.95   33.52
  -6  -1   6 1121.53   57.53
  -6  -1   6 1148.16   59.02
  -6   1   6 1201.22   83.66
   6  -1  -6 1251.64   59.98
   6  -1  -6 1184.02   51.59
   6   1  -6 1121.48   54.75
  -6   1   6 1050.25   49.49
  -6  -1   6 1214.95   80.57
  -6  -1   6 1246.45   62.27
  -6   1   6 1186.35   82.31
   6   1  -6 1150.76   53.58
   2   0  -9    6.95   15.52
  -2   0   9    2.36    5.81
  -2   0   9    6.34    7.84
  -2   0   9    8.90   14.13
   2   0  -9   14.51    8.34
   2   0  -9    5.67    6.65
  -3   0  -6  897.39   45.75
  -3   0  -6  856.86   55.43
  -3   0  -6  853.41   48.47
   3   0   6  898.15   52.17
   3   0   6  855.42   67.26
  -3   0   9    6.17    9.60
   3   0  -9    8.17   15.83
   3   0  -9   22.82   10.07
   3   0  -9    5.05   10.43
  -3   0   9   18.32   16.69
  -3   0   9   13.01   10.23
  -3  -2  -5  871.39   53.09
  -3  -2  -5  899.37   45.06
   3  -2   5  926.91   49.92
   3   2   5  856.69   48.48
   3   2   5  897.69   51.32
   3  -2   5  894.24   49.55
   3  -2   5  895.82   47.31
   3   2   5  790.96   41.65
   3  -2   5  937.73   50.45
  -3   2  -5  898.31   44.41
  -3  -2  -5  869.91   47.59
  -3  -2   8 1326.43   83.30
   3  -2  -8 1244.95   59.07
  -3   2   8 1420.53   87.01
   3  -2  -8 1463.56   83.79
   3   2  -8 1465.08   72.50
  -3  -2   8 1406.26   83.90
  -3   2   8 1463.09   77.97
  -3   2   8 1384.55   87.28
   3  -2  -8 1500.76   71.23
  -3  -2   8 1343.24   66.08
  -3  -2   8 1374.32   71.73
  -3  -2   8 1388.82   87.87
   6  -2  -3 1891.33   88.18
  -6  -2   3 1546.02   72.44
  -6  -2   3 1787.00   87.52
   6   2  -3 1722.96  104.40
  -6  -2   3 1715.21   74.36
  -6   2   3 1881.39   82.35
   6  -2  -3 1904.06  104.13
  -6   2   3 1639.42   80.48
   6  -2  -3 1832.12   89.08
  -6  -2   3 1909.84  101.00
   1  -2   7 3305.72  155.07
   1   2   7 3007.40  141.38
  -1  -2  -7 3594.63  163.47
   1  -2   7 3627.02  179.00
   1   2   7 3491.19  198.15
  -1  -2  -7 3289.42  154.92
   1  -2   7 3526.19  160.15
  -1   2  -7 3669.14  166.33
  -1  -2  -7 3464.18  185.01
  -1  -2  -7 3528.76  180.93
  -1   2  -7 3302.34  175.65
   1  -2   7 3362.10  157.80
  -1   2   8  659.28   39.87
   1  -2  -8  693.80   39.18
   1  -2  -8  699.35   37.54
   1   2  -8  713.14   39.15
   1   2  -8  779.61   43.46
   1   2  -8  728.19   59.55
  -1  -2   8  710.91   42.23
   1  -2  -8  773.79   37.70
   1  -2  -8  761.17   43.92
  -1   2   8  744.97   49.40
  -1  -2   8  713.02   39.49
  -1  -2   8  765.65   63.86
  -1  -4  -3  204.93   40.55
   1   4   3  199.05   31.27
   1  -4   3  219.43   16.73
   1  -4   3  225.55   20.51
  -1  -4  -3  231.13   23.34
  -1  -4  -3  226.63   29.49
   1  -4   3  244.73   30.80
  -1  -4   4 1409.49   69.04
  -1  -4   4 1274.53   60.49
  -1  -4   4 1413.60   65.76
  -1  -4   4 1556.64   87.37
   1  -4  -4 1473.19   70.55
   1  -4  -4 1453.69   71.82
   1  -4  -4 1442.27   75.63
   6  -2  -2 2532.87  118.79
   6  -2  -2 2418.04  112.80
  -6  -2   2 2280.37  110.12
   6   2  -2 2447.47  119.65
   6  -2  -2 2288.50  113.17
  -6  -2   2 1998.78  102.79
   6  -2  -2 2505.56  139.02
  -6   2   2 2509.91  112.26
  -6  -2   2 2314.19  101.12
  -6  -2   2 2189.68   96.30
   6   0   1  207.72   28.78
   6   0   1  229.12   34.11
   6   0   1  218.41   23.21
  -6   0  -1  197.47   18.70
  -6   0  -1  234.26   35.73
  -6  -2   4   45.41   13.51
   6  -2  -4   63.84   14.07
  -6  -2   4   11.49   16.46
   6   2  -4   38.72   11.19
   6  -2  -4   49.59   11.61
  -6  -2   4   48.18   13.55
  -6  -2   4   40.51   10.58
  -6   2   4   57.76   15.19
  -6  -2   4   24.19   14.97
  -6   0   7  158.84   24.41
   6   0  -7  183.22   15.69
   6   0  -7  194.79   17.23
  -6   0   7  210.92   23.83
  -6   0   7  204.55   19.76
  -6   0   7  225.78   24.56
  -5  -3   2 1499.82   93.57
  -5  -3   2 1517.64   70.17
  -5  -3   2 1553.42   75.17
   5   3  -2 1436.75   76.30
  -5  -3   2 1395.68   85.02
   5  -3  -2 1674.81  101.87
   5  -3  -2 1623.36   98.17
  -5   3   2 1299.62   64.06
   5  -3  -2 1628.96   78.23
  -1   0  -8   88.13   17.80
   1   0   8  113.22   14.06
   1   0   8  114.36   30.34
   1   0   8  104.14   28.90
  -1   0  -8   88.81   12.53
  -1   0  -8  103.61   16.41
   5  -3  -3  907.44   69.99
   5  -3  -3  845.78   63.07
  -5   3   3  841.13   54.91
  -5  -3   3  837.05   49.90
  -5  -3   3  820.49   43.48
   5   3  -3  787.62   47.19
  -5  -3   3  832.09   46.76
  -5  -3   3  811.06   45.33
   5  -3  -3  903.91   48.72
  -5  -1  -3   43.74   11.07
   5   1   3   46.73   11.66
   5   1   3   45.30   18.49
  -5   1  -3   41.69   16.26
   5  -1   3   41.30    9.04
  -5  -1  -3   43.85   10.13
   5   1   3   39.36   19.19
   5  -1   3   47.75   10.07
  -5  -1  -3   49.53   23.39
   5  -1   3   49.13   22.90
   5  -1   3   43.36   12.76
  -5   1  -3  184.97   25.49
   1   0  -9 2567.38  136.92
  -1   0   9 2088.98   99.10
   1   0  -9 2382.30  108.64
  -1   0   9 2189.84  119.77
  -1   0   9 2267.41  135.71
   1   0  -9 2456.04  145.87
  -2  -1  -7  686.96   62.28
  -2   1  -7  776.75   58.73
  -2  -1  -7  679.91   55.36
   2  -1   7  701.10   42.32
   2   1   7  664.51   57.60
   2  -1   7  717.39   63.73
   2  -1   7  615.17   50.41
   2  -1   7  653.32   49.18
  -2  -1  -7  669.07   35.34
  -2   1  -7  644.52   53.40
   2   1   7  711.93   45.90
  -5  -1   8 4318.06  229.19
   5  -1  -8 4229.77  211.23
   5  -1  -8 4231.44  192.35
  -5   1   8 4346.32  234.74
  -5  -1   8 3907.66  201.86
  -5  -1   8 4189.26  201.18
   5   1  -8 4240.09  218.03
  -5   1   8 3983.18  185.77
  -5  -1   8 4202.07  203.63
  -5   1   8 4439.22  214.28
  -2  -1   9  495.53   35.94
  -2  -1   9  502.95   38.56
  -2   1   9  523.50   37.45
  -2   1   9  472.11   34.23
  -2   1   9  522.23   36.13
   2  -1  -9  545.23   53.60
   2   1  -9  509.35   46.65
   2   1  -9  542.83   38.61
   2   1  -9  586.96   36.95
   2  -1  -9  480.06   38.02
   2  -1  -9  535.17   36.09
   3   1   6   22.05   14.87
   3  -1   6   16.26    9.92
   3  -1   6   15.35   12.80
   3  -1   6    4.94    7.87
   3  -1   6    4.03   15.48
  -3  -1  -6    5.65    7.06
  -3  -1  -6   14.78    8.49
  -3   1  -6    1.49    6.56
  -3   1  -6   -0.92   11.68
   3   1   6    5.61    9.44
   3  -4  -1 2082.67  109.00
   3  -4  -1 2398.01  107.95
   3   4  -1 2037.88  105.46
  -3  -4   1 1882.79  100.29
   3  -4  -1 2097.04   97.42
  -3  -4   1 2064.54  120.20
  -3  -4   1 1982.95   93.04
   3  -4  -2  630.88   37.06
   3   4  -2  509.83   35.45
   3  -4  -2  645.16   34.60
  -3  -4   2  638.48   40.32
   3  -4  -2  643.74   38.76
  -3  -4   2  639.52   37.82
  -3  -4   2  548.23   33.16
  -4   0  -5 2505.39  109.66
  -4   0  -5 2406.79  112.58
   4   0   5 2331.05  112.16
   4   0   5 2563.00  122.92
  -4   0  -5 2278.63  100.87
  -3  -1   9  998.20   59.03
  -3   1   9  975.89   56.88
   3   1  -9  918.86   44.67
  -3  -1   9  968.59   56.84
   3   1  -9 1003.74   73.71
   3  -1  -9  948.02   51.17
  -3   1   9  897.55   51.93
  -3   1   9  889.75   52.30
   3  -1  -9 1005.14   53.44
  -4   0   9  523.43   35.27
  -4   0   9  518.70   38.90
  -4   0   9  497.15   37.79
   4   0  -9  498.95   34.05
   2  -4   2  938.31   47.30
  -2  -4  -2  982.83   51.52
  -2  -4  -2  990.48   72.96
  -2  -4  -2  936.34   77.43
   2  -4   2  979.94   47.29
   2  -4   2  956.40   48.66
   2  -4  -4  505.36   38.29
   2  -4  -4  536.01   34.65
  -2  -4   4  513.42   33.14
  -2  -4   4  518.57   34.58
  -2  -4   4  516.78   49.13
   2  -4  -4  521.84   42.73
  -5  -2  -2 2051.75  101.54
   5  -2   2 2146.88   97.70
   5   2   2 2026.02  123.09
   5  -2   2 1878.78   95.59
   5  -2   2 1995.24  117.02
   5  -2   2 2117.39   98.22
   5   2   2 1852.69   83.91
  -5   2  -2 2102.76  101.58
  -5  -2  -2 2039.52   94.34
  -5  -2  -2 2230.12  101.57
  -4  -3  -2  438.79   30.48
   4   3   2  323.33   41.20
  -4  -3  -2  425.03   45.51
   4  -3   2  444.55   30.20
   4  -3   2  466.61   46.84
   4  -3   2  417.95   35.69
  -4  -3  -2  426.68   28.52
   4  -3   2  429.24   46.24
  -4  -3   6 1235.20   76.83
  -4  -3   6  990.35   50.36
  -4   3   6 1261.35   63.22
   4  -3  -6 1314.88   84.04
  -4  -3   6 1172.41   62.98
  -4  -3   6 1220.71   60.14
   4  -3  -6 1133.11   51.68
   4  -3  -6 1235.57   64.43
  -4  -3   6 1188.58   63.42
  -5  -2   7 3978.43  190.15
  -5  -2   7 3873.61  182.08
  -5  -2   7 4076.17  195.07
  -5  -2   7 3958.75  180.32
   5   2  -7 4018.09  190.13
   5  -2  -7 4041.77  184.28
  -5   2   7 3852.81  183.94
  -5  -2   7 4043.95  216.37
   5  -2  -7 4196.73  192.71
   5  -2  -7 3726.85  167.54
  -5   2   7 4418.47  214.17
   0  -4   4 1348.36   76.02
   0  -4   4 1329.26   64.49
   0  -4  -4 1352.87   72.85
   0  -4  -4 1345.19   68.54
   0   4   4 1256.41   67.97
   0  -4  -4 1323.66   94.30
   0  -4   4 1283.01   78.19
   0  -4   4 1178.48   67.58
   5  -3  -1  165.78   19.26
   5  -3  -1  174.85   32.25
  -5  -3   1  142.82   18.68
  -5   3   1  170.15   17.46
   5  -3  -1  174.08   20.43
   5  -3  -1  152.92   14.29
  -5  -3   1  171.05   29.71
  -5  -3   1  149.84   17.30
  -5  -3   1  163.30   33.04
   5   3  -1  177.69   37.12
   5  -3  -4  286.56   23.54
  -5  -3   4  241.89   25.75
  -5  -3   4  250.39   24.36
  -5  -3   4  259.83   33.85
   5   3  -4  200.63   19.22
  -5  -3   4  296.43   37.92
   5  -3  -4  278.71   26.03
   2  -3   5 1208.41   89.97
  -2   3  -5 1199.13   59.09
   2  -3   5 1227.55   62.51
   2  -3   5 1118.82   54.42
  -2  -3  -5 1314.54   83.94
  -2  -3  -5 1361.54   83.49
  -2  -3  -5 1327.78   67.79
   2   3   5 1203.92   83.55
  -2  -3  -5 1394.36   74.97
   2  -3   5 1300.62   76.33
   2   3  -7  363.80   29.01
  -2   3   7  372.61   35.15
  -2  -3   7  377.57   27.81
  -2  -3   7  356.35   24.27
  -2  -3   7  324.69   28.34
   2  -3  -7  381.52   29.19
   2  -3  -7  313.44   45.72
  -2  -3   7  331.02   28.12
  -3  -4   0  526.22   36.75
  -3  -4   0  505.52   34.29
   3  -4   0  585.92   35.25
   3  -4   0  538.25   31.77
   3  -4   0  498.46   31.12
   3  -4  -3  727.48   36.90
   3  -4  -3  796.96   63.19
  -3  -4   3  716.36   57.85
  -3  -4   3  675.09   39.95
  -3  -4   3  684.01   41.79
   3  -4  -3  755.89   46.36
  -4  -2  -4  185.20   22.71
   4  -2   4  186.42   19.84
   4   2   4  163.14   21.23
   4  -2   4  188.43   20.14
   4   2   4  140.70   23.99
   4   2   4  151.02   17.89
  -4  -2  -4  198.76   20.54
   4  -2   4  199.56   32.73
  -4  -2  -4  176.95   15.59
   4  -2   4  210.44   22.19
   6  -2  -1 2602.24  122.45
   6  -2  -1 2682.08  125.48
   6  -2  -1 2579.59  142.33
  -6  -2   1 2529.87  120.98
  -6  -2   1 2362.80  106.54
  -6  -2   1 2484.46  145.27
   6  -2  -1 2594.29  121.31
   6   2  -1 2499.26  123.51
  -6   2   1 2439.04  112.33
  -6   2   5 4168.65  196.39
   6  -2  -5 3863.50  179.42
  -6  -2   5 3363.29  163.86
   6  -2  -5 3637.73  162.49
  -6   2   5 3682.82  171.70
  -6  -2   5 3539.26  161.64
  -6  -2   5 3656.53  170.15
  -6  -2   5 3080.83  145.93
   6   2  -5 3250.76  167.51
  -6  -2   5 3421.96  190.27
  -4  -2   8  472.17   46.64
  -4  -2   8  475.02   51.29
   4  -2  -8  555.17   48.57
  -4  -2   8  475.55   29.88
  -4  -2   8  519.31   34.46
  -4  -2   8  552.49   49.67
   4   2  -8  524.38   37.41
   4  -2  -8  538.86   32.95
  -4   2   8  497.86   36.43
  -4   2   8  489.25   49.23
   4  -2  -8  528.35   34.94
   6   1   1   71.22   15.40
   6  -1   1   70.07   19.63
  -6   1  -1   69.98   22.44
  -6  -1  -1   62.22   13.76
  -6  -1  -1   71.96   13.62
   6  -1   1   63.01   21.57
   6  -1   1   56.48   13.01
   6  -1   1   75.74   15.82
   6   1   1   67.17   13.67
  -6  -1  -1   -1.95   12.35
   1   3   6 2006.50  101.80
   1  -3   6 2025.19  116.87
  -1   3  -6 2091.16   96.27
   1  -3   6 1969.16   95.99
   1  -3   6 1861.42   94.39
   1  -3   6 1729.70   80.84
  -1  -3  -6 1978.12   98.09
  -1  -3  -6 2056.79   95.42
  -1  -3  -6 2097.01   99.94
  -1  -3  -6 2121.93   96.81
  -1  -3   7  867.35   49.02
  -1   3   7  919.23   84.57
  -1  -3   7  916.28   73.00
   1   3  -7  917.34   48.82
   1  -3  -7  889.24   50.02
   1  -3  -7  786.50   37.84
   1  -3  -7  888.53   65.79
  -1  -3   7  916.12   67.00
   6  -1  -7 1751.50   80.53
  -6  -1   7 1520.29   74.23
  -6  -1   7 1746.31   85.41
  -6  -1   7 1571.47   79.45
  -6  -1   7 1734.80   84.01
   6   1  -7 1550.89   71.77
  -6   1   7 1426.14   66.62
  -6   1   7 1683.43   87.37
  -6   1   7 1716.97   85.26
   1  -1   8  794.54   60.80
   1  -1   8  809.64   42.13
   1  -1   8  833.81   71.07
   1  -1   8  824.02   45.58
  -1   1  -8  918.65   49.89
  -1  -1  -8  882.19   47.57
  -1   1  -8  879.57   50.47
   1   1   8  910.31   74.45
  -1  -1  -8  845.32   50.38
   1   1   8  833.24   67.20
  -1  -1  -8  834.28   42.66
  -1  -1   9   21.36   13.10
  -1   1   9   29.00    9.22
   1   1  -9   34.49   18.65
  -1  -1   9   24.22   13.96
  -1   1   9   37.54   12.86
  -1   1   9   42.50   20.89
   1  -1  -9   43.22   13.62
  -1  -1   9   32.36   13.59
   1  -1  -9   50.13   24.35
   1  -1  -9   58.36   18.03
   1   1  -9   42.69   12.53
   1   1  -9   47.65   15.11
  -1  -1   9   36.84   12.58
   3   3   4   31.40   18.46
   3  -3   4   40.33   11.50
   3  -3   4   39.47   22.08
   3  -3   4   31.46    9.08
   3  -3   4   44.31   12.42
  -3  -3  -4   37.20   19.63
   3   3   4   40.32   15.44
  -3  -3  -4   45.93   12.59
  -3  -3  -4   35.03   11.64
  -4   1  -5  217.23   20.44
  -4   1  -5  239.98   24.12
  -4  -1  -5  232.70   24.98
  -4  -1  -5  237.05   21.59
   4   1   5  227.34   35.22
   4  -1   5  255.99   25.33
   4  -1   5  210.64   18.82
  -4  -1  -5  213.07   25.25
   4   1   5  227.60   34.90
   4   1   5  189.31   18.23
   4  -1   5  246.24   25.78
  -4   1  -5  223.26   18.51
  -3  -3   7  240.75   25.00
  -3   3   7  212.40   21.16
   3   3  -7  248.58   26.94
  -3  -3   7  242.81   20.22
   3  -3  -7  269.39   27.18
   3  -3  -7  259.80   38.47
  -3  -3   7  269.16   36.38
  -3  -3   7  209.25   32.82
   3  -3  -7  249.97   22.47
  -4   1   9 1204.94   65.10
   4  -1  -9 1255.52   62.91
  -4   1   9 1037.40   55.77
   4   1  -9 1092.71   59.40
   4   1  -9 1130.38   50.99
  -4  -1   9  958.26   60.98
  -4  -1   9 1181.79   68.53
  -4  -1   9 1184.49   62.42
  -4  -1   9 1161.24   84.92
   4  -1  -9 1162.62   57.97
  -4   1   9 1201.55   65.89
  -7   0   3   25.34    9.00
   7   0  -3   28.09   21.34
  -7   0   3   35.93   19.20
  -7   0   4  900.07   62.50
   7   0  -4 1013.93   58.35
  -7   0   4  928.93   52.00
  -7   0   4  997.40   55.61
   0  -2   8 2120.10  116.42
   0   2   8 2161.90  110.94
   0  -2   8 1846.83   96.81
   0   2  -8 2287.73  127.53
   0  -2   8 2030.71   97.61
   0   2   8 1865.61   90.05
   0   2  -8 2196.86  127.57
   0   2  -8 1992.44   90.95
   0  -2  -8 2052.65   97.64
   0  -2  -8 2059.60   93.70
   0  -2  -8 2203.04  124.28
   0  -2   8 2205.18  107.43
  -5  -3   0 1255.59   64.93
  -5  -3   0 1150.20   72.29
   5  -3   0 1288.47   66.26
   5  -3   0 1379.90   70.96
   5  -3   0 1363.73   80.63
   5  -3   0 1183.11   57.01
  -5   3   0 1272.43   84.12
  -5  -3   0 1292.12   64.30
   5   3   0 1225.57   71.19
  -5  -3   0 1307.51   68.25
   5  -3  -5  631.67   42.87
  -5   3   5  697.69   45.92
   5  -3  -5  628.46   57.21
  -5  -3   5  569.27   37.50
  -5  -3   5  587.80   49.36
  -5  -3   5  564.94   41.36
  -5  -3   5  568.24   57.08
   3  -4   1 1326.16   64.99
  -3  -4  -1 1370.50   91.33
   3  -4   1 1419.41   66.55
   3  -4   1 1183.09   70.20
  -3  -4  -1 1106.39   66.29
  -3  -4  -1 1331.61   65.82
  -3  -4   4  461.37   51.61
  -3   4   4  499.44   32.03
  -3  -4   4  459.38   50.11
   3  -4  -4  513.45   36.19
   3  -4  -4  476.02   36.72
  -3  -4   4  486.04   49.49
  -7   0   2 3983.64  186.57
  -7   0   2 4332.99  204.36
  -7   0   2 3566.08  177.56
   7   0  -2 4347.82  206.33
   7   0  -2 4092.23  225.45
   7   0  -5  545.20   53.48
  -7   0   5  478.53   32.22
  -7   0   5  493.18   33.01
  -7   0   5  512.41   32.68
  -7   0   5  536.41   37.87
   0   0  -9  134.71   34.88
   0   0   9   94.60   23.93
   0   0  -9  121.74   17.73
   0   0   9   98.23   19.30
   0   0   9   93.30   17.27
   0   0  -9  118.06   24.21
  -6  -2   0  582.94   60.69
   6   2   0  467.60   39.80
   6   2   0  565.71   62.05
   6  -2   0  645.59   57.17
   6  -2   0  604.37   37.88
  -6  -2   0  570.76   46.89
  -6   2   0  603.85   56.89
  -6  -2   0  566.10   38.61
   6  -2   0  605.55   49.80
   6  -2   0  602.09   54.74
   1  -4   4 3887.34  184.17
  -1  -4  -4 3948.79  227.10
   1  -4   4 3916.48  192.69
  -1  -4  -4 3989.03  216.89
  -1  -4  -4 3971.89  184.21
   1   4   4 3655.09  183.82
   1  -4   4 3965.63  185.81
   1  -4  -5  334.94   32.32
   1  -4  -5  335.22   28.15
  -1  -4   5  357.16   26.40
  -1  -4   5  288.73   24.50
  -1  -4   5  280.56   23.56
   6  -2  -6  883.03   46.79
  -6  -2   6  758.23   43.20
  -6  -2   6  805.42   68.25
   6   2  -6  789.97   44.96
   6  -2  -6  897.44   51.74
  -6   2   6  821.68   47.03
  -6   2   6  881.92   53.36
  -6  -2   6  704.03   47.68
  -6  -2   6  797.11   49.68
   2  -4   3 1838.61   88.87
   2  -4   3 1859.19   83.83
   2  -4   3 1852.66   86.30
  -2  -4  -3 1904.68   93.90
  -2  -4  -3 1807.24  129.07
  -2  -4  -3 1980.45  114.81
  -2  -4   5  266.14   37.63
  -2  -4   5  230.94   35.28
   2  -4  -5  253.51   23.56
   2  -4  -5  269.95   41.62
   2  -4  -5  264.18   28.26
  -5   0  -4 1730.60   78.04
  -5   0  -4 1680.48   82.92
  -5   0  -4 1781.79   83.20
   5   0   4 1851.38   91.55
   5   0   4 1780.42   89.21
   5   0   4 1649.03   89.32
   7  -1  -3   32.59   13.00
  -7  -1   3   25.57   12.64
  -7  -1   3   25.44   13.94
  -7   1   3  114.58   15.08
   7  -1  -3   46.60   14.78
  -7   1   3   30.02   13.24
  -7   1   3   23.17   11.23
   7   1  -3   27.87   13.21
  -5   0   9   54.77   26.51
  -5   0   9   36.80   13.22
  -5   0   9   73.88   26.10
   5   0  -9   60.26   14.00
   7  -1  -4  118.50   13.35
  -7  -1   4  147.04   30.04
   7  -1  -4  130.20   19.32
   7   1  -4  115.82   18.07
  -7   1   4  112.28   25.57
  -7   1   4  131.68   20.47
  -7  -1   4  115.87   20.11
  -7   1   4  127.72   30.17
   6   0   2  126.72   26.21
   6   0   2  164.77   28.36
  -6   0  -2  144.92   28.25
  -6   0  -2  171.69   33.44
   6   0   2  175.05   34.35
   0   3   7 1191.31   72.68
   0  -3  -7 1109.37   78.18
   0  -3  -7 1250.42   59.34
   0  -3  -7 1208.00   85.15
   0  -3   7 1154.01   62.28
   0  -3   7 1089.64   61.98
   0  -3  -7  977.68   64.94
   6   0  -8 1717.08   78.98
  -6   0   8 1710.18   89.27
  -6   0   8 1616.03   95.67
  -6   0   8 1745.17  117.43
   4  -3   3  305.86   27.43
   4   3   3  323.06   51.41
  -4  -3  -3  320.10   40.97
  -4  -3  -3  304.01   27.02
   4  -3   3  265.64   43.43
   4  -3   3  301.94   27.13
   4  -3   3  261.40   21.36
  -4  -3  -3  272.34   22.63
  -4  -3   7  311.59   39.51
  -4  -3   7  316.49   26.07
  -4  -3   7  272.47   24.06
   4  -3  -7  331.38   29.39
   4  -3  -7  326.56   44.74
   4   3  -7  312.40   30.33
  -4   3   7  314.13   27.60
   4  -3  -7  304.74   23.07
  -4  -3   7  296.32   43.95
   7  -1  -2 1514.65   99.58
  -7  -1   2 1535.82   78.80
  -7  -1   2 1556.42   82.11
   7  -1  -2 1396.04   80.93
   7   1  -2 1540.08  103.31
   7  -1  -2 1583.74   79.26
  -7   1   2 1573.83   78.00
   7   1  -2 1508.67   73.39
  -7   1   2 1646.67   80.59
  -7  -1   5  236.19   38.46
  -7   1   5  252.49   25.89
  -7   1   5  200.43   18.88
   7   1  -5  227.32   34.25
   7  -1  -5  239.99   39.88
  -7   1   5  273.33   27.00
  -7  -1   5  240.06   24.24
  -7  -1   5  237.55   24.29
   7   0  -1   32.02   13.51
   7   0  -1   38.86   13.89
  -7   0   1   32.49   21.70
  -7   0   1   28.78   17.28
   0  -4  -5  276.93   27.32
   0  -4  -5  278.70   28.72
   0   4   5  215.58   41.86
   0  -4   5  243.12   35.49
   0  -4   5  258.57   39.60
   0  -4   5  251.22   21.61
   0  -4  -5  248.89   19.69
   0  -1   9  283.25   23.98
   0  -1  -9  329.05   26.69
   0  -1  -9  328.77   39.08
   0   1  -9  328.65   30.77
   0   1  -9  314.00   34.10
   0   1   9  273.23   27.44
   0  -1  -9  334.53   30.48
   0   1  -9  316.65   28.34
   0  -1   9  298.21   26.91
   0  -1   9  305.82   29.79
   0   1   9  330.91   30.71
   0  -1   9  238.78   29.12
  -7   0   6  384.96   49.16
   7   0  -6  322.82   25.48
  -7   0   6  360.87   26.77
  -7   0   6  336.79   38.90
  -7   0   6  342.32   43.87
  -5  -2  -3  561.79   35.64
  -5  -2  -3  547.86   33.74
   5  -2   3  590.49   38.03
   5   2   3  488.92   43.24
  -5   2  -3  605.18   41.65
   5  -2   3  573.58   36.23
  -5  -2  -3  564.24   41.13
   5   2   3  562.30   40.21
   5  -2   3  581.64   39.80
  -2   2  -7  599.45   36.39
  -2  -2  -7  741.47   43.49
  -2  -2  -7  734.03   65.58
  -2   2  -7  769.50   42.19
  -2  -2  -7  682.94   38.49
   2   2   7  739.85   69.84
   2   2   7  651.07   41.09
   2  -2   7  750.54   42.94
   2   2   7  608.67   38.09
   2  -2   7  765.24   46.40
   2  -2   7  684.02   41.44
   2  -2   7  711.86   45.17
   4  -4  -2  707.04   60.59
   4  -4  -2  695.89   59.68
   4  -4  -2  675.36   39.13
   4   4  -2  551.75   38.71
  -4  -4   2  568.98   37.47
  -4  -4   2  711.84   43.39
  -4  -4   2  614.88   37.09
  -4  -4   2  620.11   60.88
   5   2  -8  799.14   48.34
  -5   2   8  816.59   72.95
   5  -2  -8  791.93   41.88
  -5  -2   8  718.61   43.87
   5  -2  -8  764.05   42.82
  -5  -2   8  764.10   46.99
  -5  -2   8  772.72   47.80
  -5  -2   8  758.33   45.66
  -5  -2   8  721.81   38.61
  -5   2   8  679.89   42.18
   5  -2  -8  771.96   43.38
  -2  -2   9 1958.53   96.65
   2   2  -9 2111.70   99.68
   2  -2  -9 2094.63  124.37
   2  -2  -9 2017.06   96.56
   2   2  -9 2142.61  105.08
   2   2  -9 1969.28   95.38
  -2   2   9 1847.61  110.55
  -2  -2   9 1832.74   85.84
  -2  -2   9 1954.98   99.91
  -2   2   9 1988.93  105.52
   3  -2   6  498.62   35.68
   3   2   6  466.76   35.48
  -3  -2  -6  497.85   34.49
   3  -2   6  500.86   35.25
  -3  -2  -6  490.70   36.78
  -3   2  -6  497.55   44.39
   3   2   6  378.62   28.03
   3  -2   6  483.08   34.55
   3  -2   6  512.40   51.82
   3   2   6  419.41   31.89
  -3  -2  -6  449.14   29.71
  -3  -2   9  411.39   31.37
  -3  -2   9  452.84   32.96
   3  -2  -9  455.16   33.97
  -3  -2   9  360.78   26.99
  -3  -2   9  421.42   51.89
   3  -2  -9  393.94   40.21
  -3   2   9  375.60   42.54
  -3   2   9  399.07   53.84
   3   2  -9  420.35   33.89
  -3   2   9  414.30   46.69
  -5  -3  -1 4777.61  259.45
   5   3   1 4492.58  231.41
  -5  -3  -1 4607.54  241.72
  -5   3  -1 4476.44  219.75
  -5  -3  -1 4630.19  223.91
   5  -3   1 4556.70  216.43
   5  -3   1 4654.80  224.23
   5  -3   1 4808.71  233.08
  -5  -3  -1 4791.95  255.43
   5  -1   4  631.41   41.28
   5   1   4  588.38   36.94
   5   1   4  567.21   51.92
  -5  -1  -4  623.52   35.93
  -5   1  -4  511.37   32.37
  -5   1  -4  666.00   42.72
  -5  -1  -4  565.44   33.05
   5   1   4  540.59   49.74
   5  -1   4  550.66   32.24
   5  -1   4  637.02   41.88
  -5  -1  -4  656.28   42.92
  -5  -3   6  311.37   30.49
   5  -3  -6  341.76   31.30
  -5   3   6  355.88   30.34
  -5  -3   6  309.51   24.84
  -5  -3   6  311.48   29.44
  -5  -3   6  338.47   28.10
   5  -3  -6  352.78   30.10
   5  -1  -9 1174.29   59.11
   5  -1  -9 1211.61   61.13
  -5  -1   9  917.66   60.39
  -5  -1   9 1148.11   62.21
  -5  -1   9 1181.11   90.52
  -5   1   9 1160.33   66.76
  -5  -1   9 1151.35   64.17
  -5   1   9 1140.73   87.42
   5   1  -9 1147.40   61.92
   6   1   2   37.28    9.95
   6   1   2   50.43   22.24
  -6  -1  -2   44.21    9.76
   6  -1   2   43.08   16.43
   6  -1   2   77.26   25.20
  -6   1  -2   55.48   25.08
   6  -1   2   48.87   11.82
   6  -1   2   52.79   13.07
   6   1   2   48.58   12.68
  -6  -1  -2   70.27   24.80
  -6  -1  -2   46.15   22.04
   4  -4  -1  318.71   28.46
   4  -4  -1  280.16   38.83
  -4  -4   1  336.81   36.03
  -4  -4   1  287.38   25.99
   4   4  -1  240.95   40.44
  -4  -4   1  284.10   26.57
   4  -4  -1  299.49   39.76
  -4  -4   1  271.02   23.30
   3  -4   2  743.34   41.59
   3  -4   2  739.68   41.51
  -3  -4  -2  756.29   46.03
  -3  -4  -2  644.49   36.92
  -3  -4  -2  755.21   44.24
   3  -4   2  714.67   43.58
  -4  -4   3 1176.05   57.87
   4  -4  -3 1191.82   59.01
  -4  -4   3 1119.40   79.67
  -4  -4   3 1165.78   63.98
  -4  -4   3 1197.07   85.32
   4  -4  -3 1275.59   65.31
   4  -4  -3 1280.16   90.91
   3  -4  -5  118.34   19.18
  -3  -4   5  102.96   18.34
  -3  -4   5  103.67   17.54
   3  -4  -5  120.80   34.07
  -3  -4   5   90.60   18.67
   3  -4  -5  105.89   13.66
   6   1  -8  744.52   41.07
   6  -1  -8  760.33   38.99
  -6   1   8  854.93   52.97
   6  -1  -8  800.33   57.07
  -6  -1   8  838.25   50.57
  -6  -1   8  782.16   68.35
  -6  -1   8  713.33   42.34
  -6  -1   8  747.19   48.56
  -6   1   8  875.02   55.41
  -6   1   8  680.37   38.77
  -3   0  -7  976.56   52.11
   3   0   7  926.42   57.29
   3   0   7 1228.88   74.72
  -3   0  -7  935.50   54.45
  -3   0  -7  888.03   44.58
   3   0 -10  803.59   41.02
  -3   0  10  818.70   80.74
  -3   0  10  888.14   56.06
   3   0 -10  906.18   75.18
   3   0 -10  859.77   51.16
  -2   0  -8 2107.17  100.32
   2   0   8 2655.43  154.77
   2   0   8 1947.56  102.47
  -2   0  -8 1992.57  101.93
  -2   0  10  371.05   30.70
  -2   0  10  467.00   38.22
  -2   0  10  353.53   26.94
   2   0 -10  455.83   50.37
   2   0 -10  414.38   35.86
   2   0 -10  390.46   39.30
   7  -1  -1  445.34   30.45
   7  -1  -1  476.49   36.77
   7  -1  -1  463.45   30.32
  -7  -1   1  460.99   55.12
  -7   1   1  488.29   35.71
   7   1  -1  453.34   31.49
   7  -1  -1  524.31   54.43
   7   1  -1  476.83   37.39
  -7  -1   1  459.48   52.29
   6  -2   1 2146.02   98.77
  -6  -2  -1 1994.69   94.95
   6   2   1 1838.99   86.46
   6  -2   1 2148.01  104.06
  -6  -2  -1 2058.46  105.08
   6   2   1 2018.48  129.41
   6  -2   1 2098.59  103.04
   6  -2   1 2153.95  119.03
  -6   2  -1 2228.60  109.07
  -6  -2  -1 2058.63  100.58
  -7  -1   6  262.76   38.21
  -7  -1   6  209.14   23.30
  -7   1   6  257.79   44.17
   7  -1  -6  275.73   24.88
   7   1  -6  220.61   21.96
  -7   1   6  269.01   42.70
  -7  -1   6  208.22   20.59
  -7  -1   6  234.27   25.07
   6  -2  -7  564.37   34.70
  -6  -2   7  472.33   34.24
  -6  -2   7  555.94   39.26
   6  -2  -7  572.65   38.86
  -6   2   7  586.96   43.23
  -6  -2   7  518.33   34.16
  -6   2   7  526.63   37.24
  -6  -2   7  527.27   38.47
   6   2  -7  505.74   51.22
   1  -2   8 3130.71  151.96
   1  -2   8 3057.60  163.21
   1   2   8 3183.37  158.40
   1  -2   8 3058.98  148.81
  -1   2  -8 3387.44  184.06
  -1  -2  -8 3164.03  152.87
  -1   2  -8 2974.78  145.65
  -1  -2  -8 3318.73  177.30
   1   2   8 2637.24  128.72
   1  -2   8 3100.60  163.25
  -1  -2  -8 3206.09  149.92
   1  -2  -9   91.52   24.58
   1   2  -9  111.75   28.43
   1  -2  -9  105.39   21.93
   1  -2  -9   90.37   17.82
  -1  -2   9   78.94   14.02
  -1   2   9   99.16   19.52
   1   2  -9   97.33   17.55
  -1  -2   9   88.66   18.71
  -1  -2   9   74.71   16.13
  -1   2   9   87.39   24.62
   1   2  -9   99.85   16.03
   2  -3   6  164.60   27.38
   2  -3   6  137.30   34.89
   2  -3   6  150.44   33.84
   2  -3   6  124.30   16.68
   2   3   6  147.62   20.80
  -2  -3  -6  162.08   30.27
  -2  -3  -6  164.22   20.67
  -2  -3  -6  157.26   22.55
  -2  -3  -6  158.60   20.06
  -2   3  -6  150.78   18.30
   2   3  -8 1016.33   56.25
   2   3  -8 1099.88   59.03
   2  -3  -8 1134.94   62.23
   2  -3  -8 1065.33   56.48
  -2  -3   8 1033.86   60.61
  -2  -3   8 1065.63   57.32
  -2   3   8 1053.23   98.63
   4  -4   0  746.83   63.14
   4  -4   0  620.57   51.05
   4  -4   0  679.84   41.55
  -4  -4   0  691.49   63.80
  -4  -4   0  675.41   41.81
   4   4   0  688.05   72.84
  -4  -4   0  625.37   37.22
  -4  -4   4  319.09   45.61
  -4  -4   4  297.53   22.93
  -4   4   4  349.68   29.61
  -4  -4   4  291.17   28.03
   4  -4  -4  326.92   29.40
   4  -4  -4  332.84   31.25
  -4  -4   4  316.15   27.23
  -4  -2  -5   86.32   15.54
   4  -2   5   54.35   13.01
  -4  -2  -5   53.76   13.35
   4   2   5   44.29   13.25
  -4   2  -5    2.99   14.76
   4  -2   5   69.95   23.89
   4   2   5   36.09   17.59
   4  -2   5   64.50   14.30
   4   2   5   44.02   21.33
  -4   0  -6   98.77   23.34
  -4   0  -6   80.06   13.92
   4   0   6   97.01   19.78
   4   0   6   93.11   29.28
  -4   0  -6   92.94   17.22
  -4   2   9  485.99   52.91
  -4  -2   9  546.21   38.87
  -4  -2   9  477.87   47.02
  -4  -2   9  501.05   39.12
  -4  -2   9  496.97   32.17
  -4   2   9  502.03   37.02
   4   2  -9  513.89   57.12
  -4  -2   9  544.33   55.76
  -4   2   9  556.67   40.04
   4  -2  -9  559.10   36.02
   4  -2  -9  491.67   44.76
  -4   0  10  185.93   42.46
  -4   0  10  187.83   26.71
   4   0 -10  198.19   25.68
   4   0 -10  204.46   23.35
  -3  -3  -5   49.40   23.06
   3   3   5   39.76   15.83
   3   3   5   36.70   12.97
  -3  -3  -5   48.45   13.42
  -3  -3  -5   34.95   20.04
   3  -3   5   37.61   19.67
   3  -3   5   51.95   13.48
   3  -3   5   46.52   23.96
   3  -3   5   39.02   10.61
  -3   1  -7  672.10   42.28
  -3  -1  -7  715.71   42.17
  -3   1  -7  678.59   40.39
   3   1   7  678.06   46.65
   3   1   7  714.52   68.02
   3  -1   7 1032.74   80.60
  -3  -1  -7  681.04   66.49
   3  -1   7  751.74   47.25
  -3   1  -7  723.23   56.53
   3  -1   7  660.39   40.03
  -3  -3   8 3018.48  153.68
  -3  -3   8 2898.71  167.96
  -3  -3   8 3117.18  145.15
  -3   3   8 3286.64  167.95
   3   3  -8 3436.37  195.73
   3  -3  -8 3248.42  156.42
   3  -3  -8 3390.54  160.78
  -3  -3   8 3194.62  147.98
   3   1 -10  726.36   40.05
   3  -1 -10  744.86   46.49
  -3   1  10  657.98   43.59
  -3   1  10  735.75   46.30
  -3  -1  10  728.36   50.26
   3  -1 -10  725.99   64.51
   3   1 -10  803.60   48.81
  -3  -1  10  682.07   47.90
   3   1 -10  779.24   51.47
  -3   1  10  741.12   72.12
   7   0   0 2378.76  119.30
  -7   0   0 2500.52  145.22
  -7   0   0 2254.71  109.75
   7   0   0 2470.41  121.50
   7   0  -7    8.73    7.82
  -7   0   7    4.45    7.35
  -7   0   7    4.78    9.97
  -7   0   7    2.21    9.26
  -7   0   7    6.25    8.27
  -2  -4  -4 3468.58  180.03
  -2  -4  -4 3725.93  176.22
   2  -4   4 3538.07  167.16
   2  -4   4 3537.47  169.10
   2  -4   4 3354.71  173.20
  -2  -4  -4 3554.76  173.45
  -2  -1  -8  631.53   44.37
  -2   1  -8  563.55   38.03
  -2  -1  -8  652.57   40.00
   2  -1   8  609.82   39.61
   2  -1   8 1075.92   77.04
   2   1   8  648.03   67.59
   2  -1   8  596.86   36.05
  -2  -1  -8  556.47   32.68
  -2   1  -8  663.18   41.24
   2   1   8  586.09   43.22
   2  -1   8  609.22   58.51
   2  -4  -6  320.59   48.80
   2  -4  -6  307.87   30.12
  -2  -4   6  314.09   40.65
  -2  -4   6  239.84   34.00
  -2  -4   6  278.45   26.74
   2  -4  -6  284.64   39.25
   6   3  -3  649.45   43.63
  -6  -3   3  643.34   39.03
  -6  -3   3  738.94   69.03
  -6   3   3  758.29   63.07
  -6  -3   3  698.58   39.56
   6  -3  -3  745.46   47.17
   6  -3  -3  814.37   70.59
   6  -3  -3  805.28   49.76
  -2   1  10  544.08   59.71
  -2  -1  10  540.71   63.47
   2  -1 -10  473.89   29.16
   2   1 -10  484.12   32.86
   2   1 -10  491.14   39.76
   2  -1 -10  513.96   38.50
  -2  -1  10  454.08   56.39
  -2   1  10  432.26   49.75
   2  -1 -10  524.06   37.65
   2   1 -10  522.83   36.08
  -2   1  10  402.08   44.77
  -1  -3  -7 3075.44  174.02
  -1  -3  -7 3100.74  150.63
  -1  -3  -7 3270.82  152.03
   1  -3   7 3103.48  149.03
   1  -3   7 2758.59  134.68
   1  -3   7 3137.70  154.07
   1   3   7 3242.08  191.03
  -1  -3  -7 3233.50  156.24
  -1   3  -7 3199.96  174.94
  -1  -3   8 2074.96  126.42
   1  -3  -8 2191.19  102.29
   1  -3  -8 2101.06   99.91
   1   3  -8 1384.39   75.36
  -1  -3   8 1979.91  127.18
   1   3  -8 1953.74   89.82
  -1   3   8 2061.46  113.61
  -1  -4  -5 1113.69   66.77
  -1  -4  -5 1214.34   90.57
  -1  -4  -5 1145.50   58.04
   1   4   5 1050.34   83.52
   1  -4   5 1147.23   63.17
   1  -4   5 1186.15   57.24
   1  -4   5 1182.80   86.31
  -1  -4   6  205.95   22.48
   1   4  -6  190.87   20.41
  -1  -4   6  178.73   23.64
   1  -4  -6  230.38   24.68
  -1   4   6  231.20   28.99
  -1  -4   6  221.05   22.35
   1  -4  -6  265.11   42.60
  -1   0  -9   -2.11    7.44
   1   0   9    4.82    7.67
   1   0   9    1.88    6.97
  -1   0  -9    3.57   10.52
   1   0   9    0.97    4.17
  -1   0  -9    6.17   11.49
   1   0 -10  352.85   33.79
   1   0 -10  323.78   27.66
   1   0 -10  348.93   27.72
  -1   0  10  314.43   28.09
  -1   0  10  290.12   27.34
  -1   0  10  320.87   32.55
  -6   3   2  552.84   36.85
  -6  -3   2  622.49   50.60
  -6  -3   2  647.21   44.86
  -6  -3   2  576.45   50.99
   6   3  -2  634.46   64.08
   6  -3  -2  700.27   64.37
  -6  -3   2  637.31   43.79
   6  -3  -2  695.64   64.24
   6  -3  -2  749.14   66.09
  -6  -3   4 3549.68  178.05
  -6  -3   4 3353.61  183.39
   6   3  -4 3414.10  189.54
   6  -3  -4 3932.11  191.54
  -6  -3   4 3523.61  163.06
  -6   3   4 3546.32  172.18
  -6   3   4 4350.12  209.66
   6  -3  -4 4082.50  192.36
   0  -5   0   -1.25    6.80
   0  -5   0   -1.19   11.22
   0  -5   0  -13.59   10.09
   4  -1   6  451.06   29.17
  -4   1  -6  499.91   34.26
   4  -1   6  534.69   57.22
   4  -1   6  559.23   60.15
  -4   1  -6  515.27   32.73
   4   1   6  475.31   50.52
  -4  -1  -6  564.43   36.49
  -4   1  -6  540.46   36.90
   4   1   6  533.09   37.14
  -4  -1  -6  571.98   40.43
  -6   0  -3   39.24   23.27
   6   0   3   41.28   12.48
   6   0   3   51.32   12.04
   6   0   3   53.60   15.65
  -6   0  -3   49.28   12.44
   4   1 -10 2341.55  114.38
   4  -1 -10 2174.38  104.59
   4  -1 -10 2385.15  114.03
  -4   1  10 2237.31  113.78
  -4  -1  10 2234.23  144.38
  -4  -1  10 2218.33  114.24
  -4   1  10 2135.72  108.99
  -4   1  10 1786.01  108.38
   4   1 -10 2070.11   94.35
   7  -2  -3 1832.73  105.83
   7  -2  -3 1830.12   93.04
   7   2  -3 1698.59   88.67
  -7   2   3 1965.68  101.73
  -7   2   3 1681.34  100.34
  -7  -2   3 1659.46  115.10
  -7  -2   3 1799.56   85.79
   7   2  -4 3530.32  195.70
   7  -2  -4 4250.90  220.30
   7  -2  -4 3983.72  219.67
  -7  -2   4 3751.08  194.94
  -7   2   4 4934.21  261.91
  -7   2   4 4464.25  223.66
  -7  -2   4 3957.05  217.25
  -5   3  -2 1764.67   91.31
   5  -3   2 1832.98  116.78
   5  -3   2 1736.52   84.17
   5  -3   2 1846.61  114.67
  -5  -3  -2 1809.59   90.92
   5   3   2 1709.30  123.02
  -5  -3  -2 1830.14   93.41
  -5  -3  -2 1783.51   84.91
  -6   0   9 1437.59   78.79
  -6   0   9 1417.07   89.70
  -6   0   9 1449.44   81.55
   6   0  -9 1439.20   84.41
  -5  -3   7  891.90   51.85
   5  -3  -7  898.07   54.55
   5  -3  -7  872.44   52.46
  -5   3   7  922.16   55.17
   5   3  -7  828.32   53.07
  -5  -3   7  800.95   51.92
  -5  -3   7  821.80   45.73
   0  -5   1 1798.25  102.64
   0  -5  -1 1782.38   82.57
   0  -5  -1 1904.17   92.22
   0  -5  -1 2037.43  125.36
   0  -5   1 1874.93   86.19
   4  -4   1  703.10   43.72
  -4  -4  -1  670.04   55.71
   4   4   1  691.84   78.24
  -4  -4  -1  705.85   43.83
   4  -4   1  670.12   42.84
  -4  -4  -1  709.07   45.40
   3  -4   3  609.43   38.41
  -3  -4  -3  663.77   59.98
  -3  -4  -3  589.65   49.08
  -3  -4  -3  711.49   44.63
   3  -4   3  674.97   55.57
   3  -4   3  696.87   61.80
  -7  -1   0 2520.47  151.22
   7   1   0 2550.53  142.37
   7  -1   0 2431.15  111.97
   7  -1   0 2610.03  148.87
   7  -1   0 2571.86  126.48
  -7   1   0 2591.76  125.00
   7   1   0 2551.05  127.28
   7  -1   0 2479.07  138.84
  -7  -1   0 2536.86  125.46
  -4  -4   5  746.93   48.59
   4  -4  -5  862.39   71.24
   4  -4  -5  764.81   50.90
  -4   4   5  801.99   47.31
  -4  -4   5  775.60   69.79
  -4  -4   5  797.42   47.11
  -4  -4   5  762.36   56.28
   3  -4  -6  263.00   43.48
  -3  -4   6  240.94   26.18
  -3  -4   6  260.89   25.56
  -3  -4   6  244.14   42.05
   3  -4  -6  245.15   21.82
   3  -4  -6  279.02   29.38
  -7   1   7  641.02   46.01
  -7   1   7  686.20   46.17
   7  -1  -7  682.09   54.16
   7   1  -7  505.03   29.09
  -7  -1   7  568.69   38.16
  -7  -1   7  556.37   37.21
  -7  -1   7  644.89   41.91
  -7  -1   7  657.01   62.28
   7   1  -7  522.16   30.86
  -1  -5   0  391.73   47.81
  -1  -5   0  457.19   46.82
  -1  -5   0  415.38   46.56
   1  -5   0  359.94   27.37
   1  -5  -1  150.40   25.16
  -1  -5   1  150.93   19.77
   1  -5  -1  131.01   33.55
  -1  -5   1  191.23   19.05
   4  -3   4  746.94   47.12
   4  -3   4  709.52   41.98
  -4  -3  -4  773.42   48.65
  -4  -3  -4  755.53   43.10
   4   3   4  781.45   73.74
  -4  -3  -4  773.01   47.36
   4  -3   4  792.89   47.95
   4  -3   4  763.46   47.33
  -6  -3   1 3721.73  176.61
   6  -3  -1 3980.14  189.14
   6   3  -1 4124.17  243.24
  -6   3   1 3819.26  182.59
  -6  -3   1 3861.74  189.56
  -6  -3   1 3844.95  180.23
  -6  -3   1 4175.87  202.45
   6  -3  -1 4329.76  209.69
   6  -3  -1 4356.80  210.98
   6  -3  -1 4294.18  230.52
  -6  -3   5  332.13   29.60
  -6  -3   5  376.70   40.89
   6  -3  -5  393.57   35.73
   6  -3  -5  402.81   47.31
  -6  -3   5  370.67   51.81
  -6  -3   5  398.41   32.82
  -6   3   5  327.73   26.60
  -6   3   5  448.37   39.01
  -4   3   8 2618.87  128.11
   4  -3  -8 2649.71  151.49
   4  -3  -8 2698.09  127.03
   4   3  -8 2637.79  162.03
   4  -3  -8 2769.07  137.46
  -4  -3   8 2566.19  120.92
  -4  -3   8 2333.96  118.01
  -4  -3   8 2587.72  120.83
  -4  -3   8 2566.13  127.89
  -1  -1  -9 2236.02  123.62
  -1   1  -9 2372.37  136.67
  -1  -1  -9 2244.84  128.51
  -1  -1  -9 2126.69  109.39
   1  -1   9 1930.91   95.89
   1  -1   9 2246.23  113.66
   1  -1   9 1927.70   90.42
  -1   1  -9 2239.57  112.10
   1   1   9 2216.33  113.68
   1   1   9 2153.64  107.63
   1  -1   9 2087.27  100.87
  -7  -2   2   33.98   17.71
  -7  -2   2   39.58   14.87
   7   2  -2   48.39   15.22
  -7  -2   2   48.77   15.11
  -7   2   2   43.54   12.36
   7  -2  -2   44.30   12.00
   7  -2  -2   55.15   14.49
   7  -2  -2   21.93   13.31
   7  -2  -2   44.56   13.48
   0  -4   6  200.63   20.38
   0  -4   6  198.03   35.14
   0  -4   6  200.39   24.05
   0  -4  -6  190.42   18.17
   0  -4  -6  206.66   24.64
   0   4   6  190.25   26.32
   0  -4  -6  219.93   42.58
  -1  -1  10 1732.14  118.12
  -1  -1  10 1727.95  112.92
  -1   1  10 1740.93  117.25
   1   1 -10 1910.18   92.59
   1   1 -10 1969.13  102.56
   1  -1 -10 1775.25   82.76
   1  -1 -10 1854.81   96.06
   1  -1 -10 1918.00   93.80
  -1   1  10 1695.40   89.59
   1   1 -10 1720.73  101.97
   7  -2  -5 1002.67   50.45
   7   2  -5  798.06   43.38
   7   2  -5  865.35   48.94
  -7   2   5  985.31   83.18
  -7   2   5  938.50   57.23
  -7  -2   5  943.89   56.32
  -7  -2   5  898.95   50.88
  -7  -2   5  935.18   79.70
   7  -2  -5  996.30   58.24
   0  -2  -9 2146.88  118.99
   0  -2   9 1945.21  122.23
   0   2   9 2022.01  105.91
   0  -2  -9 1987.07   99.95
   0   2  -9 2186.93  105.29
   0   2   9 1786.70  108.26
   0   2  -9 2053.81  104.66
   0  -2   9 1945.90   91.03
   0  -2  -9 2249.63  132.00
   0  -2   9 1971.81  121.76
  -5   0  -5    3.47    4.98
  -5   0  -5    2.50    6.18
   5   0   5    7.20    8.35
  -5   0  -5   -2.56    5.57
   5   0   5    1.32    8.89
   5   0 -10   98.32   14.96
   5   0 -10    5.84   15.43
  -5   0  10   89.63   20.47
  -5   0  10   91.80   20.18
  -1  -5  -1 5035.98  242.92
  -1  -5  -1 5034.41  249.11
  -1  -5  -1 4439.59  228.00
   5   2   4 1304.27   67.08
   5  -2   4 1723.24   86.70
  -5  -2  -4 1708.54   90.95
  -5  -2  -4 1736.65  104.53
   5  -2   4 1745.66   86.52
  -5   2  -4 1746.88   91.28
   5  -2   4 1678.34   79.46
   5   2   4 1629.87   83.05
  -1  -5   2 2900.32  140.23
  -1  -5   2 3488.15  163.93
  -1  -5   2 3773.51  170.97
   1  -5  -2 3850.81  215.15
   1  -5  -2 3843.92  183.77
   1  -5  -2 3555.84  191.62
   0  -5   2 1588.44   90.39
   0  -5  -2 1766.98   93.59
   0  -5   2 1409.07   70.08
   0  -5   2 1761.57   79.31
   0  -5  -2 1813.66  109.97
   6   1   3  762.59   61.14
   6  -1   3  736.70   46.01
  -6  -1  -3  768.26   48.82
  -6   1  -3  779.86   67.67
   6   1   3  659.77   39.42
   6   1   3  757.29   60.74
   6  -1   3  787.47   68.95
  -6  -1  -3  701.73   39.27
  -6  -1  -3  772.09   59.97
  -5  -2   9 7010.28  351.67
  -5   2   9 7203.61  397.64
   5  -2  -9 6945.66  351.38
  -5  -2   9 6619.04  327.30
   5  -2  -9 7169.34  383.74
  -5  -2   9 7091.77  389.29
  -5  -2   9 6242.56  323.27
  -5  -2   9 6266.52  317.96
  -5   2   9 6329.06  325.00
  -5   2   9 7301.00  372.52
   5   2  -9 7044.38  390.71
  -6  -2  -2  451.81   37.16
  -6  -2  -2  479.26   33.80
   6   2   2  456.35   37.13
  -6   2  -2  474.14   37.28
   6  -2   2  466.31   31.99
   6  -2   2  483.33   35.70
   6  -2   2  455.47   35.01
  -6  -2  -2  450.04   31.62
   0   3  -8  897.52   51.63
   0  -3   8  802.83   50.93
   0  -3   8  890.74   70.88
   0  -3   8  655.12   56.23
   0  -3  -8  873.01   47.10
   0   3   8  787.37   55.69
   0  -3  -8  686.95   58.91
   0  -3  -8  802.32   49.42
   0  -3  -8  858.41   72.91
  -6  -1   9  421.86   53.48
  -6  -1   9  396.09   35.56
   6  -1  -9  403.21   27.81
   6   1  -9  407.15   43.30
  -6   1   9  431.55   57.81
  -6  -1   9  447.23   35.34
  -6   1   9  439.34   37.31
  -6   2   8 2247.80  141.84
  -6  -2   8 2017.21  121.25
  -6  -2   8 1977.83  101.28
   6  -2  -8 2143.95  124.91
   6  -2  -8 2197.06  122.50
  -6   2   8 2007.95  121.21
  -6  -2   8 2210.22  108.69
  -6  -2   8 1905.02  121.87
   6   2  -8 2102.12  103.23
  -7   0  -1 4212.12  203.86
   7   0   1 4551.80  248.54
   7   0   1 3595.55  190.11
  -7   0  -1 3988.40  193.58
   7   0   1 4196.87  200.70
  -7   0   8 2197.45  114.75
  -7   0   8 2167.75  125.99
  -7   0   8 2148.11  137.11
   7   0  -8 2084.60   96.30
   7  -2  -1 1406.02   72.76
   7  -2  -1 1362.03   71.95
   7  -2  -1 1398.78   71.23
  -7  -2   1 1386.51   75.07
  -7   2   1 1335.45   85.99
  -7  -2   1 1191.25   60.28
   7   2  -1 1418.13  102.57
  -7  -2   1 1381.07   96.89
   7  -2  -1 1306.25   87.51
   2  -5  -1 2006.61   98.75
  -2  -5   1 2096.61  106.87
   2   5  -1 1550.63   85.63
  -2  -5   1 2091.84  100.80
   2  -5  -1 2169.45   99.60
  -7   2   6 4287.97  214.84
   7   2  -6 3523.04  193.46
  -7   2   6 4242.94  209.16
  -7  -2   6 4087.23  207.53
   7  -2  -6 4484.00  207.78
   7  -2  -6 4287.13  209.81
  -7  -2   6 4211.44  233.93
  -7  -2   6 3919.72  193.86
   5   1   5  340.94   42.65
  -5  -1  -5  388.68   33.45
  -5   1  -5  309.42   25.09
  -5  -1  -5  338.40   25.73
   5   1   5  316.43   35.35
  -5   1  -5  412.59   31.64
   5  -1   5  377.84   32.89
   5   1   5  336.86   43.01
   5  -1   5  360.84   31.82
  -5  -1  -5  336.00   35.31
  -5  -4   2  627.35   37.68
  -5  -4   2  305.91   30.73
   5  -4  -2  378.80   45.29
   5  -4  -2  372.76   31.33
   5  -4  -2  409.15   50.80
   5   4  -2  323.60   30.45
  -5  -4   2  327.62   29.60
  -5  -4   2  336.02   31.61
  -5  -4   3 1418.82  100.25
   5  -4  -3 1511.70   77.90
   5   4  -3 1161.29   81.34
   5  -4  -3 1484.33   73.88
  -5  -4   3 1427.69   74.45
   5  -4  -3 1560.89   81.63
  -5  -4   3 1371.14   75.49
  -5  -4   3 1528.13  102.77
   0   0  10 3148.44  155.98
   0   0 -10 3278.30  156.08
   0   0  10 2894.39  140.87
   0   0 -10 3256.18  163.98
   0   0 -10 3308.59  155.11
   0   0  10 2787.27  135.44
   6  -3   0  645.18   43.33
   6  -3   0  639.66   53.88
  -6  -3   0  518.18   32.07
   6  -3   0  617.93   61.46
   6  -3   0  587.46   35.86
  -6  -3   0  640.85   43.50
  -6  -3   0  623.85   52.90
  -6  -3   0  589.87   40.91
  -6   3   0  644.21   57.96
   6   3   0  610.52   46.49
  -5  -1  10   63.61   26.52
  -5   1  10   44.29   15.87
   5  -1 -10   43.38   12.99
  -5   1  10   40.86   26.54
  -5  -1  10   44.01   16.66
   5  -1 -10   40.58   20.69
   5   1 -10   45.31   14.40
  -5  -1  10   30.38   14.68
  -6  -3   6 2720.84  142.20
  -6  -3   6 3000.50  147.54
  -6   3   6 3173.03  157.56
   6  -3  -6 3086.61  181.31
   6  -3  -6 3092.47  149.75
  -6  -3   6 2837.88  133.67
  -2  -5   0 1340.83   77.40
  -2  -5   0 1411.74   71.06
  -2  -5   0 1452.55   98.95
   2  -5   0 1443.30   71.42
  -2  -5   2   15.36   12.81
   2  -5  -2   24.86   12.02
   2  -5  -2   26.89   10.68
  -2  -5   2   29.34   10.67
  -2  -5   2   15.01    8.25
  -1  -5  -2 1116.68   84.36
  -1  -5  -2 1075.29   71.95
   1  -5   2  833.26   43.51
  -1  -5  -2 1052.20   63.53
   1  -5  -3 1206.28   63.13
  -1  -5   3 1216.84   62.18
   1  -5  -3 1243.89   93.70
   1  -5  -3 1232.05   63.67
  -1  -5   3 1104.76   59.47
  -1  -5   3 1276.90   78.91
  -4  -4  -2  379.61   31.18
  -4  -4  -2  384.62   31.68
  -4  -4  -2  347.13   27.99
   4   4   2  381.41   59.31
   4  -4   2  364.47   28.50
   4  -4   2  350.52   29.40
   4  -4   2  381.47   46.70
  -4  -4   6   91.81   27.28
  -4  -4   6   83.21   22.33
  -4  -4   6   82.37   17.96
  -4   4   6   67.80   24.28
   4  -4  -6   92.69   32.71
   4  -4  -6   93.50   19.20
  -4  -4   6   81.54   18.15
   3   2   7  270.14   42.41
   3   2   7  232.28   32.85
  -3  -2  -7  301.37   42.62
  -3  -2  -7  258.44   21.40
   3  -2   7  310.53   29.07
   3   2   7  226.86   37.73
   3  -2   7  298.22   27.61
   3  -2   7  276.58   26.17
   3  -2   7  284.97   27.13
  -3   2  -7  289.04   24.78
  -3  -2  -7  312.17   29.54
  -3   2  10   72.34   24.94
   3  -2 -10  122.57   31.04
   3  -2 -10   89.64   15.31
  -3  -2  10  101.92   19.69
  -3  -2  10  109.04   28.77
  -3   2  10   87.31   17.28
  -3  -2  10   90.87   14.91
   3   2 -10  110.56   17.04
  -3   2  10   90.24   31.91
   3   2 -10  114.01   21.08
   3   2 -10  110.32   31.71
   5  -4  -1 1906.27   96.44
   5  -4  -1 1838.35   92.47
   5  -4  -1 1988.51   99.44
   5   4  -1 1650.55  115.95
  -5  -4   1 1796.63  107.56
  -5  -4   1 1721.00  107.22
  -5  -4   1 1600.52   83.46
  -5  -4   1 1730.50  107.70
  -5  -4   4 1541.73   83.59
   5  -4  -4 1831.99  119.65
  -5  -4   4 1604.47  101.69
  -5  -4   4 1508.13  106.56
  -5   4   4 1858.04   95.43
  -5  -4   4 1700.07   85.22
   5  -4  -4 1866.92  125.17
   2   4   5 1575.91   83.65
  -2  -4  -5 1840.66   93.89
  -2  -4  -5 1901.08   94.05
  -2  -4  -5 1836.31  103.63
   2  -4   5 1849.56  116.04
   2  -4   5 1827.51  113.01
  -2  -4   7 3341.33  158.07
  -2  -4   7 3259.19  191.78
  -2   4   7 3357.95  176.67
  -2  -4   7 2905.63  165.95
   2  -4  -7 3406.66  189.43
   2  -4  -7 3539.62  174.17
   2   4  -7 3131.96  154.58
   0  -5   3  190.63   27.35
   0  -5  -3  196.97   41.84
   0  -5  -3  195.70   22.03
   0  -5   3  154.51   18.54
   2  -2   8 1564.37   82.85
   2  -2   8 1493.15   94.57
   2   2   8 1547.76   84.58
  -2   2  -8 1509.46   75.57
   2   2   8 1202.15   82.71
  -2  -2  -8 1583.08  107.29
  -2  -2  -8 1573.15   78.10
  -2  -2  -8 1546.22   75.40
   2  -2   8 1450.20   74.10
  -2   2  -8 1228.26   81.45
   2  -2   8 1504.15   79.21
   7  -1   1 1421.11   89.44
   7  -1   1 1261.40   60.57
   7   1   1 1439.39   77.05
  -7  -1  -1 1400.89   98.10
   7   1   1 1395.04   71.11
  -7   1  -1 1464.81  101.44
  -7  -1  -1 1481.19   79.20
   7  -1   1 1447.06  100.55
   7  -1   1 1265.44   65.27
   2   2 -10  807.99   52.04
  -2   2  10  713.33   46.23
  -2  -2  10  750.07   67.58
  -2   2  10  768.56   51.48
   2   2 -10  841.76   67.68
   2  -2 -10  740.59   63.21
   2   2 -10  771.05   46.79
  -2  -2  10  766.54   43.70
   2  -2 -10  850.06   50.92
  -2  -2  10  795.03   73.53
   8   0  -4   83.82   29.85
  -8   0   4   66.26   24.64
  -8   0   4   75.82   28.78
  -8   0   4   64.70   12.95
  -8   0   4   59.30   12.66
  -7   1   8 1588.99   86.15
  -7   1   8 1589.83   88.30
   7  -1  -8 1667.61   98.71
   7   1  -8 1342.62   80.27
  -7  -1   8 1621.03   82.92
  -7  -1   8 1432.07   76.17
  -7  -1   8 1548.76  107.07
  -7  -1   8 1421.97   73.66
  -8   0   3   48.87   16.70
  -8   0   3   39.93   19.93
   8   0  -3   59.14   16.82
  -8   0   3   54.72   14.88
   1   4   6   99.09   19.16
   1  -4   6   97.50   18.34
  -1  -4  -6  111.67   17.05
  -1  -4  -6   96.38   32.32
   1  -4   6   77.56   18.04
  -1   4  -6   90.72   16.54
  -1  -4  -6  123.74   34.68
  -8   0   5  -12.31    8.82
  -8   0   5    4.28    6.99
  -8   0   5    4.17    5.65
  -8   0   5    1.67    9.04
   8   0  -5    2.30    7.06
   1   4  -7  225.13   21.32
  -1   4   7  261.58   31.82
  -1  -4   7  234.81   25.13
   1  -4  -7  278.16   28.91
   1  -4  -7  306.06   43.88
  -1  -4   7  282.06   25.78
   2  -5   1  336.58   23.66
  -2  -5  -1  397.29   29.78
  -2  -5  -1  422.48   34.25
  -2  -5  -1  380.70   35.23
   2  -5  -3  185.20   23.82
   2  -5  -3  185.01   21.22
  -2  -5   3  171.06   32.42
  -2  -5   3  184.00   20.87
  -2  -5   3  154.83   29.73
  -5  -3  -3  496.28   38.05
  -5  -3  -3  439.67   30.33
   5   3   3  466.05   58.69
  -5  -3  -3  527.74   36.51
   5  -3   3  502.98   35.98
   5  -3   3  483.56   33.26
   5  -3   3  503.30   54.52
  -5   3  -3  516.74   39.50
   0  -1 -10 1535.19   82.56
   0  -1  10 1564.43  108.27
   0  -1 -10 1664.91  100.41
   0   1 -10 1412.59   86.11
   0  -1 -10 1565.00   75.92
   0   1 -10 1622.43   85.77
   0   1  10 1585.00   85.61
   0   1  10 1508.60  103.22
   0  -1  10 1457.85   98.97
   0  -1  10 1370.25   70.41
   0   1 -10 1596.09  104.70
   2  -3   7  679.05   43.04
   2  -3   7  756.89   49.72
   2  -3   7  704.07   56.10
  -2  -3  -7  808.73   65.72
  -2  -3  -7  751.50   62.99
  -2   3  -7  831.94   64.94
   2   3   7  772.94   51.36
   2   3   7  748.58   69.53
   2  -3   7  763.28   47.18
  -2  -3  -7  787.23   46.69
   5   3  -8  178.68   40.08
  -5  -3   8  210.95   37.63
  -5  -3   8  143.51   18.74
  -5   3   8  188.66   35.39
   5  -3  -8  210.18   24.02
   5  -3  -8  183.62   23.67
  -5  -3   8  209.18   34.50
  -5  -3   8  164.63   18.64
   2   3  -9  521.54   51.25
   2   3  -9  320.24   32.63
  -2   3   9  482.45   43.64
   2  -3  -9  546.63   38.05
   2  -3  -9  528.13   34.58
  -2  -3   9  503.79   40.11
   2   3  -9  478.51   33.05
   3  -3   6  574.01   57.30
   3  -3   6  428.92   30.79
   3  -3   6  440.89   46.49
  -3  -3  -6  451.56   30.29
   3  -3   6  440.13   53.86
   3   3   6  506.28   56.52
   3   3   6  478.30   37.36
  -3  -3  -6  463.98   34.11
  -3  -3  -6  516.41   51.49
  -3   3  -6  415.05   27.68
  -3  -4  -4  531.66   37.31
   3   4   4  495.79   44.58
  -3  -4  -4  437.47   31.41
   3  -4   4  486.44   54.96
   3  -4   4  509.66   49.96
   3  -4   4  498.77   35.31
  -3  -4  -4  508.15   36.86
  -3  -3   9 1499.28   75.63
   3  -3  -9 1503.71   77.58
   3  -3  -9 1475.08   75.62
   3   3  -9 1488.48   79.87
   3   3  -9 1510.10  103.24
  -3   3   9 1488.14  116.42
  -3  -3   9 1353.69   76.74
   4   2   6  346.99   42.31
  -4  -2  -6  421.07   31.92
   4   2   6  316.04   26.85
  -4  -2  -6  422.77   36.12
   4  -2   6  403.90   48.19
  -4   2  -6  427.00   35.37
   4  -2   6  373.47   28.31
   4  -2   6  389.77   31.90
  -3  -4   7  638.12   39.07
  -3  -4   7  809.51   49.69
   3   4  -7  877.10   55.78
  -3  -4   7  848.04   66.01
   3  -4  -7  945.55   83.75
   3  -4  -7  896.72   56.69
   3  -4  -7  883.05   67.27
   3   0   8  696.95   47.02
  -3   0  -8  662.31   45.40
   3   0   8  659.23   70.62
  -3   0  -8  701.62   59.62
   4  -2 -10  894.13   69.10
  -4   2  10  850.42   53.17
  -4   2  10  860.85   51.74
  -4  -2  10  846.59   51.32
  -4  -2  10  838.03   76.78
  -4   2  10  815.65   52.04
  -4  -2  10  779.13   45.95
   4   2 -10  870.44   52.67
   4   2 -10  841.41   45.18
   3   0 -11  391.87   32.41
   3   0 -11  349.96   24.73
   3   0 -11  386.75   34.54
  -3   0  11  339.01   30.83
  -3   0  11  289.96   35.01
  -7   2   0  469.29   35.25
   7  -2   0  492.48   54.05
   7  -2   0  501.42   35.91
   7   2   0  467.70   57.86
  -7  -2   0  488.72   54.38
   7  -2   0  500.64   35.02
   7  -2   0  456.69   47.16
  -7  -2   0  479.10   38.36
  -7   2   7  839.98   72.41
  -7  -2   7  786.40   63.09
  -7  -2   7  847.67   73.69
   7   2  -7  773.86   44.98
  -7  -2   7  859.35   53.92
  -7   2   7  885.43   58.72
   7  -2  -7  835.18   44.51
   7  -2  -7  922.13   53.46
   5   4   0  287.23   49.90
  -5  -4   0  298.05   26.32
   5  -4   0  306.80   46.21
   5  -4   0  325.59   45.21
  -5  -4   0  283.47   26.68
  -5  -4   0  285.07   25.93
  -5   4   5  465.73   49.95
  -5  -4   5  464.25   32.59
  -5  -4   5  426.80   37.26
  -5  -4   5  465.94   34.34
  -5  -4   5  435.71   55.08
   5  -4  -5  499.13   60.37
   5  -4  -5  498.41   38.81
  -8   1   4  652.26   62.86
   8   1  -4  122.08   20.57
   8  -1  -4  155.82   33.28
  -8  -1   4  322.55   33.86
  -8  -1   4  515.82   52.46
  -2   0  -9    2.95   12.86
  -2   0  -9    1.58    6.93
   2   0   9    2.64    7.47
   2   0   9    2.32    8.51
  -8   0   2  403.05   28.59
   8   0  -2  455.43   37.96
  -8   0   2  482.52   54.95
   6   0   4  123.48   18.66
  -6   0  -4  123.46   18.01
   6   0   4  141.69   21.75
  -6   0  -4  152.76   30.44
   4   0   7  732.91   49.14
  -4   0  -7  673.59   38.35
  -4   0  -7  733.78   41.07
   4   0   7  698.58   73.40
  -4   0  -7  771.64   47.29
   2   0 -11 1327.95   75.86
   2   0 -11 1234.41   61.53
  -2   0  11 1299.72   73.41
  -2   0  11  988.97   66.79
   2   0 -11 1372.39   72.28
  -2   0  11 1152.79   62.94
  -8   0   6   25.77   22.75
  -8   0   6   21.18   10.59
   8   0  -6   27.47   18.58
  -8   0   6   20.26   11.42
  -8   0   6   25.40   10.04
  -1  -2  -9  302.97   39.89
   1  -2   9  285.01   45.57
   1  -2   9  277.87   23.91
   1  -2   9  297.71   44.55
   1  -2   9  293.54   24.01
  -1   2  -9  226.77   38.88
  -1   2  -9  352.58   29.96
  -1  -2  -9  300.92   29.64
   1   2   9  333.70   49.63
  -1  -2  -9  348.18   27.82
   4   0 -11 1668.19   88.64
  -4   0  11 1715.73   95.23
  -4   0  11 1527.75  117.72
   4   0 -11 1637.29  108.71
   1  -2 -10  382.50   29.94
  -1   2  10  335.86   29.19
   1  -2 -10  393.02   27.63
   1   2 -10  432.60   34.09
  -1  -2  10  392.50   34.98
   1   2 -10  430.85   32.76
  -1  -2  10  376.93   27.79
  -1   2  10  385.27   35.05
  -1  -2  10  391.28   32.01
   1   2 -10  390.44   28.73
   1  -2 -10  421.86   48.96
  -6   0  10  242.06   28.69
   6   0 -10  240.17   22.26
  -6   0  10  244.90   28.86
  -6   0  10  231.96   23.62
  -1  -5  -3 1714.37   94.67
  -1  -5  -3 1629.49   79.70
  -1  -5  -3 1757.34   89.76
   1  -5   3 1512.05   73.83
   1  -5   3 1389.21   68.50
   1  -5  -4  165.15   20.89
  -1  -5   4  173.96   18.93
  -1  -5   4  162.75   28.85
   1  -5  -4  172.76   25.16
  -1  -5   4  155.67   30.89
  -1   5   4  154.53   23.61
  -6  -3  -1 1057.50   60.69
  -6  -3  -1  892.81   51.80
  -6  -3  -1  933.83   52.46
   6  -3   1  963.52   52.38
   6  -3   1 1040.39   60.90
  -6   3  -1  928.91   54.98
   6  -3   1  993.58   76.48
   6   3   1  970.51   62.16
  -8  -1   3  145.33   20.74
   8  -1  -3  154.69   21.35
   8   1  -3  133.40   34.35
  -8   1   3  140.32   29.49
  -8   1   3  146.38   19.39
  -8  -1   3  141.99   20.92
  -8   1   3  199.66   25.69
  -8  -1   3  137.78   22.20
  -8  -1   5  612.10   41.27
   8   1  -5  609.25   41.11
  -8   1   5  558.30   49.08
   8  -1  -5  627.18   42.85
  -8  -1   5  588.63   61.25
  -8   1   5  643.05   44.95
  -8   1   5  597.47   59.60
  -8  -1   5  613.33   60.48
  -6  -3   7 3911.47  230.05
  -6  -3   7 4475.10  248.17
   6  -3  -7 4683.00  230.46
   6  -3  -7 4417.84  214.34
  -6   3   7 4609.34  230.82
   6   3  -7 4158.85  210.35
  -6  -3   7 4143.09  199.65
   1  -3   8   18.55   11.75
   1  -3   8   12.22   15.41
   1   3   8   14.27   12.60
  -1  -3  -8   16.20    9.37
  -1  -3  -8   20.95   10.01
  -1  -3  -8   15.90   10.48
  -1  -3  -8   11.70   11.07
  -1   3  -8   14.43   10.35
   1  -3   8   17.37   18.52
   1  -3  -9 1759.59   85.36
   1   3  -9 1750.61   82.73
   1   3  -9 1244.88   91.15
   1   3  -9 1916.01   92.75
  -1  -3   9 1723.42   92.14
  -1  -3   9 1878.72   93.47
  -1   3   9 1762.07  100.72
   1  -3  -9 1943.78  119.31
  -3  -5   1  517.34   54.82
   3  -5  -1  581.21   51.35
  -3  -5   1  464.02   36.89
   3  -5  -1  423.39   38.33
   3  -5  -1  457.41   47.02
   3   5  -1  356.50   49.45
  -3  -5   2  505.17   37.38
   3  -5  -2  603.37   38.60
   3  -5  -2  611.20   61.01
  -3  -5   2  395.67   40.71
  -3  -5   2  569.89   37.64
   4  -3   5  849.68   49.35
  -4  -3  -5  893.96   52.07
   4  -3   5  788.72   45.00
   4  -3   5  926.06   53.09
  -4  -3  -5  836.39   46.49
   4  -3   5  886.96   52.25
   4   3   5  841.38   53.02
  -4  -3  -5  890.80   53.36
   4   3   5  623.80   39.50
   3   1   8  360.40   31.21
   3  -1   8  307.76   25.01
   3  -1   8  380.63   33.03
   3  -1   8  376.82   35.14
   3   1   8  399.82   49.63
  -3  -1  -8  399.63   46.81
  -3  -1  -8  368.44   34.22
  -3   1  -8  399.08   29.58
  -3   1  -8  384.96   27.97
  -3   1  -8  352.03   30.59
  -4  -3   9  202.58   37.61
  -4  -3   9  238.49   25.14
  -4   3   9  225.32   23.57
  -4   3   9  306.59   32.55
   4   3  -9  224.57   27.16
  -4  -3   9  256.70   24.69
   4  -3  -9  273.04   24.66
   4  -3  -9  240.15   25.96
  -4  -3   9  260.49   24.21
  -6  -2  -3  677.49   40.37
  -6   2  -3  765.37   49.08
   6  -2   3  736.91   47.29
  -6  -2  -3  672.09   53.58
   6  -2   3  692.67   40.32
   6  -2   3  736.79   47.09
   6   2   3  710.83   46.72
  -6  -2  -3  716.21   47.50
   7   0   2 1719.79  102.32
  -7   0  -2 2024.88   99.64
   7   0   2 1834.15  106.93
   7   0   2 2092.34  130.50
  -7   0  -2 1776.12  108.81
   3   1 -11  464.43   36.12
  -3   1  11  345.03   36.30
  -3   1  11  363.60   45.30
  -3  -1  11  321.14   58.32
   3  -1 -11  480.13   36.85
   3  -1 -11  454.60   35.90
  -3   1  11  365.63   28.86
  -3  -1  11  406.07   51.74
   3   1 -11  423.02   28.84
   3   1 -11  447.19   38.60
  -2  -5  -2   16.22   11.94
  -2  -5  -2   24.38    9.64
   2  -5   2   10.37    7.08
  -2  -5  -2    7.35   12.74
   2  -5   2   14.64   13.16
  -2  -5   4  142.09   18.84
  -2  -5   4  119.59   28.98
  -2  -5   4  171.36   30.88
   2  -5  -4  122.10   15.67
   2  -5  -4  154.24   19.51
   2  -5  -4  150.69   22.99
   0  -4   7   36.47   22.44
   0   4  -7   33.60   12.21
   0  -4  -7   34.32   14.27
   0  -4  -7   37.71   14.16
   0   4   7   24.63   25.24
   0  -4  -7   31.10    9.71
   0  -4   7   40.77   13.98
  -6  -2   9  196.10   24.43
  -6   2   9  198.04   21.97
  -6  -2   9  177.88   35.47
   6  -2  -9  196.02   33.05
   6   2  -9  178.65   35.39
  -6   2   9  185.96   26.85
  -6   2   9  173.94   35.03
  -6  -2   9  179.31   31.91
  -6  -2   9  173.54   22.00
   7   0  -9  177.52   16.88
  -7   0   9  222.51   27.66
  -7   0   9  220.91   23.23
  -7   0   9  223.00   27.24
   0  -5   4  142.75   17.87
   0   5   4  115.68   29.97
   0  -5  -4  122.87   37.58
   0  -5  -4  148.43   20.43
   0  -5   4  138.89   16.32
  -3  -5   0  802.57   48.72
   3  -5   0  815.45   45.57
  -3  -5   0  786.93   50.26
   3   5   0  745.61   53.56
   3  -5   0  780.31   43.02
  -3  -5   3  335.41   42.81
  -3  -5   3  311.68   43.62
  -3  -5   3  257.38   23.92
   3  -5  -3  354.02   47.81
   3  -5  -3  338.42   42.44
  -2   1  -9 1627.24   80.31
   2   1   9 1899.42   98.92
   2  -1   9 1931.24  104.06
  -2  -1  -9 1877.42   96.94
  -2  -1  -9 1969.65   93.56
  -2   1  -9 2026.05  118.35
  -2   1  -9 1682.81  108.14
   2  -1   9 1741.90   88.24
   2   1   9 1785.13   94.95
   2  -1   9 1932.01   97.74
   8  -1  -2 2034.35  102.76
  -8  -1   2 1807.98  115.72
  -8  -1   2 1956.88   96.94
   8   1  -2 1904.64  100.25
  -8   1   2 1995.75  119.70
  -8  -1   2 1970.92  126.93
  -8   1   2 2041.04  101.61
  -4  -4  -3  226.02   24.88
  -4  -4  -3  215.57   34.52
   4  -4   3  232.05   24.67
   4  -4   3  215.39   22.37
   4  -4   3  231.94   35.56
  -4  -4  -3  228.70   37.51
   4   4   3  205.80   45.43
  -6  -1  -4  640.33   44.22
  -6  -1  -4  633.16   38.70
   6   1   4  544.22   35.44
  -6  -1  -4  553.33   34.60
   6   1   4  591.98   54.27
   6   1   4  545.43   36.65
   6  -1   4  604.54   41.20
  -6   1  -4  653.25   43.43
   6  -1   4  651.15   44.03
   4  -1   7    2.40   16.56
   4  -1   7    2.58   17.68
  -4   1  -7    4.23   12.70
  -4  -1  -7    8.59    8.83
   4   1   7   11.81    9.68
   4   1   7   10.64    8.87
  -4   1  -7    6.45    8.24
  -4   1  -7   13.05    8.28
  -4  -1  -7    5.93   17.09
   2  -1 -11  159.22   26.06
  -2   1  11  141.38   23.26
  -2   1  11  132.38   27.00
   2  -1 -11  180.76   22.21
  -2   1  11  132.50   30.42
  -2  -1  11  150.22   24.22
  -2  -1  11  151.64   22.28
   2  -1 -11  159.92   22.62
   2   1 -11  165.55   19.88
   2   1 -11  177.17   40.27
   2   1 -11  165.76   32.99
  -8  -1   6  135.49   20.65
  -8  -1   6  164.91   21.86
  -8   1   6  171.03   39.76
   8   1  -6  153.64   19.33
  -8  -1   6  152.75   20.88
   8  -1  -6  165.16   21.68
  -8   1   6  148.64   22.45
  -4  -4   7 1248.34   93.85
   4  -4  -7 1375.28   76.81
   4   4  -7 1277.26   73.23
   4  -4  -7 1355.55   75.83
  -4  -4   7 1207.64   83.70
  -4  -4   7 1133.52   57.86
   4  -1 -11 1509.57  100.31
  -4   1  11 1410.38   78.40
  -4  -1  11 1433.55   81.43
  -4   1  11 1434.24  106.67
   4  -1 -11 1410.21   94.89
   4   1 -11 1525.33   83.69
   4   1 -11 1456.21  100.26
   4   1 -11 1351.92   78.48
  -4  -1  11 1360.07   78.47
   6  -1 -10 1268.75   65.09
  -6  -1  10 1381.04   81.43
  -6  -1  10 1440.09   99.20
  -6  -1  10 1362.28   76.30
   6  -1 -10 1375.12   83.79
   6   1 -10 1385.29   71.38
  -6   1  10 1375.74   78.75
  -6   1  10 1340.38   76.95
   5  -2   5  354.93   30.91
   5  -2   5  369.95   28.21
   5  -2   5  353.81   30.84
   5   2   5  326.81   41.61
  -5  -2  -5  380.32   34.33
  -5  -2  -5  398.38   44.77
   5   2   5  293.31   37.68
  -5   2  -5  345.28   50.44
  -8   0   1 1232.08   67.16
  -8   0   1 1032.04   71.23
   8   0  -1 1216.78   68.28
   8   0  -1 1253.06   70.80
   5  -2 -10 2164.36  119.03
  -5  -2  10 1842.92   97.33
  -5   2  10 1958.90  124.73
  -5  -2  10 2052.32  126.21
  -5   2  10 2027.87  103.39
  -5   2  10 1851.13   95.93
  -5  -2  10 1783.52   89.61
   5   2 -10 1872.68   86.12
   5   2 -10 1960.03  100.18
  -5  -2  10 2067.02  102.51
   8   0  -7 2156.93  105.39
  -8   0   7 2010.18   97.38
  -8   0   7 1938.67  120.00
  -8   0   7 2218.28  111.06
  -8   0   7 1760.73  105.33
  -1   0 -10  223.01   26.60
  -1   0 -10  224.25   25.17
   1   0  10  197.10   37.20
   1   0  10  202.34   26.45
   5  -4   1 1439.81   75.79
  -5   4  -1 1384.02   92.22
   5  -4   1 1543.17   79.54
  -5  -4  -1 1480.18   94.54
  -5  -4  -1 1425.16   93.89
  -5  -4  -1 1368.83   69.71
   5   4   1 1354.30  109.56
   1   0 -11 2110.63  102.47
  -1   0  11 1929.95   92.58
   1   0 -11 2122.98  121.92
   1   0 -11 2147.28  111.73
  -1   0  11 1884.84   95.05
  -1   0  11 2000.84  105.97
   5  -4  -6 1729.39   89.85
  -5   4   6 1823.33  112.34
  -5  -4   6 1660.08   82.84
  -5  -4   6 1666.15  103.92
  -5  -4   6 1514.80  109.13
   5  -4  -6 1729.93   93.58
  -5  -4   6 1549.13   85.53
  -5   0  -6   24.89    9.31
  -5   0  -6   17.59   10.92
  -5   0  -6   20.45    9.65
   5   0   6   29.75   21.26
   5   0   6   24.61   13.02
   7   3  -3 1363.42   74.77
   7  -3  -3 1559.33  104.80
  -7  -3   3 1425.63   80.95
  -7  -3   3 1353.84   82.41
   7  -3  -3 1648.88  105.33
  -7   3   3 1390.57   71.31
  -7  -3   3 1167.93   61.40
  -7   3   3 1637.52   87.24
  -7  -3   3 1447.44   79.92
  -7   1  -2 1030.14   79.64
   7  -1   2  853.57   49.01
   7   1   2  930.52   71.90
  -7  -1  -2  947.22   54.45
   7   1   2  942.02   51.70
   7  -1   2  827.16   45.04
   7  -1   2 1001.25   80.68
  -7  -1  -2  904.85   75.84
  -7   3   4  511.03   47.00
  -7  -3   4  449.64   28.87
  -7  -3   4  362.33   28.87
   7   3  -4  355.39   46.10
  -7  -3   4  384.20   36.21
   7  -3  -4  450.64   32.77
  -7   3   4  457.86   40.10
   7  -3  -4  434.85   36.22
  -5   0  11   68.51   19.88
   5   0 -11   76.16   17.88
  -5   0  11   82.29   19.85
   5   0 -11   86.68   27.78
  -7   1   9 2226.85  112.30
   7  -1  -9 2224.70  118.73
  -7  -1   9 1864.06   91.95
  -7  -1   9 2109.51  107.22
  -7  -1   9 2260.02  113.18
  -7  -1   9 2429.88  114.56
   7   1  -9 2264.27  104.73
  -7   1   9 2424.99  149.20
   7   2   1  938.53   80.03
  -7   2  -1  964.57   55.01
  -7  -2  -1  962.08   57.42
  -7  -2  -1  773.46   42.98
   7  -2   1  969.85   67.89
   7  -2   1  882.97   48.18
   7  -2   1  980.38   56.60
   7  -2   1  970.58   56.33
  -7  -2  -1  948.71   71.49
  -7   2   8 1763.78  123.18
  -7   2   8 1667.02  108.66
  -7  -2   8 1808.22   91.10
  -7  -2   8 1510.83   97.56
  -7  -2   8 1593.53   84.38
   7   2  -8 1499.25   92.46
   7  -2  -8 1763.00   85.08
   3   5   1  169.94   26.34
   3  -5   1  178.40   19.36
  -3  -5  -1  199.21   35.53
   3  -5   1  200.81   30.74
  -3  -5  -1  201.16   40.44
   3  -5  -4 1084.45   87.46
  -3  -5   4  896.25   51.10
  -3  -5   4 1014.51   58.04
  -3  -5   4 1059.71   57.77
   3  -5  -4 1085.64   59.72
  -7  -3   2  968.71   79.55
  -7  -3   2  977.37   51.35
   7  -3  -2 1098.65   80.48
   7   3  -2 1018.01   83.86
   7  -3  -2 1103.63   62.22
  -7   3   2  951.70   52.83
  -7  -3   2 1029.83   83.71
   7  -3  -2 1103.23   61.95
  -7   3   5  847.61   48.74
  -7  -3   5  834.80   43.22
   7  -3  -5  951.99   57.55
   7  -3  -5 1012.70   72.61
  -7   3   5  956.74   81.02
  -7  -3   5  875.38   53.49
  -7  -3   5  855.55   77.52
   7   3  -5  812.86   46.12
   0   3   9  484.78   58.30
   0  -3  -9  471.89   35.50
   0  -3  -9  379.60   30.15
   0  -3   9  360.75   29.60
   0  -3   9  476.30   34.08
   0  -3   9  448.44   55.05
   0  -3  -9  440.55   29.19
   0   3  -9  490.35   34.54
   0  -3  -9  387.26   30.02
   0  -2  10  454.16   36.11
   0  -2  10  449.21   35.00
   0   2 -10  413.42   34.58
   0  -2 -10  515.86   36.10
   0  -2 -10  457.29   35.05
   0  -2 -10  497.65   31.82
   0   2  10  525.46   59.71
   0   2  10  396.09   31.24
   0  -2  10  439.79   30.06
   0   2 -10  515.95   36.68
  -2  -4  -6  766.32   47.01
   2  -4   6  745.50   66.08
  -2  -4  -6  791.32   46.50
   2   4   6  708.43   47.35
   2  -4   6  746.34   46.65
  -2   4  -6  645.49   37.66
  -1  -5  -4  360.40   25.96
  -1  -5  -4  376.00   54.07
  -1  -5  -4  394.26   32.62
   1  -5   4  318.87   37.45
   1  -5   4  330.36   25.85
  -1  -5   5  839.57   47.91
  -1   5   5  834.05   58.16
   1  -5  -5  787.47   62.09
   1  -5  -5  870.71   53.85
   1   5  -5  642.57   38.86
  -1  -5   5 1358.14   81.54
  -8   1   1  103.81   14.63
   8  -1  -1   91.52   13.12
  -8  -1   1   97.25   16.52
   8   1  -1   87.48   18.70
  -8   1   1  116.23   17.42
   8  -1  -1   94.12   17.01
  -8  -1   1   87.75   18.62
  -8  -1   1    7.27   15.52
   8  -1  -1   94.94   18.65
   2  -4  -8  495.53   53.59
  -2   4   8  525.76   65.59
  -2  -4   8  422.93   37.42
   2   4  -8  442.46   33.80
  -2  -4   8  476.42   34.70
  -2  -4   8  425.16   47.16
   2  -4  -8  520.72   39.19
  -8  -1   7 1383.20   90.53
   8  -1  -7 1472.90   73.19
  -8  -1   7 1388.44   72.99
  -8  -1   7 1202.44   64.55
   8   1  -7 1118.64   75.43
  -8   1   7 1443.42   77.16
  -8  -1   7 1037.14   57.20
  -8   1   7 1371.19   98.52
   1   1  10  669.92   63.63
  -1   1 -10  757.88   45.84
   1   1  10  681.97   46.09
   1  -1  10  658.59   41.25
  -1  -1 -10  713.85   70.00
  -1   1 -10  714.58   46.90
  -1  -1 -10  718.11   41.20
   1  -1  10  721.76   70.67
   1  -1  10  665.31   58.68
  -1  -1 -10  748.95   44.18
   2  -5   3  204.66   20.71
   2  -5   3  182.80   18.97
  -2  -5  -3  228.71   29.11
  -2  -5  -3  223.91   40.77
  -2  -5  -3  196.44   21.05
  -2  -5   5  686.50   40.44
  -2  -5   5  639.19   42.95
  -2  -5   5  723.45   43.62
   2  -5  -5  680.34   55.23
   2  -5  -5  764.23   75.02
  -1   1  11 1034.53   60.94
   1   1 -11 1085.57   89.56
   1  -1 -11 1074.54   86.64
  -1  -1  11 1037.48   60.95
   1  -1 -11  991.17   65.24
  -1  -1  11  994.30   62.28
   1  -1 -11 1133.55   60.17
   1   1 -11 1115.59   80.55
   1   1 -11 1026.10   54.95
  -1   1  11  981.86   59.15
   5   3   4  645.41   45.62
   5  -3   4  688.83   43.40
  -5  -3  -4  667.63   44.99
   5  -3   4  650.79   40.30
   5  -3   4  679.02   63.62
  -5   3  -4  670.49   46.10
  -5  -3  -4  658.68   42.94
   5   1   6  427.70   46.75
  -5  -1  -6  447.56   29.73
   5  -1   6  463.39   36.54
   5   1   6  447.89   34.57
   5  -1   6  523.08   56.56
  -5  -1  -6  452.96   36.69
  -5   1  -6  469.05   48.89
  -5   1  -6  378.66   41.09
  -5  -3   9  592.29   41.78
   5   3  -9  643.21   43.70
  -5  -3   9  524.66   52.81
  -5  -3   9  640.79   58.24
  -5  -3   9  568.44   35.40
   5  -3  -9  638.76   56.30
   5  -3  -9  541.43   33.50
  -5   3   9  666.38   47.52
  -5   3   9  655.76   61.34
   6   3   2 1549.58  112.45
  -6   3  -2 1652.29   87.12
  -6  -3  -2 1592.91   80.01
  -6  -3  -2 1688.02   88.47
   6  -3   2 1669.81  106.52
   6  -3   2 1629.45   81.23
   6  -3   2 1697.00   89.67
   3   4   5  493.90   42.49
   3  -4   5  444.79   36.91
   3  -4   5  470.44   46.68
  -3  -4  -5  523.08   36.70
   3  -4   5  476.89   53.16
  -3  -4  -5  504.07   35.76
  -3  -4  -5  407.85   30.87
   5   1 -11 1620.14  107.08
  -5  -1  11 1516.91   85.04
  -5   1  11 1527.93   85.59
  -5  -1  11 1384.34  105.59
   5  -1 -11 1524.33   79.05
   5   1 -11 1699.45   89.77
   5  -1 -11 1655.09  103.26
  -5   1  11 1592.94  108.37
  -6   3   8  708.47   67.78
  -6  -3   8  700.80   64.56
   6   3  -8  635.17   44.74
   6  -3  -8  702.86   43.40
  -6  -3   8  611.53   44.22
   6  -3  -8  724.09   66.15
  -6  -3   8  635.69   37.80
  -3   4   8 1659.27   95.36
   3  -4  -8 1686.58  106.17
   3  -4  -8 1665.03   88.32
   3   4  -8 1641.88   87.23
  -3  -4   8 1317.21   71.86
  -3  -4   8 1574.11  100.60
  -3  -4   8 1616.56  109.94
   6  -4  -3  671.37   43.48
  -6  -4   3  557.26   37.42
   6  -4  -3  647.47   42.35
  -6  -4   3  535.14   38.73
   6   4  -3  470.22   35.26
  -6   4   3  287.88   38.07
  -6  -4   3  629.35   39.31
  -8   2   4  344.04   45.85
   8   2  -4  291.73   27.13
  -8   2   4  309.22   30.66
   8  -2  -4  335.61   47.64
  -8  -2   4  286.48   24.39
  -8  -2   4  307.69   30.70
   8  -2  -4  318.49   23.66
   1  -4   7  299.94   30.04
  -1  -4  -7  329.47   26.85
   1   4   7  278.09   43.48
  -1  -4  -7  335.95   32.85
  -1  -4  -7  324.36   46.92
   1  -4   7  304.29   28.70
  -1   4  -7  307.71   40.51
  -1  -4   8  344.42   31.09
  -1  -4   8  326.62   29.57
   1  -4  -8  355.55   47.85
   1  -4  -8  366.99   49.63
  -1   4   8  311.46   56.82
  -7  -3   1 1418.96   84.38
   7   3  -1 1466.48  107.14
   7  -3  -1 1507.85   78.83
   7  -3  -1 1601.13  104.81
  -7  -3   1 1500.40   79.63
  -7   3   1 1299.26   69.55
  -7  -3   1 1404.72   76.81
  -7   3   1 1385.81   86.77
   7  -3  -1 1657.54  101.50
   0  -5  -5   72.62   18.81
   0  -5  -5   79.57   27.62
   0   5   5   66.59   16.12
   0  -5   5   71.33   13.43
   0  -5   5   62.54   12.77
   0  -5   5   83.21   24.55
  -6  -4   2  736.61   60.66
  -6  -4   2  717.68   46.07
   6   4  -2  743.71   50.61
   6  -4  -2  909.89   73.14
   6  -4  -2  866.68   50.64
   6  -4  -2  884.06   51.77
  -6  -4   2  769.98   46.08
  -6  -4   2  830.70   47.04
  -6  -4   4 1405.02   98.91
  -6  -4   4 1415.77  103.20
   6  -4  -4 1652.53  111.29
  -6  -4   4 1662.55  103.19
  -6  -4   4 1412.55   75.80
  -6   4   4 1772.51   94.47
   6  -4  -4 1655.15   89.30
  -8   0   0  143.19   20.97
   8   0   0  127.40   20.27
  -8   0   0  113.59   15.97
   8   0   0  137.09   20.53
  -7   3   6  359.62   32.20
   7   3  -6  301.78   25.52
   7  -3  -6  362.41   28.02
  -7  -3   6  265.80   21.34
  -7  -3   6  320.52   29.87
  -7   3   6  302.86   25.74
   7  -3  -6  338.91   49.03
  -7  -3   6  304.66   30.56
  -8  -2   3  244.47   28.08
   8  -2  -3  276.31   42.67
   8   2  -3  251.88   26.95
  -8   2   3  274.22   27.39
  -8  -2   3  256.05   27.55
  -8   2   3  296.66   29.49
  -8   2   3  238.95   22.24
   8  -2  -3  275.21   23.21
  -8  -2   5   43.52   27.18
   8  -2  -5   37.12   18.59
   8  -2  -5   72.03   15.89
   8   2  -5   48.29   13.63
  -8   2   5   53.05   16.74
  -8  -2   5   30.59   20.91
  -8   2   5  130.79   27.57
  -8   0   8 2549.09  127.04
  -8   0   8 2798.72  140.30
  -8   0   8 2489.77  119.77
   8   0  -8 2618.53  123.14
  -4  -5   2  -13.40   10.06
  -4  -5   2   25.24    9.96
   4  -5  -2   15.62    8.68
   4  -5  -2   18.79   11.39
   4  -5  -2   23.77   11.27
  -4  -5   2    7.86    7.13
  -3  -2  -8  884.09   76.59
  -3   2  -8  926.29   66.54
   3   2   8  839.67   51.93
  -3   2  -8  888.78   51.25
   3  -2   8  932.19   68.78
   3  -2   8  742.54   65.04
   3  -2   8  596.96   63.32
  -3  -2  -8  925.87   72.02
   3   2 -11 1079.34   56.19
  -3  -2  11  995.61   81.22
   3   2 -11 1122.51   65.45
  -3   2  11  965.52   57.44
  -3   2  11  956.18   54.58
  -3  -2  11 1016.04   57.62
  -3  -2  11  778.20   44.64
   3   2 -11 1116.26   81.57
   3  -2 -11 1104.90   59.97
   3  -2 -11  916.23   69.12
  -4  -5   1  954.82   54.20
   4   5  -1  790.36   50.66
   4  -5  -1 1037.84   71.05
   4  -5  -1  824.02   49.61
   4  -5  -1  994.49   65.85
  -4  -5   1  966.92   75.87
   3  -5   2  699.07   51.17
   3  -5   2  658.59   38.10
   3   5   2  683.19   51.11
  -3  -5  -2  684.04   42.88
  -3  -5  -2  726.56   47.26
   3  -5   2  494.62   32.87
   5  -4   2  132.89   19.92
  -5   4  -2  152.40   31.62
   5   4   2  116.14   37.80
   5  -4   2  147.30   20.18
  -5  -4  -2  117.42   30.13
  -5  -4  -2  129.67   26.95
  -5  -4  -2  130.11   19.66
  -4  -5   3  614.34   61.01
   4  -5  -3  727.11   45.33
   4  -5  -3  655.94   45.96
  -4  -5   3  553.11   37.96
  -4  -5   3  643.14   58.04
  -3  -5   5  565.68   39.25
  -3  -5   5  595.20   40.49
   3  -5  -5  637.41   43.42
   3  -5  -5  626.92   45.46
  -3  -5   5  601.31   39.46
  -5  -4   7  180.60   24.45
   5  -4  -7  196.49   40.12
   5  -4  -7  202.84   39.73
  -5   4   7  191.88   22.11
  -5  -4   7  194.64   21.86
  -5  -4   7  188.13   20.25
   5   4  -7  188.80   24.67
   3   3   7  643.72   57.67
  -3  -3  -7  713.61   62.38
  -3  -3  -7  734.00   44.33
   3  -3   7  737.67   45.29
   3  -3   7  730.69   67.05
   3   3   7  625.39   41.46
   3  -3   7  634.03   39.70
   3  -3   7  666.75   41.00
  -3   3  -7  598.66   35.73
  -3  -3  -7  695.99   40.72
   3  -3 -10  362.44   31.13
  -3   3  10  347.22   36.16
   3   3 -10  388.02   47.50
  -3  -3  10  333.74   28.33
  -3  -3  10  346.81   32.10
   3   3 -10  356.86   43.38
   3   3 -10  378.15   30.16
   3  -3 -10  311.00   25.68
  -7   0  -3 1075.26   75.49
   7   0   3 1098.03   57.67
   7   0   3 1071.78   56.02
  -7   0  -3 1175.05   82.59
   7   0   3 1226.95   67.29
  -2  -3  -8 1305.73   68.29
  -2  -3  -8 1395.09   90.32
  -2   3  -8 1420.74   70.67
   2  -3   8 1323.40   71.72
   2  -3   8 1351.94   89.68
   2  -3   8 1134.81   57.78
   2  -3   8 1194.58   83.95
  -2  -3  -8 1287.77   68.31
   2   3   8 1038.13   75.22
   2   3   8 1381.84   75.35
  -7   0  10  185.43   39.93
  -7   0  10  180.13   25.23
   7   0 -10  186.71   27.79
  -7   0  10  194.05   21.68
   0   0  11  246.41   33.94
   0   0 -11  246.43   21.35
   0   0 -11  278.00   25.46
   0   0  11  181.87   18.44
   0   0 -11  258.09   44.12
   0   0  11  253.61   27.38
   2   3 -10  387.10   46.22
   2   3 -10  352.73   28.66
   2   3 -10  363.70   43.38
  -2  -3  10  360.71   29.39
   2  -3 -10  392.34   32.40
  -2   3  10  373.88   35.09
  -2  -3  10  347.83   48.00
   4   4   4  200.90   27.87
  -4  -4  -4  210.06   34.46
  -4  -4  -4  218.16   35.41
  -4  -4  -4  239.93   38.58
   4  -4   4  221.77   24.76
   4  -4   4  240.00   34.24
   6  -4  -1 1388.28   93.92
   6  -4  -1 1359.33   71.04
  -6  -4   1 1260.28   65.68
  -6  -4   1 1200.37   66.42
  -6  -4   1 1173.11   60.31
   6   4  -1 1246.48   95.63
   6  -4  -1 1498.16   78.41
  -6  -4   1 1351.18   68.03
  -2  -2  -9 2455.34  137.04
  -2   2  -9 2489.17  114.82
  -2  -2  -9 2441.64  120.19
  -2   2  -9 1859.92   94.18
   2   2   9 2315.45  144.29
   2  -2   9 2403.40  115.44
   2  -2   9 2323.97  134.98
   2  -2   9 2334.07  149.89
  -2  -2  -9 2236.43  123.62
   2  -2   9 2247.11  107.91
   8  -2  -2  166.61   19.71
  -8   2   2  165.31   22.67
  -8   2   2  189.75   23.12
   8   2  -2  154.72   35.57
  -8  -2   2  160.60   36.30
   8  -2  -2  173.46   34.13
  -8  -2   2  154.90   37.07
  -8   2   2  168.51   20.31
   6  -4  -5  858.29   77.51
  -6  -4   5  791.11   46.44
  -6   4   5  846.30   51.97
  -6  -4   5  796.18   45.06
  -6  -4   5  733.63   50.06
  -6  -4   5  751.68   49.81
   6  -4  -5  888.95   53.79
   6  -2   4  133.37   16.66
  -6   2  -4  147.42   21.61
   6  -2   4  136.30   20.14
   6  -2   4  137.55   20.53
  -6  -2  -4  123.67   26.70
  -6  -2  -4  132.22   21.60
   6   2   4  115.95   18.08
  -4  -2  -7   39.84   11.83
   4   2   7   24.69   11.40
   4  -2   7   32.88   12.34
  -4   2  -7   32.56   12.82
   4  -2   7   32.00   11.20
  -4   2  -7   20.77    8.95
   4  -2   7   24.88   12.69
  -4  -2  -7   32.54   13.84
   4  -4  -8  487.07   31.72
  -4  -4   8  547.82   39.66
  -4  -4   8  522.24   33.97
  -4  -4   8  590.30   37.86
   4   4  -8  594.10   61.29
  -4   4   8  600.62   47.96
   4  -4  -8  626.54   62.37
  -6   0  -5   34.91   12.63
   6   0   5   31.83   12.58
   6   0   5   41.25   14.16
  -6   0  -5   36.85   11.19
   2   2 -11   51.25   22.60
   2  -2 -11   47.19   12.72
   2  -2 -11   40.30   23.95
  -2  -2  11   26.91    9.27
  -2   2  11   27.25   11.38
  -2   2  11   33.12   13.70
   2   2 -11   55.00   25.32
  -2  -2  11   40.78   14.12
  -2  -2  11   37.36   12.66
   2   2 -11   46.97   12.26
   8   2  -6  146.28   27.83
  -8   2   6  182.05   22.89
  -8   2   6  192.17   39.08
  -8  -2   6  154.67   19.17
  -8  -2   6  150.91   23.38
   8  -2  -6  178.96   23.13
  -8  -2   6  169.64   22.73
  -4  -2  11   64.85   16.31
   4   2 -11   78.47   18.81
   4  -2 -11   74.62   15.66
  -4   2  11   51.40   14.45
  -4   2  11   62.96   15.26
  -4  -2  11   48.13   18.03
  -4  -2  11   82.11   24.63
   4   2 -11   68.69   13.15
   4   2 -11   72.43   16.81
  -4   2  11   51.44   15.14
  -6  -2  10  765.05   67.74
   6   2 -10  714.74   44.21
   6  -2 -10  645.79   35.66
  -6  -2  10  641.06   40.55
  -6   2  10  613.01   55.60
  -6  -2  10  737.06   46.94
  -6   2  10  687.80   43.36
  -6  -2  10  640.88   43.19
  -6   2  10  802.16   51.40
   6   0 -11   27.57   19.58
   6   0 -11   38.61   13.32
  -6   0  11   37.00   26.79
  -6   0  11   41.75   26.97
  -8  -1   0  916.83   52.87
   8  -1   0  948.41   52.18
   8  -1   0  999.55   56.74
   8  -1   0  881.56   62.97
  -8  -1   0 1001.41   58.95
  -8   1   0  980.76   77.86
   8   1   0  943.90   56.44
   8   1   0  900.25   49.76
   8  -1  -8  617.52   56.03
  -8   1   8  567.08   42.63
  -8  -1   8  466.66   34.05
  -8  -1   8  553.74   37.72
  -8  -1   8  438.60   33.27
  -8  -1   8  540.32   58.04
  -8   1   8  539.10   41.99
  -4  -5   0  269.62   26.68
  -4  -5   0  269.57   27.07
   4   5   0  212.11   25.87
   4  -5   0  247.06   22.96
   4  -5   0  275.20   23.66
  -4  -5   4   98.76   18.34
  -4  -5   4   91.97   17.50
   4  -5  -4  113.24   20.42
   4  -5  -4  101.78   18.56
  -4  -5   4   90.05   25.87
  -4  -3  -6  637.54   42.87
   4   3   6  521.33   52.59
   4   3   6  453.88   45.23
   4  -3   6  554.65   35.91
   4  -3   6  627.66   39.11
   4  -3   6  651.31   58.33
  -4   3  -6  619.26   43.88
  -4  -3  -6  636.90   41.44
  -4  -3  10  402.94   33.11
   4   3 -10  450.70   31.79
   4   3 -10  461.98   35.21
   4   3 -10  482.57   35.45
   4  -3 -10  418.64   30.12
   4  -3 -10  434.04   31.07
  -4  -3  10  400.96   44.94
  -4   3  10  420.80   37.43
  -7  -2  -2   62.78   13.83
   7  -2   2   59.84   13.25
   7  -2   2   55.97   15.37
   7  -2   2   56.79   15.19
   7   2   2   57.16   15.71
  -7  -2  -2   72.67   16.34
  -7   2  -2   53.95   15.06
  -7  -2  -2   40.69   10.84
   0   4  -8  930.28   52.72
   0  -4   8  941.59   76.91
   0  -4  -8  975.89   58.10
   0  -4   8  921.60   53.77
   0  -4  -8  988.04   78.60
   0   4   8  934.58   60.90
  -7  -2   9  105.52   17.17
  -7   2   9  133.98   19.24
  -7  -2   9  124.78   17.94
   7  -2  -9  138.03   18.91
   7   2  -9  126.11   16.35
  -7  -2   9  107.21   16.61
  -7  -2   9  137.78   20.68
  -7   2   9  166.54   22.99
  -7  -3   0 1755.76   91.45
  -7  -3   0 1671.23   80.93
  -7  -3   0 1702.85   88.63
  -7   3   0 1720.66  105.74
   7  -3   0 1868.94  113.70
   7  -3   0 1697.96   83.32
   7  -3   0 1768.83   89.32
   7   3   0 1713.51   91.69
   7  -3   0 1634.01   81.86
   7  -1   3 1272.61   66.34
   7   1   3 1270.18   65.74
  -7  -1  -3 1304.32   69.82
  -7  -1  -3 1255.05   83.11
  -7   1  -3 1352.98   93.47
   7   1   3 1211.45   61.95
   7  -1   3 1395.11   74.84
  -7   3   7  208.02   26.92
  -7   3   7  164.20   29.75
   7   3  -7  178.37   32.34
   7  -3  -7  202.32   20.69
   7  -3  -7  215.15   25.66
  -7  -3   7  206.59   38.27
  -7  -3   7  179.18   38.78
  -3   0  -9  354.16   28.96
   3   0   9  348.63   48.19
  -3   0  -9  359.56   48.69
   3   0   9  342.20   32.39
  -2  -5  -4  847.68   51.14
  -2  -5  -4  730.54   42.91
  -2  -5  -4  834.63   56.48
   2  -5   4  703.42   40.56
   2  -5   4  714.70   42.39
   2   5  -6  409.02   31.95
   2  -5  -6  497.52   39.09
   2  -5  -6  430.43   45.43
  -2  -5   6  451.71   32.41
  -2   5   6  467.48   39.50
  -2  -5   6  427.43   33.35
  -7   1  10  246.70   44.49
  -7  -1  10  245.38   27.01
   7   1 -10  214.73   31.49
  -7   1  10  250.60   28.81
  -7  -1  10  237.09   27.39
  -7  -1  10  256.65   41.19
   0   1  11  597.25   56.90
   0  -1  11  615.64   43.41
   0  -1 -11  587.96   51.63
   0   1 -11  677.15   42.04
   0  -1  11  481.35   32.72
   0  -1 -11  637.00   38.44
   0   1  11  590.01   41.26
   0  -1 -11  611.26   43.00
   0   1 -11  677.87   64.89
   0  -1  11  516.43   35.34
   3   0 -12  351.51   32.71
   3   0 -12  301.28   32.37
  -3   0  12  312.73   43.46
   3   0 -12  355.91   45.00
  -3   0  12  334.89   33.11
  -1  -5  -5  277.97   27.64
  -1  -5  -5  270.50   31.66
  -1  -5  -5  235.94   21.04
   1  -5   5  259.74   36.49
   1  -5   5  248.63   37.01
   1  -5  -6  299.14   26.89
   1  -5  -6  307.59   49.31
  -1  -5   6  299.16   36.90
  -1   5   6  272.71   28.72
  -1  -5   6  279.57   27.04
  -6  -1  -5  931.31   49.81
  -6  -1  -5 1076.21   60.86
   6  -1   5 1048.80   59.45
   6   1   5  978.83   71.85
   6   1   5  985.06   54.45
  -6   1  -5 1047.83   56.99
  -6  -1  -5  933.14   49.49
   6  -1   5 1055.72   60.84
  -1  -3  -9   72.86   25.68
   1  -3   9   59.07   13.90
  -1   3  -9   73.27   14.96
   1  -3   9   62.99   25.64
   1   3   9   46.11   27.83
  -1  -3  -9   58.95   22.04
   1  -3   9   41.79   12.57
  -1  -3  -9   59.23   23.60
  -4   0  -8  233.45   39.78
   4   0   8  226.19   26.23
  -4   0  -8  251.29   34.83
   4   0   8  212.71   25.71
   1   3 -10  330.37   28.44
  -1   3  10  325.01   49.66
  -1  -3  10  241.48   35.73
  -1  -3  10  314.89   29.57
  -1  -3  10  320.62   25.98
   1   3 -10  233.38   36.31
   1  -3 -10  337.22   30.13
   6   1 -11  347.87   42.47
  -6   1  11  338.20   52.10
  -6   1  11  319.89   32.08
   6  -1 -11  295.02   25.04
   6  -1 -11  343.77   26.76
  -6  -1  11  342.33   32.83
  -6  -1  11  337.17   52.12
  -4   0  12  110.83   19.80
   4   0 -12  121.80   33.35
  -4   0  12  100.39   21.45
   4   0 -12  112.91   19.15
   6   4   0  448.28   58.23
  -6  -4   0  449.27   47.80
   6  -4   0  514.18   37.14
   6  -4   0  493.19   37.58
  -6  -4   0  450.02   31.02
  -6  -4   0  472.67   32.98
  -8  -2   1  147.55   21.68
  -8   2   1  163.39   20.89
  -8   2   1  144.39   29.64
  -8  -2   1  145.81   22.25
   8  -2  -1  169.67   30.43
   8   2  -1  156.70   35.47
   8  -2  -1  152.52   17.91
   6  -4  -6  626.31   45.88
   6  -4  -6  640.09   42.70
  -6  -4   6  576.75   51.02
  -6  -4   6  581.85   36.98
  -6   4   6  613.33   57.29
  -6  -4   6  539.88   40.91
  -8  -2   7  481.18   54.30
  -8  -2   7  504.86   54.97
  -8   2   7  516.21   39.96
   8  -2  -7  551.40   40.27
  -8   2   7  526.42   37.58
  -8  -2   7  426.42   30.98
   1   2  10  546.28   41.20
  -1  -2 -10  558.28   35.17
   1   2  10  431.99   31.97
  -1  -2 -10  557.09   57.92
  -1  -2 -10  593.57   37.72
  -1   2 -10  610.71   57.41
   1  -2  10  550.68   39.54
   1  -2  10  520.54   33.14
   1  -2  10  554.00   37.97
   1  -2  10  432.30   41.61
   1  -2 -11  111.88   27.98
   1  -2 -11  151.06   19.98
  -1   2  11  132.76   33.11
  -1   2  11  100.39   16.33
  -1  -2  11  113.16   18.75
  -1  -2  11  101.32   13.30
   1   2 -11  113.18   29.90
  -1  -2  11  113.73   18.69
   1   2 -11  137.24   19.22
   1  -2 -11  115.44   14.76
   1   2 -11  117.23   14.95
  -5  -2  -6  550.51   37.10
  -5   2  -6  545.03   39.87
   5   2   6  461.32   33.21
   5  -2   6  527.59   37.11
   5   2   6  426.15   29.33
   5  -2   6  499.40   32.11
   5  -2   6  548.62   37.38
  -5  -2  -6  550.19   40.71
  -6  -3  -3  989.70   79.71
   6  -3   3  996.37   54.69
  -6   3  -3  939.96   57.34
   6   3   3  949.39   79.27
   6  -3   3  992.76   57.71
   6  -3   3  903.94   51.20
  -6  -3  -3  938.67   69.48
   8   0   1  564.73   38.16
   8   0   1  618.94   61.54
  -8   0  -1  610.67   40.05
  -8   0  -1  479.81   31.53
   2   0  10 1004.65   61.94
  -2   0 -10 1005.93   72.07
  -2   0 -10  961.28   58.34
   2   0  10  889.69   54.49
  -6   3   9 2876.36  143.39
  -6   3   9 2993.17  147.57
   6  -3  -9 2825.45  134.82
  -6  -3   9 3091.34  146.48
  -6  -3   9 2667.93  126.21
  -6  -3   9 2880.83  142.82
   6   3  -9 2843.06  138.54
   5   2 -11 1410.38   75.22
  -5   2  11 1195.08   86.47
  -5  -2  11 1186.17   67.78
   5  -2 -11 1234.66   61.61
   5   2 -11 1316.42   70.18
   5   2 -11 1151.10   55.32
  -5  -2  11 1221.70   67.65
  -5   2  11 1099.75   76.68
  -5   2  11 1169.81   64.20
  -2   0  12    7.56   10.18
   2   0 -12   13.19    9.38
  -2   0  12    9.36   14.30
   2   0 -12   16.84   18.46
   2   0 -12    9.88    7.58
  -8   0   9  198.74   31.82
  -8   0   9  232.32   26.49
  -8   0   9  220.61   39.64
   4  -5   1   23.22   10.43
  -4  -5  -1   30.07   20.32
   4   5   1   13.31   13.31
   4  -5   1   29.68   10.07
  -4  -5  -1   30.76   12.69
  -3  -5  -3  245.30   25.95
   3   5   3  218.52   29.20
   3  -5   3  208.85   19.71
   3  -5   3  184.73   27.47
   3  -5   3  199.08   20.98
  -3  -5  -3  217.07   23.19
   4  -5  -5  531.31   63.92
   4  -5  -5  552.89   56.86
  -4  -5   5  511.57   51.49
  -4  -5   5  443.14   33.92
  -4  -5   5  488.60   37.18
  -3  -5   6  567.18   57.89
  -3  -5   6  633.54   57.84
   3   5  -6  577.94   40.24
   3  -5  -6  617.50   45.54
   3  -1   9  551.04   54.87
   3  -1   9  539.14   40.90
   3   1   9  511.94   38.33
  -3   1  -9  563.47   50.17
  -3   1  -9  479.29   50.06
  -3   1  -9  411.04   29.03
  -3  -1  -9  550.42   35.92
   3   1   9  481.93   36.54
  -3  -1  -9  548.44   39.44
  -3  -1  12   87.14   18.06
  -3   1  12   70.07   13.60
  -3   1  12   21.88   23.38
   3   1 -12  105.91   33.89
   3  -1 -12   86.97   17.67
   3  -1 -12  113.32   29.16
   3   1 -12   89.22   23.74
   3   1 -12  112.41   17.71
  -3   1  12   87.35   18.68
  -3  -1  12  151.23   22.58
  -4   1  -8  377.98   42.88
  -4   1  -8  416.01   42.55
   4   1   8  410.62   31.40
   4  -1   8  445.12   34.43
  -4  -1  -8  425.49   34.96
  -4  -1  -8  468.65   47.22
   4   1   8  408.97   50.56
   4  -1   8  459.90   35.84
  -4   1  -8  423.28   28.62
   0  -5   6  263.79   23.50
   0  -5  -6  329.44   45.59
   0  -5  -6  308.32   31.30
   0   5   6  279.37   27.30
   0  -5   6  296.14   26.68
  -4   1  12  852.67   50.62
   4   1 -12  845.14   57.60
   4  -1 -12 1080.54   59.08
   4   1 -12 1050.48   61.71
  -4  -1  12  957.34   82.66
   4  -1 -12  974.61   54.99
  -4   1  12 1019.23   80.66
  -4  -1  12  918.47   78.34
   4   1 -12 1023.33   56.18
  -5  -3  -5  303.33   26.83
   5  -3   5  274.08   24.60
  -5  -3  -5  317.68   29.07
   5  -3   5  310.57   42.20
   5  -3   5  326.85   41.05
  -5   3  -5  296.45   46.84
   5   3   5  284.03   26.99
   5  -4   3  622.26   40.62
   5  -4   3  639.98   40.89
  -5  -4  -3  623.92   40.63
   5   4   3  602.23   65.75
  -5   4  -3  594.94   58.18
  -5  -4  -3  619.11   51.83
  -5  -4  -3  627.59   40.47
  -9   0   4  494.49   30.78
  -9   0   4   69.67   20.69
   9   0  -4   74.80   16.48
   9   0  -5  512.04   53.37
  -9   0   5  486.42   49.29
  -9   0   5  588.71   62.20
   2  -4   7  489.08   35.58
  -2   4  -7  415.01   28.19
   2  -4   7  470.43   35.66
  -2  -4  -7  509.24   36.16
  -2  -4  -7  523.06   33.91
   2   4   7  477.02   38.36
   2   4   7  446.51   35.27
  -5  -3  10 1119.11   60.63
  -5   3  10 1140.71   88.22
  -5   3  10 1158.52   80.12
  -5  -3  10 1265.55   64.73
   5   3 -10 1214.20   65.41
   5  -3 -10 1251.05   80.66
  -5  -3  10 1050.44   61.71
   5  -3 -10 1138.83   72.17
   5   0   7  358.89   30.58
   5   0   7  394.35   49.86
  -5   0  -7  324.56   23.62
  -5   0  -7  347.88   28.50
  -5   0  -7  363.32   37.13
  -5  -4   8  651.42   63.36
   5  -4  -8  786.09   50.98
  -5  -4   8  631.35   54.10
   5   4  -8  679.77   66.60
   5  -4  -8  735.72   48.41
  -5  -4   8  697.92   41.56
  -2   4   9 2069.05  142.72
  -2  -4   9 1910.44   96.77
   2  -4  -9 2045.28  120.88
   2   4  -9 1737.56   89.42
  -2  -4   9 2106.20  104.00
   2   4  -9 2173.62  102.96
   2  -4  -9 2306.29  132.68
  -3  -4  -6  162.45   19.84
   3   4   6  195.71   40.53
   3  -4   6  165.94   21.84
   3  -4   6  149.12   27.61
  -3  -4  -6  131.04   17.27
   3  -4   6  190.05   35.63
  -3  -4  -6  164.74   20.68
  -3   4   9  234.50   31.32
   3  -4  -9  258.87   38.52
  -3  -4   9  252.05   25.95
  -3  -4   9  266.46   24.89
  -3  -4   9  210.56   35.45
   3   4  -9  227.51   37.41
   3  -4  -9  345.28   31.17
   5   0 -12  721.69   45.26
  -5   0  12  669.85   47.60
  -5   0  12  624.39   63.36
   5   0 -12  729.66   46.90
  -8  -1  -1  367.00   43.75
   8  -1   1  336.89   39.14
   8  -1   1  405.85   49.37
  -8   1  -1  375.46   47.52
   8  -1   1  350.19   26.77
  -8  -1  -1  398.30   32.23
   8   1   1  361.53   30.94
   8   1   1  367.01   27.18
   2   1  10  240.51   39.00
  -2   1 -10  303.71   26.76
   2  -1  10  272.37   45.41
  -2  -1 -10  265.28   44.20
   2  -1  10  266.87   37.60
  -2  -1 -10  284.99   40.64
   2   1  10  275.29   41.35
   2  -1  10  225.27   19.82
  -2   1 -10  257.78   24.73
  -2  -1  12   79.44   17.21
   2  -1 -12   91.76   28.82
   2  -1 -12  108.69   17.17
  -2   1  12   75.50   15.15
  -2   1  12   79.09   17.00
   2   1 -12   92.99   15.11
  -2  -1  12   91.13   18.08
   2   1 -12   87.93   15.09
   2  -1 -12   68.46   11.71
   2   1 -12  127.95   31.99
  -8  -1   9  368.85   30.55
  -8  -1   9  368.21   44.25
  -8   1   9  370.34   32.17
   8  -1  -9  370.06   26.49
  -8   1   9  380.44   33.22
  -8  -1   9  391.90   29.37
  -8  -1   9  266.86   23.23
  -9   0   3  247.65   40.49
   9   0  -3  246.46   25.53
  -9   0   3  266.92   43.36
  -9   0   6  892.10   50.02
  -9   0   6  783.39   59.86
   9   0  -6  994.78   55.77
  -9   0   6 1044.35   60.56
   7  -3   1 1352.01   68.54
   7  -3   1 1603.00  100.08
  -7  -3  -1 1413.55   68.17
  -7   3  -1 1370.08   69.50
   7   3   1 1431.22  103.33
   7  -3   1 1459.25   76.07
  -7  -3  -1 1419.28   97.14
  -7  -3  -1 1240.59   65.43
  -7  -3   8  393.00   33.73
  -7   3   8  472.52   56.11
   7  -3  -8  452.07   52.37
   7  -3  -8  467.11   31.96
   7   3  -8  383.27   30.22
  -7  -3   8  446.06   33.96
  -6   4  -1  123.14   26.79
  -6  -4  -1  144.22   16.13
  -6  -4  -1  134.84   18.61
  -6  -4  -1  155.74   19.07
   6  -4   1  179.85   22.13
   6  -4   1  170.08   35.88
   6   4   1  160.73   38.45
   8  -2   0 1330.15   67.05
   8  -2   0 1368.42   88.31
   8   2   0 1408.40   97.72
  -8   2   0 1494.04   76.48
  -8  -2   0 1380.11   74.87
  -8  -2   0 1405.03   75.22
   8  -2   0 1457.93   73.96
  -8   2   0 1400.51   72.46
   6   4  -7  325.96   29.82
  -6  -4   7  338.33   39.05
   6  -4  -7  380.46   48.07
  -6   4   7  375.60   31.30
   6  -4  -7  362.19   32.27
  -6  -4   7  348.55   40.20
  -6  -4   7  323.51   30.80
  -5  -5   2   88.27   14.29
  -5   5   2  111.87   19.17
   5   5  -2   88.05   23.03
   5  -5  -2  131.30   19.27
   5  -5  -2  112.87   17.86
  -5  -5   2  108.08   29.99
  -5  -5   2  111.71   19.77
  -1   4  -8 1591.78   77.41
  -1  -4  -8 1585.05  102.01
   1  -4   8 1492.91   75.88
  -1  -4  -8 1529.96   74.27
   1  -4   8 1541.79   80.50
   1   4   8 1340.78   73.30
   1   4   8 1459.44   81.11
  -5   5   3  245.64   24.75
   5  -5  -3  268.84   26.62
   5  -5  -3  226.00   25.34
  -5  -5   3  217.39   24.44
  -5  -5   3  213.77   37.80
  -5  -5   3  174.09   21.64
   1  -4  -9  816.08   49.99
   1   4  -9  801.88   48.02
  -1  -4   9  697.84   47.04
  -1   4   9  752.68   51.76
  -1  -4   9  753.15   65.39
   1  -4  -9  787.15   49.02
   8  -2  -8  347.67   39.04
   8   2  -8  237.33   18.77
  -8   2   8  331.66   44.12
  -8  -2   8  267.33   36.32
  -8  -2   8  302.16   26.93
  -8  -2   8  335.47   29.65
  -8   2   8  324.98   31.96
   0  -3  10  235.22   21.72
   0  -3 -10  251.71   25.34
   0   3 -10  280.51   38.85
   0  -3  10  239.41   25.78
   0   3  10  241.45   43.35
   0  -3  10  189.15   31.95
   0  -3 -10  186.18   20.59
   0  -3 -10  216.42   30.03
  -9   1   4  233.88   22.87
  -9   1   4  226.30   22.69
   9  -1  -4  245.15   25.79
  -9   1   4  354.93   29.98
  -9  -1   4  216.80   22.35
  -9  -1   4  254.51   42.03
  -9  -1   4  265.88   38.83
   9   1  -4  241.16   40.57
   9  -1  -5  132.02   19.43
  -9   1   5  352.01   40.85
  -9  -1   5  311.20   32.70
   9   1  -5  111.81   17.35
  -9   1   5   92.79   25.11
  -9  -1   5  107.73   21.02
  -9  -1   5  121.87   20.41
  -9   1   5  120.46   18.81
   5  -1   7   68.01   25.57
  -5   1  -7   50.98   10.00
  -5   1  -7   58.31   12.14
   5   1   7   54.91   13.34
   5   1   7   62.24   14.64
  -5  -1  -7   56.01   12.17
  -5   1  -7   35.97   18.08
  -5  -1  -7   67.51   26.01
   5  -1   7   62.22   26.55
  -1   0 -11   14.38   18.59
   1   0  11   15.31    9.36
  -1   0 -11   17.61   16.46
   1   0  11    9.89   11.24
  -1   0  12    7.39   12.06
  -1   0  12   14.36   17.74
   1   0 -12   12.65   13.47
   1   0 -12    8.14   18.53
   1   0 -12   13.67    8.65
  -1   0  12   11.20    7.50
   4  -4   5  119.66   18.14
  -4  -4  -5  114.63   29.42
  -4  -4  -5  128.87   26.22
   4  -4   5  102.50   24.93
  -4   4  -5  101.87   20.08
   4   4   5  108.44   20.59
  -4  -4  -5  131.69   26.34
   0  -6   0 1920.10   94.12
   5   1 -12  249.20   25.34
  -5   1  12  238.79   26.84
  -5  -1  12  232.46   27.27
  -5  -1  12  218.12   26.21
   5  -1 -12  249.29   24.58
  -5   1  12  233.04   27.20
   5  -1 -12  231.88   23.49
   5   1 -12  277.86   43.27
   4  -4  -9  142.84   19.37
   4   4  -9  131.65   19.92
   4   4  -9  117.17   16.31
   4  -4  -9  109.97   15.54
  -4  -4   9   97.90   23.53
  -4  -4   9  123.87   31.10
  -4  -4   9  140.22   18.59
  -4   4   9  138.45   39.24
  -7   0  -4  890.92   66.82
  -7   0  -4  762.28   59.72
   7   0   4  951.00   54.59
   7   0   4  733.57   42.65
   4  -5   2  451.14   45.18
  -4  -5  -2  426.16   30.56
  -4  -5  -2  459.65   32.45
   4   5   2  400.48   37.44
   4  -5   2  421.79   43.64
  -4   5  -2  294.29   26.31
   4  -5  -6  928.63   55.45
   4  -5  -6  900.23   56.83
  -4  -5   6  796.10   49.32
  -4  -5   6  884.55   49.00
   7   0 -11   70.34   13.60
   7   0 -11   48.87   11.89
  -7   0  11   39.73   25.41
  -7   0  11   48.63   15.51
   0  -6  -1  301.97   26.86
   0  -6  -1  339.36   35.86
   7  -2   3  516.51   35.98
  -7  -2  -3  520.63   52.93
  -7  -2  -3  417.46   27.56
   7  -2   3  465.23   42.63
  -7  -2  -3  459.03   30.27
   7  -2   3  522.37   53.51
   7   2   3  469.83   34.38
  -7   2  -3  493.84   35.34
   5  -5  -1 1562.67   76.87
   5  -5  -1 1456.59   71.01
  -5  -5   1 1511.26   97.74
   5   5  -1 1261.79   72.72
  -5  -5   1 1502.28   77.58
   5  -5  -4  359.15   45.45
  -5   5   4  307.39   25.67
  -5  -5   4  286.84   25.95
  -5  -5   4  330.37   27.63
  -5  -5   4  313.62   43.57
   5  -5  -4  344.28   31.98
   2  -5   5  431.92   30.90
   2   5   5  485.94   41.47
   2  -5   5  445.62   30.95
  -2  -5  -5  504.58   36.60
  -2  -5  -5  452.89   44.02
  -9  -1   3   88.62   15.33
  -9   1   3  102.19   15.49
   9   1  -3  105.28   18.13
  -9  -1   3   94.48   16.55
  -9  -1   3  106.26   18.07
  -9   1   3   85.11   30.76
  -9   1   3   85.93   14.04
   9  -1  -3   89.37   17.59
   2  -5  -7   64.33   13.80
  -2   5   7   44.40   17.57
  -2  -5   7  117.59   26.85
   2  -5  -7   64.41   16.69
   2   5  -7   53.89   12.34
  -2  -5   7   57.28   14.06
  -9  -1   6 1035.25   56.38
  -9   1   6 1024.34   57.98
   9   1  -6  958.32   51.36
   9  -1  -6 1222.03   84.24
  -9  -1   6 1072.12   79.34
  -9   1   6 1178.08   65.38
  -9  -1   6 1063.15   76.63
  -9   0   2   10.42   10.92
   9   0  -2    8.65    8.88
  -9   0   2   18.36   10.61
  -7   2  10  607.74   42.78
   7   2 -10  567.46   50.75
   7  -2 -10  546.17   32.41
  -7   2  10  569.23   36.72
  -7  -2  10  588.73   55.63
  -7  -2  10  468.64   33.53
  -7  -2  10  524.16   36.52
  -7  -2  10  459.62   32.41
   0   2  11   95.70   18.73
   0  -2 -11  118.44   23.57
   0  -2  11  100.64   17.66
   0  -2  11   86.64   12.45
   0  -2  11  110.35   27.93
   0   2 -11  116.72   27.20
   0  -2 -11  100.89   17.67
   0  -2 -11  130.32   27.74
   0   2  11   83.00   14.56
   0   2 -11  131.19   29.02
   8  -3  -4  661.14   53.13
   8   3  -4  552.50   38.14
  -8   3   4  662.20   65.35
   8  -3  -4  710.46   44.66
  -8  -3   4  593.87   43.53
  -8   3   4  635.29   41.26
  -1  -6   0  463.15   29.11
  -1  -6   0  506.07   31.73
  -1  -6   1  198.15   30.77
  -1  -6   1  176.19   17.92
   1  -6  -1  154.20   17.24
  -9   0   7 1572.07  101.00
  -9   0   7 1264.84   65.14
  -9   0   7 1162.43   58.63
  -9   0   7 1143.80   72.78
   9   0  -7 1309.45   82.59
  -6  -2  -5  392.06   32.74
   6  -2   5  369.58   30.62
   6   2   5  328.99   26.78
  -6   2  -5  412.71   47.76
   6  -2   5  390.03   31.86
  -6  -2  -5  386.02   39.68
   6  -2   5  430.39   38.60
   6  -2 -11  311.74   23.06
  -6  -2  11  329.85   28.13
  -6  -2  11  311.39   41.61
  -6   2  11  322.52   27.57
  -6   2  11  349.28   30.11
   6   2 -11  370.67   29.05
  -6  -2  11  249.08   29.45
   8  -3  -3  299.81   25.11
  -8   3   3  259.15   24.15
   8   3  -3  287.70   26.03
   8  -3  -3  325.38   27.93
  -8   3   3  351.06   31.55
  -8  -3   3  283.85   28.69
  -1   5  -6   25.16   14.70
   1   5   6   20.42   10.24
   1  -5   6   33.28   16.80
  -1  -5  -6   31.60    9.30
  -1  -5  -6   41.60   15.19
  -1  -5  -6   39.58   13.31
   1  -5   6   37.09   18.27
  -8  -3   5 1126.72   88.98
  -8   3   5 1036.82   79.52
  -8   3   5 1266.98   70.30
  -8  -3   5 1750.97  106.25
   8   3  -5  906.76   52.16
   8  -3  -5 1301.17   67.40
   8  -3  -5 1207.39   59.59
  -1  -5   7  100.28   14.43
  -1   5   7  131.48   32.29
   1  -5  -7  137.73   21.84
  -1  -5   7  122.17   30.17
   1  -5  -7  138.59   19.50
  -1  -1 -11  273.91   35.92
   1  -1  11  252.78   27.11
  -1  -1 -11  265.80   27.09
  -1  -1 -11  220.20   19.34
  -1   1 -11  238.04   38.08
   1  -1  11  197.68   30.98
  -1   1 -11  264.17   24.16
   1   1  11  231.50   38.83
   1   1  11  239.86   24.71
   1  -1  11  222.28   33.14
   1   1 -12  107.73   16.62
   1   1 -12  100.16   19.66
  -1   1  12   98.81   17.30
  -1  -1  12   89.18   15.40
  -1   1  12   93.22   15.41
  -1  -1  12  101.87   18.90
   1  -1 -12   99.43   13.20
   1  -1 -12  114.59   25.82
   1  -1 -12  108.75   18.32
   1   1 -12  105.88   13.97
  -3  -5  -4  134.83   18.44
   3  -5   4  116.14   27.63
   3  -5   4  116.39   15.55
   3   5   4  130.86   23.62
  -3  -5  -4  145.38   20.51
   3  -5  -7  238.46   31.18
   3  -5  -7  351.71   46.69
  -3   5   7  353.96   35.80
   3   5  -7  326.92   39.97
  -3  -5   7  314.43   29.10
  -3  -5   7  345.43   27.64
  -1  -6  -1  379.48   38.98
   1   6   1  239.79   24.08
  -1  -6  -1  292.94   21.70
   1  -6  -2 2661.15  141.41
  -1  -6   2 2708.48  131.60
  -1  -6   2 2619.88  130.56
   3  -3   8  183.46   20.27
  -3  -3  -8  150.36   16.72
  -3  -3  -8  179.93   20.27
   3  -3   8  132.76   27.38
  -3  -3  -8  174.11   31.65
   3  -3   8  158.55   17.33
  -3   3  -8  140.15   24.01
   3   3   8  160.61   19.18
   3   3   8  127.37   15.19
  -7   1  -4  605.28   39.26
   7   1   4  551.46   33.79
   7   1   4  392.98   27.22
   7   1   4  486.07   30.62
  -7  -1  -4  550.31   37.92
  -7  -1  -4  571.03   35.63
   7  -1   4  606.40   39.38
   7  -1   4  565.64   35.56
   0  -6  -2   39.91   13.82
   0  -6  -2   40.76   11.37
   8   0   2  949.59   72.76
  -8   0  -2  885.93   48.94
  -8   0  -2  646.84   52.17
   8   0   2  830.74   62.77
   7  -4  -3  463.87   31.99
   7  -4  -3  462.53   33.21
  -7  -4   3  380.70   31.63
   7   4  -3  346.80   28.37
  -7  -4   3  462.68   32.03
  -7  -4   3  411.04   27.39
  -7   4   3  490.88   38.25
  -7  -4   3  389.80   28.94
  -7  -4   4  289.16   42.46
  -7  -4   4  685.36   47.88
   7  -4  -4  324.77   28.16
  -7  -4   4  268.17   22.37
   7  -4  -4  304.18   29.46
  -7  -4   4  259.49   23.87
  -7   4   4  353.14   49.97
   3  -3 -11   51.94   22.94
   3   3 -11   62.13   22.47
   3   3 -11   45.26   12.60
   3   3 -11   49.60   13.06
  -3  -3  11   46.71   11.88
  -3  -3  11   41.26   22.49
  -3   3  11   36.51   15.07
  -6   0  -6  106.23   23.09
  -6   0  -6   98.36   26.68
   6   0   6  108.35   28.13
   6   0   6  115.77   31.21
   7   1 -11    1.19    5.37
  -7   1  11    9.47    6.79
  -7  -1  11   -2.23    5.99
  -7  -1  11    2.18   10.77
  -7   1  11   -0.92    6.35
  -7  -1  11   -6.67   10.82
   7  -1 -11    2.30    7.31
  -8   0  10  375.31   47.95
  -8   0  10  343.41   30.33
  -8   0  10  311.64   25.53
   6   0 -12  412.70   31.43
   6   0 -12  397.20   29.61
  -6   0  12  405.13   35.65
  -6   0  12  400.28   34.65
  -5  -5   0  103.10   16.92
   5  -5   0  104.16   24.90
   5  -5   0   97.57   16.19
  -5  -5   0   93.46   16.93
   5   5   0   89.30   17.54
   3   2   9  270.36   40.25
   3  -2   9  252.52   22.83
  -3  -2  -9  307.67   25.42
  -3  -2  -9  291.83   27.58
  -3   2  -9  268.08   21.90
  -3   2  -9  262.52   23.08
   3  -2   9  283.50   41.41
   3  -2   9  269.10   22.75
  -5  -5   5  253.48   36.18
   5  -5  -5  270.90   26.30
  -5  -5   5  236.13   25.78
  -5  -5   5  216.94   36.96
   5  -5  -5  264.76   28.96
  -9  -1   2   99.32   18.87
  -9   1   2  108.97   19.18
  -9   1   2  113.48   17.06
   9  -1  -2  103.11   17.79
  -9  -1   2  105.20   24.64
  -9  -1   2  108.73   26.08
   9   1  -2  107.76   18.88
  -3  -2  12   70.00   15.57
  -3   2  12   56.74   13.21
  -3  -2  12   51.41   13.85
   3   2 -12   62.92   11.90
   3   2 -12   62.22   12.67
   3   2 -12   57.25   25.34
   3  -2 -12   24.96   10.99
  -3   2  12   41.94   12.42
  -9  -1   7   26.93   10.12
  -9  -1   7   19.47   11.71
  -9   1   7   33.11   21.91
  -9   1   7   18.49   11.47
   9  -1  -7   24.26   10.71
  -9  -1   7   31.26   10.42
   9   1  -7   18.91    8.60
   2  -3   9   49.43   12.17
  -2   3  -9   67.39   12.55
  -2  -3  -9   54.12   20.78
  -2  -3  -9   67.69   13.82
   2  -3   9   74.21   15.62
  -2  -3  -9   72.05   14.08
   2  -3   9   71.49   14.43
   2   3   9   53.19   24.97
   8  -3  -2  826.02   63.88
  -8   3   2  891.34   53.64
  -8  -3   2  773.22   48.12
   8  -3  -2  816.09   45.50
  -8  -3   2  799.99   48.33
   8   3  -2  784.41   67.15
  -8   3   2  681.83   41.60
  -6  -3  -4 1020.91   78.26
  -6  -3  -4 1040.85   71.38
  -6   3  -4 1008.38   57.58
   6  -3   4 1045.22   70.72
   6  -3   4  891.84   50.96
   6  -3   4 1033.10   57.16
   6   3   4 1006.95   56.54
   4   3   7  135.95   16.44
  -4  -3  -7  170.12   20.32
  -4  -3  -7  183.96   21.32
  -4   3  -7  171.27   22.31
   4   3   7  139.21   17.08
   4  -3   7  164.54   18.17
   4  -3   7  144.85   17.40
   4  -3   7  176.01   19.38
   2   3 -11  349.69   27.20
   2   3 -11  287.14   25.35
  -2  -3  11  276.51   27.42
  -2  -3  11  305.44   24.68
   2   3 -11  286.07   22.69
  -2   3  11  291.70   29.36
   8   3  -6  136.02   14.77
  -8   3   6  164.59   18.74
  -8  -3   6  150.67   22.69
  -8   3   6  197.54   39.09
  -8  -3   6  190.12   22.51
   8  -3  -6  194.38   35.30
   8  -3  -6  194.13   28.92
   7  -4  -2   42.07   12.91
  -7  -4   2   20.73   20.28
   7  -4  -2   46.19   12.12
   7   4  -2   32.52   12.04
  -7   4   2   42.36   14.79
  -7  -4   2   35.18   11.19
  -7  -4   2   36.68   10.34
  -7  -4   2   27.48   16.52
   4  -2   8   55.28   11.64
  -4  -2  -8   68.74   24.93
  -4   2  -8   44.75   13.27
  -4   2  -8   48.74    9.73
   4   2   8   62.31   13.47
   4  -2   8   41.08   25.72
  -4  -2  -8   71.18   21.43
   4  -2   8   67.60   14.10
   4   3 -11  130.19   30.97
   4   3 -11  142.93   19.78
   4   3 -11  146.42   27.24
  -4   3  11  123.21   20.07
  -4  -3  11  112.37   27.43
  -4  -3  11  157.53   19.54
   4  -3 -11  155.11   28.37
   7   4  -5  236.97   22.36
   7  -4  -5  272.18   42.23
   7  -4  -5  288.49   26.52
  -7   4   5  263.94   27.01
  -7  -4   5  248.40   24.23
  -7  -4   5  234.86   26.12
  -7  -4   5  263.23   32.35
  -6   3  10  364.72   28.85
  -6  -3  10  415.96   30.29
   6   3 -10  386.38   29.67
   6   3 -10  342.27   23.24
  -6  -3  10  279.92   24.16
   6  -3 -10  399.39   28.79
  -6  -3  10  342.27   26.89
  -6   3  10  371.97   47.48
  -2  -6   1  651.17   53.96
  -2  -6   1  625.73   36.43
   0   4   9  286.37   29.31
   0  -4  -9  309.76   27.92
   0  -4   9  279.12   27.38
   0  -4  -9  267.68   26.67
   0  -4   9  278.93   40.39
   0   4  -9  301.53   25.43
  -4  -2  12  186.94   35.09
   4   2 -12  203.52   24.98
   4   2 -12  197.81   18.76
   4   2 -12  208.87   22.29
  -4  -2  12  163.76   31.27
  -4   2  12  133.23   15.85
  -4   2  12  155.89   19.37
   4  -2 -12  181.32   33.96
  -4   2  12  163.58   18.22
  -2  -6   0  136.79   18.50
  -2  -6   0  130.91   17.35
   2  -6  -2  234.07   34.20
  -2  -6   2  249.56   34.74
  -2  -6   2  284.78   23.53
  -5   4  -4  187.17   34.97
  -5  -4  -4  178.05   19.03
  -5  -4  -4  177.75   21.15
  -5  -4  -4  180.00   26.17
   5   4   4  175.53   23.27
   5  -4   4  195.56   20.64
   5  -4   4  202.98   21.49
   9   0  -1  297.70   26.42
  -9   0   1  314.12   28.70
  -9   0   1  316.01   27.94
  -8   1  -2  216.25   36.79
   8   1   2  187.46   30.56
   8  -1   2  208.07   36.06
   8  -1   2  176.55   18.77
  -8  -1  -2  207.72   21.69
   8   1   2  187.89   18.11
   8  -1   2  142.81   15.62
  -8  -1  -2  188.05   32.63
   1   6   2   -2.49    7.16
  -1  -6  -2  293.21   24.65
   1  -6  -3  357.83   29.45
   1  -6  -3  298.18   22.40
  -1  -6   3  391.27   24.81
  -1  -6   3  315.21   24.14
   7  -3   2   75.73   22.84
   7  -3   2   58.10   12.55
  -7  -3  -2   61.20   26.20
  -7  -3  -2   63.82   19.80
  -7   3  -2   70.82   14.51
   7   3   2   69.01   25.84
   7  -3   2   68.93   14.82
  -5   4   9 1889.35  101.22
   5  -4  -9 1849.23  112.14
  -5  -4   9 1737.48   82.40
   5   4  -9 1703.51   88.47
  -5  -4   9 1644.91   84.23
  -9   0   8   90.15   24.78
  -9   0   8   92.44   18.57
   9   0  -8   92.54   13.90
  -6   1  -6  123.27   26.05
   6   1   6   92.50   14.93
  -6  -1  -6  123.35   29.86
  -6  -1  -6  103.21   13.91
   6   1   6  109.49   15.63
   6  -1   6  118.13   30.28
   6  -1   6  107.27   16.80
  -6   4  -2  984.69   69.90
  -6  -4  -2  968.61   51.51
  -6  -4  -2  790.81   43.89
   6  -4   2 1126.71   59.95
   6  -4   2 1069.52   76.78
  -6  -4  -2 1034.35   53.18
   6   4   2  990.53   82.40
  -8  -2  -1  519.25   36.05
  -8   2  -1  516.61   33.88
  -8  -2  -1  477.22   33.68
   8  -2   1  484.04   31.77
   8  -2   1  408.44   27.61
   8  -2   1  537.45   34.60
   8   2   1  526.93   51.51
  -8   2  -1  556.21   36.35
   0  -5   7   35.71   11.26
   0  -5  -7   44.28   27.03
   0   5   7   37.47   21.81
   0  -5   7   43.20   12.80
   0   5  -7   50.55   11.93
   0  -5  -7   44.46   22.76
  -2  -2 -10  391.21   25.64
  -2  -2 -10  465.58   33.90
   2  -2  10  388.16   28.63
  -2   2 -10  373.77   27.63
   2  -2  10  425.96   33.42
   2  -2  10  361.72   26.18
  -2  -2 -10  462.70   30.34
  -2   2 -10  457.55   44.30
   2   2  10  428.87   32.99
   6   4  -8  762.13   47.02
  -6  -4   8  734.41   39.74
   6  -4  -8  859.63   53.01
  -6   4   8  735.75   45.99
  -6  -4   8  736.91   46.40
   6  -4  -8  853.49   49.84
  -6  -4   8  714.23   40.34
   2  -2 -12  177.11   30.25
  -2   2  12  167.95   28.35
   2  -2 -12  205.57   22.45
   2   2 -12  206.71   21.05
  -2  -2  12  181.63   21.24
   2   2 -12  212.93   36.57
  -2  -2  12  160.62   20.66
   2   2 -12  191.25   19.23
  -2   2  12  177.44   20.75
  -8   1  10  759.31   67.96
  -8   1  10  740.56   65.29
   8   1 -10  570.37   30.72
  -8  -1  10  759.70   60.31
  -8  -1  10  742.09   46.47
  -8  -1  10  676.11   42.94
  -7   3   9  599.06   41.86
  -7   3   9  609.70   40.25
   7   3  -9  527.36   34.52
   7  -3  -9  610.64   38.07
  -7  -3   9  607.14   39.09
  -7  -3   9  552.00   37.57
  -8   2   9   54.41   24.42
  -8  -2   9   59.35   13.39
  -8  -2   9   27.76   11.06
  -8  -2   9   43.38   11.02
   8   2  -9   43.10   10.17
  -8   2   9   40.70   12.89
   8  -2  -9   53.68   11.94
   6   1 -12  207.21   21.44
  -6  -1  12  181.40   24.01
   6  -1 -12  155.39   17.98
   6   1 -12  200.92   23.57
  -6   1  12  187.94   38.95
  -6   1  12  216.75   24.74
   6  -1 -12  185.83   18.65
  -6  -1  12  175.75   22.37
   0  -6  -3  811.49   45.44
   0  -6  -3  758.85   51.01
  -4   5  -3   58.22   13.27
   4  -5   3   67.30   13.24
  -4  -5  -3   72.21   14.30
  -4  -5  -3   72.69   23.88
   4  -5   3   40.68   19.85
   4   5   3   50.50   16.08
   4  -5  -7  509.99   38.26
  -4  -5   7  468.65   52.01
  -4   5   7  524.28   41.49
  -4  -5   7  500.47   33.49
   4   5  -7  498.86   36.67
   0   0  12 1091.68   81.08
   0   0 -12 1178.12   73.84
   0   0 -12 1139.08   61.75
   0   0  12  934.36   52.15
   0   0 -12  945.77   50.04
  -7  -4   1   78.75   19.74
  -7  -4   1  111.17   22.98
  -7  -4   1  111.87   16.42
   7  -4  -1  122.91   17.93
   7   4  -1  116.28   29.14
   7  -4  -1  143.59   30.44
  -7  -4   1   94.07   14.76
   7  -4  -1  112.05   23.21
   7  -4  -6  440.56   31.24
  -7  -4   6  371.57   25.36
  -7  -4   6  386.75   28.76
   7  -4  -6  395.26   33.71
  -7  -4   6  349.45   30.82
  -7   4   6  408.85   48.45
   7   4  -6  372.41   28.76
  -2  -6  -1   39.94   17.74
   2   6   1   35.85   12.77
  -2  -6  -1   48.21   21.28
   2  -6  -3  215.35   34.36
  -2  -6   3  225.53   20.11
  -2  -6   3  219.87   31.18
   9   2  -4  904.50   52.02
  -9   2   4  923.24   69.06
   9  -2  -4 1026.74   56.38
  -9  -2   4  967.67   54.25
  -9  -2   4  931.34   75.06
  -9   2   4  894.51   53.79
  -9   2   5  403.70   33.02
  -9  -2   5  387.32   32.45
  -9   2   5  434.16   32.39
   9   2  -5  340.79   39.15
   9  -2  -5  442.08   47.65
  -8  -3   1   97.09   17.41
   8   3  -1  103.79   29.52
   8  -3  -1  109.23   16.55
   8  -3  -1   99.92   14.71
  -8  -3   1   95.42   15.98
  -8   3   1  124.77   18.86
  -8   3   1   84.32   22.88
  -8   3   1   79.33   13.25
  -5   2  -7   30.63   11.95
   5  -2   7   36.31   19.41
   5  -2   7   37.65   12.12
  -5  -2  -7   37.24   11.23
  -5  -2  -7   37.03   13.22
   5  -2   7   22.57   14.08
   5   2   7   33.64   10.75
  -8  -3   7  412.76   30.90
  -8  -3   7  350.78   44.32
  -8   3   7  297.15   24.45
  -8   3   7  404.38   33.01
   8   3  -7  311.43   34.12
   8  -3  -7  414.24   31.90
   8  -3  -7  385.93   37.78
   1  -3  10 1094.53   77.06
  -1  -3 -10 1171.63   65.77
  -1   3 -10 1477.71   89.02
  -1  -3 -10 1379.62   65.08
   1   3  10 1446.22   76.71
  -1  -3 -10 1508.11   71.22
   1  -3  10 1434.90   73.41
   1  -3  10 1405.63   68.02
  -5  -5  -1  105.93   17.23
   5  -5   1  113.30   15.91
   5  -5   1  118.96   17.03
   5   5   1  100.68   19.17
  -5  -5  -1  119.19   16.56
  -5  -2  12  867.12   50.20
   5  -2 -12  921.26   62.02
  -5   2  12  800.08   62.14
   5   2 -12  994.31   74.24
   5   2 -12  727.00   39.17
   5   2 -12  928.21   50.45
  -5  -2  12  776.65   44.99
  -5   2  12  582.84   37.63
  -5   2  12  819.94   47.42
   1   3 -11  404.02   30.76
   1  -3 -11  430.55   32.18
  -1  -3  11  350.25   25.04
  -1   3  11  367.04   46.70
  -1  -3  11  258.46   23.52
  -1  -3  11  370.85   30.14
  -9   1   1  189.77   33.35
  -9  -1   1  164.42   28.77
  -9  -1   1  178.91   21.76
   9  -1  -1  169.79   19.40
   9   1  -1  181.65   21.89
  -9  -1   1  154.10   17.66
  -9   1   1  174.22   21.98
   5  -5  -6  174.54   36.55
  -5  -5   6  116.54   18.48
  -5  -5   6  154.91   18.16
   5   5  -6  136.29   21.18
   5  -5  -6  179.33   21.39
  -5   3  -6  169.91   21.26
  -5  -3  -6  167.65   19.18
  -5  -3  -6  162.16   20.86
   5   3   6  136.17   17.64
   5  -3   6  178.51   31.08
   5  -3   6  159.45   27.80
   5  -3   6  156.73   16.96
  -9   1   8   45.61   22.51
   9  -1  -8   54.40   12.27
  -9  -1   8   30.14   11.17
  -9   1   8   52.74   14.86
  -9  -1   8   34.53   19.11
  -9  -1   8   70.53   12.95
  -5  -3  11   29.34   10.46
   5  -3 -11   19.52   15.92
  -5   3  11   23.57   19.34
  -5  -3  11   27.70    9.86
   5   3 -11   31.60   14.93
   5   3 -11   36.79   12.66
   5   3 -11   38.39   12.21
   3   4   7  164.51   20.55
   3  -4   7  189.68   33.59
   3  -4   7  200.98   21.50
  -3  -4  -7  202.86   20.01
  -3  -4  -7  189.81   18.70
  -3  -4  -7  132.34   16.82
  -4   0  -9 2566.65  117.06
   4   0   9 2623.87  129.17
  -4   0  -9 2456.04  119.91
   4   0   9 2519.38  147.05
  -3   4  10  173.92   35.81
   3   4 -10  189.63   20.56
  -3  -4  10  128.90   17.10
   3  -4 -10  185.47   19.95
   3  -4 -10  193.14   32.01
   3   4 -10  155.57   28.25
  -3   0 -10  290.28   26.84
   3   0  10 2292.62  143.77
  -3   0 -10  318.61   38.44
  -9   2   3  139.87   16.89
  -9  -2   3  144.89   20.53
  -9   2   3  112.28   14.35
  -9   2   3  125.37   20.65
   9  -2  -3  160.02   20.51
   9   2  -3  145.23   20.34
  -9  -2   3  135.60   19.43
  -3   0  13  261.32   35.68
   3   0 -13  243.94   27.18
   3   0 -13  327.74   26.50
   3   0 -13  317.03   28.36
  -3   0  13  290.32   27.99
   4   0 -13  226.02   24.88
  -4   0  13  186.80   21.36
  -4   0  13  190.69   24.11
   4   0 -13  203.18   22.54
   9   2  -6  128.69   14.49
  -9   2   6  164.53   21.42
  -9   2   6  160.16   33.38
  -9  -2   6  166.46   33.32
   9  -2  -6  177.39   20.47
  -9  -2   6  173.44   21.36
  -9  -2   6  115.52   23.94
  -2  -4  -8  217.59   21.31
  -2  -4  -8  202.22   19.81
  -2   4  -8  174.08   24.10
   2  -4   8  210.84   21.99
   2  -4   8  209.20   22.28
   2   4   8  161.97   32.97
   2   4   8  173.03   32.39
   2  -4 -10 1317.56   67.03
   2   4 -10 1267.55   82.97
  -2   4  10 1199.57   68.88
  -2  -4  10 1077.62   61.22
   2  -4 -10 1026.77   75.69
  -2  -4  10 1301.94   85.88
   0   1 -12  151.64   20.21
   0  -1 -12  186.44   27.05
   0  -1  12  121.08   16.06
   0  -1  12  140.71   21.12
   0   1 -12  158.80   18.84
   0  -1 -12  177.96   27.29
   0  -1 -12  145.96   20.51
   0   1  12  140.95   18.71
   0   1  12  131.82   28.07
   1   6   3   -3.54    8.13
  -1  -6  -3  167.97   19.35
  -1  -6   4  967.63   55.83
  -1  -6   4 1385.55   76.28
   1  -6  -4 1322.35   83.99
   1  -6  -4 1540.09   81.56
   2  -5   6  481.12   47.46
   2  -5   6  450.06   31.69
  -2  -5  -6  439.90   28.59
  -2  -5  -6  516.67   34.55
   2   5   6  534.08   40.45
   2  -5  -8  500.10   32.12
  -2   5   8  495.99   59.87
  -2  -5   8  529.59   36.44
   2  -5  -8  539.56   38.00
  -1   2 -11  330.48   25.88
  -1   2 -11  546.68   46.47
   1  -2  11  500.51   33.45
  -1  -2 -11  573.93   31.33
   1  -2  11  536.23   53.42
   1   2  11  531.46   36.43
  -1   2 -11  350.59   24.89
  -1  -2 -11  547.79   34.87
  -1  -2 -11  521.04   42.36
  -3  -6   1  286.39   40.03
   3  -6  -1  226.08   28.27
  -3  -6   1  293.58   25.46
   1  -2 -12  214.71   20.72
   1   2 -12  241.20   33.80
  -1  -2  12  232.21   36.06
  -1   2  12  190.79   28.83
  -1   2  12  242.83   23.90
   1  -2 -12  274.19   35.54
   1  -2 -12  196.14   16.99
  -1  -2  12  228.27   35.10
   1   2 -12  282.11   22.65
   3  -6  -2  411.38   27.32
   3  -6  -2  336.66   39.30
  -3  -6   2  430.02   31.34
  -3  -6   2  428.55   30.94
   4  -4   6   11.18    8.02
  -4  -4  -6   19.95    8.59
   4   4   6   16.43   15.88
  -4  -4  -6   19.70   16.44
  -4  -4  -6   13.99   14.47
  -4   4  -6   20.04   10.85
   4  -4   6   18.63    9.48
   7  -2   4   34.62   11.06
  -7   2  -4   22.88   19.17
  -7  -2  -4   24.38    7.99
  -7  -2  -4   37.49   11.77
   7  -2   4   29.36   11.29
   7   2   4    4.58   15.36
   4   4 -10   28.41   10.78
   4  -4 -10   35.85   10.77
  -4  -4  10   31.19   11.09
  -4   4  10   26.55   13.42
  -4  -4  10   15.25   14.91
   4  -4 -10   21.76    9.43
   4   4 -10   31.59   10.86
  -2  -6  -2  149.30   18.80
   2   6   2  118.69   19.04
  -2  -6  -2  125.17   15.31
   2  -6  -4   83.41   16.51
  -2  -6   4  175.70   23.36
  -2  -6   4  107.21   14.89
   2   6  -4   -1.79    6.63
   9   0   0  464.83   30.73
  -9   0   0  485.05   34.39
  -9   0   0  492.17   34.75
   3   5   5   19.42   18.92
  -3  -5  -5   18.07    8.56
  -3  -5  -5   25.99    9.92
  -3   5  -5   -2.48    8.82
   3  -5   5   13.92   15.38
  -7  -2  11  319.71   26.50
  -7   2  11  266.96   24.35
   7   2 -11  311.26   24.38
  -7   2  11  307.30   27.42
  -7  -2  11  253.19   35.54
  -7  -2  11  235.97   22.31
   3   5  -8  108.57   14.75
   3  -5  -8  122.15   19.50
  -3  -5   8  225.54   32.95
   3  -5  -8   89.81   21.17
  -3  -5   8  115.89   17.66
  -3   5   8  130.51   22.45
   5   0   8   -0.52    5.86
  -5   0  -8    0.19    3.34
  -5   0  -8   -0.11    6.66
   5   0   8    3.58    6.20
   4  -1   9  435.04   31.46
  -4  -1  -9  289.90   21.59
  -4  -1  -9  262.68   24.39
  -4   1  -9  170.20   16.45
   4   1   9  263.28   26.03
  -4   1  -9  189.94   18.25
  -4   1  -9  240.42   27.69
   4  -1   9  267.17   39.77
   4   1   9  296.52   36.26
  -9   0   9   33.05   11.28
  -9   0   9   12.82    9.51
   0  -6  -4  371.36   32.79
   0  -6   4  215.57   17.96
   0  -6  -4  385.57   41.09
   7   4   0  245.81   39.45
   7  -4   0  269.78   25.48
   7  -4   0  268.47   24.22
  -7  -4   0  234.41   22.26
  -7  -4   0  227.18   20.14
   3   1  10  300.19   23.76
   3   1  10  260.21   40.70
   3  -1  10  237.97   23.99
  -3   1 -10  209.55   20.51
   3  -1  10  464.46   44.41
  -3  -1 -10  271.10   34.94
  -3   1 -10  254.07   20.77
  -3  -1 -10  270.01   39.43
   2   0  11  384.89   29.83
   2   0  11  395.44   32.09
  -2   0 -11  415.32   28.94
  -2   0 -11  407.56   48.57
  -7   0  -5 1682.67   99.24
   7   0   5 1853.67  101.27
  -7   0  -5 1973.52   91.52
   7  -4  -7  132.30   29.30
  -7  -4   7  135.95   25.97
  -7  -4   7  102.18   12.97
   7  -4  -7  125.86   19.82
  -7  -4   7  116.37   29.28
  -7   4   7  135.90   29.00
   7   4  -7  120.69   26.99
  -2   0  13   41.18   21.53
   2   0 -13   80.91   18.85
   2   0 -13   78.16   13.39
  -2   0  13   28.12   16.09
   2   0 -13   79.84   26.92
  -5   0  13  643.22   62.91
   5   0 -13  688.02   42.96
   5   0 -13  665.68   56.90
  -5   0  13  621.59   58.09
   3   1 -13    5.43   12.33
   3   1 -13   10.06   10.17
  -3  -1  13    8.81    8.54
   3  -1 -13    9.16    7.66
   3   1 -13   -0.16   14.92
  -3   1  13    6.55    8.14
  -3  -1  13    5.65    8.30
   3  -1 -13    0.19   12.44
   4   1 -13  194.08   24.11
  -4  -1  13  235.81   37.09
  -4   1  13  252.12   24.83
  -4   1  13  203.48   19.96
   4  -1 -13  263.38   23.45
   4   1 -13  280.29   26.89
  -4  -1  13  269.64   40.63
   4   1 -13  279.72   23.18
   4  -1 -13  239.48   21.76
   9   2  -2  274.05   39.51
   9  -2  -2  304.33   23.92
  -9  -2   2  282.52   25.90
  -9  -2   2  292.18   38.63
  -9   2   2  286.97   39.40
   9  -2  -2  225.81   27.29
  -9   2   2  259.93   22.90
  -9   2   2  268.35   21.61
  -3  -6   0  366.58   28.28
  -3  -6   0  366.66   38.92
  -6  -5   3  429.28   44.74
  -6  -5   3  326.37   26.41
  -6   5   3  437.22   46.38
   6  -5  -3  447.47   32.82
   6  -5  -3  489.54   33.68
  -6  -5   3  433.04   43.87
  -3  -6   3  762.02   60.62
   3  -6  -3  812.82   44.04
   3  -6  -3  724.40   46.83
  -3  -6   3  802.48   44.18
  -9  -2   7  271.91   24.14
  -9  -2   7  234.75   23.06
  -9   2   7  265.70   23.90
  -9  -2   7  171.32   18.00
  -9   2   7  267.07   25.59
   9  -2  -7  247.71   24.37
   1   5   7   71.74   17.64
  -1  -5  -7   78.62   14.55
  -1  -5  -7   51.05    9.52
   1  -5   7   71.90   14.00
   1  -5   7   51.30   20.89
   7   0 -12   90.15   14.05
  -7   0  12   84.12   18.44
  -7   0  12   99.15   18.14
   7   0 -12   90.67   21.61
   1  -5  -8  365.14   27.96
  -1   5   8  314.71   28.25
  -1  -5   8  277.89   22.25
   1   5  -8  355.13   26.52
   1  -5  -8  346.86   45.86
  -1  -5   8  326.58   26.32
   8   0   3  294.85   20.24
  -8   0  -3  430.37   45.10
  -1  -4  -9  364.45   25.33
  -1   4  -9  395.27   25.89
   1  -4   9  396.83   45.47
  -1  -4  -9  424.44   30.27
   1   4   9  336.33   40.83
   1   4   9  374.29   29.62
   1  -4   9  406.41   42.58
   1   4 -10  243.70   22.97
   1  -4 -10  245.63   23.91
  -1  -4  10  204.71   34.53
  -1   4  10  212.62   23.93
  -1  -4  10  208.70   22.11
  -8   0  11  696.84   64.62
   8   0 -11  677.73   38.95
  -8   0  11  689.76   44.06
  -6  -5   2  103.76   15.31
  -6  -5   2   57.25   11.43
  -6  -5   2  100.18   15.09
   6  -5  -2   89.59   14.09
   6  -5  -2  116.12   17.39
  -6   5   2  115.51   17.10
  -6  -5   4   29.46   11.09
  -6   5   4   25.30   10.37
   6  -5  -4   44.14   21.21
   6  -5  -4   37.96   12.75
  -6  -5   4   18.47   10.05
  -6  -5   4   30.73   11.53
  -8   3   0  167.09   26.11
  -8   3   0  203.67   21.10
  -8   3   0  146.67   16.45
  -8  -3   0  154.50   18.56
   8   3   0  180.43   34.63
   8  -3   0  195.48   20.49
  -8  -3   0  179.13   32.39
  -8  -3   8  168.95   20.84
  -8  -3   8  199.19   33.78
   8   3  -8  153.99   15.65
  -8   3   8  199.89   23.38
   8  -3  -8  207.01   33.29
  -6  -4  -3  117.76   16.17
   6  -4   3  125.76   17.41
  -6  -4  -3  126.15   16.05
   6  -4   3  132.65   27.59
   6   4   3  109.66   18.14
  -6   4  -3   96.16   25.12
   8  -2   2  141.78   17.67
  -8   2  -2  117.54   14.65
  -8  -2  -2  135.65   25.77
  -8  -2  -2  132.93   18.00
   8  -2   2  132.39   26.29
   8   2   2  133.44   17.75
  -8   2  -2  149.27   17.62
   6  -2   6  455.15   30.66
  -6  -2  -6  432.42   28.01
  -6   2  -6  477.79   31.62
  -6  -2  -6  463.53   33.09
   6  -2   6  465.33   31.17
   6   2   6  309.56   30.55
   5  -5   2  386.24   27.93
  -5  -5  -2  387.33   41.48
   5  -5   2  371.48   25.88
  -5  -5  -2  360.22   37.97
   5   5   2  329.44   30.98
  -6   4   9  529.03   38.25
  -6  -4   9  478.38   28.25
   6  -4  -9  527.26   51.69
  -6  -4   9  472.46   30.01
  -6  -4   9  455.47   31.99
   6   4  -9  502.34   50.47
  -9  -1   0  186.21   20.50
   9  -1   0  156.72   17.04
   9   1   0  179.53   20.43
  -9   1   0  174.35   31.32
  -9  -1   0  164.17   17.79
  -9   1   0  158.62   21.03
  -9  -1   0  161.14   16.63
   5   5  -7  536.28   36.41
   5  -5  -7  573.24   39.22
  -5  -5   7  486.26   34.08
  -5  -5   7  530.75   32.20
  -8  -2  10   24.58    8.87
   8   2 -10   36.92   15.35
  -8  -2  10   25.06   19.31
  -8   2  10   44.49   12.98
  -8   2  10   54.14   11.21
  -8  -2  10   20.52   10.01
  -5  -1  -8  876.43   48.90
  -5   1  -8  705.78   52.65
   5   1   8  764.50   58.82
  -5  -1  -8  796.08   54.67
   5  -1   8  756.07   44.05
   5  -1   8  829.50   47.13
   5   1   8  679.19   40.25
   6   2 -12  223.09   24.18
  -6  -2  12  167.16   20.06
   6  -2 -12  187.18   17.41
  -6   2  12  174.77   19.52
  -6   2  12  219.69   20.67
  -6  -2  12  179.21   30.53
   6   2 -12  216.74   20.88
  -9  -1   9  750.88   39.32
  -9  -1   9  745.11   57.05
  -9  -1   9  492.80   34.11
  -9   1   9  804.92   44.67
   9  -1  -9  758.63   52.11
  -9   1   9  785.31   44.64
   7  -3   3  310.04   33.57
  -7  -3  -3  218.11   27.35
   7  -3   3  245.93   23.09
   7  -3   3  230.13   19.59
   7   3   3  233.40   23.27
  -7  -3  -3  268.06   37.02
  -7   3  -3  250.58   23.05
   2   1  11  170.84   19.54
  -2  -1 -11  203.22   19.15
  -2   1 -11  180.01   29.03
   2   1  11  149.15   18.66
   2  -1  11  177.73   21.81
   2  -1  11  160.35   17.61
  -2   1 -11  154.85   29.34
  -2  -1 -11  179.68   21.78
  -7  -1  -5  188.13   16.95
  -7  -1  -5  239.63   32.96
  -7   1  -5  236.85   20.80
   7   1   5  209.05   19.19
   7  -1   5  231.93   20.58
   2  -1 -13  201.69   29.74
  -2  -1  13  170.72   18.21
   2   1 -13  180.41   16.59
  -2  -1  13  183.05   20.97
  -2   1  13  140.72   15.58
  -2   1  13  175.65   19.43
   2   1 -13  197.48   27.18
   2  -1 -13  143.14   13.48
   2  -1 -13  171.02   19.53
   2   1 -13  203.56   21.48
   5  -1 -13  182.03   19.12
   5   1 -13  213.56   36.16
  -5   1  13  208.69   22.44
  -5  -1  13  200.60   23.05
  -5  -1  13  195.46   21.87
   5   1 -13  213.95   21.40
   5  -1 -13  223.30   32.10
  -5   1  13  178.05   19.26
  -7  -3  10  565.23   48.37
  -7  -3  10  697.80   39.47
  -7   3  10  671.61   40.79
   7  -3 -10  636.67   36.95
   7   3 -10  629.33   50.59
  -7   3  10  548.25   50.15
   0   3  11  134.94   19.24
   0  -3  11  126.06   14.79
   0  -3 -11   90.08   13.83
   0  -3 -11  107.71   12.86
   0   3 -11  162.03   26.52
   0  -3  11  138.65   28.77
   0  -3 -11  170.78   17.56
   0  -3  11  108.73   13.88
   4  -5   4   99.64   14.72
  -4   5  -4   84.71   13.57
   4  -5   4   81.41   18.64
  -4  -5  -4   89.00   14.50
  -4  -5  -4   90.59   23.33
   4   5   4   89.58   17.69
   7   1 -12  271.19   31.92
   7  -1 -12  220.09   17.57
   7   1 -12  291.33   25.12
  -7  -1  12  262.11   39.25
  -7  -1  12  228.94   23.26
  -7   1  12  249.87   25.68
  -7   1  12  261.75   25.78
  -6  -5   1   79.11   13.99
  -6  -5   1   83.13   14.00
   6  -5  -1   98.19   23.43
   6   5  -1   67.73   13.21
  -6   5   1   89.06   16.68
  -3  -6  -1  392.99   29.05
  -3  -6  -1  401.74   27.59
   3   6   1  321.73   26.29
   3  -6  -4  215.79   22.82
  -3  -6   4  120.00   14.62
  -3   6   4  196.53   20.54
  -3  -6   4  211.06   29.14
  -3  -6   4  199.18   19.55
   6  -5  -5    7.13    8.55
   6  -5  -5    9.18    8.06
  -6  -5   5    9.86    7.52
  -6  -5   5    8.81   12.98
   6   5  -5    3.15    7.75
  -6   5   5    5.26    7.20
  -4  -5   8  179.66   18.77
  -4   5   8  195.83   38.78
  -4  -5   8  152.06   19.67
   4   5  -8  166.57   19.85
   4  -5  -8  188.10   34.33
  -8  -1  -3 1404.86   86.94
  -8   1  -3 1547.76   73.63
   8   1   3 1305.88   66.97
   8  -1   3 1328.06   63.31
   8   1   3 1303.12   61.93
  -8  -1  -3 1450.16   87.58
   6  -3   5  171.42   18.75
   6  -3   5  169.78   26.84
  -6  -3  -5  160.99   30.28
   6  -3   5  131.72   15.90
   6   3   5  140.62   26.53
  -6  -3  -5  138.09   26.46
  -6   3  -5  142.10   29.87
  -6  -3  11  562.44   32.86
  -6  -3  11  565.56   32.83
  -6   3  11  590.78   52.02
   6   3 -11  800.46   43.90
   6   3 -11  693.26   40.72
   6   3 -11  551.31   30.85
  -6   3  11  541.50   34.80
  -8   1  11  266.97   26.50
  -8   1  11  278.21   25.18
  -8  -1  11  228.43   34.06
  -8  -1  11  269.55   39.70
   8   1 -11  246.47   20.26
   8   1 -11   11.08   15.91
   5  -4   5   55.93   11.53
   5  -4   5   55.38   12.32
  -5   4  -5   29.91   12.41
  -5  -4  -5   30.26   10.35
   5   4   5   39.05   13.27
  -5  -4  -5   56.18   11.51
  -1  -6  -4  163.26   29.84
   1  -6   4   89.67   11.29
   1   6   4  139.74   20.27
   1  -6  -5  115.36   32.19
   1  -6  -5  128.32   24.19
  -1  -6   5  114.53   13.71
   5  -4 -10  180.38   28.85
   5   4 -10  194.48   18.53
  -5   4  10  179.09   23.05
  -5  -4  10  177.38   19.19
   5   4 -10  178.74   19.85
  -2  -6  -3  191.00   17.43
   2   6   3  216.32   25.63
  -2  -6  -3  234.41   21.59
  -2  -6   5  293.79   33.59
   2  -6  -5  321.15   28.63
   9   2  -1  469.63   46.84
  -9   2   1  410.12   27.01
  -9   2   1  426.83   40.65
  -9   2   1  439.58   31.19
  -9  -2   1  426.53   31.15
  -9  -2   1  459.75   30.95
   9  -2  -1  427.72   27.91
   9  -2  -1  389.10   24.79
  -9  -2   8  266.04   33.09
  -9   2   8  307.02   26.06
  -9   2   8  297.36   35.97
  -9  -2   8  350.34   38.37
  -9  -2   8  207.38   18.99
   9  -2  -8  334.11   39.07
   0  -5  -8   29.32   17.43
   0  -5   8   19.88   14.57
   0  -5   8    9.16    7.86
   0   5  -8   17.62    8.07
   0   5   8   17.77    8.54
   0  -5  -8   31.02   11.59
   6   0   7  248.48   21.72
  -6   0  -7  219.71   27.68
  -6   0  -7  179.19   15.37
   6   0   7  257.71   24.28
  -1   0 -12  191.88   18.71
   1   0  12  190.91   34.43
   1   0  12  170.50   18.44
  -1   0 -12  192.28   21.29
  -1   0  13   18.03    6.58
   1   0 -13   36.91   14.75
   1   0 -13   38.28    9.37
   1   0 -13   31.58   12.26
  -1   0  13   29.05   17.88
   6   0 -13  100.08   25.66
  -6   0  13   83.33   15.97
  -6   0  13   99.65   16.95
   6   0 -13   99.67   15.36
  -3  -3  -9  351.54   25.55
  -3  -3  -9  328.40   25.85
   3  -3   9  268.31   28.92
   3   3   9  282.83   22.63
   3  -3   9  255.87   20.37
   3  -3   9  311.30   34.85
  -3   3  -9  347.74   26.77
   7  -4   1  623.93   38.14
   7   4   1  555.61   54.28
  -7  -4  -1  534.04   31.69
   7  -4   1  607.70   35.84
  -7  -4  -1  574.77   34.88
   3   3 -12    9.95    7.14
   3   3 -12   16.59    8.01
  -3   3  12    9.18    9.30
   3  -3 -12   18.40    8.96
   3   3 -12   12.91   14.23
  -3  -3  12   14.17    8.89
   7  -4  -8    7.55   14.03
  -7  -4   8    7.47    6.09
  -7   4   8    3.32    6.51
   7   4  -8    8.04    7.45
  -7  -4   8   -0.78    7.04
   7  -4  -8    4.59    7.31
   0  -2  12  122.50   28.13
   0  -2 -12  109.39   16.04
   0  -2 -12  116.89   12.82
   0   2 -12  145.69   26.22
   0   2  12  121.31   16.92
   0  -2  12  121.36   25.88
   0  -2 -12  124.67   14.39
   0   2 -12   98.05   22.30
  -4  -3  -8    4.08   12.55
   4  -3   8    2.63    5.46
  -4   3  -8    2.39   12.79
  -4  -3  -8   10.50   11.77
   4  -3   8    2.43    8.78
   4  -3   8    4.99    8.80
   4   3   8    0.37    8.01
   0  -6   5  977.14   52.31
   0  -6  -5 1443.11   72.08
   0  -6  -5 1437.24   78.03
   4   3 -12  675.78   39.28
   4   3 -12  696.52   54.50
   4  -3 -12  784.69   41.03
  -4  -3  12  615.11   37.98
  -4   3  12  622.80   37.47
   4   3 -12  689.16   49.94
   0  -4  10  596.15   36.31
   0  -4 -10  666.40   54.47
   0  -4  10  608.34   34.65
   0   4 -10  640.29   36.72
   0   4  10  403.30   39.41
   0   4  10  609.80   38.98
  -9   0  -1    8.80    8.20
   9   0   1    7.48    6.31
  -9   0  -1    6.10    7.87
   6  -5   0  220.12   20.50
   6  -5   0  216.36   20.24
  -6  -5   0  125.05   12.98
  -6  -5   0  190.54   16.59
  -6  -5   0  217.53   29.14
   6   5   0  166.28   19.54
  -4  -6   2   28.28   10.77
   4  -6  -2    9.56    6.11
   4  -6  -2   19.47   12.87
  -4  -6   2   18.66   11.04
  -6  -5   6  616.72   39.42
  -6  -5   6  733.68   53.10
   6   5  -6  721.29   43.45
   6  -5  -6  766.30   46.74
   6  -5  -6  852.30   47.45
 -10   0   5    3.22    4.72
  10   0  -5    6.04    7.28
 -10   0   5   -1.72    6.58
  -9   0  10   10.46   14.78
  -9   0  10    8.03   12.88
   9   0 -10   10.67    5.71
   4  -6  -1  258.55   20.41
  -4  -6   1  295.64   24.44
  -4  -6   1  297.40   25.12
  -3  -6  -2  207.98   32.13
   3   6   2  144.82   17.76
   3  -6   2  111.41   10.88
  -3  -6  -2  174.58   17.53
   4  -6  -3  328.04   26.35
  -4  -6   3  398.05   43.35
   4  -6  -3  399.55   26.36
  -4  -6   3  400.78   40.97
   8   3   1  192.81   33.82
  -8   3  -1  165.19   25.74
  -8  -3  -1  202.91   31.80
  -8   3  -1  203.12   19.63
  -8  -3  -1  141.53   15.05
   8  -3   1  208.93   31.32
   2  -3  10 1046.54   73.15
   2  -3  10 1482.92   68.17
  -2   3 -10 1433.57   80.08
  -2   3 -10 1449.27   71.05
  -2  -3 -10 1365.24   65.63
   2   3  10 1420.74   69.06
  -2  -3 -10 1280.29   84.09
  -2  -3 -10 1643.98   74.14
  -3  -6   5   89.04   13.30
  -3  -6   5   60.30   11.47
   3   6  -5   11.93    8.18
   3  -6  -5  114.12   19.92
  -3   6   5   80.93   14.99
  10   0  -4   25.08   10.30
 -10   0   4   16.83    8.86
 -10   0   4   22.16   10.81
  -2  -3  12  147.69   14.35
   2  -3 -12  326.60   25.46
   2   3 -12  303.51   23.57
  -2   3  12  263.12   35.76
  -2  -3  12  272.40   22.15
   6   1   7  698.67   51.96
  -6   1  -7  757.67   40.52
   6  -1   7  836.86   60.37
   6  -1   7  923.72   48.93
  -6  -1  -7  859.80   45.51
   6   1   7  720.06   40.15
  -6  -1  -7  724.64   48.78
 -10   0   6   -1.36   10.28
  10   0  -6    1.28    8.87
  -8   3   9  183.89   17.43
   8  -3  -9  262.44   21.33
  -8  -3   9  277.85   22.18
  -8   3   9  248.37   37.77
   8   3  -9  197.61   25.76
  -8  -3   9  228.17   20.71
  -4  -2  -9  218.15   22.38
  -4   2  -9  200.45   26.93
   4   2   9  210.36   20.19
   4  -2   9  235.51   30.55
  -4  -2  -9  250.29   20.79
   4  -2   9  213.38   21.43
   3  -2  10  144.53   18.11
   3   2  10  148.54   18.01
  -3   2 -10  139.22   13.53
  -3  -2 -10  166.24   26.23
  -3   2 -10  114.69   13.70
   3  -2  10  132.89   22.93
  -3  -2 -10  158.44   18.39
  -1   1 -12  189.96   19.45
   1   1  12  194.31   19.38
  -1   1 -12  211.29   30.22
   1  -1  12  203.17   21.51
  -1  -1 -12  204.95   19.22
   1  -1  12  144.66   14.65
   1   1  12  160.00   18.08
  -1  -1 -12  199.58   21.53
  -1  -1  13  192.89   17.42
   1  -1 -13  258.21   23.65
   1   1 -13  267.74   21.07
   1   1 -13  254.35   23.07
  -1   1  13  232.10   31.93
  -1  -1  13  249.94   36.09
   1  -1 -13  252.64   19.72
  -1   1  13  194.41   17.34
   1  -1 -13  231.65   18.13
  -6  -1  13  570.95   35.31
  -6   1  13  530.91   34.08
  -6   1  13  531.90   34.69
   6  -1 -13  589.80   32.26
   6  -1 -13  415.06   27.45
   6   1 -13  641.68   37.74
   6   1 -13  642.13   35.10
  -6  -1  13  585.25   54.82
  -3   2  13  405.57   28.55
  -3  -2  13  423.75   29.46
   3  -2 -13  590.47   34.28
  -3  -2  13  463.51   30.93
   3   2 -13  489.16   28.86
   3   2 -13  530.98   49.44
   3   2 -13  495.52   29.21
  -4  -2  13  290.00   22.83
   4   2 -13  365.25   25.46
  -4  -2  13  323.66   26.47
  -4   2  13  244.07   19.31
   4   2 -13  325.93   21.69
   4   2 -13  390.31   29.73
   4  -2 -13  378.56   26.38
   8   4  -4    6.53   11.05
  -8  -4   4   31.74   12.43
  -8  -4   4   74.29   13.06
   8  -4  -4   44.89   18.32
  -8   4   4   57.07   13.71
   8  -4  -4   51.79   10.82
   8  -4  -3   61.34   11.57
   8  -4  -3   56.22   12.35
  -8  -4   3   28.71   17.40
  -8  -4   3   34.80   19.09
  -8   4   3   45.17   12.62
   8  -4  -5   31.96   10.22
  -8  -4   5   20.66   10.10
  -8   4   5   23.18   18.14
   8   4  -5    8.50    6.52
  -8  -4   5   24.79   16.69
   8  -4  -5   29.18    8.80
   5  -5   3   72.52   11.66
   5  -5   3  102.42   14.86
   5   5   3   86.94   15.94
  -5  -5  -3   91.27   22.50
  -5  -5  -3   76.62   19.10
  -9   1  -1  117.22   25.58
  -9   1  -1   95.71   15.90
  -9  -1  -1  100.70   15.57
  -9  -1  -1   86.21   12.17
   9  -1   1   80.99   18.23
   9   1   1  108.03   23.77
  -9  -1  -1  101.12   12.96
   9   3  -4   69.46   11.65
   9  -3  -4  103.85   24.06
  -9   3   4  112.24   27.01
  -9  -3   4   94.13   15.68
  -9   3   5   42.59   12.15
   9  -3  -5   54.03   13.00
  -9  -3   5   27.24   11.74
   2  -5   7  163.00   18.38
   2  -5   7  151.26   17.67
   2   5   7  162.51   31.59
  -2  -5  -7  139.97   14.54
  -2  -5  -7  177.72   28.95
   5  -3   7  231.71   19.07
  -5   3  -7  300.23   24.55
  -5  -3  -7  306.39   25.04
   5   3   7  197.99   15.93
  -5  -3  -7  299.23   23.23
   5  -3   7  301.93   21.70
   5  -3   7  263.10   18.85
   5  -5  -8  129.15   18.09
  -5  -5   8  121.38   16.25
  -5  -5   8  144.32   24.87
  -5   5   8  117.19   20.70
   5   5  -8  119.58   16.87
  -2  -5   9  278.36   22.20
  -2  -5   9  178.45   15.22
  -2   5   9  277.20   22.96
   2  -5  -9  299.78   37.12
   2  -5  -9  268.30   33.05
   2   5  -9  286.24   23.01
  -3  -5  -6  113.58   15.24
   3   5   6   98.81   16.54
  -3  -5  -6   97.28   13.48
  -3   5  -6   97.89   15.18
   3  -5   6  104.57   24.15
   4  -6   0  331.34   21.29
  -4  -6   0  382.03   42.11
  -4  -6   0  401.72   40.36
  -4  -6   4   96.50   18.03
  -4  -6   4  188.73   19.54
   4  -6  -4  171.10   18.94
  -4  -6   4  184.28   17.65
  10   1  -5  226.46   31.01
 -10   1   5  166.96   23.34
 -10   1   5  387.14   27.98
  10  -1  -5  259.65   22.53
 -10  -1   5  264.29   34.73
 -10  -1   5  219.39   21.40
  -9   1  10  417.92   42.64
  -9   1  10  398.82   28.67
  -9  -1  10  370.58   26.33
  -9  -1  10  248.83   20.10
  -9  -1  10  374.73   24.36
   3  -5  -9  213.10   27.28
   3   5  -9  280.70   22.32
  -3   5   9  261.45   39.59
   3  -5  -9  258.95   23.97
  -3  -5   9  251.23   22.77
  10   0  -3  227.32   21.17
 -10   0   3  227.26   35.27
 -10   0   3  217.66   31.74
   5   3 -12  430.76   42.08
  -5   3  12  353.48   34.91
   5   3 -12  392.26   33.57
  -5  -3  12  328.39   24.12
   5   3 -12  436.83   29.84
   5  -3 -12  416.55   25.87
  -3  -4  -8   74.79   17.52
   3   4   8   62.60   11.15
  -3  -4  -8   93.22   21.02
   3  -4   8   90.36   13.60
  -3   4  -8   88.04   14.34
  -3  -4  -8   33.91   14.71
  10   0  -7   97.83   13.19
 -10   0   7   99.60   16.69
   3   4 -11  303.63   22.75
   3  -4 -11  293.39   23.25
  -3   4  11  299.97   38.88
  -3  -4  11  216.01   20.21
  -3  -4  11  263.05   20.55
  -9   2   0 1017.49   66.80
  -9   2   0 1039.04   53.34
  -9  -2   0 1034.35   52.78
  -9  -2   0 1063.18   54.79
   9  -2   0  896.95   58.37
   9   2   0 1120.64   56.26
  10   1  -4  259.04   33.63
 -10  -1   4  258.89   21.45
 -10  -1   4  258.18   35.72
 -10   1   4  355.57   41.92
  10  -1  -4  287.73   24.13
 -10  -1   6  165.58   16.72
  10  -1  -6  206.05   19.41
 -10  -1   6  174.35   19.24
 -10   1   6  175.56   35.35
 -10   1   6  141.32   14.77
  10   1  -6  154.57   15.68
   5   2   8   22.03   12.53
  -5  -2  -8   17.90   17.71
  -5  -2  -8   35.61   14.55
   5  -2   8   10.91   16.05
  -5   2  -8   21.72    8.59
   5  -2   8   24.51    9.36
  -9   2   9  449.73   31.28
  -9   2   9  463.35   40.05
  -9  -2   9  328.92   33.57
  -9  -2   9  474.12   29.02
   9  -2  -9  476.17   39.55
  -9  -2   9  282.44   31.07
   2   2  11  228.14   21.24
   2  -2  11  167.42   21.39
  -2   2 -11  245.97   31.22
  -2  -2 -11  281.80   32.58
   2  -2  11  230.91   20.58
  -2  -2 -11  268.27   24.06
   7  -2   5  709.97   37.87
   7   2   5  478.29   28.96
  -7   2  -5  695.03   38.45
   7  -2   5  719.81   39.11
  -7  -2  -5  701.04   40.54
  -9   3   3   21.27    9.89
   9  -3  -3   31.34   15.23
   9  -3  -3   26.05   12.34
   9   3  -3   15.37    8.81
  -9  -3   3   18.88    9.76
  -9  -3   3   20.77   16.43
  -2   2  13    5.67    6.27
   2   2 -13   12.40   13.06
   2  -2 -13    7.93   10.70
   2   2 -13   12.07    7.39
  -2  -2  13    5.97   11.66
   2  -2 -13   13.27   13.44
  -2  -2  13    9.07   11.83
   5   2 -13  181.88   32.39
  -5  -2  13  158.19   18.14
  -5  -2  13  128.82   15.59
   5  -2 -13  177.27   17.61
   5   2 -13  193.81   29.76
  -2  -6  -4  171.30   14.84
   2   6   4  212.66   39.44
  -2  -6  -4  233.87   20.29
  -9  -3   6  171.31   31.66
  -9   3   6  197.19   21.52
  -9  -3   6  178.87   32.10
   9  -3  -6  215.47   21.39
  -2  -6   6  382.04   24.61
   2  -6  -6  414.87   30.96
   7   2 -12  272.17   24.25
  -7  -2  12  187.87   27.36
  -7  -2  12  172.44   27.01
  -7   2  12  232.02   21.23
  -7   2  12  192.44   17.95
   7   2 -12  232.37   20.48
   2   4   9   81.16   11.96
  -2  -4  -9   95.84   17.60
   2   4   9   71.75    9.77
  -2  -4  -9  102.11   11.97
  -2   4  -9   -0.18   12.52
   2  -4   9  104.74   22.80
  -1  -6  -5  194.96   32.97
   1   6   5  169.79   20.81
   1  -6   5  113.19   12.86
  -8  -4   2   28.48   14.74
   8  -4  -2   60.11   17.77
  -8   4   2   44.72   21.34
   8  -4  -2   45.92    9.07
  -8  -4   2   37.36   10.87
   8   4  -2   32.74    9.85
   1  -6  -6   61.46   15.11
   1  -6  -6   55.81   11.08
   6  -4   4   24.71   15.22
  -6  -4  -4   12.60    7.97
  -6  -4  -4   20.55    8.07
   6   4   4   21.72    9.52
   6  -4   4   20.50    9.43
  -6   4  -4   14.89    8.31
   4  -4   7   56.24   17.97
   4  -4   7   44.43    8.12
  -4   4  -7   35.46   20.78
   4   4   7   19.13   16.13
  -4  -4  -7   57.52   11.18
  -4  -4  -7   41.96    9.27
  -8   2  -3  123.35   24.85
  -8  -2  -3   88.09   10.82
   8  -2   3  121.21   14.81
   8  -2   3  139.93   15.93
  -8  -2  -3  133.09   15.70
   8   2   3  116.23   23.13
  -2   4  11    4.91    7.75
  -2  -4  11    3.18   10.76
   2  -4 -11    1.58    5.16
  -2  -4  11    7.33   11.00
   2   4 -11    0.25    8.59
   8   0   4 1112.68   72.84
  -8   0  -4 1079.59   54.43
  -8  -4   6  124.89   15.84
   8   4  -6   94.35   11.99
  -8  -4   6   99.20   26.38
   8  -4  -6  132.36   16.80
   8  -4  -6  126.18   14.30
  -8   4   6  129.01   17.87
   4  -4 -11   88.73   11.86
  -4  -4  11   87.44   12.64
   4   4 -11   81.68   12.93
   4   4 -11   85.53   21.70
  -4   4  11   81.16   15.14
  -4  -4  11   65.37   11.17
   6   4 -10  340.12   24.94
  -6  -4  10  336.94   36.97
  -6   4  10  346.47   27.94
   6   4 -10  319.91   20.58
   6  -4 -10  343.36   23.46
  -8  -2  11   57.46    8.85
   8   2 -11    0.25   12.62
  -8  -2  11   62.67   10.74
  -8   2  11   81.59   12.72
   8   2 -11   76.27    9.26
  -8   2  11  103.00   14.63
  -6  -5  -1  365.56   36.89
   6  -5   1  391.22   26.44
   6   5   1  314.12   26.31
  -6  -5  -1  326.35   20.76
   6  -5   1  391.48   25.90
  -8   0  12   99.34   27.07
   8   0 -12   92.81   11.83
  -8   0  12  104.78   17.13
  -6  -5   7  573.95   36.15
  -6  -5   7  617.23   33.31
   6  -5  -7  676.93   57.36
   6   5  -7  609.35   53.40
   1  -5   8  654.10   50.91
   1  -5   8  583.38   34.34
   1   5   8  618.28   40.41
  -1  -5  -8  704.52   40.22
  -1  -5   9  299.69   34.34
   1   5  -9  295.71   21.40
  -1   5   9  261.31   22.46
   1  -5  -9  268.45   24.05
   1  -5  -9  309.95   36.03
  -1  -5   9  213.36   18.33
  -1  -3 -11  540.65   45.05
  -1  -3 -11  706.16   47.09
   1   3  11  702.60   38.03
   1  -3  11  755.56   52.36
  -1  -3 -11  691.50   44.82
   1  -3  11  456.77   28.19
  -1   3 -11  589.36   34.14
  -1   3 -11  739.83   50.94
  -1   3  12  266.81   23.88
  -1  -3  12  256.43   35.56
   1   3 -12  286.85   34.00
   1  -3 -12  308.82   35.80
  -4  -5  -5  253.33   19.65
   4  -5   5  267.64   21.07
  -4  -5  -5  289.77   21.70
  -4   5  -5  233.17   31.40
   4   5   5  255.26   23.64
 -10   1   3  259.06   19.98
  10   1  -3  297.18   22.98
  10  -1  -3  333.25   24.42
 -10  -1   3  289.41   21.56
 -10   1   3  312.63   25.18
 -10  -1   3  301.91   24.22
 -10  -1   7  695.09   36.89
  10  -1  -7  773.25   40.64
 -10   1   7  612.70   35.51
 -10   1   7  798.70   42.49
 -10  -1   7  554.08   33.15
   4  -5  -9  162.32   18.14
   4   5  -9  137.86   15.01
  -4  -5   9  145.88   17.19
  -4   5   9  140.93   20.65
  -7  -3  -4  248.29   33.03
  -7  -3  -4  211.46   23.70
  -7   3  -4  236.91   31.77
   7   3   4  207.76   19.34
   7  -3   4  246.90   20.12
   7  -3   4  193.88   16.25
   7  -3   4  217.94   15.94
  -7  -4  -2 1061.37   50.81
   7   4   2 1158.98   58.72
   7  -4   2 1232.21   60.50
  -7  -4  -2 1120.48   70.47
   7  -4   2 1196.60   57.21
  -7   0  -6    0.94    6.07
   7   0   6    1.35    6.06
   7   0   6    4.50    4.92
   7   3 -11   49.96   11.98
   7   3 -11   63.93   13.40
  -7   3  11   36.78    9.77
  -7  -4   9  453.97   27.71
   7   4  -9  435.10   28.55
   7  -4  -9  510.62   32.12
  -7  -4   9  445.82   28.88
  -7   4   9  458.92   31.81
  -4  -6  -1   35.01   10.65
  -4  -6  -1   32.63   10.15
  -3  -6  -3   53.86   10.12
  -3  -6  -3   52.86   20.36
   3   6   3   67.61   13.95
  -4  -6   5   49.75   10.35
  -4   6   5   38.96   12.14
   4   6  -5   31.54   10.69
  -4  -6   5   37.38    8.38
   4  -6  -5   42.89   11.81
  -3  -6   6  103.03   21.60
  -3   6   6   91.45   14.27
  -3  -6   6   83.11   19.09
   3  -6  -6   96.72   25.99
 -10   0   2   59.79   12.62
 -10   0   2   50.39   12.16
  10   0  -2   53.94   11.27
   0   0  13 1289.64   80.28
   0   0 -13 1968.68  101.90
   0   0 -13 1913.84   91.26
   0   0  13 1889.92   85.68
   7   0 -13  533.64   42.59
   7   0 -13  534.64   28.85
  -7   0  13  568.52   34.88
  -7   0  13  591.01   37.23
 -10   0   8 1305.62   63.25
   9  -3  -2    3.06    4.56
   9  -3  -2    3.06    4.87
  -9  -3   2    0.96    5.37
  -9   3   2    1.84    5.20
   9   3  -2    3.34   10.02
  -9  -3   2    1.89    8.61
  -4   0 -10  629.58   49.42
  -4   0 -10  693.00   35.02
   4   0  10  719.85   39.75
   4   0  10  683.44   56.47
  -9   3   7  542.60   34.69
   9  -3  -7  568.91   34.56
  -9  -3   7  534.42   32.57
  -9  -3   7  461.33   30.44
  -4   0  14 1275.44   64.83
  -4   0  14 1576.08   73.01
   4   0 -14 1741.68   81.76
   4   0 -14 1721.19   95.17
  -8  -1  -4  311.50   32.24
  -8  -1  -4  314.14   21.09
  -8   1  -4  399.99   25.20
   8  -1   4  310.99   21.35
   8  -1   4  399.22   40.78
   0  -6  -6  321.60   24.27
   0   6   6    0.05   20.81
   0  -6   6  213.15   14.95
   3   0  11  168.06   17.19
  -3   0 -11  174.84   16.14
   3   0  11  162.13   18.25
  -3   0 -11  150.10   17.68
  -8   1  12   35.87   12.27
   8   1 -12   55.26   11.17
   8   1 -12   26.77   12.22
  -8  -1  12   26.87   18.93
  -8  -1  12   31.24   16.62
  -8   1  12   56.40   12.45
   3   0 -14   -2.26    9.09
   3   0 -14   -1.64    4.84
  -3   0  14   17.29   19.51
  -8  -4   1  155.11   16.70
  -8   4   1  160.94   19.52
   8   4  -1  119.01   15.56
   8  -4  -1  170.10   16.05
   8   4  -7   71.03   16.31
  -8  -4   7   89.43   14.59
  -8  -4   7   99.00   21.57
   8  -4  -7  108.17   12.69
  -8   4   7  102.39   15.01
   8  -4  -7   97.20   24.98
  -1  -4 -10  352.89   35.68
   1  -4  10  362.85   24.07
   1  -4  10  333.06   24.67
   1   4  10  308.21   23.59
  -1   4  11   20.73    9.32
  -1  -4  11   16.50    7.35
  -1  -4  11   14.14    8.58
   1   4 -11   14.20    7.70
   1  -4 -11   13.96   13.76
  -9   0  -2    7.55    6.56
  -9   0  -2    4.86    6.85
  -5  -4  -6   31.09   14.92
  -5  -4  -6   57.22   10.95
   5   4   6   44.62    9.54
   5  -4   6   20.59   13.87
  -5   4  -6   53.23   11.66
   5  -4   6   43.21   16.36
  -8   3  -2  294.88   31.81
   8  -3   2  338.50   34.63
   8   3   2  309.02   23.21
  -8  -3  -2  331.12   36.64
  -8   3  -2  326.31   22.39
   7  -5  -3   97.93   18.26
  -7   5   3  107.26   14.51
   7  -5  -3  145.92   24.45
   7   5  -3   90.67   12.15
  -7  -5   3   96.69   13.49
  -7  -5   4  109.52   20.23
  -7  -5   4  130.47   13.08
   7   5  -4  138.28   15.02
   7  -5  -4  164.58   16.94
   7  -5  -4  145.15   15.80
  -7   5   4  123.87   23.59
   6   3   6  180.29   21.34
  -6  -3  -6  274.01   21.74
  -6  -3  -6  259.47   19.52
   6  -3   6  187.70   15.34
   6  -3   6  278.07   29.27
  -6   3  -6  280.07   22.29
   5   0   9    5.41   11.00
   5   0   9    4.71   10.59
   7  -1   6  340.23   25.20
  -7   1  -6  316.38   21.82
  -7  -1  -6  295.74   21.52
   7  -1   6  299.44   33.23
   5   4 -11  365.32   32.96
  -5  -4  11  335.15   22.67
  -5   4  11  341.69   26.63
   5   4 -11  377.82   25.42
  -9   0  11    0.46    5.08
  -9   0  11    3.78    9.18
   6  -2   7  319.86   34.04
  -6   2  -7  290.24   32.14
  -6  -2  -7  306.83   23.59
  -6  -2  -7  276.47   18.74
   6  -2   7  294.62   35.80
  -8  -3  10  123.16   13.69
  -8   3  10  168.45   28.16
   8   3 -10  144.91   13.46
  -8  -3  10  175.68   17.18
   6   3 -12  423.07   40.75
   6   3 -12  446.88   29.53
  -6  -3  12  253.76   18.19
   5   0 -14 1076.21   66.78
  -5   0  14  962.44   67.43
  -5   0  14  878.44   61.13
   5   0 -14 1012.26   52.16
 -10   1   2   28.44    9.78
 -10   1   2   52.80   11.81
 -10  -1   2   41.78    9.04
 -10  -1   2   52.75   11.11
  10   1  -2   52.99   11.29
  10  -1  -2   55.22   11.43
   1  -2  12  156.08   26.57
  -1  -2 -12  154.81   22.39
  -1  -2 -12  154.82   16.94
   1   2  12  152.25   16.88
  -1   2 -12  160.93   15.75
   0   1  13  120.82   21.69
   0   1 -13  128.94   15.94
   0  -1  13  157.59   27.56
   0  -1 -13  166.41   21.45
   0   1 -13  156.12   15.09
   0   1  13  123.55   22.77
   0  -1 -13  146.03   27.02
   7   1 -13   72.39   11.33
   7   1 -13   84.23   13.67
  -7   1  13   55.44   19.94
  -7   1  13   71.11   13.04
  -7  -1  13   45.28   21.38
  -7  -1  13   60.81   12.67
  -1  -2  13  137.87   26.03
   1  -2 -13  132.79   14.68
   1   2 -13  185.00   16.24
   1  -2 -13  190.18   16.08
  -1   2  13  154.42   16.00
  -1  -2  13  156.49   16.22
   6   2 -13  195.09   19.55
  -6  -2  13  113.31   21.11
   6  -2 -13  146.01   20.78
   6   2 -13  195.51   27.96
  -6  -2  13  154.02   16.58
 -10   1   8  854.50   43.34
  10  -1  -8  753.16   49.26
 -10  -1   8  704.78   38.50
 -10   1   8  694.69   48.94
  -4  -1 -10  187.88   25.63
  -4  -1 -10  194.93   29.70
   4   1  10  195.97   28.47
   4  -1  10  183.54   17.60
   4  -1  10  184.31   18.98
  -4  -1  14  362.90   38.65
   4  -1 -14  309.62   22.19
   4  -1 -14  430.13   38.35
  -4   1  14  359.60   25.17
   4   1 -14  435.96   28.51
  -4  -1  14  358.95   38.78
   4   1 -14  425.36   25.71
  -7  -5   2  708.32   36.07
  -7   5   2  692.83   53.65
   7  -5  -2  812.28   43.11
   7  -5  -5   37.36   17.11
  -7  -5   5   21.20   13.52
  -7  -5   5   27.88    7.54
   7   5  -5   22.40    9.17
   7  -5  -5   41.59   10.39
   0   5   9  137.16   16.43
   0  -5  -9  177.34   18.06
   0  -5   9  167.92   16.30
   0  -5   9  134.93   22.46
  -3  -1 -11  141.27   16.95
  -3  -1 -11  154.66   14.86
  -3   1 -11  134.12   13.75
   3  -1  11  115.75   13.44
   3  -1  11  139.24   16.02
   3   1  11  128.51   16.09
  -5  -6   2  159.02   16.89
   5  -6  -2  180.03   23.83
  -5  -6   2  185.72   28.46
  -5  -6   3   63.23   12.56
  -5  -6   3   83.51   13.46
   5  -6  -3   73.19   11.94
   3   1 -14   32.11   19.03
   3   1 -14   44.36   14.55
   3  -1 -14   33.18   15.64
   3  -1 -14   51.85   10.36
  -3  -1  14   42.77    9.54
  -3   1  14   29.70   10.12
  -3  -1  14   58.24   11.24
  -9  -2  -1    4.51    5.23
  -9   2  -1    0.66    5.18
  -9   2  -1    2.65    8.70
  -9  -2  -1    1.52    7.56
   9   2   1   11.21    7.67
 -10  -2   5  647.02   43.90
 -10  -2   5  436.11   41.67
 -10   2   5  554.71   45.59
 -10   2   5  388.76   25.57
  10  -2  -5  474.39   29.49
  -9   2  10   21.05   15.09
  -9  -2  10   16.01    8.17
  -9   2  10   15.53    7.51
   5  -5   4   44.83    9.94
   5   5   4   22.63   18.41
  -5  -5  -4   26.90   14.55
   2   0  12  487.51   43.45
   2   0  12  455.95   27.73
  -2   0 -12  555.14   30.29
  -2   0 -12  488.99   44.99
  -9  -3   1  118.95   14.72
  -9  -3   1  100.37   20.05
  -9   3   1  117.70   13.13
   9   3  -1  120.99   23.81
   9  -3  -1  108.79   11.78
  -9   1  -2  337.09   24.56
  -9  -1  -2  318.81   22.75
  -9   1  -2  381.70   24.98
   9   1   2  277.97   18.15
  -2   0  14   26.12   16.56
   2   0 -14   26.59   15.91
   5   5  -9  130.48   14.91
  -5   5   9  138.76   18.54
   5  -5  -9  145.38   16.51
  -5  -5   9  126.85   24.86
  -9  -3   8   27.25   14.53
  -9   3   8   25.91   16.64
   9  -3  -8   23.07    9.18
  -9  -3   8   21.80    9.11
   6  -5   2  233.07   18.14
   6  -5   2  214.92   17.35
   6   5   2  194.60   19.49
  -6  -5  -2  223.14   18.12
   4   6   2  232.91   20.17
  -4  -6  -2  298.70   21.49
  -4  -6  -2  279.75   20.96
   5  -1   9  196.63   27.00
   5  -1   9  195.68   29.01
   5   1   9  180.08   17.09
  -5  -1  -9  206.85   28.99
  -5  -1  -9  190.31   15.08
   4   6  -6  197.05   26.45
   4  -6  -6  253.83   33.34
  -4  -6   6  132.15   13.12
  -4  -6   6  211.14   25.17
  -4   6   6  218.43   29.40
  10   0  -1  105.73   13.20
 -10   0   1  113.03   14.68
 -10   0   1  115.82   14.71
  10   2  -4  254.91   19.43
  10  -2  -4  322.97   22.29
 -10  -2   4  290.08   23.10
 -10  -2   4  316.55   21.96
 -10   2   4  313.01   23.29
  -9  -1  11  163.96   16.90
   9   1 -11  180.99   15.97
  -9   1  11  180.16   28.56
  -9   1  11  162.86   27.61
  -6  -5   8  247.46   32.56
   6   5  -8  296.52   22.81
  -6  -5   8  299.89   19.67
  -6   5   8  329.29   26.59
   6  -5  -8  330.98   24.80
 -10  -2   6   20.74   10.22
 -10   2   6   85.45   11.50
  10  -2  -6   40.63   17.52
 -10   2   6   22.52    9.45
 -10   0   9 1049.74   67.66
   5  -1 -14   15.05   13.08
   5   1 -14   26.67    8.56
   5   1 -14   13.14   15.97
  -5  -1  14   16.04    8.28
  -5   1  14   12.35    7.88
  -5  -1  14   16.84    8.46
   5  -6  -1   63.49    8.71
  -5  -6   1   75.79   12.33
  -5  -6   1   81.93   20.61
   5  -6  -4  110.27   11.79
   5  -6  -4  138.97   14.09
  -5  -6   4  142.19   15.33
   5   6  -4   72.51   14.56
   2   6   5  172.78   19.17
  -2  -6  -5  203.95   18.37
   2  -6  -7  453.55   45.03
  -2  -6   7  321.33   21.88
   2   6  -7  372.22   23.12
   0  -3 -12   98.30   19.55
   0   3  12   83.53   12.89
   0  -3  12   79.68   12.40
   0   3 -12   92.52   19.76
  -7   5   1  353.67   25.74
   7  -5  -1  364.73   24.44
  -7  -5   1  312.28   30.78
   8  -4   0   19.39    7.65
  -8   4   0   15.35    8.85
  -8  -4   0   17.37    7.53
   8   4   0   12.48    7.92
  -7  -5   6  390.65   25.71
   7  -5  -6  603.04   32.85
   7  -5  -6  584.38   48.35
   7   5  -6  461.45   28.46
   1   6   6    2.62    6.73
  -1  -6  -6    6.20   10.97
   1  -6  -7    8.15    8.12
  -1  -6   7    3.49    4.68
  -8  -4   8    5.21    9.56
  -8   4   8    7.60    5.54
  -8   4   8    5.44   10.47
   8  -4  -8   10.51    7.24
   8   4  -8    7.47    4.53
  -8  -4   8    3.14   10.74
   6   0   8  299.14   30.74
   6   0   8  306.12   22.15
   3   6   4  155.28   28.30
  -3  -6  -4  174.98   26.60
  10   2  -3  237.22   18.60
 -10   2   3  246.11   19.61
 -10  -2   3  231.54   19.73
 -10  -2   3  233.70   17.71
  10  -2  -3  259.89   18.96
   3   6  -7    2.50    9.40
   3  -6  -7  130.43   12.53
  -3  -6   7   87.18   11.37
  -6   0  14   80.31   13.57
   6   0 -14   96.49   18.81
  -6   0  14   79.93   12.43
   6   0 -14   79.45   10.94
  -2  -1 -12   90.85   13.63
  -2   1 -12   86.52   19.16
  -2  -1 -12   92.14   11.83
   2   1  12   74.53   12.37
   2  -1  12   88.97   12.99
  10  -2  -7  241.42   19.36
 -10  -2   7  194.00   25.54
 -10  -2   7  232.73   25.97
 -10   2   7  204.46   17.39
 -10   2   7  212.10   27.24
  -2  -1  14  125.61   15.54
   2   1 -14  134.12   14.53
   2  -1 -14  145.48   19.91
   2  -1 -14  117.19   13.54
   2   1 -14   97.36    9.69
 -10   1   1  206.95   17.68
 -10   1   1  225.14   19.15
 -10  -1   1  227.78   18.81
  10  -1  -1  188.43   14.76
  10   1  -1  200.68   16.57
  -3   5  -7  405.53   25.76
   3  -5   7  398.21   24.08
  -3  -5  -7  354.03   21.09
  -3  -5  -7  450.94   35.10
   3   5   7  361.97   24.89
  -4  -3  -9   55.53    9.86
  -4  -3  -9   58.99   10.10
  -4   3  -9   35.62   16.20
  -3   5  10  144.50   28.72
   3   5 -10  144.95   14.73
  -3  -5  10  179.73   16.34
 -10   1   9  202.55   29.15
  -3  -3 -10  158.98   21.56
  -3  -3 -10  215.52   16.08
   3   3  10  171.56   23.18
   7   4   3  351.78   24.48
   7  -4   3  399.77   23.35
  -7  -4  -3  319.75   19.59
  -7  -4  -3  334.25   20.85
;
_shelx_hkl_checksum              54115
loop_
_space_group_symop_operation_xyz
'x, y, z'
'-x, y+1/2, -z'
loop_
_atom_site_label
_atom_site_type_symbol
_atom_site_fract_x
_atom_site_fract_y
_atom_site_fract_z
_atom_site_U_iso_or_equiv
_atom_site_adp_type
_atom_site_occupancy
_atom_site_site_symmetry_order
_atom_site_calc_flag
_atom_site_refinement_flags_posn
_atom_site_refinement_flags_adp
O1 O 0.5202(2) 0.5623(3) 0.77950(15) 0.0300(4) Uani 1 1 d . .
O2 O 0.65093(19) 0.3504(3) 0.68615(14) 0.0250(4) Uani 1 1 d . .
O3 O 0.48038(19) -0.0731(3) 0.61798(16) 0.0289(5) Uani 1 1 d . .
H3H H 0.493(4) -0.192(8) 0.673(3) 0.057(11) Uiso 1 1 d . .
C1 C 0.6050(3) 0.3962(5) 0.7801(2) 0.0249(6) Uani 1 1 d . .
C2 C 0.6755(3) 0.2207(5) 0.8727(2) 0.0273(6) Uani 1 1 d . .
C3 C 0.6631(3) 0.2015(5) 0.9852(2) 0.0322(7) Uani 1 1 d . .
H3 H 0.6042 0.3121 1.0121 0.039 Uiso 1 1 calc R U
C4 C 0.7397(3) 0.0156(6) 1.0558(2) 0.0356(7) Uani 1 1 d . .
H4 H 0.7354 -0.0023 1.1334 0.043 Uiso 1 1 calc R U
C5 C 0.8235(3) -0.1460(6) 1.0136(2) 0.0343(7) Uani 1 1 d . .
H5 H 0.8749 -0.2732 1.0634 0.041 Uiso 1 1 calc R U
C6 C 0.8343(3) -0.1273(5) 0.9011(2) 0.0293(6) Uani 1 1 d . .
H6 H 0.8908 -0.2399 0.8733 0.035 Uiso 1 1 calc R U
C7 C 0.7594(3) 0.0624(5) 0.8306(2) 0.0247(5) Uani 1 1 d . .
C8 C 0.7419(3) 0.1303(5) 0.7040(2) 0.0232(5) Uani 1 1 d . .
C9 C 0.6333(3) -0.0365(5) 0.6077(2) 0.0259(6) Uani 1 1 d . .
H9A H 0.6159 0.0277 0.5272 0.031 Uiso 1 1 calc R U
H9B H 0.6901 -0.1869 0.6149 0.031 Uiso 1 1 calc R U
C10 C 0.9009(3) 0.1717(5) 0.6836(2) 0.0231(5) Uani 1 1 d . .
C11 C 0.9250(3) 0.3714(5) 0.6272(2) 0.0255(5) Uani 1 1 d . .
H11 H 0.8426 0.4872 0.6030 0.031 Uiso 1 1 calc R U
C12 C 1.0689(3) 0.4031(5) 0.6060(2) 0.0275(6) Uani 1 1 d . .
H12 H 1.0846 0.5408 0.5681 0.033 Uiso 1 1 calc R U
C13 C 1.1890(3) 0.2350(5) 0.6397(2) 0.0279(6) Uani 1 1 d . .
H13 H 1.2874 0.2574 0.6256 0.034 Uiso 1 1 calc R U
C14 C 1.1649(3) 0.0334(5) 0.6942(2) 0.0281(6) Uani 1 1 d . .
H14 H 1.2469 -0.0830 0.7169 0.034 Uiso 1 1 calc R U
C15 C 1.0217(3) 0.0007(5) 0.7157(2) 0.0259(6) Uani 1 1 d . .
H15 H 1.0058 -0.1384 0.7524 0.031 Uiso 1 1 calc R U
loop_
_atom_site_aniso_label
_atom_site_aniso_U_11
_atom_site_aniso_U_22
_atom_site_aniso_U_33
_atom_site_aniso_U_23
_atom_site_aniso_U_13
_atom_site_aniso_U_12
O1 0.0303(9) 0.0258(11) 0.0399(9) -0.0017(9) 0.0198(8) 0.0017(8)
O2 0.0273(8) 0.0238(10) 0.0264(8) 0.0010(7) 0.0129(7) 0.0049(7)
O3 0.0222(8) 0.0315(12) 0.0338(10) -0.0002(8) 0.0111(7) -0.0008(8)
C1 0.0212(11) 0.0265(16) 0.0295(12) -0.0032(11) 0.0122(9) -0.0034(11)
C2 0.0225(12) 0.0329(16) 0.0264(12) -0.0020(11) 0.0088(10) -0.0057(10)
C3 0.0298(13) 0.0415(18) 0.0284(13) -0.0030(12) 0.0144(11) -0.0039(12)
C4 0.0324(13) 0.051(2) 0.0245(12) 0.0039(12) 0.0114(10) -0.0078(13)
C5 0.0269(12) 0.0446(18) 0.0292(13) 0.0112(13) 0.0075(10) -0.0025(13)
C6 0.0237(11) 0.0329(15) 0.0309(12) 0.0047(12) 0.0094(10) 0.0008(11)
C7 0.0204(11) 0.0286(14) 0.0247(11) -0.0004(11) 0.0078(9) -0.0050(11)
C8 0.0231(11) 0.0211(13) 0.0259(12) 0.0029(10) 0.0096(9) 0.0050(10)
C9 0.0237(11) 0.0288(14) 0.0267(11) 0.0004(10) 0.0110(9) 0.0032(10)
C10 0.0231(12) 0.0254(14) 0.0215(11) -0.0021(10) 0.0092(9) 0.0002(10)
C11 0.0264(11) 0.0244(14) 0.0267(12) 0.0014(11) 0.0110(9) 0.0032(11)
C12 0.0296(12) 0.0271(16) 0.0275(12) 0.0007(11) 0.0126(10) -0.0013(11)
C13 0.0212(11) 0.0379(16) 0.0267(12) -0.0026(11) 0.0111(10) -0.0024(11)
C14 0.0246(11) 0.0321(15) 0.0275(12) -0.0009(11) 0.0095(9) 0.0049(11)
C15 0.0284(12) 0.0237(15) 0.0266(12) 0.0021(10) 0.0111(10) 0.0008(10)
loop_
_atom_type_symbol
_atom_type_description
_atom_type_scat_dispersion_real
_atom_type_scat_dispersion_imag
_atom_type_scat_source
C C 0.0181 0.0091 'International Tables Vol C Tables 4.2.6.8 and 6.1.1.4'
H H 0.0000 0.0000 'International Tables Vol C Tables 4.2.6.8 and 6.1.1.4'
O O 0.0492 0.0322 'International Tables Vol C Tables 4.2.6.8 and 6.1.1.4'
loop_
_geom_angle_atom_site_label_1
_geom_angle_atom_site_label_2
_geom_angle_atom_site_label_3
_geom_angle
C1 O2 C8 111.06(18)
C9 O3 H3H 108(2)
O1 C1 O2 121.3(2)
O1 C1 C2 130.0(2)
O2 C1 C2 108.7(2)
C7 C2 C3 122.8(3)
C7 C2 C1 108.5(2)
C3 C2 C1 128.7(2)
C4 C3 C2 117.4(3)
C4 C3 H3 121.3
C2 C3 H3 121.3
C3 C4 C5 120.2(2)
C3 C4 H4 119.9
C5 C4 H4 119.9
C6 C5 C4 122.2(3)
C6 C5 H5 118.9
C4 C5 H5 118.9
C5 C6 C7 117.7(3)
C5 C6 H6 121.2
C7 C6 H6 121.2
C2 C7 C6 119.8(2)
C2 C7 C8 108.7(2)
C6 C7 C8 131.4(2)
O2 C8 C7 102.63(19)
O2 C8 C10 108.9(2)
C7 C8 C10 115.93(19)
O2 C8 C9 105.93(18)
C7 C8 C9 113.3(2)
C10 C8 C9 109.43(19)
O3 C9 C8 112.29(19)
O3 C9 H9A 109.1
C8 C9 H9A 109.1
O3 C9 H9B 109.1
C8 C9 H9B 109.1
H9A C9 H9B 107.9
C11 C10 C15 118.9(2)
C11 C10 C8 121.3(2)
C15 C10 C8 119.7(2)
C10 C11 C12 120.5(2)
C10 C11 H11 119.7
C12 C11 H11 119.7
C13 C12 C11 120.3(3)
C13 C12 H12 119.8
C11 C12 H12 119.8
C12 C13 C14 119.6(2)
C12 C13 H13 120.2
C14 C13 H13 120.2
C13 C14 C15 120.4(2)
C13 C14 H14 119.8
C15 C14 H14 119.8
C14 C15 C10 120.3(2)
C14 C15 H15 119.9
C10 C15 H15 119.9
loop_
_geom_bond_atom_site_label_1
_geom_bond_atom_site_label_2
_geom_bond_distance
O1 C1 1.213(3)
O2 C1 1.354(3)
O2 C8 1.475(3)
O3 C9 1.413(3)
O3 H3H 0.93(4)
C1 C2 1.462(4)
C2 C7 1.381(4)
C2 C3 1.395(3)
C3 C4 1.380(4)
C3 H3 0.9500
C4 C5 1.394(4)
C4 H4 0.9500
C5 C6 1.388(3)
C5 H5 0.9500
C6 C7 1.393(4)
C6 H6 0.9500
C7 C8 1.517(3)
C8 C10 1.526(3)
C8 C9 1.538(3)
C9 H9A 0.9900
C9 H9B 0.9900
C10 C11 1.391(4)
C10 C15 1.398(3)
C11 C12 1.393(3)
C11 H11 0.9500
C12 C13 1.382(4)
C12 H12 0.9500
C13 C14 1.388(4)
C13 H13 0.9500
C14 C15 1.390(3)
C14 H14 0.9500
C15 H15 0.9500
loop_
_geom_hbond_atom_site_label_D
_geom_hbond_atom_site_label_H
_geom_hbond_atom_site_label_A
_geom_hbond_distance_DH
_geom_hbond_distance_HA
_geom_hbond_distance_DA
_geom_hbond_angle_DHA
_geom_hbond_site_symmetry_A
O3 H3H O1 0.93(4) 1.87(4) 2.792(3) 178(4) 1_545
loop_
_geom_torsion_atom_site_label_1
_geom_torsion_atom_site_label_2
_geom_torsion_atom_site_label_3
_geom_torsion_atom_site_label_4
_geom_torsion
C8 O2 C1 O1 -175.5(2)
C8 O2 C1 C2 5.3(2)
O1 C1 C2 C7 178.4(2)
O2 C1 C2 C7 -2.5(3)
O1 C1 C2 C3 -0.4(4)
O2 C1 C2 C3 178.8(2)
C7 C2 C3 C4 0.3(4)
C1 C2 C3 C4 179.0(2)
C2 C3 C4 C5 -0.9(4)
C3 C4 C5 C6 0.3(4)
C4 C5 C6 C7 0.7(4)
C3 C2 C7 C6 0.7(4)
C1 C2 C7 C6 -178.1(2)
C3 C2 C7 C8 177.6(2)
C1 C2 C7 C8 -1.3(3)
C5 C6 C7 C2 -1.2(4)
C5 C6 C7 C8 -177.3(3)
C1 O2 C8 C7 -5.8(2)
C1 O2 C8 C10 -129.15(19)
C1 O2 C8 C9 113.3(2)
C2 C7 C8 O2 4.1(2)
C6 C7 C8 O2 -179.5(2)
C2 C7 C8 C10 122.6(2)
C6 C7 C8 C10 -61.0(4)
C2 C7 C8 C9 -109.6(2)
C6 C7 C8 C9 66.8(3)
O2 C8 C9 O3 -59.8(3)
C7 C8 C9 O3 51.9(3)
C10 C8 C9 O3 -177.1(2)
O2 C8 C10 C11 -15.0(3)
C7 C8 C10 C11 -130.0(3)
C9 C8 C10 C11 100.4(3)
O2 C8 C10 C15 168.7(2)
C7 C8 C10 C15 53.6(3)
C9 C8 C10 C15 -76.0(3)
C15 C10 C11 C12 -1.6(3)
C8 C10 C11 C12 -178.0(2)
C10 C11 C12 C13 0.6(4)
C11 C12 C13 C14 0.4(4)
C12 C13 C14 C15 -0.5(4)
C13 C14 C15 C10 -0.5(4)
C11 C10 C15 C14 1.6(3)
C8 C10 C15 C14 178.1(2)
