#------------------------------------------------------------------------------
#$Date: 2017-03-04 06:35:40 +0200 (Sat, 04 Mar 2017) $
#$Revision: 193043 $
#$URL: file:///home/coder/svn-repositories/cod/cif/4/12/56/4125646.cif $
#------------------------------------------------------------------------------
#
# This file is available in the Crystallography Open Database (COD),
# http://www.crystallography.net/
#
# All data on this site have been placed in the public domain by the
# contributors.
#
data_4125646
loop_
_publ_author_name
'Darzi, Evan R.'
'White, Brittany M.'
'Loventhal, Lance K.'
'Zakharov, Lev N.'
'Jasti, Ramesh'
_publ_section_title
;
 An Operationally Simple and Mild Oxidative Homocoupling of Aryl Boronic
 Esters To Access Conformationally Constrained Macrocycles.
;
_journal_issue                   8
_journal_name_full               'Journal of the American Chemical Society'
_journal_page_first              3106
_journal_page_last               3114
_journal_paper_doi               10.1021/jacs.6b12658
_journal_volume                  139
_journal_year                    2017
_chemical_formula_sum            'C30 H28 Cl2 O4'
_chemical_formula_weight         523.42
_chemical_name_systematic
;
 ?
;
_space_group_crystal_system      triclinic
_space_group_IT_number           2
_space_group_name_Hall           '-P 1'
_space_group_name_H-M_alt        'P -1'
_symmetry_space_group_name_Hall  '-P 1'
_symmetry_space_group_name_H-M   'P -1'
_atom_sites_solution_hydrogens   difmap
_audit_creation_method           SHELXL-2013
_cell_angle_alpha                115.281(7)
_cell_angle_beta                 101.865(8)
_cell_angle_gamma                93.508(8)
_cell_formula_units_Z            1
_cell_length_a                   6.7057(7)
_cell_length_b                   10.4349(10)
_cell_length_c                   10.4710(11)
_cell_measurement_reflns_used    2164
_cell_measurement_temperature    173(2)
_cell_measurement_theta_max      66.50
_cell_measurement_theta_min      4.75
_cell_volume                     639.11(12)
_computing_cell_refinement       'Bruker SAINT'
_computing_data_collection       'Bruker APEX2'
_computing_data_reduction        'Bruker SAINT'
_computing_molecular_graphics    'Bruker SHELXTL'
_computing_publication_material  'Bruker SHELXTL'
_computing_structure_refinement  'SHELXL-2013 (Sheldrick 2013)'
_computing_structure_solution    'SHELXS-97 (Sheldrick 2008)'
_diffrn_ambient_temperature      173(2)
_diffrn_measured_fraction_theta_full 0.961
_diffrn_measured_fraction_theta_max 0.983
_diffrn_measurement_device_type  'Bruker APEX-II CCD'
_diffrn_measurement_method       '\f and \w scans'
_diffrn_radiation_type           CuK\a
_diffrn_radiation_wavelength     1.54178
_diffrn_reflns_av_R_equivalents  0.0428
_diffrn_reflns_av_unetI/netI     0.0450
_diffrn_reflns_Laue_measured_fraction_full 0.961
_diffrn_reflns_Laue_measured_fraction_max 0.983
_diffrn_reflns_limit_h_max       7
_diffrn_reflns_limit_h_min       -7
_diffrn_reflns_limit_k_max       12
_diffrn_reflns_limit_k_min       -12
_diffrn_reflns_limit_l_max       12
_diffrn_reflns_limit_l_min       -11
_diffrn_reflns_number            6284
_diffrn_reflns_point_group_measured_fraction_full 0.961
_diffrn_reflns_point_group_measured_fraction_max 0.983
_diffrn_reflns_theta_full        67.679
_diffrn_reflns_theta_max         66.686
_diffrn_reflns_theta_min         4.754
_diffrn_source                   'Incoatec I\mS'
_exptl_absorpt_coefficient_mu    2.568
_exptl_absorpt_correction_T_max  0.7528
_exptl_absorpt_correction_T_min  0.6256
_exptl_absorpt_correction_type   multi-scan
_exptl_absorpt_process_details   SADABS
_exptl_crystal_colour            colorless
_exptl_crystal_density_diffrn    1.360
_exptl_crystal_description       cut-block
_exptl_crystal_F_000             274
_exptl_crystal_size_max          0.160
_exptl_crystal_size_mid          0.050
_exptl_crystal_size_min          0.030
_refine_diff_density_max         0.243
_refine_diff_density_min         -0.185
_refine_diff_density_rms         0.051
_refine_ls_extinction_method     none
_refine_ls_goodness_of_fit_ref   1.049
_refine_ls_hydrogen_treatment    refall
_refine_ls_matrix_type           full
_refine_ls_number_parameters     219
_refine_ls_number_reflns         2221
_refine_ls_number_restraints     0
_refine_ls_restrained_S_all      1.049
_refine_ls_R_factor_all          0.0556
_refine_ls_R_factor_gt           0.0428
_refine_ls_shift/su_max          0.000
_refine_ls_shift/su_mean         0.000
_refine_ls_structure_factor_coef Fsqd
_refine_ls_weighting_details
'w=1/[\s^2^(Fo^2^)+(0.0599P)^2^+0.2124P] where P=(Fo^2^+2Fc^2^)/3'
_refine_ls_weighting_scheme      calc
_refine_ls_wR_factor_gt          0.1104
_refine_ls_wR_factor_ref         0.1178
_reflns_Friedel_coverage         0.000
_reflns_number_gt                1771
_reflns_number_total             2221
_reflns_threshold_expression     'I > 2\s(I)'
_cod_data_source_file            ja6b12658_si_003.cif
_cod_data_source_block           cu_jasti58_0m
_cod_depositor_comments
;
The following automatic conversions were performed:

'_exptl_absorpt_correction_type' value 'Multi-scan' changed to
'multi-scan' according to
/home/data/users/saulius/crontab/automatic-downloads/current/ACS/lib/dictionaries/cif_core.dic
dictionary named 'cif_core.dic' version 2.4.2 from 2011-04-26.

Automatic conversion script
Id: cif_fix_values 4973 2017-02-22 13:04:09Z antanas 
;
_cod_original_cell_volume        639.10(12)
_cod_database_code               4125646
_shelx_space_group_comment
;
The symmetry employed for this shelxl refinement is uniquely defined
by the following loop, which should always be used as a source of
symmetry information in preference to the above space-group names.
They are only intended as comments.
;
_shelx_estimated_absorpt_t_min   0.684
_shelx_estimated_absorpt_t_max   0.927
_shelxl_version_number           2013-4
_shelx_res_file
;
TITL cu_jasti58_0m in P-1
CELL 1.54178 6.7057 10.4349 10.4710 115.281 101.865 93.508
ZERR 1.00 0.0007 0.0010 0.0011 0.007 0.008 0.008
LATT 1
SFAC C  H  O  Cl
UNIT 30  28  4  2
L.S. 8
ACTA
BOND $H
FMAP 2
PLAN 20
CONF
HTAB
EQIV $1 -x+2, -y+1, -z+1
HTAB C12 O2_$1
EQIV $2 x-1, y+1, z
HTAB C14 Cl1_$2
SIZE 0.030 0.050 0.160
TEMP -100.000
WGHT    0.059900    0.212400
FVAR       0.32073
CL1   4    0.679641    0.021420    0.201455    11.00000    0.05562    0.02606 =
         0.04697    0.01434    0.00637    0.00754
O1    3    0.125321    0.810769    0.174965    11.00000    0.03608    0.02467 =
         0.03252    0.01231    0.00898    0.00850
O2    3    0.757319    0.724087    0.454430    11.00000    0.02606    0.02495 =
         0.03110    0.00830   -0.00419   -0.00154
C1    1    0.056865    0.552723    0.047139    11.00000    0.02153    0.02505 =
         0.02812    0.01265    0.00668    0.00509
C2    1    0.205449    0.682590    0.162886    11.00000    0.02319    0.02029 =
         0.02524    0.00917    0.00413    0.00298
C3    1    0.219699    0.686694    0.310025    11.00000    0.02437    0.02511 =
         0.02661    0.00904    0.01137    0.00331
C4    1    0.384680    0.665964    0.386772    11.00000    0.03118    0.02632 =
         0.02077    0.00889    0.00670    0.00073
C5    1    0.579304    0.634320    0.337752    11.00000    0.02392    0.02467 =
         0.02448    0.00903    0.00078    0.00040
C6    1    0.576199    0.655776    0.203770    11.00000    0.01989    0.02298 =
         0.02510    0.00840    0.00548    0.00071
C7    1    0.411508    0.676865    0.126732    11.00000    0.02599    0.02180 =
         0.02033    0.00818    0.00695   -0.00098
C8    1    0.606310    0.479206    0.303708    11.00000    0.02841    0.02658 =
         0.01882    0.00896    0.00344    0.00390
C9    1    0.437607    0.370168    0.235361    11.00000    0.03010    0.03016 =
         0.03806    0.01394    0.00024    0.00110
C10   1    0.458962    0.229480    0.202039    11.00000    0.03417    0.02780 =
         0.03364    0.00914   -0.00288   -0.00552
C11   1    0.653974    0.197899    0.238624    11.00000    0.04194    0.02545 =
         0.02476    0.00897    0.00797    0.00332
C12   1    0.826266    0.304235    0.305503    11.00000    0.03188    0.03501 =
         0.03029    0.01557    0.00745    0.00846
C13   1    0.801272    0.445080    0.337788    11.00000    0.02602    0.03086 =
         0.03304    0.01565    0.00649   -0.00005
C14   1    0.097537    0.834381    0.049441    11.00000    0.03891    0.03768 =
         0.04288    0.02236    0.00608    0.00922
C15   1    0.759385    0.875082    0.505528    11.00000    0.04111    0.02814 =
         0.04660    0.01112   -0.00775   -0.00392
H3    2    0.104493    0.706655    0.346006    11.00000    0.02653
H4    2    0.386861    0.666134    0.478282    11.00000    0.04056
H6    2    0.697525    0.647123    0.173898    11.00000    0.02173
H7    2    0.414264    0.683708    0.043712    11.00000    0.02113
H9    2    0.301559    0.392683    0.211593    11.00000    0.03920
H10   2    0.348891    0.157673    0.156180    11.00000    0.04617
H12   2    0.961928    0.281180    0.340272    11.00000    0.01667
H13   2    0.918733    0.520648    0.387101    11.00000    0.02638
H14A  2    0.020088    0.739254   -0.041433    11.00000    0.07028
H14B  2    0.232795    0.857036    0.033305    11.00000    0.05133
H14C  2    0.014620    0.913902    0.066105    11.00000    0.05668
H15A  2    0.751132    0.901091    0.425493    11.00000    0.05922
H15B  2    0.646958    0.905257    0.541439    11.00000    0.06943
H15C  2    0.900315    0.926662    0.584668    11.00000    0.03880
HKLF 4 1 1 0 0 0 1 0 0 0 1

REM  cu_jasti58_0m in P-1
REM R1 =  0.0428 for    1771 Fo > 4sig(Fo)  and  0.0556 for all    2221 data
REM    219 parameters refined using      0 restraints

END

WGHT      0.0562      0.2429

REM Instructions for potential hydrogen bonds
HTAB C12 O2_$1
HTAB C14 Cl1_$2

REM Highest difference peak  0.243,  deepest hole -0.185,  1-sigma level  0.051
Q1    1   0.5898  0.5523  0.3215  11.00000  0.05    0.24
Q2    1   1.0585  0.8677  0.6593  11.00000  0.05    0.24
Q3    1   0.2341  0.6799  0.2425  11.00000  0.05    0.23
Q4    1   0.4764  0.6507  0.3646  11.00000  0.05    0.23
Q5    1   0.8440  0.0541  0.2235  11.00000  0.05    0.21
Q6    1   0.8456  0.6462  0.5312  11.00000  0.05    0.21
Q7    1   0.3348  0.7419  0.3808  11.00000  0.05    0.19
Q8    1   0.3074  0.6723  0.1483  11.00000  0.05    0.18
Q9    1   0.7577  0.2401  0.2173  11.00000  0.05    0.17
Q10   1   0.3127  0.3755  0.1388  11.00000  0.05    0.17
Q11   1   0.9134  0.7043  0.4386  11.00000  0.05    0.17
Q12   1   0.5833  0.4238  0.2392  11.00000  0.05    0.17
Q13   1   0.6647  0.1201  0.2355  11.00000  0.05    0.17
Q14   1   0.6733  0.4775  0.3606  11.00000  0.05    0.17
Q15   1   0.5610  0.2212  0.3050  11.00000  0.05    0.16
Q16   1   1.0844  0.9885  0.6197  11.00000  0.05    0.16
Q17   1   0.6604  0.6837  0.3911  11.00000  0.05    0.16
Q18   1   0.7824  0.0269  0.1313  11.00000  0.05    0.16
Q19   1   0.3467  0.3399  0.3327  11.00000  0.05    0.16
Q20   1   0.2931  0.6229  0.3187  11.00000  0.05    0.16
;
_shelx_res_checksum              13778
_shelx_hkl_file
;
  -1   0   0  132.69    4.90
  -1   0   0  126.92    5.84
  -1   0   0  136.39    5.97
  -1   0   0  130.43    5.83
  -1   0   0  145.92    5.83
   1   0   0  124.35    5.82
   1   0   0  130.26    4.90
  -2   0   0   71.32    2.61
  -2   0   0   69.13    3.27
  -2   0   0   65.59    3.14
   2   0   0   68.86    3.15
  -3   0   0    0.04    0.26
  -3   0   0    0.57    0.25
  -4   0   0   11.03    0.85
  -4   0   0   11.28    0.94
  -5   0   0   11.86    0.94
   5   0   0   12.67    0.83
   5   0   0   13.44    0.92
   5   0   0   11.87    0.94
  -6   0   0    8.22    0.80
   6   0   0    8.48    0.86
   6   0   0    9.69    0.89
  -7   0   0    0.31    0.32
   7   0   0    0.31    0.37
  -7   1   0    0.44    0.34
   6  -1   0    1.12    0.35
   6  -1   0    1.28    0.47
   6  -1   0    0.52    0.41
  -6   1   0    1.20    0.43
   5  -1   0    4.24    0.58
   5  -1   0    1.98    0.40
   5  -1   0    2.11    0.37
  -5   1   0    2.29    0.44
  -4   1   0    2.69    0.56
  -4   1   0    3.13    0.48
   3  -1   0    8.21    0.63
  -3   1   0    7.78    0.52
  -3   1   0    8.11    0.63
  -3   1   0    7.83    0.66
   2  -1   0  290.62   12.95
  -2   1   0  302.64   12.96
  -2   1   0  286.96   10.95
  -2   1   0  298.12   13.25
   1  -1   0   54.18    2.43
  -1   1   0   49.28    2.42
  -1   1   0   56.69    2.06
   0  -1   0   45.32    1.99
   0  -1   0   46.57    2.01
   0   1   0   44.79    2.00
   0   1   0   42.79    1.66
   0   1   0   39.45    1.99
  -1  -1   0  161.58    7.83
  -1  -1   0  197.97    8.16
  -1  -1   0  201.67    8.36
   1   1   0  192.09    8.17
   1   1   0  176.63    8.23
  -2  -1   0    1.32    0.24
  -2  -1   0    1.68    0.33
   2   1   0    1.19    0.24
   2   1   0    1.15    0.13
  -3  -1   0   72.12    3.65
  -3  -1   0   85.00    3.87
  -4  -1   0    3.38    0.49
  -4  -1   0    2.70    0.55
  -5  -1   0  139.09    6.90
   5   1   0  150.75    6.46
   5   1   0  149.65    6.58
   5   1   0  136.57    6.35
   5   1   0  144.51    6.73
  -6  -1   0   39.19    2.20
   6   1   0   41.86    2.20
   6   1   0   40.29    2.18
   7   1   0    0.41    0.35
  -7   2   0    0.36    0.34
   6  -2   0   51.12    2.70
   6  -2   0   51.31    2.57
  -6   2   0   54.93    2.79
   5  -2   0    6.67    0.70
   5  -2   0    6.33    0.63
  -5   2   0    5.12    0.63
  -4   2   0   12.30    1.05
  -4   2   0   13.04    0.97
   3  -2   0   17.36    1.04
  -3   2   0   14.57    1.04
  -3   2   0   15.66    1.00
  -3   2   0   15.96    0.87
   2  -2   0   11.49    0.74
  -2   2   0   12.31    0.77
  -2   2   0   10.56    0.64
   1  -2   0    5.18    0.46
  -1   2   0    4.90    0.47
  -1   2   0    5.55    0.40
   0  -2   0  105.63    4.62
   0  -2   0   87.60    4.56
   0   2   0  106.86    3.84
   0   2   0  106.58    4.60
  -1  -2   0    8.48    0.60
  -1  -2   0    8.73    0.58
   1   2   0    8.30    0.61
   1   2   0    9.58    0.59
  -2  -2   0   14.72    0.93
  -2  -2   0   14.78    0.85
   2   2   0   13.55    0.87
   2   2   0   13.94    0.77
  -3  -2   0  194.95    8.59
  -3  -2   0  185.77    8.86
  -4  -2   0    1.58    0.41
  -4  -2   0    1.69    0.49
   4   2   0    1.43    0.38
   4   2   0    1.66    0.49
  -5  -2   0    9.74    0.84
   5   2   0    9.26    0.80
   5   2   0    8.54    0.83
   5   2   0    8.91    0.87
  -6  -2   0    3.01    0.51
   6   2   0    3.88    0.68
   7   2   0    0.42    0.34
   7  -3   0   -0.10    0.31
  -7   3   0    0.55    0.36
   6  -3   0    0.42    0.41
   6  -3   0    0.31    0.34
  -6   3   0    0.44    0.41
   5  -3   0    6.53    0.69
   5  -3   0    5.09    0.59
  -5   3   0    6.62    0.72
  -4   3   0    1.50    0.37
  -4   3   0    1.86    0.49
  -4   3   0    1.02    0.38
   3  -3   0   30.66    1.72
  -3   3   0   29.32    1.73
  -3   3   0   30.52    1.49
  -3   3   0   32.77    1.76
   2  -3   0   20.86    1.26
  -2   3   0   22.72    1.07
  -2   3   0   21.59    1.28
  -1   3   0  170.65    6.36
  -1   3   0  164.31    7.54
   0  -3   0  185.13    8.03
   0  -3   0  179.77    8.11
   0   3   0  166.62    8.02
   0   3   0  183.93    6.74
  -1  -3   0  133.54    6.38
  -1  -3   0  152.12    6.30
   1   3   0  137.01    6.34
   1   3   0  139.77    6.31
   1   3   0  132.32    5.20
  -2  -3   0   25.70    1.49
  -2  -3   0   24.22    1.41
   2   3   0   26.90    1.37
  -3  -3   0    0.28    0.32
  -3  -3   0    0.08    0.24
   4   3   0    8.38    0.62
   4   3   0    7.98    0.76
   4   3   0    8.88    0.80
   4   3   0    7.36    0.70
  -5  -3   0   15.88    1.19
   5   3   0   17.92    1.23
   5   3   0   19.43    1.31
   5   3   0   19.58    1.23
   6   3   0   -0.45    0.46
   7   3   0    4.28    0.49
  -7   4   0    9.27    0.83
   6  -4   0    4.33    0.58
   6  -4   0    3.69    0.59
  -6   4   0    4.05    0.63
   5  -4   0    4.74    0.64
   5  -4   0    2.94    0.50
  -5   4   0    5.14    0.67
   4  -4   0    8.26    0.69
   4  -4   0    7.71    0.70
  -4   4   0    6.40    0.69
  -4   4   0    8.92    0.87
  -4   4   0    8.48    0.78
   3  -4   0   58.26    3.05
  -3   4   0   50.34    3.01
  -3   4   0   66.39    2.65
  -3   4   0   62.00    3.02
   2  -4   0    0.80    0.34
  -2   4   0    1.09    0.36
  -2   4   0    0.96    0.27
  -1   4   0    0.32    0.30
  -1   4   0    0.48    0.25
   0  -4   0    8.76    0.67
   0  -4   0    8.92    0.75
   0   4   0    9.47    0.75
   0   4   0    8.57    0.56
  -1  -4   0    3.87    0.53
  -1  -4   0    3.10    0.47
   1   4   0    3.78    0.52
   1   4   0    3.20    0.47
  -2  -4   0   72.31    3.60
  -2  -4   0   74.82    3.69
  -3  -4   0    0.32    0.27
  -3  -4   0    0.06    0.37
   3   4   0    0.19    0.36
  -4  -4   0    0.36    0.33
   4   4   0    0.47    0.45
   4   4   0    0.77    0.45
   4   4   0    0.37    0.25
   4   4   0    0.50    0.40
  -5  -4   0   11.74    0.93
   5   4   0   10.97    1.00
   5   4   0   10.77    0.92
   5   4   0   11.01    0.99
   6   4   0   12.23    1.00
   7  -5   0    0.12    0.23
   7  -5   0    0.21    0.20
  -7   5   0    0.84    0.37
   6  -5   0    6.88    0.72
  -6   5   0    5.99    0.74
   5  -5   0   46.52    2.37
  -5   5   0   44.45    2.48
   4  -5   0   23.74    1.39
  -4   5   0   23.22    1.46
   3  -5   0    9.59    0.93
  -3   5   0    9.07    0.78
  -3   5   0    9.54    0.94
   2  -5   0   64.96    3.37
  -2   5   0   69.86    3.41
  -2   5   0   62.84    2.83
  -1   5   0   19.47    1.09
  -1   5   0   21.10    1.35
   0  -5   0    0.08    0.28
   0   5   0   -0.15    0.21
   0   5   0    0.73    0.33
  -1  -5   0   -0.13    0.25
   1   5   0    0.29    0.29
  -2  -5   0    1.78    0.46
  -3  -5   0   15.62    1.12
   3   5   0   17.13    1.14
   3   5   0   16.27    1.09
   3   5   0   15.99    1.00
  -4  -5   0    2.88    0.55
   4   5   0    2.37    0.61
   4   5   0    2.17    0.54
   4   5   0    1.49    0.33
   4   5   0    2.62    0.55
  -5  -5   0   18.31    1.21
   5   5   0   17.00    1.18
   5   5   0   18.79    1.30
   5   5   0   19.83    1.24
   6   5   0    4.57    0.53
   7  -6   0    1.35    0.24
  -7   6   0    1.01    0.32
   6  -6   0    3.17    0.50
  -6   6   0    3.29    0.57
   5  -6   0   14.91    1.10
  -5   6   0   14.52    1.11
   4  -6   0  122.68    5.51
   4  -6   0  129.14    5.81
  -4   6   0  124.56    6.08
   3  -6   0   37.92    1.89
   3  -6   0   40.82    2.04
   3  -6   0   37.45    2.12
  -3   6   0   45.10    2.14
  -3   6   0   30.83    1.98
   2  -6   0    0.59    0.41
  -2   6   0    0.03    0.30
  -2   6   0    0.42    0.40
   1  -6   0   28.18    1.85
  -1   6   0   29.31    1.55
  -1   6   0   34.65    1.95
   0  -6   0  121.36    5.82
   0   6   0  117.65    5.85
  -1  -6   0    3.67    0.52
  -1  -6   0    2.55    0.56
   1   6   0    3.54    0.50
   1   6   0    2.46    0.56
  -2  -6   0    2.97    0.49
  -2  -6   0    4.77    0.61
   2   6   0    5.04    0.57
   2   6   0    4.48    0.55
   2   6   0    5.52    0.63
  -3  -6   0    7.05    0.78
   3   6   0    6.34    0.70
   3   6   0    6.58    0.73
   3   6   0    6.25    0.64
  -4  -6   0    1.14    0.42
   4   6   0    1.26    0.42
   4   6   0    1.50    0.48
   4   6   0    1.95    0.49
  -5  -6   0    1.50    0.39
   5   6   0    0.46    0.36
   6  -7   0    0.12    0.31
  -6   7   0    0.13    0.35
   5  -7   0    1.54    0.43
  -5   7   0    1.04    0.43
   4  -7   0   13.81    1.00
   4  -7   0   11.45    0.92
  -4   7   0   12.99    1.05
   3  -7   0    0.35    0.39
   3  -7   0   -0.11    0.29
   3  -7   0    0.07    0.31
  -3   7   0    0.30    0.35
  -3   7   0    0.29    0.36
   2  -7   0   16.62    1.08
   2  -7   0   15.71    1.14
   2  -7   0   18.30    1.07
   2  -7   0   17.86    1.21
  -2   7   0   18.54    1.14
  -2   7   0   16.79    1.14
   1  -7   0   50.08    2.54
   1  -7   0   47.89    2.38
   1  -7   0   51.61    2.68
  -1   7   0   52.56    2.53
   0  -7   0    2.19    0.47
   0  -7   0    2.53    0.47
   0  -7   0    2.61    0.41
   0   7   0    2.13    0.44
  -1  -7   0  223.50   10.27
  -1  -7   0  225.13    9.85
   1   7   0  202.26    9.66
  -2  -7   0   54.98    2.75
   2   7   0   46.61    2.43
   2   7   0   51.45    2.52
   2   7   0   49.36    2.60
  -3  -7   0    2.47    0.51
   3   7   0    2.59    0.43
   3   7   0    2.90    0.56
   3   7   0    3.65    0.57
  -4  -7   0    3.81    0.59
   4   7   0    4.15    0.62
   4   7   0    3.77    0.55
   6  -8   0    4.03    0.41
   6  -8   0    5.22    0.56
  -6   8   0    5.68    0.59
   5  -8   0    0.74    0.40
   5  -8   0    0.26    0.35
  -5   8   0    0.64    0.40
   4  -8   0    0.21    0.37
   4  -8   0    0.13    0.37
  -4   8   0    0.39    0.35
  -4   8   0    0.12    0.39
   3  -8   0    4.26    0.58
   3  -8   0    3.29    0.57
  -3   8   0    3.11    0.52
  -3   8   0    3.18    0.53
   2  -8   0    5.06    0.69
   2  -8   0    4.77    0.60
   2  -8   0    4.40    0.67
   2  -8   0    3.43    0.54
  -2   8   0    3.70    0.57
  -2   8   0    5.07    0.66
   1  -8   0   25.44    1.42
   1  -8   0   28.22    1.54
   1  -8   0   26.11    1.61
  -1   8   0   23.70    1.49
   0  -8   0    4.13    0.60
   0  -8   0    5.53    0.74
   0   8   0    3.89    0.56
  -1  -8   0    8.58    0.83
  -1  -8   0    7.28    0.84
   1   8   0    8.18    0.80
   1   8   0    9.53    0.82
  -2  -8   0    0.33    0.42
  -2  -8   0    0.37    0.37
   2   8   0   -0.24    0.35
   2   8   0    0.38    0.34
  -3  -8   0    9.07    0.87
   3   8   0    9.02    0.77
   3   8   0    9.79    0.80
  -4  -8   0    3.89    0.46
   5  -9   0    8.99    0.67
   5  -9   0   10.16    0.64
   5  -9   0    9.35    0.74
  -5   9   0    8.72    0.74
   4  -9   0   22.50    1.28
   4  -9   0   22.69    1.37
  -4   9   0   21.74    1.35
  -4   9   0   21.73    1.34
   3  -9   0    4.00    0.60
   3  -9   0    5.33    0.65
   3  -9   0    4.25    0.54
  -3   9   0    4.41    0.58
   2  -9   0    5.57    0.70
   2  -9   0    4.92    0.61
   2  -9   0    4.87    0.68
   2  -9   0    3.80    0.54
  -2   9   0    4.92    0.64
   1  -9   0    0.57    0.43
   1  -9   0    0.54    0.43
   1  -9   0    0.38    0.30
  -1   9   0    0.45    0.36
   0  -9   0   12.49    1.03
   0  -9   0   12.55    1.01
   0   9   0   12.93    0.96
  -1  -9   0    8.99    0.82
  -1  -9   0   10.07    0.92
   1   9   0    9.75    0.84
   1   9   0   10.17    0.85
  -2  -9   0    3.32    0.48
  -2  -9   0    5.82    0.70
   2   9   0    2.88    0.48
   2   9   0    3.55    0.44
  -3  -9   0    0.44    0.29
   3   9   0    0.10    0.27
   4 -10   0    1.17    0.34
   4 -10   0   -0.17    0.25
  -4  10   0    0.32    0.26
   3 -10   0    2.22    0.44
   3 -10   0    1.16    0.37
   3 -10   0    2.43    0.44
  -3  10   0    2.75    0.49
   2 -10   0    0.31    0.40
   2 -10   0    0.22    0.34
   2 -10   0    0.18    0.37
  -2  10   0    0.22    0.35
   1 -10   0   10.62    0.80
   1 -10   0   12.38    0.99
   1 -10   0   12.35    0.97
  -1  10   0   13.31    0.94
   0 -10   0    0.27    0.40
   0 -10   0    0.26    0.38
   0  10   0    0.10    0.33
   0  10   0    0.24    0.36
  -1 -10   0   15.26    1.08
  -1 -10   0   15.74    0.98
   1  10   0   14.33    0.90
   1  10   0   15.15    0.98
  -2 -10   0   16.17    1.00
   2 -11   0    7.44    0.64
   2 -11   0    7.53    0.62
   1 -11   0    2.81    0.41
   1 -11   0    2.85    0.45
  -1  11   0    1.58    0.32
  -1  11   0    2.82    0.39
   0 -11   0    0.94    0.27
   0 -11   0    1.13    0.35
   0  11   0    0.92    0.26
   1  11  -1    2.67    0.33
  -1 -11   1    3.26    0.38
  -1 -11   1    2.61    0.36
   0  11  -1   15.96    0.97
   0  11  -1   15.74    0.97
   0 -11   1   16.42    1.07
   0 -11   1   15.60    0.97
  -1  11  -1    0.56    0.30
   1 -11   1    0.78    0.36
   1 -11   1    0.68    0.34
  -2  11  -1    0.35    0.28
   2 -11   1    0.23    0.33
   2 -11   1    0.42    0.32
   2 -11   1    0.46    0.30
   2 -11   1    0.12    0.26
  -3  11  -1   12.48    0.83
   3 -11   1   12.38    0.80
   3 -11   1   12.59    0.82
   2  10  -1    1.52    0.30
  -2 -10   1    1.76    0.34
  -2 -10   1    2.92    0.49
   1  10  -1    0.55    0.38
   1  10  -1    0.54    0.34
  -1 -10   1    0.83    0.46
  -1 -10   1    0.50    0.38
   0  10  -1    1.99    0.45
   0 -10   1    2.36    0.56
   0 -10   1    2.48    0.52
  -1  10  -1    0.84    0.40
   1 -10   1    0.73    0.45
   1 -10   1    0.70    0.43
   1 -10   1    0.90    0.34
  -2  10  -1    3.38    0.53
   2 -10   1    3.11    0.48
   2 -10   1    2.63    0.48
   2 -10   1    5.52    0.65
   2 -10   1    4.49    0.54
  -3  10  -1    4.61    0.61
  -3  10  -1    4.98    0.57
   3 -10   1    3.65    0.49
   3 -10   1    4.38    0.62
  -4  10  -1    0.86    0.33
   4 -10   1    0.34    0.31
   4 -10   1    0.49    0.32
   3   9  -1    0.08    0.25
  -3  -9   1    0.37    0.38
   2   9  -1    2.68    0.48
   2   9  -1    3.50    0.52
  -2  -9   1    2.85    0.54
  -2  -9   1    3.57    0.56
   1   9  -1    0.19    0.36
   1   9  -1    0.44    0.36
  -1  -9   1    0.63    0.45
  -1  -9   1    0.77    0.42
   0   9  -1   27.55    1.63
   0  -9   1   29.16    1.75
   0  -9   1   28.55    1.65
  -1   9  -1    2.65    0.54
   1  -9   1    3.06    0.53
   1  -9   1    2.71    0.49
   1  -9   1    1.76    0.49
   1  -9   1    2.69    0.54
  -2   9  -1    2.17    0.51
  -2   9  -1    2.53    0.51
   2  -9   1    1.17    0.39
   2  -9   1    1.47    0.46
   2  -9   1    2.87    0.50
   2  -9   1    2.85    0.56
  -3   9  -1    7.74    0.82
  -3   9  -1   10.05    0.89
   3  -9   1    8.05    0.78
   3  -9   1    7.84    0.81
  -4   9  -1    2.09    0.52
   4  -9   1    1.54    0.47
   4  -9   1    1.76    0.46
  -5   9  -1    5.50    0.60
   5  -9   1    3.72    0.43
   5  -9   1    4.60    0.56
   5  -9   1    5.07    0.46
   4   8  -1    1.84    0.40
  -4  -8   1    3.70    0.56
   3   8  -1    2.22    0.45
   3   8  -1    2.00    0.42
   3   8  -1    1.75    0.41
  -3  -8   1    1.51    0.46
   2   8  -1    5.81    0.69
   2   8  -1    6.60    0.74
  -2  -8   1    7.75    0.90
  -2  -8   1    8.29    0.83
   1   8  -1    7.46    0.72
  -1  -8   1    7.52    0.81
  -1  -8   1    5.21    0.70
   0   8  -1    0.78    0.37
   0  -8   1    0.95    0.40
   0  -8   1    0.71    0.32
   0  -8   1    1.31    0.47
  -1   8  -1    2.60    0.49
  -1   8  -1    2.08    0.46
   1  -8   1    3.61    0.59
   1  -8   1    3.55    0.58
   1  -8   1    3.69    0.62
   1  -8   1    3.75    0.52
  -2   8  -1    1.76    0.46
  -2   8  -1    2.26    0.50
   2  -8   1    1.97    0.48
   2  -8   1    0.95    0.40
   2  -8   1    1.93    0.51
   2  -8   1    1.85    0.41
  -3   8  -1   16.45    1.16
  -3   8  -1   16.53    1.21
   3  -8   1   18.09    1.11
   3  -8   1   16.86    1.17
  -4   8  -1    0.26    0.41
   4  -8   1    0.15    0.36
   4  -8   1   -0.17    0.37
  -5   8  -1    0.79    0.40
   5  -8   1    0.74    0.40
  -6   8  -1    9.36    0.73
   6  -8   1    7.94    0.61
   6  -8   1    7.93    0.61
   5   7  -1    3.10    0.47
  -5  -7   1    2.85    0.44
   4   7  -1    1.63    0.50
   4   7  -1    1.52    0.37
   4   7  -1    2.67    0.51
  -4  -7   1    2.45    0.55
   3   7  -1   75.26    3.72
   3   7  -1   76.92    3.62
   3   7  -1   74.08    3.55
  -3  -7   1   77.10    3.90
   2   7  -1   -0.13    0.32
   2   7  -1    0.02    0.32
   2   7  -1    0.24    0.34
  -2  -7   1    0.08    0.33
  -2  -7   1   -0.06    0.39
   1   7  -1   16.44    1.05
  -1  -7   1   15.16    1.13
  -1  -7   1   14.01    1.01
   0   7  -1    1.27    0.37
   0  -7   1    0.64    0.37
   0  -7   1    1.18    0.38
   0  -7   1    0.97    0.50
   0  -7   1    1.18    0.38
  -1   7  -1    0.59    0.32
  -1   7  -1    0.71    0.44
  -1   7  -1    0.30    0.33
  -1   7  -1    0.84    0.40
   1  -7   1    0.53    0.41
   1  -7   1   -0.08    0.26
   1  -7   1    0.62    0.34
   1  -7   1    0.39    0.36
   1  -7   1    0.60    0.42
  -2   7  -1    1.43    0.41
  -2   7  -1    1.05    0.37
   2  -7   1    0.95    0.40
   2  -7   1    0.95    0.32
   2  -7   1    1.15    0.37
   2  -7   1    0.37    0.33
   2  -7   1    0.22    0.40
  -3   7  -1    7.74    0.78
   3  -7   1    7.14    0.66
   3  -7   1    7.76    0.76
  -4   7  -1   12.91    1.06
   4  -7   1   14.22    1.01
   4  -7   1   13.10    0.92
  -5   7  -1    7.36    0.80
   5  -7   1    7.83    0.77
  -6   7  -1    7.26    0.77
   6  -7   1    7.51    0.67
   6  -7   1    8.10    0.65
   6   6  -1    0.57    0.28
   5   6  -1   16.68    1.20
  -5  -6   1   16.39    1.16
   4   6  -1    0.03    0.30
   4   6  -1    0.05    0.47
   4   6  -1   -0.07    0.44
  -4  -6   1    0.54    0.42
   3   6  -1    8.38    0.78
   3   6  -1    8.11    0.74
   3   6  -1    7.70    0.75
  -3  -6   1    8.03    0.84
   2   6  -1    0.26    0.30
   2   6  -1   -0.01    0.29
   2   6  -1    0.30    0.28
  -2  -6   1    0.10    0.33
  -2  -6   1   -0.22    0.26
   1   6  -1   18.16    1.28
  -1  -6   1   16.68    1.27
   0   6  -1   55.73    2.96
   0   6  -1   54.08    2.39
   0  -6   1   55.74    2.96
  -1   6  -1    2.12    0.49
  -1   6  -1    1.35    0.36
  -2   6  -1   96.38    4.72
  -2   6  -1   92.93    3.96
   2  -6   1   94.16    4.70
  -3   6  -1    8.65    0.73
   3  -6   1    7.77    0.70
   3  -6   1    7.59    0.66
  -4   6  -1   17.54    1.19
   4  -6   1   18.35    1.09
   4  -6   1   16.47    1.12
  -5   6  -1    0.64    0.42
   5  -6   1    0.56    0.36
  -6   6  -1   -0.33    0.35
   6  -6   1   -0.24    0.30
   6  -6   1    0.12    0.34
  -7   6  -1   -0.17    0.23
   6   5  -1    2.65    0.52
  -6  -5   1    3.20    0.50
   5   5  -1    1.71    0.37
   5   5  -1    3.06    0.64
  -5  -5   1    3.19    0.58
   4   5  -1    1.65    0.38
   4   5  -1    2.58    0.55
  -4  -5   1    2.74    0.53
   3   5  -1    9.66    0.76
   3   5  -1   11.13    0.84
  -3  -5   1   10.16    0.84
  -2  -5   1    0.38    0.30
  -2  -5   1    0.09    0.32
   1   5  -1   39.89    2.48
  -1  -5   1   54.46    2.58
  -1  -5   1   49.40    2.54
   0   5  -1  384.84   15.05
   0   5  -1  409.67   17.95
   0  -5   1  415.37   17.95
  -1   5  -1    0.02    0.28
  -1   5  -1    0.15    0.24
  -2   5  -1   94.68    3.91
  -2   5  -1   92.59    4.63
   2  -5   1   99.97    4.65
  -3   5  -1    4.25    0.69
  -3   5  -1    4.00    0.58
  -4   5  -1    2.10    0.44
   4  -5   1    2.36    0.45
   4  -5   1    2.84    0.48
  -5   5  -1    1.55    0.48
   5  -5   1    1.41    0.46
   5  -5   1    1.79    0.43
  -6   5  -1    0.20    0.38
   6  -5   1    0.08    0.34
   6  -5   1   -0.17    0.28
   6  -5   1   -0.03    0.40
  -7   5  -1    0.01    0.28
   6   4  -1    5.02    0.71
  -6  -4   1    5.32    0.66
   5   4  -1    8.31    0.87
   5   4  -1    6.31    0.65
   5   4  -1    7.91    0.86
  -5  -4   1    7.31    0.77
   4   4  -1   39.00    2.13
   4   4  -1   44.47    2.11
  -4  -4   1   41.45    2.27
  -3  -4   1   -0.14    0.24
  -3  -4   1   -0.03    0.31
  -2  -4   1    1.70    0.42
  -2  -4   1    2.04    0.42
   1   4  -1    2.31    0.27
   1   4  -1    2.70    0.47
  -1  -4   1    1.88    0.39
  -1  -4   1    2.14    0.41
   0   4  -1   18.63    0.93
   0   4  -1   18.21    1.18
   0  -4   1   19.65    1.16
   0  -4   1   21.57    1.21
  -1   4  -1  178.22    8.12
  -1   4  -1  170.74    6.83
   1  -4   1  188.91    8.15
  -2   4  -1    1.26    0.36
  -2   4  -1    2.06    0.36
   2  -4   1    1.80    0.39
  -3   4  -1   30.39    1.48
  -3   4  -1   27.49    1.69
  -4   4  -1   13.48    1.04
  -4   4  -1   11.36    0.88
  -4   4  -1   12.11    1.08
   4  -4   1   10.21    0.81
   4  -4   1   12.29    0.86
  -5   4  -1   67.24    3.42
   5  -4   1   66.07    3.20
   5  -4   1   66.90    3.34
  -6   4  -1    9.85    0.89
   6  -4   1    8.79    0.88
   6  -4   1   10.36    0.77
   6  -4   1   10.20    0.78
  -7   4  -1    2.26    0.42
   7   3  -1   -0.03    0.32
  -7  -3   1    0.62    0.29
   6   3  -1   21.13    1.39
  -6  -3   1   20.44    1.34
   5   3  -1    8.25    0.85
   5   3  -1    7.52    0.79
   5   3  -1    6.56    0.65
  -5  -3   1    7.03    0.75
   4   3  -1    2.41    0.39
   4   3  -1    2.18    0.47
  -4  -3   1    1.62    0.45
  -4  -3   1    1.94    0.46
  -3  -3   1   10.39    0.82
  -3  -3   1   10.14    0.85
   2   3  -1   94.29    4.25
   2   3  -1   88.93    4.13
  -2  -3   1   92.23    4.22
  -2  -3   1   84.31    4.31
   1   3  -1   51.40    1.83
   1   3  -1   45.96    2.31
  -1  -3   1   39.41    2.25
  -1  -3   1   48.87    2.33
   0   3  -1    3.49    0.33
   0   3  -1    3.64    0.46
   0  -3   1    3.47    0.44
   0  -3   1    3.08    0.41
  -1   3  -1    2.95    0.42
  -1   3  -1    2.88    0.34
  -2   3  -1   42.05    1.88
  -2   3  -1   47.40    2.22
   2  -3   1   42.81    2.18
  -3   3  -1    0.02    0.22
  -3   3  -1    0.04    0.23
  -3   3  -1    0.14    0.29
  -4   3  -1   15.89    1.22
  -4   3  -1   14.26    1.06
  -5   3  -1    0.70    0.34
   5  -3   1    1.14    0.41
   5  -3   1    1.10    0.34
  -6   3  -1    9.40    0.82
   6  -3   1    8.50    0.89
  -7   3  -1    0.32    0.32
   7  -3   1    0.33    0.37
   7   2  -1    5.00    0.57
  -7  -2   1    5.91    0.65
   6   2  -1    1.84    0.39
   6   2  -1    1.46    0.54
  -6  -2   1    1.31    0.46
   5   2  -1    0.74    0.31
   5   2  -1    1.47    0.46
  -5  -2   1    1.38    0.43
  -4  -2   1    8.06    0.87
  -4  -2   1    8.50    0.77
  -3  -2   1   30.41    1.73
  -3  -2   1   28.98    1.60
   2   2  -1    1.62    0.18
   2   2  -1    2.11    0.36
  -2  -2   1    1.79    0.36
  -2  -2   1    1.27    0.28
   1   2  -1  212.84    9.46
   1   2  -1  202.39    7.89
  -1  -2   1  213.19    9.65
  -1  -2   1  225.77    8.98
  -1  -2   1  214.35    9.44
   0   2  -1  138.98    6.16
   0   2  -1  141.89    5.18
   0  -2   1  133.87    6.27
   0  -2   1  138.46    6.14
  -1   2  -1    6.01    0.42
  -1   2  -1    6.51    0.48
   1  -2   1    5.54    0.43
  -2   2  -1  143.71    6.43
  -2   2  -1  143.21    5.48
   2  -2   1  143.57    6.42
  -3   2  -1  104.96    4.91
  -3   2  -1   98.78    4.69
  -3   2  -1  101.83    4.02
  -4   2  -1    7.89    0.83
  -4   2  -1    6.33    0.67
  -5   2  -1    2.40    0.47
   5  -2   1    2.76    0.41
   5  -2   1    2.34    0.43
   5  -2   1    2.47    0.48
  -6   2  -1    2.98    0.51
   6  -2   1    2.90    0.56
   6  -2   1    1.79    0.50
   7  -2   1    0.06    0.37
   7   1  -1   12.64    0.94
  -7  -1   1   10.18    0.91
   6   1  -1   23.43    1.39
   6   1  -1   20.23    1.26
  -6  -1   1   23.00    1.44
   5   1  -1    1.73    0.44
   5   1  -1    1.19    0.34
  -5  -1   1    0.71    0.36
  -4  -1   1   37.19    1.97
  -4  -1   1   33.35    2.08
   3   1  -1   22.08    1.34
  -3  -1   1   27.59    1.38
  -3  -1   1   22.90    1.42
   2   1  -1  115.38    4.85
   2   1  -1  100.88    3.95
  -2  -1   1  104.43    4.95
  -2  -1   1  106.37    4.82
   1   1  -1    2.58    0.26
  -1  -1   1    2.47    0.29
  -1  -1   1    2.89    0.28
   0   1  -1    3.49    0.21
   0   1  -1    3.70    0.25
   0   1  -1    4.17    0.26
   0  -1   1    4.07    0.26
   0  -1   1    3.67    0.28
   0  -1   1    3.90    0.24
  -1   1  -1  117.54    4.94
  -1   1  -1  113.51    4.21
   1  -1   1  104.94    4.93
  -2   1  -1  115.84    4.46
  -2   1  -1  114.12    5.43
  -2   1  -1  118.19    5.24
   2  -1   1  121.03    5.24
  -3   1  -1    0.36    0.20
  -3   1  -1    0.28    0.21
  -3   1  -1    0.19    0.22
  -4   1  -1   15.17    1.22
  -4   1  -1   17.59    1.09
   5  -1   1   26.84    1.53
   5  -1   1   26.41    1.55
   6  -1   1   13.48    1.08
   6  -1   1   13.74    1.07
   7  -1   1   11.32    0.90
   7  -1   1   13.11    0.92
  -7   0   1    0.34    0.35
   6   0  -1    1.28    0.44
   6   0  -1    0.21    0.30
  -6   0   1    0.63    0.39
   5   0  -1    0.39    0.33
   5   0  -1   -0.03    0.25
  -5   0   1    0.13    0.32
  -4   0   1   52.25    2.71
  -4   0   1   53.41    2.85
   3   0  -1   28.54    1.52
  -3   0   1   26.32    1.55
  -3   0   1   28.32    1.51
   2   0  -1  430.20   18.40
  -2   0   1  451.48   18.79
  -2   0   1  408.99   15.49
  -2   0   1  388.31   18.38
   1   0  -1   10.53    0.59
   1   0  -1   10.81    0.54
  -1   0   1   10.97    0.59
  -1   0   1    9.85    0.58
  -1   0   1   11.01    0.54
  -1   0   1   11.19    0.49
   0   0  -1   -0.48    0.06
   0   0  -1   -0.48    0.05
   0   0   1   -0.46    0.05
   0   0   1   -0.45    0.10
   0   0   1   -0.48    0.08
  -1   0  -1  136.93    4.73
  -1   0  -1  133.56    5.76
  -1   0  -1  124.70    5.56
  -1   0  -1  127.51    5.56
   1   0   1  116.67    5.55
   1   0   1  122.83    5.67
  -2   0  -1    1.63    0.21
  -2   0  -1    1.44    0.22
  -2   0  -1    1.98    0.33
  -2   0  -1    1.55    0.24
   2   0   1    1.70    0.23
  -3   0  -1    1.66    0.30
  -3   0  -1    1.73    0.41
  -4   0  -1    0.38    0.35
  -4   0  -1    0.50    0.26
   5   0   1   36.69    2.05
   5   0   1   41.56    2.12
   6   0   1    2.74    0.57
   6   0   1    2.20    0.57
   7   0   1    3.30    0.51
   7   0   1    4.14    0.52
   7  -1  -1    0.19    0.28
  -7   1   1   -0.06    0.34
   6  -1  -1    1.73    0.41
  -6   1   1    2.98    0.57
   5  -1  -1    0.49    0.29
  -5   1   1    0.75    0.38
  -4   1   1   97.65    4.57
  -4   1   1   91.59    4.68
   3  -1  -1    5.68    0.57
  -3   1   1    6.30    0.48
  -3   1   1    6.42    0.57
  -3   1   1    5.65    0.57
   2  -1  -1    2.16    0.33
  -2   1   1    1.58    0.30
  -2   1   1    1.71    0.29
  -2   1   1    2.11    0.27
  -2   1   1    1.60    0.22
   1  -1  -1  173.63    7.35
  -1   1   1  165.51    7.42
  -1   1   1  174.36    6.22
  -1   1   1  163.92    7.34
  -1   1   1  153.33    7.41
   0  -1  -1  112.86    4.97
   0  -1  -1  103.81    4.92
   0  -1  -1  115.67    4.94
   0   1   1  113.27    5.02
   0   1   1  111.86    4.75
   0   1   1  109.74    4.92
  -1  -1  -1  186.67    8.31
  -1  -1  -1  181.11    8.31
  -1  -1  -1  185.40    8.53
   1   1   1  200.40    8.04
   1   1   1  204.90    8.46
   1   1   1  176.07    8.30
  -2  -1  -1   32.42    1.71
  -2  -1  -1   33.35    1.59
   2   1   1   32.63    1.60
  -3  -1  -1   36.02    2.09
  -3  -1  -1   40.45    1.93
  -4  -1  -1    5.92    0.60
  -4  -1  -1    7.66    0.92
   4   1   1    5.95    0.68
   4   1   1    6.87    0.63
   5   1   1    7.76    0.79
   5   1   1    8.97    0.83
   5   1   1    8.59    0.79
   6   1   1    9.14    0.83
   6   1   1    7.90    0.87
   7   1   1    0.18    0.31
   7  -2  -1    0.25    0.29
  -7   2   1   -0.02    0.36
   6  -2  -1    3.74    0.54
  -6   2   1    4.84    0.68
   5  -2  -1   -0.21    0.34
   5  -2  -1   -0.28    0.24
  -5   2   1   -0.11    0.33
  -4   2   1    5.01    0.67
  -4   2   1    4.12    0.63
   3  -2  -1    3.91    0.53
  -3   2   1    4.44    0.55
  -3   2   1    4.93    0.58
  -3   2   1    5.37    0.53
   2  -2  -1    0.28    0.25
  -2   2   1    0.39    0.24
  -2   2   1    0.51    0.27
  -2   2   1    0.30    0.18
   1  -2  -1   88.91    4.13
  -1   2   1   97.29    4.16
  -1   2   1   84.50    3.49
   0  -2  -1   33.90    1.67
   0  -2  -1   34.47    1.59
   0   2   1   34.17    1.70
   0   2   1   35.32    1.40
   0   2   1   31.09    1.53
   0   2   1   31.64    1.64
  -1  -2  -1  590.72   25.36
  -1  -2  -1  529.55   24.82
   1   2   1  615.63   25.19
   1   2   1  500.97   23.92
   1   2   1  607.18   24.85
  -2  -2  -1   25.05    1.46
  -2  -2  -1   27.12    1.38
   2   2   1   26.13    1.37
  -3  -2  -1    0.21    0.22
  -3  -2  -1    0.24    0.28
   4   2   1    6.60    0.67
   4   2   1    8.28    0.79
   4   2   1    7.32    0.73
   5   2   1   16.29    1.17
   5   2   1   16.28    1.15
   5   2   1   16.44    1.14
   6   2   1   -0.53    0.45
   6   2   1    0.20    0.38
   7   2   1    0.45    0.26
   7  -3  -1    1.34    0.36
  -7   3   1    3.11    0.55
   6  -3  -1   22.26    1.40
   6  -3  -1   23.50    1.44
  -6   3   1   25.59    1.56
   5  -3  -1    5.63    0.65
   5  -3  -1    4.74    0.59
  -5   3   1    5.63    0.66
  -4   3   1   23.07    1.50
  -4   3   1   21.35    1.29
   3  -3  -1    3.74    0.56
  -3   3   1    4.00    0.59
  -3   3   1    5.30    0.57
  -3   3   1    4.05    0.51
  -3   3   1    4.13    0.53
   2  -3  -1    3.21    0.49
  -2   3   1    3.64    0.53
  -2   3   1    3.99    0.46
  -2   3   1    3.69    0.38
   1  -3  -1   68.81    3.22
  -1   3   1   67.37    3.25
  -1   3   1   65.76    3.22
  -1   3   1   66.54    2.72
   0  -3  -1   47.70    2.40
   0  -3  -1   44.73    2.29
   0   3   1   45.49    2.41
   0   3   1   53.50    2.40
   0   3   1   49.50    2.00
   0   3   1   49.48    2.19
  -1  -3  -1   10.94    0.73
  -1  -3  -1   11.77    0.77
   1   3   1    9.80    0.76
  -2  -3  -1   13.43    0.88
  -2  -3  -1   13.04    0.96
   2   3   1   12.52    0.87
  -3  -3  -1   10.78    0.97
  -3  -3  -1   11.60    0.86
   4   3   1   35.68    1.89
   4   3   1   33.35    1.83
   4   3   1   31.70    1.80
   5   3   1   -0.39    0.40
   5   3   1    0.31    0.44
   5   3   1   -0.72    0.40
   6   3   1    9.11    0.80
   6   3   1   10.27    0.92
   7  -4  -1    3.60    0.45
   6  -4  -1    3.90    0.57
  -6   4   1    2.84    0.56
   5  -4  -1   45.43    2.28
  -5   4   1   40.88    2.35
   4  -4  -1    0.07    0.31
  -4   4   1    0.04    0.32
  -4   4   1    0.28    0.31
  -4   4   1    0.08    0.36
   3  -4  -1   41.87    2.42
  -3   4   1   43.69    2.46
  -3   4   1   45.27    2.41
  -3   4   1   45.06    2.10
   2  -4  -1   61.05    3.07
  -2   4   1   60.40    3.10
  -2   4   1   57.85    3.06
  -2   4   1   61.75    2.61
   1  -4  -1  295.39   13.14
  -1   4   1  295.07   13.31
  -1   4   1  292.80   11.10
  -1   4   1  291.17   13.15
   0  -4  -1   29.44    1.71
   0   4   1   31.22    1.74
   0   4   1   31.64    1.71
   0   4   1   29.82    1.40
  -1  -4  -1    0.34    0.28
   1   4   1    0.43    0.27
  -2  -4  -1   41.93    2.24
   3   4   1   14.21    1.00
   3   4   1   15.96    1.02
   3   4   1   14.04    1.00
   4   4   1    2.79    0.55
   4   4   1    4.41    0.67
   4   4   1    4.02    0.61
   5   4   1    9.92    0.94
   5   4   1    7.44    0.83
   5   4   1    8.41    0.91
   6   4   1    0.25    0.37
   6   4   1    0.40    0.33
   7  -5  -1    5.83    0.55
  -7   5   1    5.81    0.65
   6  -5  -1    4.17    0.58
  -6   5   1    7.45    0.80
   5  -5  -1    4.72    0.65
  -5   5   1    4.27    0.63
   4  -5  -1    9.41    0.74
   4  -5  -1    8.89    0.79
   4  -5  -1    7.66    0.82
  -4   5   1    9.03    0.86
   3  -5  -1   11.87    1.06
  -3   5   1   10.24    0.87
  -3   5   1    8.76    0.99
  -3   5   1   10.22    1.01
   2  -5  -1   26.33    1.72
  -2   5   1   29.30    1.76
  -2   5   1   25.85    1.45
  -2   5   1   28.92    1.78
   1  -5  -1    2.14    0.47
  -1   5   1    1.72    0.45
  -1   5   1    2.27    0.48
  -1   5   1    2.50    0.44
   0   5   1   15.79    1.18
  -1  -5  -1   67.19    3.58
   1   5   1   75.51    3.70
  -2  -5  -1   43.53    2.28
   2   5   1   39.71    2.08
   2   5   1   43.07    2.22
   2   5   1   44.37    2.14
   3   5   1   10.54    0.85
   3   5   1    9.54    0.84
   3   5   1    9.15    0.87
   4   5   1   28.80    1.77
   4   5   1   34.91    1.82
   4   5   1   30.83    1.81
   5   5   1    8.42    0.86
   5   5   1    7.73    0.79
   5   5   1    7.04    0.77
   7  -6  -1    0.38    0.28
   7  -6  -1    0.28    0.19
  -7   6   1    0.34    0.27
   6  -6  -1    0.49    0.36
  -6   6   1    0.65    0.40
   5  -6  -1   17.24    1.20
  -5   6   1   16.69    1.21
   4  -6  -1   14.99    0.99
   4  -6  -1   14.64    1.10
   4  -6  -1   15.53    1.14
  -4   6   1   16.30    1.12
  -4   6   1   15.04    1.14
   3  -6  -1   35.26    2.06
   3  -6  -1   38.22    2.17
   3  -6  -1   40.80    1.96
  -3   6   1   39.75    2.15
  -3   6   1   43.11    2.14
   2  -6  -1   26.07    1.58
   2  -6  -1   28.72    1.83
   2  -6  -1   26.71    1.43
  -2   6   1   25.71    1.50
   1  -6  -1   11.68    1.08
   1  -6  -1   12.83    0.94
   1  -6  -1   12.41    0.89
  -1   6   1   13.36    0.95
  -1   6   1   13.41    1.17
  -1   6   1   13.26    0.89
   0  -6  -1    0.15    0.32
   0  -6  -1   -0.10    0.29
   0   6   1    0.01    0.35
   0   6   1   -0.12    0.27
  -1  -6  -1    7.98    0.75
   1   6   1    8.66    0.70
   1   6   1    9.23    0.74
  -2  -6  -1   18.90    1.30
  -2  -6  -1   18.66    1.25
   2   6   1   20.97    1.18
   2   6   1   20.69    1.30
   2   6   1   21.12    1.24
  -3  -6  -1    0.81    0.40
   3   6   1    1.45    0.50
   3   6   1    0.93    0.47
   4   6   1   -0.19    0.35
   4   6   1    0.27    0.38
   4   6   1    0.53    0.41
   5   6   1    1.53    0.30
   6  -7  -1   -0.26    0.30
  -6   7   1   -0.07    0.33
   5  -7  -1    3.17    0.54
   5  -7  -1    4.99    0.58
  -5   7   1    4.93    0.66
   4  -7  -1   14.98    1.02
   4  -7  -1   15.36    1.12
   4  -7  -1   14.16    1.12
  -4   7   1   17.71    1.17
  -4   7   1   15.57    1.13
   3  -7  -1    8.96    0.80
   3  -7  -1    8.61    0.89
   3  -7  -1    9.07    0.83
  -3   7   1    7.85    0.80
  -3   7   1    9.97    0.86
   2  -7  -1   11.44    0.94
   2  -7  -1   10.57    0.87
   2  -7  -1    9.96    0.84
  -2   7   1   10.80    0.88
   1  -7  -1    1.80    0.46
   1  -7  -1    1.41    0.43
   1  -7  -1    0.87    0.31
  -1   7   1    1.50    0.39
   0  -7  -1    0.04    0.37
   0  -7  -1    0.27    0.38
   0   7   1    0.20    0.32
  -1  -7  -1    6.79    0.73
  -1  -7  -1    6.48    0.73
   1   7   1    8.42    0.74
   1   7   1    6.91    0.75
  -2  -7  -1   29.14    1.56
  -2  -7  -1   23.70    1.61
   2   7   1   26.96    1.49
   2   7   1   27.48    1.60
   2   7   1   26.47    1.45
  -3  -7  -1    0.61    0.37
   3   7   1    0.55    0.39
   3   7   1    0.67    0.41
   4   7   1   -0.04    0.32
   4   7   1    0.37    0.39
   6  -8  -1    0.57    0.23
   6  -8  -1    0.54    0.28
  -6   8   1    1.03    0.30
   5  -8  -1   -0.04    0.32
   5  -8  -1    0.69    0.40
  -5   8   1    0.47    0.34
  -5   8   1    0.44    0.34
   4  -8  -1   -0.19    0.35
   4  -8  -1   -0.50    0.36
   4  -8  -1   -0.23    0.33
  -4   8   1    0.13    0.36
  -4   8   1    0.11    0.33
   3  -8  -1    4.59    0.66
   3  -8  -1    5.16    0.63
   3  -8  -1    4.12    0.66
  -3   8   1    3.47    0.58
   2  -8  -1    3.79    0.58
   2  -8  -1    4.34    0.67
   2  -8  -1    4.33    0.58
  -2   8   1    5.06    0.64
   1  -8  -1   19.52    1.32
   1  -8  -1   19.59    1.18
   1  -8  -1   21.40    1.41
  -1   8   1   20.59    1.29
   0  -8  -1   24.77    1.56
   0  -8  -1   24.82    1.53
   0   8   1   24.05    1.45
  -1  -8  -1   21.89    1.36
  -1  -8  -1   20.99    1.40
   1   8   1   20.51    1.27
   1   8   1   22.33    1.35
  -2  -8  -1   -0.10    0.33
  -2  -8  -1   -0.04    0.34
   2   8   1   -0.20    0.37
  -3  -8  -1    3.85    0.49
   3   8   1    2.89    0.44
   3   8   1    5.24    0.60
   5  -9  -1    2.57    0.34
   5  -9  -1    3.36    0.41
  -5   9   1    4.41    0.48
   4  -9  -1    0.50    0.36
   4  -9  -1    0.30    0.33
  -4   9   1    0.48    0.35
   3  -9  -1    0.15    0.40
   3  -9  -1    0.69    0.37
   3  -9  -1    0.82    0.39
  -3   9   1    0.58    0.37
   2  -9  -1    7.41    0.81
   2  -9  -1    6.43    0.67
   2  -9  -1    6.86    0.72
  -2   9   1    4.99    0.63
   1  -9  -1    1.01    0.44
   1  -9  -1    0.27    0.29
   1  -9  -1    0.68    0.45
  -1   9   1    0.51    0.36
   0  -9  -1    9.33    0.83
   0  -9  -1    8.56    0.84
   0   9   1    8.70    0.76
   0   9   1    7.86    0.81
  -1  -9  -1    2.07    0.48
  -1  -9  -1    2.07    0.45
   1   9   1    1.81    0.42
   1   9   1    2.02    0.38
  -2  -9  -1    2.06    0.39
   2   9   1    2.89    0.45
   4 -10  -1    5.80    0.55
   3 -10  -1    1.18    0.31
   3 -10  -1    2.01    0.39
  -3  10   1    1.11    0.33
   2 -10  -1    8.15    0.78
   2 -10  -1    7.89    0.65
   2 -10  -1    7.50    0.70
  -2  10   1    8.32    0.71
   1 -10  -1    0.97    0.41
   1 -10  -1    1.64    0.44
  -1  10   1    0.41    0.32
  -1  10   1    0.93    0.36
   0 -10  -1    1.33    0.36
   0 -10  -1    1.06    0.33
   0  10   1    1.56    0.37
   0  10   1    1.91    0.35
  -1 -10  -1    0.35    0.25
  -1 -10  -1    0.45    0.27
   1  10   1    0.63    0.27
   2  11  -2    1.78    0.31
  -2 -11   2    1.15    0.27
   1  11  -2    6.05    0.62
  -1 -11   2    5.78    0.59
  -1 -11   2    5.27    0.58
   0  11  -2    2.94    0.46
   0  11  -2    3.77    0.44
   0 -11   2    3.19    0.51
   0 -11   2    4.97    0.59
  -1  11  -2   15.69    1.05
   1 -11   2   16.12    0.95
   1 -11   2   14.99    1.06
   1 -11   2   16.16    1.07
  -2  11  -2   17.48    1.07
   2 -11   2   16.19    0.99
   2 -11   2   16.61    1.05
   2 -11   2   16.94    1.09
  -3  11  -2    0.60    0.27
  -3  11  -2    0.87    0.32
   3 -11   2    0.51    0.29
   3 -11   2    1.06    0.33
   3  10  -2    3.88    0.43
  -3 -10   2    4.35    0.53
   2  10  -2    2.98    0.49
  -2 -10   2    2.80    0.47
  -2 -10   2    2.78    0.56
   1  10  -2   16.33    1.08
   1  10  -2   13.09    0.96
  -1 -10   2   15.11    1.14
  -1 -10   2   16.11    1.08
   0  10  -2    0.58    0.38
   0 -10   2    0.73    0.44
   0 -10   2    1.14    0.48
  -1  10  -2    0.93    0.41
   1 -10   2    1.27    0.43
   1 -10   2    0.99    0.45
   1 -10   2    0.45    0.31
   1 -10   2    1.08    0.47
  -2  10  -2    0.20    0.37
  -2  10  -2    0.68    0.38
   2 -10   2    0.77    0.40
   2 -10   2    0.86    0.40
   2 -10   2    0.32    0.37
  -3  10  -2    0.75    0.41
   3 -10   2    0.57    0.37
   3 -10   2    0.72    0.38
  -4  10  -2    2.46    0.48
   4 -10   2    3.11    0.47
   4 -10   2    3.54    0.50
  -5  10  -2    0.66    0.27
   5 -10   2    0.50    0.22
   4   9  -2   20.49    1.15
   4   9  -2   19.82    1.10
  -4  -9   2   23.11    1.29
   3   9  -2    2.97    0.47
  -3  -9   2    5.39    0.72
   2   9  -2   13.35    1.02
  -2  -9   2   12.28    1.09
  -2  -9   2   12.75    0.97
   1   9  -2    1.52    0.43
   1   9  -2    1.25    0.44
  -1  -9   2    1.28    0.48
  -1  -9   2    0.88    0.48
   0   9  -2    2.41    0.51
   0  -9   2    3.14    0.65
   0  -9   2    2.39    0.50
   0  -9   2    3.18    0.57
   0  -9   2    4.09    0.63
  -1   9  -2    3.78    0.58
  -1   9  -2    3.15    0.54
   1  -9   2    3.07    0.56
   1  -9   2    4.81    0.66
   1  -9   2    4.33    0.53
   1  -9   2    3.53    0.59
  -2   9  -2    7.46    0.80
  -2   9  -2    4.90    0.65
   2  -9   2    5.97    0.66
   2  -9   2    7.50    0.76
   2  -9   2    6.88    0.71
  -3   9  -2    1.86    0.51
   3  -9   2    1.45    0.46
   3  -9   2    1.05    0.42
  -4   9  -2    6.81    0.78
   4  -9   2    7.79    0.78
   4  -9   2    7.75    0.79
   4  -9   2    5.52    0.54
  -5   9  -2    2.46    0.47
   5  -9   2    3.23    0.47
   5  -9   2    3.33    0.43
   5   8  -2    0.29    0.25
  -5  -8   2    0.40    0.29
   4   8  -2    0.56    0.33
   4   8  -2    0.44    0.40
  -4  -8   2    0.75    0.41
   3   8  -2    0.10    0.37
  -3  -8   2    0.62    0.49
   2   8  -2   29.71    1.73
  -2  -8   2   30.46    1.76
  -2  -8   2   31.33    1.91
   1   8  -2   15.65    1.09
  -1  -8   2   15.61    1.20
  -1  -8   2   15.09    1.08
   0   8  -2    8.63    0.82
   0   8  -2    8.94    0.80
   0  -8   2    9.75    0.88
   0  -8   2    9.23    0.73
   0  -8   2   11.54    0.95
   0  -8   2    9.43    0.82
  -1   8  -2   60.38    2.96
   1  -8   2   55.91    2.69
   1  -8   2   56.14    2.84
   1  -8   2   54.84    2.96
   1  -8   2   56.14    2.86
  -2   8  -2   36.24    2.00
   2  -8   2   35.13    1.82
   2  -8   2   33.54    1.88
   2  -8   2   36.84    1.96
  -3   8  -2    1.99    0.47
   3  -8   2    2.25    0.45
   3  -8   2    3.16    0.56
  -4   8  -2    3.63    0.59
   4  -8   2    5.04    0.61
   4  -8   2    6.44    0.69
  -5   8  -2    0.75    0.39
   5  -8   2    1.19    0.38
   5  -8   2    1.19    0.40
  -6   8  -2   -0.16    0.27
   6  -8   2    0.15    0.27
   5   7  -2    2.29    0.36
   5   7  -2    3.35    0.58
  -5  -7   2    2.49    0.53
   4   7  -2    0.52    0.36
  -4  -7   2    0.56    0.46
   3   7  -2    0.95    0.42
   3   7  -2    2.07    0.46
  -3  -7   2    1.76    0.51
   2   7  -2   24.65    1.41
  -2  -7   2   22.45    1.37
  -2  -7   2   21.72    1.47
   1   7  -2   36.34    2.14
  -1  -7   2   43.86    2.20
  -1  -7   2   46.78    2.34
   0   7  -2    0.66    0.42
   0  -7   2    0.08    0.35
   0  -7   2    0.19    0.31
  -1   7  -2    1.68    0.43
  -1   7  -2    0.99    0.45
  -1   7  -2    2.35    0.50
   1  -7   2    1.84    0.38
  -2   7  -2   13.76    0.94
   2  -7   2   12.22    0.91
   2  -7   2   13.58    0.90
   2  -7   2   13.84    0.96
  -3   7  -2   12.36    0.97
   3  -7   2   13.47    0.89
   3  -7   2   12.13    0.93
  -4   7  -2    1.98    0.48
   4  -7   2    1.33    0.39
   4  -7   2    1.69    0.45
  -5   7  -2   13.34    1.03
   5  -7   2   12.53    0.91
   5  -7   2   12.53    0.95
  -6   7  -2   11.46    0.88
   6  -7   2   10.49    0.76
   6   6  -2    0.32    0.33
  -6  -6   2    0.52    0.35
   5   6  -2   10.34    1.04
   5   6  -2   11.25    0.86
  -5  -6   2   10.94    0.97
   4   6  -2   53.18    2.67
   4   6  -2   54.69    2.70
  -4  -6   2   52.09    2.87
   3   6  -2   -0.14    0.34
   3   6  -2   -0.04    0.31
  -3  -6   2    0.11    0.39
   2   6  -2   45.59    2.30
  -2  -6   2   45.67    2.64
  -2  -6   2   45.58    2.58
   1   6  -2    0.85    0.41
  -1  -6   2    0.76    0.37
  -1  -6   2    1.01    0.45
   0   6  -2    6.52    0.80
   0   6  -2    6.26    0.57
   0  -6   2    5.12    0.74
  -1   6  -2    6.41    0.65
  -1   6  -2    6.73    0.74
  -2   6  -2   -0.07    0.23
  -2   6  -2    0.15    0.29
  -3   6  -2    2.44    0.45
   3  -6   2    3.07    0.46
   3  -6   2    2.44    0.40
   3  -6   2    3.34    0.51
  -4   6  -2   59.21    3.06
   4  -6   2   58.63    3.00
   4  -6   2   60.11    2.91
  -5   6  -2    6.25    0.75
   5  -6   2    6.17    0.66
   5  -6   2    6.86    0.81
   5  -6   2    5.76    0.63
  -6   6  -2   -0.14    0.30
   6  -6   2   -0.40    0.29
   6   5  -2    0.46    0.42
  -6  -5   2    0.06    0.37
   5   5  -2    1.22    0.56
   5   5  -2    1.27    0.36
  -5  -5   2    1.58    0.47
   4   5  -2    0.37    0.32
   4   5  -2    0.04    0.40
  -4  -5   2    0.29    0.38
   3   5  -2    6.22    0.67
   3   5  -2    7.03    0.62
  -3  -5   2    5.92    0.67
  -3  -5   2    6.93    0.92
  -3  -5   2    5.99    0.79
   2   5  -2   75.16    4.11
  -2  -5   2   89.88    4.13
  -2  -5   2   84.09    4.19
   1   5  -2   15.01    1.12
  -1  -5   2   16.61    1.11
  -1  -5   2   15.21    1.11
   0   5  -2   45.25    2.28
   0   5  -2   41.96    1.83
   0  -5   2   38.24    2.21
  -1   5  -2  161.14    6.15
  -1   5  -2  158.52    7.30
   1  -5   2  154.72    7.30
  -2   5  -2   76.02    3.70
  -2   5  -2   73.28    3.15
  -3   5  -2   26.57    1.44
  -3   5  -2   26.42    1.66
  -4   5  -2    1.02    0.36
   4  -5   2    1.06    0.38
   4  -5   2    0.56    0.34
  -5   5  -2    0.30    0.37
   5  -5   2    0.35    0.30
   5  -5   2    0.55    0.45
   5  -5   2   -0.11    0.37
  -6   5  -2   -0.06    0.33
   6  -5   2   -0.34    0.40
   6  -5   2   -0.06    0.31
  -7   5  -2    0.46    0.26
   7   4  -2    1.63    0.30
   6   4  -2    2.93    0.44
   6   4  -2    5.33    0.68
  -6  -4   2    2.58    0.52
   5   4  -2   -0.21    0.40
   5   4  -2    0.03    0.32
  -5  -4   2    0.03    0.35
   4   4  -2    7.80    0.80
   4   4  -2    8.89    0.71
  -4  -4   2    8.51    0.77
  -3  -4   2    2.28    0.54
  -3  -4   2    1.97    0.46
   2   4  -2    1.33    0.39
  -2  -4   2    0.87    0.34
  -2  -4   2    1.49    0.41
   1   4  -2    2.97    0.32
   1   4  -2    3.16    0.49
  -1  -4   2    2.71    0.42
  -1  -4   2    2.99    0.45
   0   4  -2    1.10    0.26
   0   4  -2    1.24    0.36
   0  -4   2    1.02    0.32
  -1   4  -2  101.89    4.03
  -1   4  -2  105.22    4.78
   1  -4   2   99.66    4.76
  -2   4  -2   10.19    0.78
  -2   4  -2   10.39    0.71
  -3   4  -2   37.88    1.87
  -3   4  -2   42.33    2.18
  -4   4  -2   14.00    1.03
   4  -4   2   12.42    0.89
   4  -4   2   12.36    0.85
   4  -4   2   12.52    0.92
  -5   4  -2    0.67    0.35
   5  -4   2    1.04    0.40
   5  -4   2    1.39    0.44
   5  -4   2    0.71    0.32
   5  -4   2    0.82    0.43
  -6   4  -2    8.62    0.80
   6  -4   2    8.90    0.71
   6  -4   2    8.97    0.90
   7  -4   2    2.63    0.45
   7   3  -2    0.77    0.38
  -7  -3   2    0.04    0.32
   6   3  -2    4.97    0.57
   6   3  -2    7.30    0.81
  -6  -3   2    5.58    0.74
   5   3  -2    7.21    0.70
   5   3  -2    7.52    0.78
  -5  -3   2    7.41    0.80
   4   3  -2   51.42    2.76
   4   3  -2   60.84    2.78
  -4  -3   2   54.29    3.02
  -4  -3   2   68.70    3.32
   3   3  -2    1.18    0.38
  -3  -3   2    0.96    0.33
  -3  -3   2    0.85    0.38
   2   3  -2   30.20    1.83
  -2  -3   2   40.04    1.87
  -2  -3   2   35.98    1.90
   1   3  -2   36.65    1.85
   1   3  -2   38.85    1.48
  -1  -3   2   36.93    1.84
  -1  -3   2   33.33    1.86
  -1  -3   2   36.18    1.61
   0   3  -2  204.32    7.36
   0  -3   2  200.77    8.73
   0  -3   2  182.38    8.92
  -1   3  -2   12.69    0.81
  -1   3  -2   12.72    0.68
   1  -3   2   13.06    0.81
  -2   3  -2   -0.10    0.20
  -2   3  -2    0.13    0.18
  -3   3  -2    4.10    0.51
  -3   3  -2    3.59    0.48
  -4   3  -2    0.75    0.42
  -4   3  -2    0.68    0.29
   4  -3   2    0.80    0.36
   5  -3   2   10.34    0.85
   5  -3   2   10.73    0.90
   5  -3   2   11.03    0.77
   6  -3   2    0.72    0.46
   6  -3   2    0.24    0.37
   7  -3   2    1.02    0.39
   7   2  -2    1.22    0.41
  -7  -2   2    1.64    0.44
   6   2  -2   22.47    1.33
   6   2  -2   22.22    1.39
  -6  -2   2   22.18    1.48
   5   2  -2    5.14    0.60
   5   2  -2    5.41    0.65
  -5  -2   2    5.48    0.71
  -4  -2   2    0.34    0.34
  -4  -2   2    0.03    0.26
   3   2  -2   91.15    4.44
  -3  -2   2   98.20    4.44
  -3  -2   2   91.96    4.56
   2   2  -2  175.16    7.32
  -2  -2   2  161.41    7.28
  -2  -2   2  154.80    6.92
  -2  -2   2  157.59    7.45
   1   2  -2   87.63    3.88
  -1  -2   2   82.18    3.97
  -1  -2   2   85.55    3.87
  -1  -2   2   84.45    3.67
   0   2  -2    1.73    0.24
   0   2  -2    1.99    0.29
   0  -2   2    1.98    0.25
   0  -2   2    1.54    0.26
  -1   2  -2  170.93    6.36
  -1   2  -2  167.06    7.46
   1  -2   2  168.26    7.43
  -2   2  -2   13.20    0.71
  -2   2  -2   12.75    0.75
  -3   2  -2    3.75    0.42
  -3   2  -2    3.50    0.41
  -3   2  -2    3.45    0.56
  -4   2  -2    6.78    0.87
   4  -2   2    5.74    0.60
   5  -2   2    6.85    0.74
   5  -2   2    7.35    0.78
   6  -2   2    5.18    0.66
   6  -2   2    5.65    0.75
   7  -2   2   -0.28    0.33
   7  -2   2    0.24    0.31
   7   1  -2    1.08    0.33
  -7  -1   2    1.37    0.46
   6   1  -2   37.67    2.09
   6   1  -2   42.42    2.11
  -6  -1   2   40.42    2.27
   5   1  -2   39.10    1.97
   5   1  -2   39.35    1.99
  -5  -1   2   36.13    2.11
  -4  -1   2    4.67    0.65
  -4  -1   2    8.17    0.80
   3   1  -2   45.96    2.34
  -3  -1   2   44.45    2.39
  -3  -1   2   47.31    2.33
   2   1  -2    3.14    0.38
  -2  -1   2    2.74    0.39
  -2  -1   2    2.54    0.37
   1   1  -2  953.60   41.72
  -1  -1   2  950.99   40.32
  -1  -1   2  955.76   42.59
  -1  -1   2  934.29   41.71
  -1  -1   2 1000.00   42.33
   0   1  -2    1.21    0.16
   0   1  -2    1.45    0.18
   0  -1   2    1.24    0.20
   0  -1   2    1.41    0.23
   0  -1   2    1.31    0.16
  -1   1  -2   89.19    3.39
  -1   1  -2   89.96    3.90
  -1   1  -2   82.49    3.91
   1  -1   2   93.64    3.90
  -2   1  -2    6.53    0.40
  -2   1  -2    5.33    0.41
  -3   1  -2  134.79    5.89
  -3   1  -2  126.76    6.23
  -4   1  -2   15.37    1.24
   4  -1   2   15.96    1.02
   4  -1   2   15.73    1.04
   5  -1   2    5.89    0.74
   5  -1   2    6.46    0.73
   6  -1   2    0.29    0.45
   6  -1   2    0.35    0.43
   7  -1   2    1.48    0.36
   7  -1   2    1.29    0.39
   7   0  -2    5.48    0.60
  -7   0   2    4.08    0.60
   6   0  -2    3.91    0.57
  -6   0   2    6.50    0.78
   5   0  -2    1.71    0.39
  -5   0   2    2.40    0.48
  -4   0   2    2.29    0.47
  -4   0   2    1.77    0.47
   3   0  -2   21.52    1.31
  -3   0   2   23.05    1.29
  -3   0   2   22.60    1.32
   2   0  -2  111.33    4.93
  -2   0   2  109.89    4.98
  -2   0   2  109.64    4.92
  -2   0   2  101.57    4.85
   1   0  -2  631.68   25.31
  -1   0   2  566.86   25.29
  -1   0   2  560.59   25.78
  -1   0   2  551.58   25.61
  -1   0   2  591.08   24.49
   0   0  -2  322.90   15.93
   0   0  -2  381.12   15.94
   0   0   2  356.05   15.92
   0   0   2  378.69   15.49
   0   0   2  392.85   16.24
  -1   0  -2   42.97    1.93
  -1   0  -2   43.99    1.92
   1   0   2   46.39    2.03
   1   0   2   42.58    2.11
  -2   0  -2   44.34    2.27
  -2   0  -2   47.26    1.80
  -2   0  -2   46.56    2.04
   2   0   2   40.11    2.15
  -3   0  -2   17.72    1.19
  -3   0  -2   17.08    0.94
  -4   0  -2   83.31    4.28
   4   0   2   79.20    3.82
   4   0   2   82.10    3.93
   5   0   2   11.62    0.96
   5   0   2   12.30    1.02
   6   0   2    9.41    0.92
   6   0   2    9.16    0.95
   7   0   2    0.73    0.32
   7   0   2    0.73    0.32
   7  -1  -2   -0.26    0.34
  -7   1   2   -0.10    0.36
   6  -1  -2    1.55    0.41
  -6   1   2    1.89    0.51
   5  -1  -2    5.41    0.58
  -5   1   2    4.26    0.58
   4  -1  -2    1.64    0.45
  -4   1   2    2.07    0.46
  -4   1   2    2.09    0.46
   3  -1  -2  384.40   16.92
  -3   1   2  393.59   17.20
  -3   1   2  366.89   16.90
   2  -1  -2  142.82    6.52
  -2   1   2  150.38    6.53
  -2   1   2  139.43    6.52
  -2   1   2  145.17    5.53
  -2   1   2  145.03    6.55
   1  -1  -2   59.68    2.66
  -1   1   2   55.97    2.65
  -1   1   2   55.45    2.69
   0  -1  -2   15.38    0.87
   0  -1  -2   16.43    0.80
   0  -1  -2   17.26    0.87
   0   1   2   18.08    0.89
   0   1   2   16.55    0.84
   0   1   2   16.75    0.94
  -1  -1  -2    8.41    0.52
  -1  -1  -2    9.17    0.52
  -1  -1  -2    8.66    0.58
   1   1   2    9.35    0.64
   1   1   2   10.56    0.61
  -2  -1  -2   33.88    1.64
  -2  -1  -2   34.33    1.83
   2   1   2   34.96    1.76
  -3  -1  -2    0.49    0.32
   4   1   2    4.71    0.58
   4   1   2    3.39    0.52
   4   1   2    4.34    0.59
   5   1   2   29.76    1.68
   5   1   2   27.18    1.59
   5   1   2   28.98    1.72
   6   1   2    9.59    0.90
   6   1   2    9.66    0.96
   7   1   2    6.15    0.59
   7  -2  -2   -0.01    0.32
  -7   2   2    0.45    0.42
   6  -2  -2   -0.15    0.33
  -6   2   2    0.06    0.39
   5  -2  -2    2.48    0.45
  -5   2   2    1.84    0.47
   4  -2  -2    3.25    0.59
  -4   2   2    2.90    0.55
   3  -2  -2    0.09    0.27
  -3   2   2    0.11    0.26
  -3   2   2    0.32    0.27
   2  -2  -2   -0.04    0.23
  -2   2   2    0.31    0.14
  -2   2   2   -0.08    0.17
  -2   2   2    0.09    0.24
  -2   2   2    0.29    0.23
   1  -2  -2    7.04    0.57
  -1   2   2    6.67    0.58
  -1   2   2    7.50    0.53
  -1   2   2    7.79    0.63
   0  -2  -2    1.91    0.20
   0   2   2    2.00    0.35
   0   2   2    2.56    0.35
   0   2   2    2.35    0.31
  -1  -2  -2   35.50    1.72
  -1  -2  -2   34.34    1.74
   1   2   2   34.42    1.82
   1   2   2   34.49    1.64
  -2  -2  -2  137.22    6.20
  -2  -2  -2  141.52    6.46
   2   2   2  135.03    6.36
   4   2   2    1.59    0.49
   4   2   2    2.07    0.46
   4   2   2    1.55    0.47
   5   2   2    1.84    0.50
   5   2   2    1.79    0.59
   5   2   2    0.93    0.46
   6   2   2    3.22    0.56
   6   2   2    4.78    0.67
   7  -3  -2    0.40    0.32
  -7   3   2    0.53    0.40
   6  -3  -2    0.46    0.37
  -6   3   2    0.53    0.46
   5  -3  -2    2.71    0.49
  -5   3   2    2.83    0.54
   4  -3  -2    6.46    0.85
  -4   3   2    6.23    0.83
   3  -3  -2   26.12    1.60
  -3   3   2   26.17    1.54
  -3   3   2   25.05    1.60
  -3   3   2   25.91    1.39
   2  -3  -2    0.29    0.28
  -2   3   2   -0.05    0.25
  -2   3   2   -0.14    0.25
  -2   3   2    0.23    0.26
   1  -3  -2   31.91    1.76
  -1   3   2   34.98    1.80
  -1   3   2   32.31    1.50
  -1   3   2   31.66    1.81
   0   3   2   46.93    2.26
   0   3   2   50.98    2.52
  -1  -3  -2   56.71    2.71
   1   3   2   53.64    2.80
  -2  -3  -2    8.91    0.69
   3   3   2    0.77    0.38
   3   3   2    0.45    0.32
   3   3   2    0.43    0.36
   4   3   2    9.72    0.90
   4   3   2    8.62    0.91
   4   3   2    8.55    0.90
   5   3   2    0.07    0.41
   5   3   2    0.38    0.45
   5   3   2   -0.19    0.46
   6   3   2    0.45    0.35
   6   3   2   -0.11    0.32
   7  -4  -2    3.58    0.50
  -7   4   2    4.68    0.58
   6  -4  -2    0.36    0.36
  -6   4   2    0.25    0.41
   5  -4  -2   34.90    2.01
  -5   4   2   39.12    2.14
   4  -4  -2    5.63    0.66
   4  -4  -2    5.15    0.84
   4  -4  -2    4.64    0.65
  -4   4   2    4.11    0.57
   3  -4  -2   49.67    2.76
  -3   4   2   49.98    2.36
  -3   4   2   53.81    2.81
  -3   4   2   46.56    2.69
   2  -4  -2   93.07    4.57
  -2   4   2   93.58    4.59
  -2   4   2   90.96    3.87
  -2   4   2   95.80    4.62
   1  -4  -2    1.32    0.38
  -1   4   2    1.26    0.41
  -1   4   2    1.93    0.38
  -1   4   2    1.23    0.35
   0  -4  -2   77.56    3.69
   0   4   2   73.41    3.79
   1   4   2   16.84    1.20
  -2  -4  -2    0.45    0.31
   2   4   2    0.62    0.37
   2   4   2    0.86    0.35
   3   4   2    0.85    0.40
   3   4   2    0.05    0.35
   3   4   2    0.74    0.44
   4   4   2    2.28    0.53
   4   4   2    2.30    0.51
   4   4   2    2.57    0.54
   5   4   2    0.13    0.39
   5   4   2    0.38    0.45
   5   4   2    0.17    0.40
   7  -5  -2    8.08    0.68
  -7   5   2    7.87    0.72
   6  -5  -2    7.90    0.81
  -6   5   2    8.28    0.88
   5  -5  -2   21.69    1.39
  -5   5   2   22.72    1.43
  -5   5   2   18.58    1.35
   4  -5  -2    0.98    0.39
   4  -5  -2    0.95    0.35
   4  -5  -2    0.95    0.45
  -4   5   2    1.46    0.43
  -4   5   2    1.01    0.44
   3  -5  -2    0.07    0.30
   3  -5  -2    0.05    0.30
   3  -5  -2    0.20    0.38
  -3   5   2    0.07    0.29
  -3   5   2    0.34    0.43
  -3   5   2    0.20    0.33
  -3   5   2    0.04    0.35
   2  -5  -2    2.57    0.57
  -2   5   2    2.61    0.54
  -2   5   2    2.12    0.47
   1  -5  -2   26.83    1.67
  -1   5   2   24.44    1.67
   0   5   2   53.04    2.93
   1   5   2    3.24    0.43
   1   5   2    2.92    0.44
   1   5   2    4.24    0.51
   1   5   2    2.50    0.54
   2   5   2   16.24    1.10
   2   5   2   16.44    1.08
   3   5   2   25.74    1.58
   3   5   2   24.82    1.49
   4   5   2    0.35    0.43
   4   5   2    0.12    0.43
   4   5   2   -0.18    0.37
   5   5   2   10.90    0.83
   5   5   2    9.70    0.83
   5   5   2    9.40    0.73
   7  -6  -2    0.06    0.24
  -7   6   2    0.23    0.28
   6  -6  -2    4.45    0.58
  -6   6   2    3.45    0.53
   5  -6  -2   24.96    1.52
  -5   6   2   25.11    1.53
  -5   6   2   24.18    1.53
   4  -6  -2   27.44    1.50
   4  -6  -2   27.15    1.62
  -4   6   2   25.66    1.61
  -4   6   2   27.88    1.66
   3  -6  -2   -0.03    0.34
   3  -6  -2    0.29    0.34
   3  -6  -2   -0.18    0.37
  -3   6   2    0.10    0.36
  -3   6   2    0.39    0.36
   2  -6  -2   18.87    1.20
   2  -6  -2   21.11    1.33
  -2   6   2   20.20    1.25
   1  -6  -2    1.93    0.40
   1  -6  -2    1.53    0.44
  -1   6   2    2.07    0.41
   0  -6  -2   89.39    4.40
   0   6   2   88.13    4.13
  -1  -6  -2   27.35    1.64
   1   6   2   28.59    1.54
   1   6   2   27.46    1.49
   1   6   2   28.30    1.62
   2   6   2    0.58    0.41
   2   6   2    0.43    0.41
   3   6   2   19.02    1.21
   3   6   2   17.29    1.25
   4   6   2    8.47    0.85
   4   6   2    8.55    0.82
   6  -7  -2    8.88    0.77
  -6   7   2    9.03    0.71
   5  -7  -2    0.04    0.36
   5  -7  -2    0.07    0.34
  -5   7   2    0.32    0.37
  -5   7   2    0.57    0.40
   4  -7  -2    2.02    0.52
   4  -7  -2    2.19    0.47
   4  -7  -2    1.65    0.46
  -4   7   2    1.72    0.48
  -4   7   2    1.32    0.42
   3  -7  -2   29.88    1.77
   3  -7  -2   29.07    1.56
  -3   7   2   25.08    1.63
   2  -7  -2    8.99    0.77
   2  -7  -2    8.28    0.84
   2  -7  -2    8.53    0.91
  -2   7   2    9.00    0.82
   1  -7  -2   11.70    0.83
   1  -7  -2    9.88    0.90
  -1   7   2   11.06    0.86
   0  -7  -2   28.72    1.76
   0  -7  -2   28.55    1.70
   0   7   2   31.54    1.64
  -1  -7  -2   12.55    1.01
  -1  -7  -2   13.61    1.03
   1   7   2   13.15    1.04
   1   7   2   12.80    0.88
  -2  -7  -2    7.43    0.77
  -2  -7  -2    7.46    0.79
   2   7   2    7.78    0.74
   2   7   2    8.65    0.83
   3   7   2    6.73    0.73
   3   7   2    7.69    0.75
   4   7   2    0.13    0.30
   4   7   2   -0.13    0.26
   5  -8  -2    8.17    0.75
   5  -8  -2    8.64    0.69
   4  -8  -2    0.28    0.38
   4  -8  -2    0.42    0.35
   4  -8  -2    0.14    0.37
  -4   8   2    0.33    0.33
   3  -8  -2   13.73    1.00
   3  -8  -2   15.63    1.03
   3  -8  -2   15.52    1.15
  -3   8   2   13.04    1.00
   2  -8  -2   25.35    1.48
   2  -8  -2   23.33    1.54
   2  -8  -2   24.88    1.39
  -2   8   2   23.09    1.43
   1  -8  -2    8.30    0.74
   1  -8  -2    8.94    0.90
   1  -8  -2    8.76    0.90
  -1   8   2    9.16    0.82
   0  -8  -2    2.99    0.55
   0  -8  -2    3.25    0.59
   0   8   2    4.43    0.63
   0   8   2    3.33    0.47
  -1  -8  -2    2.32    0.49
  -1  -8  -2    2.81    0.52
   1   8   2    1.10    0.39
  -2  -8  -2    3.50    0.48
   2   8   2    3.60    0.49
   3   8   2    5.91    0.55
   4  -9  -2    4.68    0.53
   4  -9  -2    5.17    0.56
   4  -9  -2    4.57    0.47
  -4   9   2    4.33    0.50
   3  -9  -2    2.03    0.47
   3  -9  -2    2.34    0.42
  -3   9   2    2.13    0.42
   2  -9  -2    0.93    0.35
   2  -9  -2    2.11    0.51
   2  -9  -2    1.99    0.47
  -2   9   2    0.73    0.35
   1  -9  -2    0.20    0.38
   1  -9  -2   -0.08    0.27
   1  -9  -2    0.47    0.38
  -1   9   2    0.71    0.35
  -1   9   2    0.47    0.40
   0  -9  -2   20.90    1.28
   0  -9  -2   21.43    1.25
   0   9   2   18.97    1.21
   0   9   2   18.74    1.11
  -1  -9  -2    3.05    0.45
  -1  -9  -2    3.98    0.50
   1   9   2    4.48    0.55
   2   9   2    1.55    0.29
   3 -10  -2    5.57    0.50
  -3  10   2    6.01    0.51
   2 -10  -2    0.28    0.28
   2 -10  -2    0.06    0.29
   2 -10  -2   -0.04    0.23
  -2  10   2   -0.16    0.24
  -2  10   2    0.32    0.24
   1 -10  -2    0.73    0.30
   1 -10  -2    0.51    0.28
  -1  10   2    0.52    0.23
  -1  10   2    1.19    0.30
   0 -10  -2    4.72    0.49
   0  10   2    4.66    0.48
   0 -12   3    1.46    0.28
   1 -12   3    2.73    0.39
   1 -12   3    1.52    0.30
   2 -12   3    0.25    0.21
   2  11  -3   12.33    0.80
  -2 -11   3   11.25    0.83
  -2 -11   3   10.69    0.74
   1  11  -3    2.08    0.45
  -1 -11   3    2.07    0.47
  -1 -11   3    1.61    0.42
   0  11  -3    1.99    0.42
   0 -11   3    2.78    0.51
   0 -11   3    2.27    0.46
   0 -11   3    2.46    0.47
  -1  11  -3   10.30    0.87
   1 -11   3   11.02    0.82
   1 -11   3   11.58    0.91
   1 -11   3   11.24    0.91
  -2  11  -3    0.42    0.34
  -2  11  -3    0.91    0.35
   2 -11   3   -0.23    0.32
   2 -11   3    0.00    0.30
   2 -11   3    0.23    0.33
  -3  11  -3    1.85    0.40
   3 -11   3    0.98    0.31
   3 -11   3    1.64    0.38
  -4  11  -3    2.53    0.36
   4 -11   3    1.68    0.27
   4 -11   3    2.16    0.33
   3  10  -3    3.18    0.43
  -3 -10   3    2.21    0.42
   2  10  -3    2.31    0.47
  -2 -10   3    1.25    0.41
  -2 -10   3    2.02    0.56
   1  10  -3    1.90    0.46
  -1 -10   3    1.22    0.53
  -1 -10   3    1.37    0.47
   0  10  -3    7.61    0.81
   0 -10   3    9.61    0.85
   0 -10   3    8.79    0.91
   0 -10   3    8.13    0.86
  -1  10  -3    2.40    0.49
  -1  10  -3    2.79    0.52
   1 -10   3    2.35    0.43
   1 -10   3    2.74    0.54
   1 -10   3    3.56    0.59
   1 -10   3    2.41    0.49
  -2  10  -3    0.62    0.41
   2 -10   3    0.45    0.37
   2 -10   3   -0.07    0.34
   2 -10   3    0.31    0.36
  -3  10  -3    3.42    0.54
   3 -10   3    5.67    0.64
   3 -10   3    4.28    0.57
  -4  10  -3   15.23    1.04
   4 -10   3   12.93    0.79
   4 -10   3   13.22    0.93
   4 -10   3   14.57    0.96
  -5  10  -3    2.28    0.36
   4   9  -3    0.32    0.31
   4   9  -3    0.71    0.30
  -4  -9   3    1.46    0.45
   3   9  -3    0.54    0.41
  -3  -9   3   -0.12    0.45
   2   9  -3    1.02    0.44
  -2  -9   3    1.60    0.51
  -2  -9   3    0.29    0.46
   1   9  -3   21.12    1.31
  -1  -9   3   18.05    1.35
  -1  -9   3   16.09    1.25
  -1  -9   3   21.62    1.32
   0   9  -3   14.03    1.02
   0   9  -3   12.24    1.03
   0  -9   3   12.20    1.01
   0  -9   3   13.20    1.08
   0  -9   3   14.16    1.04
   0  -9   3   12.45    0.93
  -1   9  -3    2.23    0.50
  -1   9  -3    1.83    0.46
   1  -9   3    1.47    0.43
   1  -9   3    1.30    0.49
   1  -9   3    2.66    0.48
   1  -9   3    1.37    0.44
  -2   9  -3    0.55    0.42
   2  -9   3   -0.14    0.33
   2  -9   3    0.21    0.36
   2  -9   3    0.26    0.37
  -3   9  -3   13.66    1.08
   3  -9   3   13.28    1.02
   3  -9   3   14.40    1.05
   3  -9   3   14.10    0.86
  -4   9  -3    2.95    0.50
   4  -9   3    4.56    0.51
   4  -9   3    6.01    0.64
   4  -9   3    3.34    0.50
  -5   9  -3   -0.23    0.33
   5  -9   3   -0.11    0.29
   5  -9   3    0.18    0.24
   5   8  -3    0.60    0.30
   5   8  -3    1.74    0.31
  -5  -8   3    1.69    0.41
   4   8  -3   10.19    0.88
  -4  -8   3   10.36    1.02
   3   8  -3   14.94    1.13
  -3  -8   3   17.52    1.31
   2   8  -3   86.94    4.11
  -2  -8   3   81.83    4.13
  -2  -8   3   87.95    4.39
   1   8  -3   15.45    1.09
  -1  -8   3   15.94    1.18
  -1  -8   3   16.45    1.12
  -1  -8   3   14.85    1.12
   0   8  -3   12.87    1.00
   0   8  -3   13.54    1.02
   0  -8   3   15.72    1.08
   0  -8   3   13.98    1.04
   0  -8   3   14.62    1.09
   0  -8   3   14.06    0.96
  -1   8  -3    1.89    0.45
   1  -8   3    1.55    0.45
   1  -8   3    2.27    0.49
   1  -8   3    2.14    0.42
   1  -8   3    3.01    0.53
  -2   8  -3    1.54    0.45
   2  -8   3    1.59    0.44
   2  -8   3    1.53    0.43
   2  -8   3    1.65    0.44
  -3   8  -3    5.74    0.68
   3  -8   3    4.79    0.53
   3  -8   3    6.27    0.71
   3  -8   3    5.32    0.63
  -4   8  -3    7.64    0.79
   4  -8   3    5.49    0.65
   4  -8   3    7.49    0.78
   4  -8   3    8.33    0.70
  -5   8  -3    5.10    0.63
   5  -8   3    5.64    0.58
   5  -8   3    5.76    0.58
  -6   8  -3    1.71    0.34
   6  -8   3    0.83    0.28
   6   7  -3   -0.07    0.24
  -6  -7   3    0.30    0.29
   5   7  -3    1.94    0.42
   5   7  -3    0.67    0.50
  -5  -7   3    1.89    0.54
   4   7  -3    1.40    0.44
  -4  -7   3    1.88    0.57
   3   7  -3   14.43    1.07
  -3  -7   3   15.25    1.19
   2   7  -3   21.32    1.34
  -2  -7   3   22.34    1.48
  -2  -7   3   21.09    1.34
   1   7  -3   -0.23    0.33
   1   7  -3   -0.29    0.32
   1   7  -3   -0.23    0.28
  -1  -7   3    0.15    0.35
  -1  -7   3   -0.20    0.33
  -1  -7   3   -0.23    0.36
   0   7  -3   21.68    1.23
   0   7  -3   20.55    1.53
   0  -7   3   21.77    1.55
  -1   7  -3   45.29    2.02
   1  -7   3   41.60    1.99
   1  -7   3   35.29    2.15
  -2   7  -3    0.59    0.36
   2  -7   3    0.37    0.28
   2  -7   3    0.55    0.32
   2  -7   3    0.39    0.35
  -3   7  -3   85.14    4.19
   3  -7   3   84.78    3.85
   3  -7   3   83.50    3.99
  -4   7  -3    8.29    0.81
   4  -7   3    8.21    0.76
   4  -7   3    8.20    0.78
   4  -7   3    9.00    0.78
  -5   7  -3   -0.44    0.31
   5  -7   3   -0.19    0.27
   5  -7   3    0.27    0.38
  -6   7  -3    0.76    0.31
   6  -7   3    0.29    0.26
   6   6  -3   12.06    0.94
   6   6  -3   10.19    0.74
  -6  -6   3   12.05    0.96
   5   6  -3    2.05    0.46
  -5  -6   3    2.28    0.55
   4   6  -3    0.04    0.34
  -4  -6   3    0.32    0.45
   3   6  -3   -0.35    0.28
  -3  -6   3   -0.07    0.35
   2   6  -3   13.12    1.15
  -2  -6   3   11.21    1.02
  -2  -6   3   12.16    1.09
   1   6  -3    0.29    0.35
  -1  -6   3    0.18    0.31
  -1  -6   3   -0.04    0.31
   0   6  -3   19.98    1.10
   0   6  -3   20.20    1.39
   0  -6   3   20.45    1.38
  -1   6  -3   60.76    2.65
  -1   6  -3   59.97    3.15
  -2   6  -3   52.12    2.80
  -2   6  -3   51.74    2.40
  -3   6  -3   30.27    1.80
   3  -6   3   35.20    1.83
   3  -6   3   32.50    1.79
   3  -6   3   33.77    1.77
   3  -6   3   34.21    1.69
  -4   6  -3    5.53    0.64
   4  -6   3    6.09    0.65
   4  -6   3    5.39    0.67
   4  -6   3    5.26    0.58
  -5   6  -3    3.85    0.56
   5  -6   3    4.43    0.57
   5  -6   3    3.70    0.62
  -6   6  -3    3.19    0.45
   6  -6   3    1.74    0.33
   6   5  -3    2.03    0.54
   6   5  -3    2.00    0.42
  -6  -5   3    0.99    0.50
   5   5  -3    9.61    0.88
  -5  -5   3   12.52    1.05
   4   5  -3    3.56    0.54
  -4  -5   3    3.67    0.62
  -3  -5   3   23.24    1.64
  -3  -5   3   24.08    1.59
   2   5  -3   18.85    1.43
  -2  -5   3   22.45    1.47
  -2  -5   3   24.73    1.47
   1   5  -3    5.95    0.77
   1   5  -3    7.07    0.53
  -1  -5   3    6.66    0.73
  -1  -5   3    6.86    0.69
   0   5  -3   88.64    3.60
   0   5  -3   90.97    4.34
   0  -5   3   88.96    4.30
  -1   5  -3    9.37    0.69
  -1   5  -3    8.88    0.77
   1  -5   3    8.52    0.77
  -2   5  -3   -0.07    0.26
  -2   5  -3    0.09    0.20
  -3   5  -3    0.87    0.33
  -3   5  -3    1.30    0.40
  -4   5  -3    0.03    0.30
   4  -5   3   -0.27    0.32
   4  -5   3    0.37    0.30
   4  -5   3    0.36    0.30
   4  -5   3    0.34    0.37
   5  -5   3    6.09    0.75
   5  -5   3    3.72    0.55
   5  -5   3    4.05    0.51
   6  -5   3   17.23    1.23
   7   4  -3    1.70    0.39
  -7  -4   3    0.93    0.32
   6   4  -3    8.56    0.87
   6   4  -3    7.72    0.79
  -6  -4   3    8.10    0.91
   5   4  -3    0.56    0.35
  -5  -4   3    1.36    0.44
   4   4  -3    1.11    0.34
  -4  -4   3    1.11    0.43
   3   4  -3    4.09    0.66
  -3  -4   3    3.26    0.62
  -3  -4   3    4.63    0.64
   2   4  -3   23.85    1.50
  -2  -4   3   27.56    1.56
  -2  -4   3   23.81    1.47
   1   4  -3   30.96    1.71
   1   4  -3   32.31    1.36
  -1  -4   3   29.67    1.68
  -1  -4   3   31.32    1.77
   0   4  -3   13.13    0.75
   0   4  -3   13.75    0.95
   0  -4   3   15.68    0.95
  -1   4  -3   20.66    1.21
  -1   4  -3   21.48    1.05
   1  -4   3   18.92    1.17
  -2   4  -3   16.03    1.02
  -2   4  -3   15.44    0.91
  -3   4  -3    4.99    0.57
  -3   4  -3    3.78    0.52
   4  -4   3    0.76    0.40
   4  -4   3    0.35    0.32
   4  -4   3    0.54    0.38
   5  -4   3   12.93    1.02
   5  -4   3   13.65    1.08
   5  -4   3   12.48    0.87
   6  -4   3   -0.07    0.41
   6  -4   3    0.52    0.41
   7  -4   3    1.73    0.38
   7   3  -3    0.47    0.28
   7   3  -3    0.77    0.38
  -7  -3   3    0.16    0.36
   6   3  -3    0.36    0.37
   6   3  -3    0.14    0.37
  -6  -3   3   -0.12    0.41
   5   3  -3    2.52    0.49
  -5  -3   3    2.77    0.57
  -4  -3   3    0.06    0.27
  -4  -3   3    0.13    0.38
   3   3  -3   27.28    1.59
  -3  -3   3   23.20    1.50
  -3  -3   3   27.11    1.62
   2   3  -3    4.64    0.55
   2   3  -3    3.99    0.32
  -2  -3   3    4.26    0.52
  -2  -3   3    4.26    0.57
  -2  -3   3    3.75    0.33
   1   3  -3   24.12    1.32
   1   3  -3   25.06    1.05
  -1  -3   3   24.12    1.34
  -1  -3   3   22.10    1.14
  -1  -3   3   22.62    1.27
   0   3  -3   35.07    1.68
   0   3  -3   31.89    1.40
   0  -3   3   32.74    1.64
   0  -3   3   30.48    1.56
  -1   3  -3    0.79    0.22
  -1   3  -3    0.90    0.28
  -2   3  -3    0.17    0.18
  -2   3  -3    0.10    0.18
  -3   3  -3   63.79    2.79
  -3   3  -3   67.21    3.12
   4  -3   3    1.22    0.32
   4  -3   3    1.36    0.41
   4  -3   3    1.51    0.39
   5  -3   3    8.58    0.85
   5  -3   3    8.60    0.86
   6  -3   3    0.49    0.44
   6  -3   3    0.09    0.41
   7  -3   3   -0.12    0.28
   7  -3   3    0.16    0.32
   7   2  -3    0.20    0.33
  -7  -2   3    0.37    0.40
   6   2  -3   16.94    1.16
   6   2  -3   16.91    1.18
  -6  -2   3   19.08    1.34
   5   2  -3   57.95    2.83
   5   2  -3   54.36    2.80
  -5  -2   3   60.49    3.05
  -4  -2   3    1.03    0.36
  -4  -2   3    1.19    0.45
   3   2  -3   82.08    4.05
  -3  -2   3   88.06    4.15
  -3  -2   3   81.73    4.02
   2   2  -3    5.45    0.56
  -2  -2   3    6.68    0.59
  -2  -2   3    6.99    0.48
  -2  -2   3    6.33    0.56
   1   2  -3    6.46    0.50
  -1  -2   3    5.84    0.44
  -1  -2   3    5.40    0.48
  -1  -2   3    6.53    0.56
   0   2  -3   59.80    2.82
   0  -2   3   63.41    2.78
   0  -2   3   60.98    2.81
  -1   2  -3    7.61    0.48
  -1   2  -3    7.61    0.50
  -1   2  -3    7.41    0.46
   1  -2   3    7.69    0.59
  -2   2  -3   55.87    2.50
  -2   2  -3   52.98    2.26
  -3   2  -3    7.15    0.75
   4  -2   3    1.22    0.37
   4  -2   3    0.82    0.38
   5  -2   3    1.28    0.51
   5  -2   3    1.04    0.46
   6  -2   3    9.80    0.91
   6  -2   3    8.99    0.90
   7  -2   3    0.58    0.35
   7  -2   3    0.66    0.30
   7   1  -3    6.59    0.69
  -7  -1   3    5.58    0.69
   6   1  -3    0.93    0.42
  -6  -1   3    0.83    0.49
   5   1  -3    3.02    0.49
  -5  -1   3    1.75    0.46
   4   1  -3   15.29    1.19
  -4  -1   3   15.92    1.26
  -4  -1   3   18.63    1.22
   3   1  -3  121.27    5.54
  -3  -1   3  120.72    5.52
  -3  -1   3  113.86    5.60
   2   1  -3   14.41    0.89
  -2  -1   3   13.96    0.87
  -2  -1   3   12.42    0.85
  -2  -1   3   14.60    0.83
   1   1  -3  292.30   12.69
  -1  -1   3  299.09   12.96
  -1  -1   3  282.67   12.67
  -1  -1   3  279.51   12.84
  -1  -1   3  288.98   12.29
   0   1  -3  867.17   39.53
   0   1  -3  910.13   39.54
   0  -1   3  902.35   39.52
   0  -1   3  940.37   38.34
   0  -1   3  928.89   40.15
   1  -1   3   10.36    0.74
   1  -1   3   12.51    0.75
  -2   1  -3   30.81    1.72
  -2   1  -3   31.74    1.38
  -3   1  -3    3.49    0.59
   4  -1   3    0.49    0.32
   4  -1   3    0.81    0.35
   5  -1   3    4.79    0.69
   5  -1   3    3.34    0.60
   6  -1   3    0.51    0.44
   6  -1   3    0.52    0.46
   7  -1   3   -0.01    0.25
   7   0  -3    1.79    0.45
  -7   0   3    2.15    0.52
   6   0  -3    0.29    0.38
  -6   0   3    0.62    0.46
   5   0  -3    0.08    0.30
  -5   0   3    1.07    0.40
   4   0  -3   10.52    0.94
  -4   0   3   10.08    0.90
  -4   0   3   10.33    0.89
   3   0  -3   18.02    1.17
  -3   0   3   17.76    1.13
  -3   0   3   19.48    1.18
   2   0  -3    0.12    0.22
  -2   0   3    0.30    0.19
  -2   0   3    0.34    0.25
  -2   0   3    0.33    0.21
  -2   0   3    0.22    0.24
   1   0  -3  175.96    8.90
  -1   0   3  223.18    8.70
  -1   0   3  188.69    8.91
  -1   0   3  219.87    9.08
   0   0  -3   61.36    2.68
   0   0  -3   55.82    2.68
   0   0   3   57.42    2.64
   0   0   3   60.30    2.85
   0   0   3   62.59    2.72
  -1   0  -3    0.46    0.20
   1   0   3    0.54    0.25
   1   0   3    1.09    0.29
  -2   0  -3  101.54    4.07
  -2   0  -3  106.32    5.01
   2   0   3  108.08    4.93
  -3   0  -3   46.98    2.57
   4   0   3   20.92    1.31
   4   0   3   22.08    1.30
   5   0   3   37.19    2.05
   5   0   3   36.72    2.06
   6   0   3    4.36    0.66
   6   0   3    2.53    0.53
   7  -1  -3    1.43    0.40
  -7   1   3    1.49    0.46
   6  -1  -3   22.93    1.41
  -6   1   3   22.56    1.51
   5  -1  -3   11.39    0.89
  -5   1   3   12.27    0.96
   4  -1  -3   15.07    1.20
  -4   1   3   18.02    1.24
   3  -1  -3    4.63    0.60
  -3   1   3    4.91    0.61
   2  -1  -3    6.17    0.58
  -2   1   3    6.97    0.56
  -2   1   3    6.13    0.58
   1  -1  -3   14.58    0.87
  -1   1   3   13.88    0.84
  -1   1   3   15.88    0.92
  -1   1   3   15.25    0.94
   0  -1  -3    1.89    0.26
   0  -1  -3    1.93    0.20
   0   1   3    1.73    0.32
   0   1   3    1.80    0.32
  -1  -1  -3    0.83    0.24
  -1  -1  -3    1.73    0.19
   1   1   3    1.57    0.34
   1   1   3    1.65    0.31
  -2  -1  -3   23.08    1.28
   2   1   3   18.42    1.22
  -3  -1  -3    3.32    0.56
   3   1   3    2.14    0.41
   4   1   3    6.82    0.74
   4   1   3    5.75    0.67
   4   1   3    6.77    0.75
   5   1   3   13.10    1.07
   5   1   3   13.56    1.13
   6   1   3   -0.28    0.39
   6   1   3   -0.02    0.39
   7  -2  -3    0.69    0.36
  -7   2   3    0.89    0.49
   6  -2  -3    2.61    0.52
  -6   2   3    3.02    0.55
   5  -2  -3    0.78    0.36
  -5   2   3    0.44    0.36
   4  -2  -3   10.77    1.02
  -4   2   3   11.17    1.02
   3  -2  -3   31.56    1.89
  -3   2   3   35.06    1.93
   2  -2  -3    4.74    0.57
  -2   2   3    3.88    0.52
  -2   2   3    3.34    0.50
   1  -2  -3   85.01    3.99
  -1   2   3   83.46    4.09
  -1   2   3   86.66    3.89
  -1   2   3   84.38    3.98
   0  -2  -3    1.36    0.29
   0   2   3    1.38    0.32
   0   2   3    0.97    0.29
  -1  -2  -3   23.94    1.21
   1   2   3   22.52    1.40
   2   2   3    0.30    0.24
   3   2   3    1.76    0.45
   3   2   3    1.84    0.47
   3   2   3    2.43    0.44
   4   2   3    1.89    0.54
   4   2   3    1.79    0.49
   4   2   3    1.77    0.50
   5   2   3    0.44    0.50
   5   2   3    0.24    0.40
   5   2   3    0.82    0.43
   6   2   3    1.30    0.39
   6   2   3    0.37    0.34
   7  -3  -3    1.48    0.40
  -7   3   3    2.11    0.51
   6  -3  -3    2.27    0.51
  -6   3   3    2.80    0.60
   5  -3  -3    3.63    0.59
   5  -3  -3    3.95    0.59
  -5   3   3    3.21    0.54
  -5   3   3    2.76    0.53
   4  -3  -3    1.16    0.48
   4  -3  -3    1.00    0.37
   4  -3  -3    0.55    0.36
  -4   3   3    1.07    0.50
  -4   3   3    0.86    0.36
  -4   3   3    0.90    0.37
   3  -3  -3    8.83    0.88
  -3   3   3    9.57    0.92
  -3   3   3    8.53    0.82
   2  -3  -3    7.04    0.74
  -2   3   3    7.80    0.74
  -2   3   3    8.31    0.79
   1  -3  -3   32.09    1.82
  -1   3   3   32.86    1.75
  -1   3   3   34.80    1.93
   0  -3  -3   17.65    1.08
   0   3   3   15.29    1.16
   0   3   3   17.74    1.08
  -1  -3  -3    4.52    0.48
   1   3   3    4.90    0.65
   2   3   3   44.99    2.32
   2   3   3   46.02    2.26
   3   3   3    4.10    0.60
   3   3   3    3.61    0.53
   3   3   3    4.46    0.62
   4   3   3    0.58    0.44
   4   3   3   -0.08    0.40
   4   3   3    0.36    0.41
   5   3   3    0.57    0.44
   5   3   3    0.29    0.42
   5   3   3    0.14    0.41
   7  -4  -3   13.07    0.93
  -7   4   3   11.90    0.94
   6  -4  -3    0.19    0.34
  -6   4   3   -0.21    0.42
   5  -4  -3    5.88    0.75
   5  -4  -3    5.62    0.71
  -5   4   3    5.09    0.68
   4  -4  -3    7.84    0.67
   4  -4  -3    6.97    0.72
   4  -4  -3    6.43    0.74
  -4   4   3    6.45    0.72
   3  -4  -3    3.42    0.68
   3  -4  -3    2.93    0.46
   3  -4  -3    1.93    0.41
  -3   4   3    3.26    0.72
   2  -4  -3   43.60    2.47
  -2   4   3   44.96    2.35
  -2   4   3   42.66    2.49
   1  -4  -3    2.62    0.52
  -1   4   3    2.33    0.52
   0  -4  -3    2.99    0.51
   0   4   3    2.25    0.52
   1   4   3    1.49    0.47
   1   4   3    1.30    0.38
   1   4   3    0.77    0.40
   2   4   3    8.91    0.83
   2   4   3    7.30    0.72
   3   4   3    2.10    0.51
   3   4   3    2.60    0.57
   4   4   3    2.69    0.57
   4   4   3    4.12    0.58
   4   4   3    3.29    0.60
   5   4   3    7.43    0.77
   5   4   3    7.54    0.74
   5   4   3    7.01    0.64
   7  -5  -3   -0.04    0.25
  -7   5   3   -0.09    0.29
   6  -5  -3    8.15    0.81
  -6   5   3   10.08    0.89
  -6   5   3    8.52    0.82
   5  -5  -3    0.70    0.41
   5  -5  -3    0.94    0.47
  -5   5   3    1.41    0.46
  -5   5   3    0.75    0.45
   4  -5  -3   90.24    4.51
   4  -5  -3   96.83    4.30
   4  -5  -3  101.14    4.79
  -4   5   3   92.58    4.53
   3  -5  -3   15.98    1.02
   3  -5  -3   15.61    1.13
  -3   5   3   14.94    1.07
   2  -5  -3    7.87    0.74
   2  -5  -3    7.59    0.75
  -2   5   3    9.03    0.76
   1  -5  -3    5.99    0.64
  -1   5   3    6.60    0.60
   0  -5  -3    3.36    0.52
   0  -5  -3    2.83    0.42
   0   5   3    3.95    0.48
   0   5   3    2.43    0.42
   1   5   3    2.87    0.48
   1   5   3    2.99    0.52
   2   5   3    0.18    0.42
   2   5   3    0.43    0.41
   3   5   3    9.67    0.91
   3   5   3    8.86    0.88
   4   5   3    2.86    0.56
   4   5   3    1.99    0.54
   6  -6  -3    0.81    0.37
  -6   6   3    1.25    0.40
  -6   6   3    0.52    0.31
   5  -6  -3    1.19    0.44
   5  -6  -3    2.58    0.47
   5  -6  -3    1.71    0.46
  -5   6   3    2.18    0.48
  -5   6   3    1.73    0.49
   4  -6  -3    1.91    0.49
   4  -6  -3    0.67    0.36
   4  -6  -3    1.81    0.55
  -4   6   3    1.49    0.49
   3  -6  -3    1.80    0.55
   3  -6  -3    1.78    0.48
  -3   6   3    1.11    0.43
   2  -6  -3    5.42    0.65
   2  -6  -3    4.92    0.66
  -2   6   3    6.30    0.70
   1  -6  -3   38.91    2.42
   1  -6  -3   47.85    2.25
  -1   6   3   50.43    2.33
   0  -6  -3    0.84    0.37
   0   6   3    0.79    0.38
   0   6   3    0.72    0.34
  -1  -6  -3  111.61    5.65
   1   6   3  120.71    5.51
   1   6   3  112.89    5.16
   2   6   3   10.20    0.91
   2   6   3    8.20    0.83
   3   6   3    0.26    0.39
   3   6   3    0.16    0.40
   4   6   3    0.15    0.34
   4   6   3   -0.13    0.29
   6  -7  -3    2.30    0.38
  -6   7   3    3.64    0.43
   5  -7  -3    1.45    0.38
   5  -7  -3    1.18    0.39
   5  -7  -3    1.04    0.41
  -5   7   3    0.82    0.40
   4  -7  -3    0.03    0.41
   4  -7  -3   -0.37    0.34
  -4   7   3   -0.20    0.34
   3  -7  -3    0.36    0.47
   3  -7  -3   -0.13    0.33
   3  -7  -3    0.18    0.37
  -3   7   3    0.08    0.34
   2  -7  -3    1.23    0.44
   2  -7  -3    1.03    0.48
   2  -7  -3    1.98    0.49
  -2   7   3    1.19    0.40
   1  -7  -3   10.62    0.93
   1  -7  -3    8.68    0.81
  -1   7   3   10.81    0.85
   0  -7  -3    5.20    0.70
   0  -7  -3    4.66    0.63
   0   7   3    5.63    0.73
   0   7   3    5.12    0.54
  -1  -7  -3    0.63    0.35
  -1  -7  -3    0.79    0.44
   1   7   3    0.05    0.36
   2   7   3    2.39    0.44
   2   7   3    3.74    0.57
   3   7   3   -0.28    0.29
   3   7   3    0.54    0.36
   5  -8  -3    3.82    0.41
   5  -8  -3    3.54    0.42
  -5   8   3    4.53    0.49
   4  -8  -3    0.52    0.38
   4  -8  -3    0.58    0.35
  -4   8   3    0.47    0.35
   3  -8  -3    1.00    0.37
   3  -8  -3    2.93    0.56
   3  -8  -3    1.61    0.43
  -3   8   3    1.56    0.40
   2  -8  -3    6.11    0.71
   2  -8  -3    5.90    0.64
   2  -8  -3    4.98    0.64
  -2   8   3    6.41    0.68
   1  -8  -3    1.96    0.54
   1  -8  -3    1.50    0.46
   1  -8  -3    1.64    0.37
  -1   8   3    0.64    0.41
  -1   8   3    0.75    0.36
   0  -8  -3    0.73    0.45
   0  -8  -3    0.05    0.35
   0   8   3    0.18    0.38
  -1  -8  -3    0.07    0.29
  -1  -8  -3    0.32    0.34
   1   8   3    0.55    0.39
   2   8   3    1.94    0.36
   4  -9  -3    4.50    0.46
  -4   9   3    4.44    0.44
   3  -9  -3    0.12    0.33
   3  -9  -3    0.62    0.29
  -3   9   3    0.18    0.25
   2  -9  -3   12.44    0.80
   2  -9  -3   11.73    0.84
   2  -9  -3   11.48    0.88
  -2   9   3   10.90    0.84
  -2   9   3   12.21    0.80
   1  -9  -3    8.84    0.76
   1  -9  -3    8.46    0.70
  -1   9   3    9.29    0.73
  -1   9   3    9.23    0.61
   0  -9  -3    0.29    0.28
   0  -9  -3   -0.02    0.26
   0   9   3    0.25    0.32
   1  12  -4    7.75    0.61
   0  12  -4   10.71    0.76
   0 -12   4   10.88    0.78
   0 -12   4   10.22    0.76
  -1  12  -4    0.63    0.27
   1 -12   4    0.71    0.31
   1 -12   4    1.04    0.33
   2 -12   4    5.07    0.51
   2 -12   4    4.13    0.43
   2  11  -4    0.17    0.29
  -2 -11   4    0.19    0.34
  -2 -11   4    0.34    0.30
   1  11  -4   12.99    0.93
  -1 -11   4   11.28    0.85
  -1 -11   4   10.76    0.86
  -1 -11   4    9.71    0.87
   0  11  -4    0.81    0.37
   0 -11   4    0.34    0.41
   0 -11   4    0.76    0.38
  -1  11  -4    0.11    0.35
  -1  11  -4    0.27    0.31
   1 -11   4   -0.28    0.35
   1 -11   4    0.18    0.37
   1 -11   4   -0.21    0.29
  -2  11  -4   19.68    1.23
   2 -11   4   20.24    1.22
   2 -11   4   16.62    1.14
   2 -11   4   20.41    1.15
  -3  11  -4    3.23    0.47
   3 -11   4    2.62    0.40
   3 -11   4    1.74    0.35
  -4  11  -4    2.88    0.39
   4  10  -4    0.02    0.20
  -4 -10   4    0.28    0.28
   3  10  -4   13.63    0.94
  -3 -10   4   13.15    1.02
   2  10  -4    0.14    0.35
  -2 -10   4   -0.07    0.45
  -2 -10   4   -0.04    0.34
   1  10  -4    0.08    0.34
  -1 -10   4    0.31    0.36
  -1 -10   4    0.19    0.43
  -1 -10   4    0.25    0.42
   0  10  -4    9.48    0.90
   0  10  -4   10.16    0.86
   0 -10   4    8.81    0.79
   0 -10   4    8.34    0.85
   0 -10   4   10.28    0.91
  -1  10  -4    1.64    0.49
   1 -10   4    0.88    0.37
   1 -10   4    0.88    0.41
   1 -10   4    0.81    0.40
  -2  10  -4   10.14    0.91
   2 -10   4    9.57    0.83
   2 -10   4   11.14    0.86
   2 -10   4    9.53    0.83
  -3  10  -4    1.54    0.45
   3 -10   4    1.58    0.46
   3 -10   4    2.21    0.47
  -4  10  -4    6.58    0.68
   4 -10   4    5.55    0.53
   4 -10   4    5.70    0.58
   4 -10   4    5.76    0.58
  -5  10  -4    5.64    0.54
   4   9  -4   10.29    0.84
  -4  -9   4   10.02    0.94
   3   9  -4    5.67    0.69
  -3  -9   4    3.73    0.66
   2   9  -4    0.09    0.37
  -2  -9   4   -0.29    0.49
  -2  -9   4    0.09    0.40
  -2  -9   4    0.57    0.43
   1   9  -4    1.08    0.43
  -1  -9   4    0.76    0.45
  -1  -9   4    0.82    0.51
  -1  -9   4    1.29    0.45
   0   9  -4   30.05    1.67
   0   9  -4   22.03    1.60
   0  -9   4   28.01    1.64
   0  -9   4   27.94    1.72
   0  -9   4   28.71    1.66
   0  -9   4   29.18    1.55
  -1   9  -4    0.39    0.41
   1  -9   4    0.38    0.39
   1  -9   4    0.27    0.34
   1  -9   4    0.04    0.39
  -2   9  -4   13.42    1.06
   2  -9   4   14.14    1.05
   2  -9   4   12.64    0.97
   2  -9   4   13.22    1.04
  -3   9  -4    2.87    0.53
   3  -9   4    3.30    0.57
   3  -9   4    3.35    0.46
   3  -9   4    3.43    0.55
  -4   9  -4    0.27    0.38
   4  -9   4    0.71    0.35
   4  -9   4    0.10    0.37
   4  -9   4    0.27    0.33
  -5   9  -4    2.27    0.40
   5  -9   4    2.52    0.38
   5   8  -4   -0.23    0.34
   5   8  -4    0.81    0.32
  -5  -8   4    1.29    0.48
   4   8  -4    3.34    0.53
  -4  -8   4    3.45    0.62
   3   8  -4   22.28    1.46
  -3  -8   4   24.10    1.61
   2   8  -4    0.02    0.36
   2   8  -4    0.70    0.43
  -2  -8   4    0.13    0.48
  -2  -8   4   -0.74    0.31
  -2  -8   4    0.18    0.37
   1   8  -4   21.17    1.33
   1   8  -4   19.77    1.28
  -1  -8   4   18.29    1.38
  -1  -8   4   19.74    1.30
  -1  -8   4   18.94    1.27
   0   8  -4    0.15    0.36
   0  -8   4   -0.14    0.41
   0  -8   4   -0.40    0.30
   0  -8   4    0.18    0.38
   0  -8   4    0.31    0.34
  -1   8  -4   11.26    0.92
   1  -8   4   10.01    0.96
   1  -8   4   10.71    0.83
   1  -8   4   10.34    0.89
   1  -8   4   10.29    0.84
  -2   8  -4    0.08    0.35
   2  -8   4    0.07    0.40
   2  -8   4    0.00    0.29
   2  -8   4    0.16    0.34
   2  -8   4    0.05    0.34
   2  -8   4    0.24    0.36
  -3   8  -4    8.73    0.82
   3  -8   4    7.02    0.75
   3  -8   4    8.52    0.81
   3  -8   4    7.95    0.73
  -4   8  -4   10.27    0.89
   4  -8   4   10.92    0.89
   4  -8   4   10.58    0.83
   4  -8   4    9.41    0.81
  -5   8  -4   23.96    1.45
   5  -8   4   26.52    1.30
   6  -8   4    0.62    0.26
   6   7  -4    5.71    0.60
   6   7  -4    5.28    0.47
   5   7  -4   14.02    1.01
  -5  -7   4   12.29    1.13
   4   7  -4    8.04    0.86
  -4  -7   4    8.75    0.97
   3   7  -4   13.02    1.01
  -3  -7   4   12.88    1.13
   2   7  -4    2.42    0.52
   2   7  -4    1.72    0.45
  -2  -7   4    2.46    0.54
  -2  -7   4    2.07    0.48
  -2  -7   4    1.75    0.48
   1   7  -4   27.35    1.51
   1   7  -4   27.56    1.82
  -1  -7   4   27.59    1.77
  -1  -7   4   24.25    1.46
  -1  -7   4   19.09    1.53
  -1  -7   4   25.31    1.46
   0   7  -4    1.21    0.37
   0   7  -4    1.71    0.50
   0  -7   4    1.91    0.42
  -1   7  -4   20.78    1.24
  -1   7  -4   22.28    1.50
  -1   7  -4   21.90    1.30
   1  -7   4   16.61    1.19
   1  -7   4   19.71    1.20
   1  -7   4   20.06    1.16
  -2   7  -4    8.02    0.73
   2  -7   4    8.52    0.74
   2  -7   4    8.02    0.63
   2  -7   4    7.98    0.74
   2  -7   4    8.97    0.73
  -3   7  -4   14.59    1.06
   3  -7   4   15.71    0.93
   3  -7   4   15.03    1.04
   3  -7   4   15.76    1.01
   3  -7   4   15.19    1.06
  -4   7  -4   27.40    1.56
   4  -7   4   25.37    1.50
   4  -7   4   26.17    1.44
   4  -7   4   24.30    1.42
   4  -7   4   26.07    1.38
  -5   7  -4    1.89    0.41
   5  -7   4    1.77    0.45
   6  -7   4   -0.08    0.22
   6   6  -4   -0.06    0.35
   6   6  -4    0.04    0.32
  -6  -6   4    0.35    0.42
   5   6  -4    5.64    0.67
  -5  -6   4    8.20    0.89
   4   6  -4    5.00    0.66
  -4  -6   4    3.68    0.64
   3   6  -4    8.89    0.82
   3   6  -4    8.63    0.79
  -3  -6   4    9.21    0.88
   2   6  -4    3.07    0.68
  -2  -6   4    3.17    0.63
  -2  -6   4    3.05    0.66
   1   6  -4  118.28    5.56
  -1  -6   4  108.03    5.45
   0   6  -4   79.93    3.92
   0   6  -4   73.87    3.21
  -1   6  -4    0.83    0.36
  -1   6  -4    0.53    0.31
  -2   6  -4   50.58    2.72
  -2   6  -4   50.87    2.40
  -3   6  -4    5.17    0.61
   3  -6   4    5.95    0.60
   3  -6   4    5.17    0.55
   3  -6   4    4.12    0.52
   3  -6   4    4.16    0.56
   3  -6   4    4.67    0.58
   4  -6   4    7.91    0.82
   4  -6   4    8.26    0.87
   4  -6   4    6.92    0.67
   5  -6   4    2.23    0.52
   5  -6   4    4.37    0.56
   5  -6   4    3.36    0.59
   6  -6   4   -0.22    0.23
  -7  -5   4    0.03    0.25
   6   5  -4    0.31    0.38
   6   5  -4   -0.30    0.34
  -6  -5   4    0.76    0.50
   5   5  -4    0.27    0.35
  -5  -5   4    0.42    0.49
   4   5  -4    4.55    0.61
  -4  -5   4    4.09    0.62
   3   5  -4    5.84    0.89
  -3  -5   4    5.52    0.79
  -3  -5   4    5.15    0.81
   2   5  -4   50.47    2.64
  -2  -5   4   45.50    2.62
  -2  -5   4   45.73    2.55
   1   5  -4    7.79    0.78
   1   5  -4    7.52    0.54
  -1  -5   4    7.88    0.82
  -1  -5   4    6.77    0.70
   0   5  -4    3.72    0.45
   0   5  -4    3.40    0.56
   0  -5   4    3.19    0.51
  -1   5  -4   41.26    2.16
  -1   5  -4   38.38    1.84
  -2   5  -4   37.31    1.83
  -2   5  -4   37.40    2.03
  -3   5  -4    4.13    0.61
  -3   5  -4    3.68    0.54
   3  -5   4    4.65    0.55
   3  -5   4    2.73    0.46
   3  -5   4    3.27    0.40
   4  -5   4   10.06    0.88
   4  -5   4   11.01    0.77
   4  -5   4   11.17    0.93
   5  -5   4   18.18    1.26
   5  -5   4   17.64    1.07
   5  -5   4   17.97    1.25
   6  -5   4    3.04    0.50
   6  -5   4    1.72    0.29
   7   4  -4    1.65    0.35
  -7  -4   4    1.94    0.46
   6   4  -4    4.55    0.56
   6   4  -4    4.54    0.62
  -6  -4   4    5.15    0.74
   5   4  -4    0.12    0.33
  -5  -4   4   -0.05    0.43
   4   4  -4   10.46    0.84
  -4  -4   4   12.09    0.95
   3   4  -4   19.53    1.46
  -3  -4   4   23.57    1.47
  -3  -4   4   22.78    1.52
   2   4  -4    8.63    0.79
  -2  -4   4    7.47    0.78
  -2  -4   4    8.25    0.71
   1   4  -4    0.84    0.33
   1   4  -4    0.55    0.23
  -1  -4   4    0.24    0.34
  -1  -4   4    0.34    0.27
  -1  -4   4    0.56    0.21
   0   4  -4    6.57    0.49
   0   4  -4    6.81    0.65
   0  -4   4    6.66    0.55
   0  -4   4    7.04    0.60
  -1   4  -4   13.68    0.91
  -1   4  -4   12.94    0.80
  -2   4  -4    2.13    0.36
  -2   4  -4    3.01    0.45
  -3   4  -4   44.26    2.16
   3  -4   4   47.89    2.38
   3  -4   4   45.75    2.04
   4  -4   4    7.67    0.81
   4  -4   4    7.07    0.80
   4  -4   4    9.22    0.67
   5  -4   4    4.77    0.54
   5  -4   4    2.81    0.57
   5  -4   4    2.84    0.55
   6  -4   4    0.93    0.45
   6  -4   4    0.30    0.39
   7   3  -4   -0.04    0.32
  -7  -3   4    0.32    0.39
   6   3  -4    0.34    0.36
   6   3  -4    0.44    0.38
  -6  -3   4    0.29    0.45
   5   3  -4    1.15    0.40
  -5  -3   4    1.85    0.52
   4   3  -4   11.76    0.86
  -4  -3   4   12.45    1.17
  -4  -3   4   11.63    1.03
  -4  -3   4   11.85    0.96
   3   3  -4   17.89    1.25
  -3  -3   4   18.42    1.22
  -3  -3   4   16.64    1.23
   2   3  -4   12.11    0.88
  -2  -3   4   12.43    0.95
  -2  -3   4   13.35    0.77
  -2  -3   4   12.23    0.88
   1   3  -4   33.22    1.77
  -1  -3   4   35.21    1.76
  -1  -3   4   32.82    1.86
  -1  -3   4   33.89    1.66
   0   3  -4  115.03    5.24
   0   3  -4  112.63    4.46
   0  -3   4  116.93    5.10
  -1   3  -4   77.23    3.20
  -1   3  -4   81.31    3.67
  -2   3  -4   37.86    1.80
  -2   3  -4   36.87    1.72
  -3   3  -4    4.19    0.67
   4  -3   4    1.71    0.45
   4  -3   4    1.96    0.46
   4  -3   4    1.70    0.38
   5  -3   4    0.55    0.44
   5  -3   4    0.26    0.48
   6  -3   4    8.51    0.84
   6  -3   4    8.77    0.88
   7   2  -4   16.08    1.11
  -7  -2   4   18.80    1.25
   6   2  -4    8.28    0.83
  -6  -2   4    8.32    0.93
   5   2  -4   14.07    1.00
  -5  -2   4   13.59    1.08
   4   2  -4    0.74    0.39
  -4  -2   4    0.06    0.37
  -4  -2   4    0.50    0.33
   3   2  -4   44.48    2.28
  -3  -2   4   41.36    2.23
  -3  -2   4   38.86    2.06
  -3  -2   4   42.75    2.29
   2   2  -4    0.49    0.27
  -2  -2   4    0.28    0.24
  -2  -2   4    0.57    0.24
  -2  -2   4    0.15    0.26
   1   2  -4   59.81    2.84
  -1  -2   4   59.93    2.81
  -1  -2   4   60.24    2.76
  -1  -2   4   58.68    2.93
   0   2  -4   17.31    0.94
   0  -2   4   17.10    1.01
  -1   2  -4   30.29    1.32
  -1   2  -4   27.66    1.31
   1  -2   4   26.43    1.49
  -2   2  -4   55.06    2.34
  -3   2  -4   10.61    0.96
   4  -2   4   10.60    0.90
   4  -2   4   10.38    0.90
   5  -2   4    3.90    0.67
   5  -2   4    4.20    0.70
   6  -2   4    0.47    0.43
   6  -2   4    0.46    0.40
   7   1  -4    4.86    0.60
  -7  -1   4    4.43    0.64
   6   1  -4    0.75    0.40
  -6  -1   4    0.78    0.47
   5   1  -4    7.05    0.72
  -5  -1   4    8.41    0.86
   4   1  -4    9.88    0.96
  -4  -1   4   10.54    0.90
  -4  -1   4    9.93    0.93
  -4  -1   4   10.89    0.94
   3   1  -4   10.79    0.87
  -3  -1   4   11.69    0.86
  -3  -1   4   11.66    0.88
  -3  -1   4   11.25    0.84
   2   1  -4  231.99   10.57
  -2  -1   4  262.58   10.65
  -2  -1   4  237.95   10.56
  -2  -1   4  231.22   10.73
  -2  -1   4  218.50   10.20
   1   1  -4   30.12    1.51
  -1  -1   4   30.80    1.58
  -1  -1   4   28.61    1.50
  -1  -1   4   28.79    1.48
   0   1  -4   64.15    2.92
   0  -1   4   64.10    2.98
   0  -1   4   64.94    3.12
   1  -1   4    1.35    0.34
   1  -1   4    1.28    0.34
  -2   1  -4    7.31    0.68
  -2   1  -4    6.64    0.53
  -3   1  -4    0.18    0.31
   3  -1   4    0.16    0.36
   3  -1   4    0.04    0.32
   4  -1   4   13.05    1.02
   4  -1   4   14.65    1.02
   5  -1   4   36.36    2.04
   5  -1   4   35.88    2.02
   6  -1   4    1.63    0.49
   6  -1   4    0.59    0.40
   7   0  -4   -0.10    0.34
  -7   0   4   -0.09    0.39
   6   0  -4   -0.28    0.34
  -6   0   4    0.36    0.43
   5   0  -4    0.15    0.36
   5   0  -4    0.34    0.33
  -5   0   4    0.40    0.38
  -5   0   4    0.47    0.36
   4   0  -4  115.37    5.59
  -4   0   4  119.03    5.59
  -4   0   4  111.38    5.37
   3   0  -4    5.16    0.65
  -3   0   4    5.49    0.67
  -3   0   4    5.10    0.65
   2   0  -4   31.35    1.66
  -2   0   4   31.43    1.63
  -2   0   4   31.43    1.66
  -2   0   4   29.00    1.61
   1   0  -4    1.54    0.28
  -1   0   4    1.41    0.32
  -1   0   4    1.64    0.36
   0   0  -4   17.15    0.87
   0   0   4   16.25    1.00
   0   0   4   16.11    1.05
  -1   0  -4   18.42    1.06
   1   0   4   18.15    1.12
   1   0   4   17.47    1.12
  -2   0  -4    1.26    0.36
   2   0   4    0.28    0.25
  -3   0  -4   29.57    1.86
   3   0   4   31.67    1.65
   3   0   4   30.39    1.66
   3   0   4   28.15    1.61
   4   0   4   19.99    1.36
   4   0   4   21.50    1.36
   5   0   4    9.39    0.93
   5   0   4    9.44    0.98
   6   0   4   -0.10    0.34
   6   0   4   -0.17    0.34
   7  -1  -4    1.96    0.45
  -7   1   4    2.16    0.53
   6  -1  -4    0.22    0.35
  -6   1   4   -0.09    0.39
   5  -1  -4    3.05    0.54
   5  -1  -4    3.02    0.54
  -5   1   4    3.99    0.60
  -5   1   4    3.53    0.54
   4  -1  -4    7.93    0.87
  -4   1   4    7.73    0.86
  -4   1   4    8.67    0.98
   3  -1  -4   18.36    1.27
  -3   1   4   19.38    1.27
  -3   1   4   19.46    1.28
   2  -1  -4   38.66    2.06
  -2   1   4   40.55    2.09
  -2   1   4   38.38    2.03
   1  -1  -4   36.30    1.82
  -1   1   4   34.91    1.84
  -1   1   4   35.12    1.92
   0  -1  -4    5.76    0.43
   0   1   4    5.24    0.58
   0   1   4    4.46    0.55
   1   1   4  185.39    8.08
   1   1   4  162.63    7.63
   2   1   4   38.25    2.13
   3   1   4    7.49    0.80
   3   1   4    7.97    0.72
   3   1   4    7.76    0.72
   4   1   4    3.78    0.62
   4   1   4    4.04    0.59
   4   1   4    5.64    0.72
   5   1   4    0.38    0.46
   5   1   4    0.65    0.47
   6   1   4    0.36    0.31
   6   1   4    0.10    0.29
   7  -2  -4    8.21    0.78
  -7   2   4    8.85    0.86
   6  -2  -4    4.17    0.61
  -6   2   4    4.31    0.62
  -6   2   4    3.95    0.66
   5  -2  -4    1.40    0.45
   5  -2  -4    1.14    0.40
  -5   2   4    0.89    0.45
  -5   2   4    1.45    0.42
   4  -2  -4    9.59    0.78
   4  -2  -4    8.58    0.80
  -4   2   4    8.56    0.78
  -4   2   4   10.25    0.78
   3  -2  -4    4.27    0.67
  -3   2   4    4.12    0.65
   2  -2  -4    2.05    0.45
  -2   2   4    2.62    0.51
  -2   2   4    3.27    0.53
   1  -2  -4    8.24    0.67
  -1   2   4    7.41    0.70
  -1   2   4    6.83    0.73
   0  -2  -4   24.67    1.32
   0   2   4   23.63    1.36
   0   2   4   24.11    1.52
   1   2   4    1.84    0.44
   2   2   4   16.14    1.04
   2   2   4   14.96    1.01
   3   2   4    4.62    0.65
   3   2   4    3.84    0.56
   3   2   4    3.88    0.59
   4   2   4   21.40    1.36
   4   2   4   20.27    1.34
   4   2   4   22.05    1.42
   5   2   4    3.04    0.57
   5   2   4    2.45    0.49
   7  -3  -4    1.49    0.44
  -7   3   4    1.35    0.42
   6  -3  -4    0.48    0.38
  -6   3   4   -0.09    0.40
   5  -3  -4   18.84    1.29
   5  -3  -4   18.48    1.24
  -5   3   4   18.57    1.21
  -5   3   4   15.50    1.22
   4  -3  -4    1.91    0.41
   4  -3  -4    3.45    0.59
  -4   3   4    2.23    0.45
  -4   3   4    1.88    0.44
   3  -3  -4    2.01    0.42
   3  -3  -4    1.67    0.51
  -3   3   4    2.20    0.54
  -3   3   4    2.03    0.39
   2  -3  -4   43.43    2.43
  -2   3   4   41.95    2.46
  -2   3   4   44.75    2.36
  -1   3   4   76.87    3.57
  -1   3   4   70.93    3.81
   0  -3  -4    3.66    0.49
   0   3   4    3.00    0.58
   1   3   4    1.67    0.48
   1   3   4    2.72    0.48
   1   3   4    2.06    0.39
   2   3   4    1.52    0.40
   2   3   4    1.63    0.44
   3   3   4    5.00    0.67
   3   3   4    5.58    0.68
   4   3   4    0.56    0.41
   4   3   4    0.02    0.41
   4   3   4    0.47    0.45
   5   3   4    1.77    0.42
   5   3   4    1.67    0.41
   5   3   4    0.97    0.30
   7  -4  -4   -0.12    0.30
  -7   4   4   -0.12    0.26
   6  -4  -4    6.94    0.74
  -6   4   4    5.13    0.66
  -6   4   4    6.30    0.71
   5  -4  -4    0.38    0.44
   5  -4  -4    0.76    0.41
  -5   4   4    0.91    0.44
  -5   4   4    0.23    0.39
   4  -4  -4   -0.07    0.33
   4  -4  -4   -0.08    0.37
   3  -4  -4    4.12    0.60
  -3   4   4    5.04    0.62
   2  -4  -4   42.50    2.31
  -2   4   4   43.57    2.20
  -2   4   4   43.32    2.41
   1  -4  -4    8.15    0.76
   1  -4  -4    8.34    0.86
  -1   4   4    9.31    0.71
  -1   4   4    9.12    0.85
   0   4   4    1.65    0.41
   0   4   4    2.15    0.44
   1   4   4   35.84    1.95
   1   4   4   36.48    1.92
   2   4   4    2.97    0.55
   2   4   4    3.79    0.57
   3   4   4    4.81    0.67
   3   4   4    6.96    0.79
   4   4   4    9.69    0.91
   4   4   4    9.60    0.87
   6  -5  -4    3.93    0.54
  -6   5   4    4.61    0.58
   5  -5  -4   16.27    1.23
   5  -5  -4   16.09    1.14
  -5   5   4   15.68    1.18
   4  -5  -4   -0.01    0.44
   4  -5  -4    0.35    0.37
  -4   5   4    0.79    0.41
   3  -5  -4    4.68    0.67
   3  -5  -4    5.24    0.63
  -3   5   4    3.22    0.54
   2  -5  -4    0.46    0.37
   2  -5  -4    0.53    0.40
  -2   5   4    0.90    0.37
   1  -5  -4    7.91    0.76
  -1   5   4    6.84    0.65
   0  -5  -4    9.61    0.82
   0   5   4   12.17    0.93
   0   5   4   12.54    0.91
   1   5   4    4.34    0.62
   1   5   4    6.44    0.74
   2   5   4    2.49    0.53
   2   5   4    3.21    0.61
   3   5   4   15.68    1.12
   3   5   4   15.17    1.14
   4   5   4   11.36    0.85
   4   5   4   11.94    0.88
   6  -6  -4    0.16    0.26
  -6   6   4   -0.23    0.25
   5  -6  -4   -0.08    0.33
   5  -6  -4    0.26    0.34
   5  -6  -4    0.05    0.39
  -5   6   4    0.67    0.39
   4  -6  -4    1.94    0.47
   4  -6  -4    2.95    0.62
  -4   6   4    1.98    0.48
   3  -6  -4    9.49    0.83
   3  -6  -4    9.61    0.97
  -3   6   4    8.91    0.84
   2  -6  -4   14.20    1.01
   2  -6  -4   13.90    1.12
  -2   6   4   13.82    0.99
   1  -6  -4   16.10    1.05
   1  -6  -4   15.99    1.16
  -1   6   4   16.16    1.02
   0  -6  -4    9.62    0.87
   0   6   4   10.82    0.92
   1   6   4    0.26    0.36
   1   6   4    1.00    0.48
   2   6   4    3.15    0.52
   2   6   4    2.35    0.52
   3   6   4    0.35    0.36
   3   6   4    0.74    0.39
   5  -7  -4    2.63    0.43
   5  -7  -4    3.23    0.40
  -5   7   4    3.25    0.44
   4  -7  -4    1.10    0.40
   4  -7  -4    0.43    0.45
  -4   7   4    0.96    0.41
   3  -7  -4   32.72    1.85
   3  -7  -4   28.76    1.67
   3  -7  -4   31.43    1.65
  -3   7   4   29.91    1.68
   2  -7  -4   11.71    1.01
   2  -7  -4   11.89    0.92
  -2   7   4   11.75    0.90
   1  -7  -4    7.46    0.74
   1  -7  -4    7.89    0.82
  -1   7   4    9.41    0.86
  -1   7   4    9.20    0.72
   0  -7  -4    1.13    0.48
   0  -7  -4    0.16    0.32
   0   7   4    0.97    0.45
  -1  -7  -4    0.32    0.39
   1   7   4   -0.12    0.37
   2   7   4    1.45    0.36
   2   7   4    0.93    0.39
   4  -8  -4    0.56    0.29
   4  -8  -4    0.99    0.35
  -4   8   4    0.95    0.30
   3  -8  -4    0.88    0.33
   3  -8  -4    0.63    0.33
   3  -8  -4    1.07    0.41
  -3   8   4    0.87    0.32
  -3   8   4    0.68    0.33
   2  -8  -4   -0.07    0.37
   2  -8  -4    0.11    0.30
   2  -8  -4    0.44    0.38
  -2   8   4    0.11    0.28
  -2   8   4    0.09    0.34
   1  -8  -4    2.19    0.36
   1  -8  -4    1.62    0.45
   1  -8  -4    1.61    0.40
  -1   8   4    0.86    0.40
   0  -8  -4   14.76    0.96
   0  -8  -4   15.90    1.01
   0   8   4   14.47    0.98
   1   8   4    4.49    0.50
  -1 -12   5    1.97    0.31
   0  12  -5    0.46    0.27
   0 -12   5   -0.04    0.27
   0 -12   5   -0.03    0.27
   1 -12   5   15.21    0.93
   1 -12   5   13.77    0.90
   1 -12   5   13.26    0.81
   2 -12   5    2.13    0.33
   2 -12   5    2.75    0.38
   3  11  -5    0.41    0.25
   2  11  -5    7.52    0.71
  -2 -11   5    7.73    0.66
  -2 -11   5    6.94    0.72
  -2 -11   5    5.82    0.68
   1  11  -5   16.51    1.12
  -1 -11   5   17.97    1.17
  -1 -11   5   16.87    1.15
   0  11  -5   10.36    0.85
   0 -11   5    9.58    0.87
   0 -11   5   11.03    0.89
  -1  11  -5    3.57    0.57
   1 -11   5    3.67    0.50
   1 -11   5    3.37    0.51
   1 -11   5    2.79    0.51
  -2  11  -5    2.84    0.53
   2 -11   5    2.35    0.47
   2 -11   5    2.07    0.42
   2 -11   5    2.10    0.42
  -3  11  -5    1.10    0.39
   3 -11   5    0.49    0.27
   3 -11   5    0.45    0.31
  -4 -10   5    9.64    0.80
   3  10  -5    1.41    0.42
  -3 -10   5    1.34    0.47
   2  10  -5   32.12    1.78
  -2 -10   5   32.12    1.87
  -2 -10   5   31.92    1.79
  -2 -10   5   29.28    1.76
   1  10  -5    1.58    0.47
   1  10  -5    1.59    0.46
  -1 -10   5    1.64    0.48
  -1 -10   5    1.66    0.53
   0  10  -5    0.95    0.46
   0 -10   5    1.09    0.45
   0 -10   5    0.62    0.36
   0 -10   5    0.76    0.45
  -1  10  -5    0.83    0.42
   1 -10   5    1.29    0.46
   1 -10   5    1.19    0.46
   1 -10   5    0.95    0.36
  -2  10  -5    2.87    0.56
   2 -10   5    1.93    0.44
   2 -10   5    1.78    0.46
   2 -10   5    2.97    0.53
  -3  10  -5    8.99    0.85
   3 -10   5    9.73    0.79
   3 -10   5    9.15    0.81
  -4  10  -5    3.77    0.47
   4 -10   5    3.13    0.44
   4 -10   5    4.28    0.43
   5   9  -5   -0.01    0.24
   5   9  -5   -0.22    0.22
  -5  -9   5   -0.16    0.30
   4   9  -5    3.72    0.55
  -4  -9   5    4.03    0.66
   3   9  -5    8.47    0.87
  -3  -9   5    9.45    1.00
  -3  -9   5    8.78    0.85
   2   9  -5    6.79    0.77
   2   9  -5    5.89    0.72
  -2  -9   5    7.24    0.78
  -2  -9   5    7.11    0.81
  -2  -9   5    5.62    0.79
   1   9  -5   -0.03    0.37
  -1  -9   5   -0.04    0.39
  -1  -9   5    0.20    0.44
  -1  -9   5    0.13    0.44
   0   9  -5    0.27    0.44
   0  -9   5    0.27    0.33
   0  -9   5    0.17    0.40
   0  -9   5    0.38    0.41
  -1   9  -5   48.00    2.57
   1  -9   5   46.90    2.48
   1  -9   5   46.84    2.36
   1  -9   5   47.07    2.47
  -2   9  -5    2.07    0.47
   2  -9   5    2.25    0.48
   2  -9   5    1.97    0.43
   2  -9   5    2.46    0.64
   2  -9   5    3.17    0.57
  -3   9  -5   30.83    1.94
   3  -9   5   36.05    1.62
   3  -9   5   35.82    1.84
   3  -9   5   35.02    1.83
  -4   9  -5    6.38    0.72
   4  -9   5    7.59    0.70
   4  -9   5    6.97    0.60
  -5   9  -5    0.26    0.28
   5  -9   5    0.00    0.27
   5   8  -5   -0.07    0.32
  -5  -8   5    0.21    0.44
   4   8  -5    0.38    0.40
  -4  -8   5   -0.01    0.50
   3   8  -5    5.27    0.72
  -3  -8   5    4.97    0.77
  -3  -8   5    5.20    0.73
   2   8  -5   27.43    1.82
   2   8  -5   33.06    1.84
  -2  -8   5   34.84    1.97
  -2  -8   5   32.33    1.85
  -2  -8   5   32.55    1.85
   1   8  -5   22.90    1.44
  -1  -8   5   21.72    1.39
  -1  -8   5   23.35    1.44
   0   8  -5    2.72    0.50
   0  -8   5    2.27    0.45
   0  -8   5    2.91    0.50
   0  -8   5    2.81    0.52
  -1   8  -5   29.24    1.82
   1  -8   5   30.79    1.81
   1  -8   5   31.02    1.70
   1  -8   5   34.34    1.82
   1  -8   5   35.93    1.82
  -2   8  -5   31.53    1.88
   2  -8   5   33.45    1.57
   2  -8   5   31.76    1.80
   2  -8   5   33.69    1.82
   2  -8   5   34.20    1.78
   2  -8   5   35.18    1.86
  -3   8  -5    2.86    0.53
   3  -8   5    2.60    0.52
   3  -8   5    1.94    0.47
   3  -8   5    2.32    0.48
   3  -8   5    2.10    0.42
  -4   8  -5    4.54    0.58
   4  -8   5    5.10    0.60
   4  -8   5    4.60    0.63
   4  -8   5    3.83    0.53
  -5   8  -5   -0.07    0.29
   5  -8   5    0.14    0.32
   6   7  -5    0.11    0.28
   6   7  -5    0.51    0.30
  -6  -7   5    0.09    0.34
   5   7  -5   16.31    1.15
  -5  -7   5   16.39    1.30
   4   7  -5   15.77    1.12
  -4  -7   5   13.84    1.21
   3   7  -5   19.16    1.29
   3   7  -5   19.40    1.29
  -3  -7   5   19.60    1.31
  -3  -7   5   18.55    1.38
   2   7  -5    6.04    0.70
   2   7  -5    7.34    0.76
  -2  -7   5    6.22    0.73
  -2  -7   5    5.06    0.67
  -2  -7   5    6.52    0.67
   1   7  -5   -0.20    0.34
  -1  -7   5   -0.15    0.31
  -1  -7   5    0.38    0.34
   0   7  -5    0.33    0.31
   0   7  -5    0.67    0.39
   0   7  -5    0.40    0.35
   0  -7   5    0.66    0.36
   0  -7   5    0.63    0.35
   0  -7   5    0.45    0.33
   0  -7   5   -0.46    0.39
  -1   7  -5    7.55    0.75
   1  -7   5    6.20    0.68
   1  -7   5    7.71    0.72
   1  -7   5    7.36    0.69
   1  -7   5    7.46    0.71
  -2   7  -5   11.41    0.89
   2  -7   5   10.17    0.84
   2  -7   5   10.44    0.74
   2  -7   5   11.68    0.88
   2  -7   5    9.90    0.82
  -3   7  -5    4.14    0.56
   3  -7   5    2.36    0.43
   3  -7   5    3.08    0.44
   3  -7   5    3.56    0.48
   3  -7   5    2.98    0.51
   3  -7   5    4.15    0.63
   4  -7   5   34.23    1.92
   4  -7   5   34.60    1.96
   4  -7   5   34.28    1.68
   5  -7   5    3.71    0.51
   6  -7   5    6.08    0.47
   6   6  -5    0.72    0.37
   6   6  -5    0.67    0.36
  -6  -6   5    0.54    0.47
   5   6  -5   11.01    0.94
  -5  -6   5    9.97    1.04
   4   6  -5    0.15    0.36
  -4  -6   5   -0.30    0.40
  -4  -6   5    1.04    0.40
   3   6  -5    4.97    0.63
   3   6  -5    4.17    0.57
  -3  -6   5    4.33    0.62
  -3  -6   5    6.20    0.73
   2   6  -5    5.18    0.63
   2   6  -5    5.28    0.83
  -2  -6   5    4.58    0.81
  -2  -6   5    4.21    0.71
   1   6  -5    5.45    0.79
   1   6  -5    4.43    0.52
   0   6  -5  114.53    4.64
   0   6  -5  113.84    5.54
  -1   6  -5   17.31    1.23
  -1   6  -5   16.84    1.09
  -2   6  -5    1.99    0.46
   2  -6   5    0.90    0.37
   2  -6   5    0.79    0.32
   2  -6   5    0.91    0.32
   2  -6   5    1.16    0.34
   3  -6   5    6.68    0.74
   3  -6   5    6.52    0.69
   3  -6   5    7.01    0.68
   3  -6   5    6.55    0.61
   4  -6   5   14.55    1.08
   4  -6   5   13.31    1.12
   4  -6   5   15.27    0.96
   5  -6   5    0.33    0.32
   5  -6   5    0.84    0.51
   5  -6   5    0.85    0.44
   6  -6   5    0.92    0.24
   6  -6   5    1.05    0.32
   7   5  -5    0.48    0.25
  -7  -5   5    0.40    0.32
   6   5  -5    2.56    0.44
   6   5  -5    3.47    0.52
  -6  -5   5    5.67    0.78
   5   5  -5    0.44    0.39
  -5  -5   5    0.60    0.48
   4   5  -5    7.64    0.73
   4   5  -5    6.99    0.76
  -4  -5   5    4.63    0.65
  -4  -5   5    8.77    0.90
   3   5  -5   -0.04    0.36
   3   5  -5   -0.05    0.34
  -3  -5   5   -0.18    0.33
  -3  -5   5    0.11    0.32
  -3  -5   5    0.21    0.42
  -3  -5   5    0.03    0.38
   2   5  -5   25.48    1.68
  -2  -5   5   26.60    1.66
  -2  -5   5   25.59    1.73
   1   5  -5    6.59    0.55
   1   5  -5    6.43    0.79
   0   5  -5   13.05    0.84
   0   5  -5   14.39    1.04
  -1   5  -5   12.30    0.93
  -1   5  -5   13.16    0.87
  -2   5  -5    0.21    0.24
  -2   5  -5    0.37    0.30
   3  -5   5   10.49    0.85
   3  -5   5    9.93    0.70
   3  -5   5   10.18    0.82
   4  -5   5    2.10    0.42
   4  -5   5    3.57    0.65
   4  -5   5    3.03    0.59
   5  -5   5   28.53    1.66
   5  -5   5   26.12    1.61
   5  -5   5   25.92    1.34
   6  -5   5    2.77    0.42
   6  -5   5    5.32    0.61
   7   4  -5    0.28    0.31
  -7  -4   5    0.16    0.33
   6   4  -5    1.63    0.44
  -6  -4   5    2.28    0.57
   5   4  -5    8.32    0.78
  -5  -4   5    5.94    0.78
   4   4  -5   22.65    1.38
   4   4  -5   24.00    1.33
  -4  -4   5   18.72    1.29
  -4  -4   5   20.47    1.38
   3   4  -5   -0.04    0.31
  -3  -4   5   -0.01    0.31
  -3  -4   5    0.18    0.35
   2   4  -5   26.34    1.29
   2   4  -5   29.38    1.71
  -2  -4   5   25.62    1.62
  -2  -4   5   30.05    1.78
   1   4  -5   13.46    0.96
   1   4  -5   12.14    0.76
  -1  -4   5   12.76    0.85
   0   4  -5   49.81    2.14
   0   4  -5   46.62    2.46
   0  -4   5   49.82    2.40
  -1   4  -5   16.51    1.03
  -1   4  -5   17.11    0.97
  -2   4  -5    3.10    0.47
   3  -4   5    6.24    0.65
   3  -4   5    6.02    0.56
   3  -4   5    6.82    0.68
   4  -4   5    1.58    0.47
   4  -4   5    2.55    0.42
   4  -4   5    2.83    0.58
   5  -4   5    0.29    0.32
   5  -4   5   -0.16    0.45
   5  -4   5    0.86    0.49
   6  -4   5    0.44    0.41
   6  -4   5   -0.05    0.31
   7   3  -5    7.60    0.76
  -7  -3   5    7.39    0.81
   6   3  -5   13.75    1.04
  -6  -3   5   11.38    1.10
   5   3  -5    1.79    0.46
   5   3  -5    2.80    0.53
  -5  -3   5    2.58    0.58
  -5  -3   5    3.09    0.55
   4   3  -5    0.68    0.44
   4   3  -5    1.03    0.35
   4   3  -5    1.42    0.44
  -4  -3   5    1.81    0.49
  -4  -3   5    0.85    0.36
  -4  -3   5    0.76    0.48
  -4  -3   5    0.90    0.43
   3   3  -5   49.02    2.58
  -3  -3   5   45.70    2.57
  -3  -3   5   44.59    2.49
   2   3  -5   42.50    2.28
  -2  -3   5   40.44    2.23
  -2  -3   5   45.91    2.14
  -2  -3   5   42.41    2.36
   1   3  -5  135.05    6.23
  -1  -3   5  136.63    6.03
   0   3  -5   12.18    0.81
   0   3  -5   12.24    0.77
   0  -3   5   12.54    0.88
  -1   3  -5   71.84    3.01
  -1   3  -5   73.48    3.31
   1  -3   5   70.54    3.43
  -2   3  -5    1.22    0.35
   3  -3   5   17.89    1.14
   3  -3   5   18.25    1.16
   3  -3   5   18.29    0.98
   4  -3   5    0.49    0.45
   4  -3   5    0.36    0.45
   4  -3   5   -0.12    0.28
   5  -3   5    0.52    0.44
   5  -3   5    0.44    0.46
   6  -3   5    0.53    0.38
   6  -3   5    0.75    0.37
   7   2  -5    2.14    0.45
  -7  -2   5    1.67    0.50
   6   2  -5   22.54    1.43
  -6  -2   5   23.55    1.55
   5   2  -5    3.73    0.57
   5   2  -5    3.63    0.56
  -5  -2   5    4.34    0.60
  -5  -2   5    3.34    0.59
   4   2  -5    0.04    0.33
   4   2  -5   -0.01    0.31
  -4  -2   5    0.00    0.30
  -4  -2   5    0.18    0.40
  -4  -2   5   -0.15    0.28
   3   2  -5   10.16    0.88
  -3  -2   5    9.63    0.84
  -3  -2   5    9.48    0.83
  -3  -2   5    9.52    0.78
   2   2  -5   44.21    2.39
  -2  -2   5   48.48    2.32
  -2  -2   5   44.88    2.43
  -2  -2   5   49.49    2.49
   1   2  -5  394.56   17.17
  -1  -2   5  384.02   16.66
   0   2  -5    1.22    0.25
   0  -2   5    0.86    0.34
  -1   2  -5   68.38    2.86
   1  -2   5   68.54    3.28
  -2   2  -5   55.87    2.45
   3  -2   5   21.15    1.11
   3  -2   5   20.98    1.27
   3  -2   5   22.09    1.33
   4  -2   5   10.93    0.96
   4  -2   5    9.71    0.89
   5  -2   5   16.52    1.21
   5  -2   5   15.72    1.18
   6  -2   5    2.73    0.50
   6  -2   5    2.37    0.44
   7   1  -5    2.16    0.45
  -7  -1   5    3.08    0.57
   6   1  -5    4.16    0.63
  -6  -1   5    4.21    0.65
   5   1  -5    5.61    0.68
   5   1  -5    6.38    0.72
  -5  -1   5    5.31    0.68
  -5  -1   5    4.74    0.66
   4   1  -5    1.52    0.42
   4   1  -5    1.19    0.45
  -4  -1   5    0.93    0.44
  -4  -1   5    1.57    0.38
  -4  -1   5    2.06    0.54
   3   1  -5    0.29    0.29
  -3  -1   5    0.25    0.27
  -3  -1   5    0.10    0.29
   2   1  -5    1.06    0.32
  -2  -1   5    1.28    0.37
  -2  -1   5    1.37    0.32
   1   1  -5   70.15    3.26
  -1  -1   5   67.20    3.25
  -1  -1   5   69.56    3.40
   0   1  -5  121.87    5.60
   0  -1   5  130.42    5.66
   0  -1   5  125.55    5.92
   1  -1   5   18.19    1.17
   1  -1   5   17.32    1.19
  -2   1  -5    5.35    0.70
   3  -1   5   24.27    1.46
   3  -1   5   24.70    1.43
   4  -1   5   46.82    2.42
   4  -1   5   44.19    2.42
   5  -1   5    4.65    0.64
   5  -1   5    6.12    0.73
   6  -1   5    4.26    0.54
   7   0  -5    4.96    0.63
  -7   0   5    3.75    0.58
   6   0  -5    2.61    0.53
  -6   0   5    2.33    0.51
  -6   0   5    2.13    0.50
   5   0  -5    6.92    0.78
   5   0  -5    7.59    0.81
  -5   0   5    7.64    0.86
  -5   0   5    8.00    0.83
   4   0  -5    4.71    0.77
   4   0  -5    4.97    0.61
  -4   0   5    4.23    0.55
  -4   0   5    4.06    0.69
  -4   0   5    4.00    0.56
   3   0  -5   67.35    3.41
  -3   0   5   65.91    3.31
   2   0  -5    9.00    0.74
  -2   0   5    8.73    0.74
  -2   0   5    8.71    0.78
   1   0  -5   56.24    2.71
  -1   0   5   56.67    2.87
  -1   0   5   55.08    2.75
   0   0  -5   27.06    1.35
   0   0   5   28.14    1.64
   0   0   5   27.46    1.55
   1   0   5    0.38    0.31
   1   0   5    0.26    0.28
   3   0   5    0.27    0.41
   3   0   5    0.23    0.42
   3   0   5    0.28    0.34
   4   0   5    3.29    0.61
   4   0   5    2.39    0.51
   5   0   5   21.84    1.37
   5   0   5   20.01    1.34
   6   0   5    2.46    0.38
   7  -1  -5    0.56    0.40
  -7   1   5    0.47    0.41
   6  -1  -5    1.30    0.44
  -6   1   5    1.03    0.42
  -6   1   5    1.83    0.50
   5  -1  -5    0.66    0.39
   5  -1  -5    1.08    0.45
  -5   1   5    1.36    0.48
  -5   1   5    0.87    0.40
   4  -1  -5    5.76    0.66
  -4   1   5    5.68    0.62
   3  -1  -5    4.09    0.64
  -3   1   5    6.26    0.79
   2  -1  -5   25.88    1.53
  -2   1   5   24.97    1.55
  -2   1   5   25.28    1.57
   1  -1  -5    0.02    0.21
  -1   1   5   -0.09    0.19
  -1   1   5    0.04    0.28
   0   1   5    8.58    0.81
   0   1   5    7.75    0.73
   1   1   5    8.18    0.83
   2   1   5   10.28    0.79
   2   1   5   11.89    0.92
   2   1   5    8.99    0.74
   3   1   5    6.94    0.77
   3   1   5    7.01    0.77
   3   1   5    6.99    0.76
   4   1   5    8.54    0.81
   4   1   5    7.68    0.87
   4   1   5    7.67    0.84
   5   1   5    7.31    0.71
   5   1   5    9.25    0.84
   7  -2  -5    0.18    0.33
  -7   2   5    0.29    0.34
   6  -2  -5    5.30    0.65
  -6   2   5    3.54    0.55
  -6   2   5    5.61    0.66
   5  -2  -5    0.08    0.35
   5  -2  -5   -0.36    0.41
  -5   2   5   -0.28    0.31
  -5   2   5   -0.14    0.39
   4  -2  -5    2.03    0.51
  -4   2   5    1.81    0.42
   3  -2  -5    3.82    0.55
  -3   2   5    3.76    0.49
   2  -2  -5    3.09    0.58
  -2   2   5    3.01    0.58
  -2   2   5    1.77    0.47
   1  -2  -5    1.74    0.39
  -1   2   5    1.57    0.44
  -1   2   5    1.91    0.49
   0   2   5    9.88    0.95
   1   2   5    5.29    0.60
   1   2   5    4.69    0.53
   1   2   5    4.43    0.59
   2   2   5    8.17    0.77
   2   2   5    9.21    0.85
   3   2   5    3.95    0.60
   3   2   5    5.22    0.73
   4   2   5   -0.48    0.41
   4   2   5   -0.14    0.41
   5   2   5    0.09    0.32
   7  -3  -5    2.62    0.44
  -7   3   5    1.15    0.33
   6  -3  -5    0.54    0.36
   6  -3  -5    0.69    0.43
  -6   3   5   -0.33    0.33
   5  -3  -5    5.78    0.74
   5  -3  -5    4.67    0.69
   4  -3  -5    2.86    0.54
   3  -3  -5   40.70    2.22
   2  -3  -5    1.60    0.38
  -2   3   5    1.14    0.38
  -2   3   5    2.34    0.43
  -1   3   5   26.70    1.45
  -1   3   5   24.77    1.36
   0   3   5   13.10    0.94
   0   3   5   12.12    0.89
   1   3   5    1.57    0.40
   1   3   5    1.59    0.46
   2   3   5    0.15    0.45
   2   3   5   -0.60    0.37
   3   3   5    3.59    0.62
   3   3   5    3.50    0.64
   4   3   5    2.09    0.54
   4   3   5    2.01    0.49
   7  -4  -5    0.41    0.27
   6  -4  -5    8.07    0.82
   6  -4  -5    9.35    0.84
  -6   4   5    9.60    0.86
   5  -4  -5   20.73    1.49
  -5   4   5   24.47    1.45
   4  -4  -5    0.68    0.43
   4  -4  -5    0.89    0.48
  -4   4   5    0.95    0.43
   3  -4  -5    8.26    0.87
  -3   4   5    9.52    0.85
   2  -4  -5    0.51    0.36
  -2   4   5    0.89    0.39
   1  -4  -5    6.90    0.73
  -1   4   5    6.93    0.71
  -1   4   5    7.09    0.60
   0   4   5    0.26    0.36
   0   4   5   -0.37    0.29
   1   4   5    0.53    0.44
   1   4   5    0.58    0.40
   2   4   5   26.38    1.62
   2   4   5   26.01    1.54
   3   4   5    2.04    0.51
   3   4   5    3.50    0.62
   4   4   5    2.85    0.46
   4   4   5    2.20    0.42
   6  -5  -5    1.93    0.40
  -6   5   5    1.66    0.39
   5  -5  -5   13.78    1.13
   5  -5  -5   14.22    0.96
  -5   5   5   14.50    1.08
   4  -5  -5   11.83    0.96
   4  -5  -5   11.43    1.06
  -4   5   5   11.86    0.99
   3  -5  -5    0.24    0.37
   3  -5  -5    0.17    0.43
  -3   5   5    0.25    0.37
   2  -5  -5    2.52    0.51
   2  -5  -5    2.48    0.55
  -2   5   5    2.09    0.41
   1  -5  -5    2.43    0.50
  -1   5   5    1.82    0.39
  -1   5   5    2.02    0.47
   0   5   5   90.55    4.17
   0   5   5   90.25    4.38
   1   5   5    4.70    0.64
   1   5   5    5.51    0.69
   2   5   5    9.34    0.89
   2   5   5   10.26    0.95
   3   5   5    0.17    0.38
   3   5   5    0.06    0.38
   5  -6  -5    2.26    0.39
   5  -6  -5    1.76    0.45
  -5   6   5    1.60    0.42
   4  -6  -5    0.52    0.45
   4  -6  -5    0.68    0.41
  -4   6   5    1.01    0.39
   3  -6  -5    1.38    0.44
   3  -6  -5    0.93    0.45
  -3   6   5    1.45    0.42
   2  -6  -5    0.22    0.36
   2  -6  -5   -0.08    0.37
  -2   6   5    0.57    0.33
   1  -6  -5   16.79    1.13
   1  -6  -5   15.73    1.06
  -1   6   5   15.28    1.11
   0   6   5    4.02    0.60
   0   6   5    2.73    0.46
  -1  -6  -5    9.31    0.79
   1   6   5    9.81    0.88
   1   6   5    9.50    0.81
   2   6   5    3.81    0.49
   2   6   5    6.16    0.67
   4  -7  -5    2.41    0.40
   4  -7  -5    2.41    0.44
  -4   7   5    1.31    0.33
   3  -7  -5    8.09    0.72
   3  -7  -5    6.87    0.70
   3  -7  -5    7.50    0.78
  -3   7   5    7.67    0.66
   2  -7  -5    9.62    0.80
   2  -7  -5    9.44    0.83
   2  -7  -5    9.23    0.83
  -2   7   5    8.29    0.65
   1  -7  -5    0.62    0.43
   1  -7  -5    0.39    0.30
   1  -7  -5    0.37    0.35
  -1   7   5    0.12    0.35
   0  -7  -5    3.41    0.49
   0   7   5    2.38    0.44
  -1  -7  -5    0.61    0.28
   1   7   5    0.26    0.33
   3  -8  -5    0.14    0.25
   2  -8  -5    0.30    0.25
   2  -8  -5   -0.02    0.24
   2  -8  -5   -0.14    0.27
   1  -8  -5    2.27    0.34
  -1 -12   6    1.28    0.32
  -1 -12   6    1.96    0.36
   0  12  -6    0.64    0.30
   0 -12   6    0.74    0.31
   0 -12   6    0.56    0.28
   1 -12   6    0.35    0.29
   1 -12   6    0.91    0.25
   1 -12   6    0.39    0.24
   2 -12   6    8.44    0.60
   3  11  -6    8.23    0.64
   2  11  -6    1.13    0.37
  -2 -11   6    0.88    0.34
  -2 -11   6    0.48    0.38
   1  11  -6    0.51    0.38
   1  11  -6    1.10    0.41
  -1 -11   6    0.72    0.40
  -1 -11   6    0.96    0.44
   0 -11   6    8.27    0.72
   0 -11   6    9.31    0.84
   0 -11   6    7.90    0.82
  -1  11  -6    8.60    0.83
   1 -11   6    8.36    0.80
   1 -11   6    8.65    0.79
   1 -11   6    8.14    0.74
  -2  11  -6    1.79    0.44
   2 -11   6    0.58    0.30
   2 -11   6    1.28    0.37
   2 -11   6    0.64    0.37
  -3  11  -6    2.65    0.41
   3 -11   6    2.78    0.41
   4  10  -6    9.27    0.71
  -4 -10   6    8.56    0.75
   3  10  -6    0.35    0.35
  -3 -10   6    0.71    0.41
  -3 -10   6    0.24    0.38
   2  10  -6   -0.10    0.35
   2  10  -6    0.20    0.36
  -2 -10   6   -0.52    0.35
  -2 -10   6   -0.09    0.38
   1  10  -6    0.62    0.44
  -1 -10   6    0.26    0.41
  -1 -10   6    0.05    0.38
   0 -10   6   14.96    1.06
   0 -10   6   16.30    1.19
   0 -10   6   17.29    1.20
  -1  10  -6    0.06    0.38
   1 -10   6    0.23    0.42
   1 -10   6    0.23    0.39
   1 -10   6    0.10    0.38
  -2  10  -6    0.72    0.39
   2 -10   6   -0.21    0.31
   2 -10   6    0.44    0.35
   2 -10   6    0.84    0.41
  -3  10  -6    5.01    0.60
   3 -10   6    4.42    0.46
   3 -10   6    3.81    0.45
   3 -10   6    2.88    0.49
  -4  10  -6    0.00    0.25
   4 -10   6   -0.09    0.24
   4 -10   6    0.31    0.23
   5   9  -6    4.62    0.49
   4   9  -6   16.17    1.11
  -4  -9   6   14.45    1.13
  -4  -9   6   16.02    1.07
   3   9  -6    0.56    0.40
   3   9  -6    0.71    0.44
  -3  -9   6    0.75    0.45
  -3  -9   6    0.61    0.42
   2   9  -6   23.07    1.44
   2   9  -6   21.52    1.44
  -2  -9   6   23.07    1.48
  -2  -9   6   22.18    1.46
  -1  -9   6   19.18    1.31
  -1  -9   6   17.40    1.26
   0   9  -6   10.86    1.02
   0  -9   6   11.82    1.01
   0  -9   6   11.09    0.92
   0  -9   6   11.52    1.00
  -1   9  -6   20.90    1.39
   1  -9   6   22.73    1.35
   1  -9   6   21.06    1.35
   1  -9   6   19.30    1.30
  -2   9  -6    1.23    0.43
   2  -9   6    0.32    0.50
   2  -9   6    1.51    0.42
   2  -9   6    1.35    0.43
   2  -9   6    0.94    0.39
   2  -9   6    1.30    0.36
  -3   9  -6    1.65    0.45
   3  -9   6    1.75    0.48
   3  -9   6    2.04    0.51
   3  -9   6    1.14    0.37
  -4   9  -6    0.66    0.34
   4  -9   6    0.86    0.40
   4  -9   6    0.44    0.33
   4  -9   6    0.73    0.35
   5  -9   6    0.62    0.24
   5   8  -6   -0.20    0.30
  -5  -8   6   -0.04    0.41
   4   8  -6    7.61    0.82
  -4  -8   6    8.87    0.97
  -4  -8   6    8.58    0.82
   3   8  -6   41.96    2.29
   3   8  -6   39.02    2.23
  -3  -8   6   41.64    2.35
  -3  -8   6   42.26    2.26
   2   8  -6   17.04    1.26
  -2  -8   6   16.43    1.21
  -2  -8   6   16.59    1.21
  -1  -8   6   14.69    1.12
  -1  -8   6   15.55    1.04
  -1  -8   6   17.12    1.14
   0   8  -6   10.49    0.94
   0  -8   6   10.29    0.90
   0  -8   6   10.42    0.90
   0  -8   6    9.45    0.84
  -1   8  -6   18.16    1.23
   1  -8   6   16.80    1.15
   1  -8   6   17.69    1.22
   1  -8   6   18.32    1.20
   1  -8   6   17.95    1.17
  -2   8  -6    3.26    0.54
   2  -8   6    2.97    0.49
   2  -8   6    2.27    0.42
   2  -8   6    3.35    0.61
   2  -8   6    3.65    0.57
  -3   8  -6   45.38    2.44
   3  -8   6   46.95    2.29
   3  -8   6   44.49    2.39
   3  -8   6   45.58    2.08
   4  -8   6    2.21    0.44
   4  -8   6    2.67    0.51
   5  -8   6    2.03    0.36
   5  -8   6    3.16    0.42
   6   7  -6   11.04    0.79
   6   7  -6   12.79    0.85
  -6  -7   6   10.85    0.89
   5   7  -6    2.17    0.50
  -5  -7   6    1.65    0.58
   4   7  -6    0.18    0.44
   4   7  -6    0.23    0.38
  -4  -7   6    0.62    0.40
  -4  -7   6    0.53    0.51
   3   7  -6    1.10    0.45
   3   7  -6    1.94    0.54
  -3  -7   6    1.19    0.48
  -3  -7   6    1.81    0.51
   2   7  -6   -0.08    0.39
  -2  -7   6    0.41    0.37
  -2  -7   6    0.12    0.36
  -1  -7   6    2.79    0.44
  -1  -7   6    3.44    0.53
  -1  -7   6    3.21    0.52
   0   7  -6    1.41    0.45
   0  -7   6    0.80    0.36
   0  -7   6    0.39    0.41
   0  -7   6    1.30    0.44
   0  -7   6    1.08    0.35
  -1   7  -6   25.72    1.50
   1  -7   6   23.45    1.35
   1  -7   6   25.08    1.39
   1  -7   6   23.73    1.24
   1  -7   6   22.86    1.43
   1  -7   6   25.15    1.44
  -2   7  -6   76.90    4.45
   2  -7   6   91.77    4.32
   2  -7   6   95.55    3.87
   2  -7   6   89.37    4.17
   2  -7   6   95.00    3.74
   2  -7   6   97.92    4.14
   3  -7   6   14.18    0.98
   3  -7   6   15.29    1.16
   3  -7   6   15.37    1.02
   4  -7   6   12.07    0.89
   4  -7   6   12.83    1.03
   4  -7   6   11.17    0.98
   5  -7   6    3.01    0.51
   6   6  -6    0.42    0.37
   6   6  -6    0.44    0.30
  -6  -6   6   -0.09    0.42
   5   6  -6    7.05    0.74
  -5  -6   6    4.75    0.73
  -5  -6   6    7.02    0.77
   4   6  -6   -0.04    0.36
   4   6  -6    0.49    0.43
  -4  -6   6    0.25    0.50
  -4  -6   6    0.65    0.41
   3   6  -6   10.58    0.91
   3   6  -6   10.00    0.95
  -3  -6   6   12.54    0.99
  -3  -6   6   11.10    0.90
   2   6  -6   12.70    0.92
  -2  -6   6   10.65    0.86
  -2  -6   6   10.74    0.83
   1   6  -6   31.01    1.97
  -1  -6   6   29.64    1.64
  -1  -6   6   31.34    1.64
  -1  -6   6   28.99    1.69
   0   6  -6   50.54    2.78
   0   6  -6   52.70    2.37
   0  -6   6   49.99    2.52
   0  -6   6   50.44    2.44
   0  -6   6   50.51    2.53
  -1   6  -6   13.06    1.05
   1  -6   6   12.97    0.93
   1  -6   6   12.75    0.82
   1  -6   6   12.73    0.90
   1  -6   6   12.74    0.85
   1  -6   6   13.29    0.86
   2  -6   6   18.31    1.06
   2  -6   6   20.50    1.16
   2  -6   6   19.29    1.27
   2  -6   6   19.18    1.05
   3  -6   6   -0.41    0.37
   3  -6   6   -0.76    0.41
   3  -6   6    0.01    0.31
   3  -6   6    0.39    0.32
   4  -6   6    7.68    0.81
   4  -6   6    8.32    0.73
   4  -6   6    6.39    0.81
   5  -6   6    0.20    0.40
   5  -6   6   -0.61    0.40
   5  -6   6    0.00    0.27
   7   5  -6    0.71    0.29
   6   5  -6    0.36    0.38
  -6  -5   6    0.33    0.48
   5   5  -6    1.05    0.42
  -5  -5   6    0.71    0.54
  -5  -5   6    1.37    0.45
   4   5  -6   15.20    1.12
   4   5  -6   12.34    1.01
  -4  -5   6   14.47    1.16
  -4  -5   6   15.04    1.07
   3   5  -6    7.47    0.79
  -3  -5   6    6.48    0.67
  -3  -5   6    6.81    0.74
   2   5  -6    0.78    0.40
   1   5  -6    7.52    0.80
   1   5  -6    8.16    0.67
  -1  -5   6    8.80    0.72
   0   5  -6   15.51    1.11
   0   5  -6   14.32    0.95
  -1   5  -6   -0.17    0.23
  -1   5  -6    0.27    0.28
   2  -5   6    3.69    0.45
   2  -5   6    4.11    0.46
   2  -5   6    5.00    0.62
   2  -5   6    3.03    0.42
   3  -5   6    0.74    0.34
   3  -5   6    0.14    0.40
   3  -5   6    0.60    0.39
   4  -5   6    0.72    0.35
   4  -5   6    0.24    0.47
   4  -5   6    0.48    0.41
   5  -5   6   20.49    1.36
   5  -5   6   21.11    1.34
   5  -5   6   19.98    1.08
   6  -5   6   -0.20    0.29
   7   4  -6    0.67    0.31
  -7  -4   6    0.94    0.38
   6   4  -6    1.00    0.40
  -6  -4   6    1.41    0.52
   5   4  -6    1.61    0.48
   5   4  -6    2.03    0.48
  -5  -4   6    1.75    0.58
  -5  -4   6    2.07    0.48
   4   4  -6   11.53    0.91
   4   4  -6   11.99    0.96
  -4  -4   6   12.90    1.04
  -4  -4   6   11.85    0.92
   3   4  -6    1.19    0.38
   3   4  -6    1.49    0.51
  -3  -4   6    0.77    0.33
  -3  -4   6    0.50    0.45
   2   4  -6    1.22    0.32
   2   4  -6    1.36    0.45
  -2  -4   6    1.22    0.36
   1   4  -6    8.13    0.67
   1   4  -6    9.98    0.83
  -1  -4   6    8.09    0.78
   0   4  -6   31.63    1.58
   0   4  -6   31.96    1.76
   0  -4   6   31.51    1.77
  -1   4  -6    1.08    0.35
   2  -4   6    0.51    0.30
   2  -4   6    0.47    0.26
   2  -4   6   -0.06    0.28
   2  -4   6    0.53    0.37
   3  -4   6    8.28    0.67
   3  -4   6    7.84    0.80
   3  -4   6    7.76    0.78
   4  -4   6    5.26    0.69
   4  -4   6    7.11    0.81
   4  -4   6    4.40    0.51
   5  -4   6   18.35    1.22
   5  -4   6   17.63    1.23
   6  -4   6    3.69    0.46
   7   3  -6    0.13    0.31
  -7  -3   6    0.33    0.37
   6   3  -6   11.53    0.96
  -6  -3   6   12.32    0.99
  -6  -3   6   12.97    1.07
   5   3  -6    3.08    0.54
   5   3  -6    3.82    0.61
  -5  -3   6    4.72    0.72
  -5  -3   6    3.62    0.57
   4   3  -6    3.78    0.56
   4   3  -6    5.43    0.64
  -4  -3   6    4.87    0.59
  -4  -3   6    4.02    0.60
   3   3  -6    2.16    0.52
   2   3  -6    4.51    0.64
  -2  -3   6    3.51    0.52
   1   3  -6   43.16    2.25
  -1  -3   6   42.92    2.23
   0   3  -6    2.36    0.37
   0   3  -6    2.25    0.40
   0  -3   6    2.56    0.51
  -1   3  -6   19.84    1.16
   1  -3   6   20.66    1.34
  -2   3  -6    7.08    0.77
   2  -3   6    8.70    0.63
   2  -3   6    9.82    0.79
   2  -3   6    8.63    0.63
   3  -3   6   15.00    1.04
   3  -3   6   14.83    0.89
   3  -3   6   15.56    1.13
   4  -3   6   -0.18    0.43
   4  -3   6   -0.13    0.30
   4  -3   6    0.04    0.45
   5  -3   6    0.02    0.43
   5  -3   6    0.00    0.46
   6  -3   6    3.11    0.45
   7   2  -6    6.95    0.71
  -7  -2   6    4.48    0.56
   6   2  -6    4.04    0.62
  -6  -2   6    4.48    0.69
  -6  -2   6    4.72    0.65
   5   2  -6    0.74    0.42
   5   2  -6    0.90    0.40
  -5  -2   6    0.83    0.39
  -5  -2   6    0.72    0.46
   4   2  -6    3.65    0.54
  -4  -2   6    4.72    0.59
   3   2  -6  135.88    6.29
  -3  -2   6  126.86    5.99
   2   2  -6    0.14    0.26
  -2  -2   6   -0.20    0.23
   1   2  -6  162.17    7.48
  -1  -2   6  167.81    7.37
   0  -2   6    0.02    0.28
  -1   2  -6    7.54    0.66
   1  -2   6    7.43    0.77
   2  -2   6    0.16    0.26
   2  -2   6   -0.26    0.38
   2  -2   6   -0.06    0.31
   3  -2   6    0.78    0.46
   3  -2   6    0.26    0.35
   3  -2   6    0.94    0.33
   4  -2   6    1.84    0.53
   4  -2   6    2.12    0.59
   5  -2   6   -0.13    0.44
   5  -2   6   -0.01    0.39
   7   1  -6    0.28    0.34
  -7  -1   6    0.27    0.34
  -7  -1   6    0.32    0.34
   6   1  -6    0.32    0.38
   6   1  -6    0.17    0.42
  -6  -1   6    0.27    0.40
  -6  -1   6    0.82    0.43
   5   1  -6    0.93    0.41
   5   1  -6    1.17    0.47
  -5  -1   6    0.58    0.41
  -5  -1   6    0.72    0.49
   4   1  -6    5.16    0.63
  -4  -1   6    4.03    0.54
   3   1  -6    0.28    0.31
  -3  -1   6   -0.05    0.29
   2   1  -6   57.24    2.90
  -2  -1   6   57.56    2.95
  -2  -1   6   55.77    2.87
   1   1  -6   23.13    1.30
  -1  -1   6   23.71    1.43
  -1  -1   6   22.16    1.45
   0  -1   6    0.26    0.24
   0  -1   6   -0.19    0.26
  -1   1  -6   -0.05    0.23
   1  -1   6   -0.06    0.31
   2  -1   6   67.85    3.36
   2  -1   6   71.09    3.02
   2  -1   6   72.84    2.91
   2  -1   6   68.43    3.29
   3  -1   6    2.81    0.47
   4  -1   6   49.46    2.61
   4  -1   6   50.39    2.59
   5  -1   6    5.43    0.63
   5  -1   6    3.72    0.58
   7   0  -6    1.62    0.41
  -7   0   6    1.94    0.43
  -7   0   6    1.24    0.37
   6   0  -6    1.20    0.42
   6   0  -6    0.51    0.43
  -6   0   6    0.53    0.40
  -6   0   6    0.23    0.38
   5   0  -6   12.42    1.01
   5   0  -6   11.59    0.99
  -5   0   6   12.72    0.98
   4   0  -6    1.33    0.42
  -4   0   6    1.36    0.40
   3   0  -6    1.68    0.39
   3   0  -6    1.14    0.42
  -3   0   6    1.31    0.34
  -3   0   6    1.57    0.48
   2   0  -6    2.17    0.44
  -2   0   6    2.05    0.51
  -2   0   6    2.08    0.46
   1   0  -6    0.27    0.23
  -1   0   6    0.32    0.32
  -1   0   6    0.66    0.34
   0   0   6   45.06    2.41
   0   0   6   45.03    2.53
   1   0   6    2.71    0.42
   1   0   6    3.17    0.57
   1   0   6    2.12    0.50
   1   0   6    2.55    0.41
   1   0   6    1.62    0.47
   2   0   6   45.36    2.25
   2   0   6   43.24    2.03
   2   0   6   43.59    2.28
   3   0   6   17.37    1.23
   3   0   6   17.73    1.20
   3   0   6   19.82    1.25
   4   0   6    3.61    0.60
   4   0   6    3.84    0.64
   5   0   6   -0.09    0.29
   5   0   6    0.01    0.35
   7  -1  -6    0.09    0.32
   6  -1  -6   -0.17    0.34
   6  -1  -6   -0.10    0.41
  -6   1   6   -0.26    0.32
   5  -1  -6    1.48    0.54
  -5   1   6    0.73    0.40
   4  -1  -6   20.14    1.29
  -4   1   6   18.62    1.21
   3  -1  -6    3.60    0.50
  -3   1   6    4.06    0.50
  -3   1   6    4.00    0.54
   2  -1  -6    2.69    0.52
  -2   1   6    3.46    0.65
  -2   1   6    2.90    0.48
  -2   1   6    2.41    0.54
   1  -1  -6   12.19    0.86
  -1   1   6   12.84    1.10
  -1   1   6   10.96    0.87
  -1   1   6   11.10    0.80
  -1   1   6   11.44    1.00
   0   1   6    3.35    0.60
   0   1   6    4.48    0.51
   0   1   6    4.07    0.56
   1   1   6   48.62    2.23
   1   1   6   49.41    2.45
   2   1   6    4.51    0.62
   2   1   6    4.82    0.64
   2   1   6    5.00    0.61
   3   1   6    0.23    0.40
   3   1   6    0.22    0.38
   4   1   6    0.92    0.40
   4   1   6    0.80    0.47
   5   1   6    6.65    0.64
   7  -2  -6    0.88    0.31
  -7   2   6    0.34    0.28
   6  -2  -6    7.79    0.80
   6  -2  -6    8.63    0.88
   5  -2  -6    4.43    0.70
  -5   2   6    2.88    0.51
   4  -2  -6    4.95    0.70
  -4   2   6    5.18    0.63
   3  -2  -6    0.42    0.36
  -3   2   6    0.21    0.30
  -3   2   6    0.35    0.32
   2  -2  -6   -0.09    0.27
  -2   2   6    0.16    0.28
  -2   2   6   -0.01    0.31
  -1   2   6    6.12    0.72
  -1   2   6    5.94    0.61
   0   2   6    0.68    0.44
   0   2   6    0.85    0.36
   1   2   6    1.09    0.43
   1   2   6    1.53    0.44
   1   2   6    1.56    0.46
   2   2   6    5.86    0.74
   2   2   6    6.91    0.79
   3   2   6    0.71    0.47
   3   2   6    0.47    0.43
   4   2   6    6.60    0.64
   4   2   6    4.21    0.55
   6  -3  -6    0.49    0.41
   6  -3  -6    0.60    0.37
  -6   3   6   -0.13    0.33
   5  -3  -6    2.19    0.55
   4  -3  -6   -0.12    0.44
   3  -3  -6    2.11    0.46
  -3   3   6    3.13    0.52
   2  -3  -6   11.09    0.88
  -2   3   6    9.17    0.79
  -2   3   6   10.81    0.89
  -1   3   6   12.04    0.94
   0   3   6    9.45    0.93
   1   3   6    3.47    0.61
   1   3   6    4.35    0.59
   2   3   6    9.02    0.91
   2   3   6    9.38    0.88
   3   3   6    6.67    0.75
   3   3   6    6.79    0.79
   4   3   6    4.63    0.49
   4   3   6    3.45    0.45
   6  -4  -6    2.34    0.46
  -6   4   6    2.16    0.44
   5  -4  -6    3.29    0.49
   5  -4  -6    4.79    0.69
  -5   4   6    4.19    0.59
   4  -4  -6   19.98    1.27
   4  -4  -6   19.43    1.39
  -4   4   6   20.05    1.30
   3  -4  -6    1.53    0.51
  -3   4   6    0.79    0.38
   2  -4  -6    7.78    0.80
  -2   4   6    8.02    0.70
  -1   4   6    8.62    0.80
   0   4   6    3.89    0.59
   0   4   6    4.57    0.59
   1   4   6    0.11    0.43
   1   4   6    0.24    0.47
   2   4   6    0.39    0.44
   2   4   6    1.23    0.51
   3   4   6    5.33    0.58
   3   4   6    3.37    0.48
  -6   5   6    0.92    0.26
   5  -5  -6    2.03    0.50
   5  -5  -6    1.35    0.36
  -5   5   6    1.79    0.45
   4  -5  -6    5.49    0.62
   4  -5  -6    7.27    0.79
  -4   5   6    4.29    0.57
   3  -5  -6    0.31    0.41
   3  -5  -6    0.20    0.38
  -3   5   6    0.47    0.36
   2  -5  -6   28.05    1.62
   2  -5  -6   29.66    1.79
  -2   5   6   32.01    1.57
   1  -5  -6    2.33    0.47
  -1   5   6    2.74    0.49
   0   5   6   12.42    0.90
   0   5   6   11.42    0.94
   1   5   6   20.80    1.28
   1   5   6   19.92    1.28
   2   5   6    0.24    0.35
   2   5   6   -0.16    0.34
   5  -6  -6   -0.07    0.27
  -5   6   6    0.27    0.23
   4  -6  -6    0.39    0.37
   4  -6  -6    0.89    0.34
  -4   6   6    0.51    0.29
   3  -6  -6    4.10    0.56
   3  -6  -6    4.69    0.62
  -3   6   6    4.00    0.46
   2  -6  -6   -0.11    0.32
   2  -6  -6    0.11    0.33
   1  -6  -6   -0.05    0.30
   1  -6  -6    0.06    0.31
   0   6   6    0.71    0.34
   0   6   6    0.15    0.35
  -1  -6  -6    3.49    0.43
   1   6   6    3.49    0.47
   1   6   6    4.01    0.44
   3  -7  -6   -0.03    0.22
   3  -7  -6   -0.09    0.26
   2  -7  -6    0.79    0.32
   2  -7  -6    0.81    0.29
   2  -7  -6    0.51    0.24
   1  -7  -6    1.51    0.32
  -1 -12   7    7.73    0.60
  -1 -12   7    7.66    0.59
  -1 -12   7    7.67    0.59
   0  12  -7    0.55    0.29
   0 -12   7    0.07    0.26
   0 -12   7   -0.37    0.24
   0 -12   7   -0.11    0.26
  -1  12  -7    5.35    0.57
   1 -12   7    5.97    0.53
   1 -12   7    6.12    0.52
  -3 -11   7    8.21    0.65
   2  11  -7    6.07    0.62
   2  11  -7    6.89    0.68
  -2 -11   7    6.77    0.70
  -2 -11   7    7.20    0.68
   1  11  -7    2.33    0.47
  -1 -11   7    1.23    0.45
  -1 -11   7    1.38    0.42
   0  11  -7    1.48    0.47
   0 -11   7    1.50    0.44
   0 -11   7    1.57    0.39
   0 -11   7    1.23    0.40
   1 -11   7    4.54    0.53
   1 -11   7    4.97    0.61
   1 -11   7    6.11    0.61
   1 -11   7    5.21    0.58
  -2  11  -7   10.24    0.81
   2 -11   7    9.18    0.70
   2 -11   7   10.10    0.65
   2 -11   7   10.18    0.76
  -3  11  -7    2.15    0.36
   3 -11   7    1.86    0.35
   4  10  -7   17.54    1.02
  -4 -10   7   15.44    0.97
   3  10  -7    2.49    0.46
   3  10  -7    1.53    0.39
  -3 -10   7    2.31    0.47
   2  10  -7    1.97    0.48
  -2 -10   7    2.82    0.54
  -2 -10   7    3.60    0.61
   1  10  -7    0.21    0.43
  -1 -10   7    0.80    0.48
  -1 -10   7    0.60    0.42
   0 -10   7   34.38    1.98
   0 -10   7   38.46    2.06
   0 -10   7   38.02    1.93
  -1  10  -7    2.19    0.50
   1 -10   7    4.24    0.61
   1 -10   7    3.06    0.53
   1 -10   7    3.29    0.53
  -2  10  -7    1.81    0.47
   2 -10   7    1.45    0.43
   2 -10   7    1.90    0.37
   2 -10   7    2.17    0.45
  -3  10  -7    0.00    0.32
   3 -10   7    0.03    0.27
   3 -10   7    0.23    0.34
   5   9  -7    3.69    0.44
   4   9  -7    3.70    0.52
  -4  -9   7    6.03    0.66
   3   9  -7    0.86    0.39
   3   9  -7    1.40    0.51
  -3  -9   7    0.56    0.40
  -3  -9   7    1.40    0.45
   2   9  -7    1.68    0.51
  -2  -9   7    2.15    0.56
  -2  -9   7    2.69    0.61
   1   9  -7    0.25    0.46
  -1  -9   7   -0.28    0.43
  -1  -9   7   -0.25    0.33
  -1  -9   7    0.56    0.42
   0   9  -7    0.15    0.43
   0  -9   7    0.25    0.38
   0  -9   7    0.58    0.45
   0  -9   7    0.25    0.41
  -1   9  -7    9.18    0.93
   1  -9   7    9.23    0.89
   1  -9   7    9.96    0.89
   1  -9   7   10.09    0.85
   1  -9   7   10.65    1.04
  -2   9  -7    2.51    0.52
   2  -9   7    1.78    0.47
   2  -9   7    1.39    0.55
   2  -9   7    1.58    0.40
   2  -9   7    1.61    0.48
  -3   9  -7   -0.09    0.31
   3  -9   7    0.28    0.41
   3  -9   7    0.23    0.39
   3  -9   7    0.20    0.32
   4  -9   7    0.51    0.36
   4  -9   7    0.40    0.27
   5   8  -7    5.19    0.59
  -5  -8   7    5.71    0.64
  -5  -8   7    7.09    0.72
   4   8  -7    2.14    0.49
   4   8  -7    1.30    0.47
  -4  -8   7    1.27    0.46
   3   8  -7    0.59    0.43
   3   8  -7   -0.06    0.35
  -3  -8   7    0.81    0.44
  -3  -8   7   -0.05    0.42
   2   8  -7   13.80    1.11
  -2  -8   7   12.11    1.04
  -2  -8   7   12.47    1.05
  -1  -8   7   18.52    1.20
  -1  -8   7   21.20    1.32
  -1  -8   7   18.84    1.32
   0   8  -7   11.55    0.97
   0  -8   7   10.28    0.90
   0  -8   7    9.45    0.87
   0  -8   7   10.24    1.07
   0  -8   7   10.71    0.87
  -1   8  -7   56.04    2.83
   1  -8   7   53.48    2.32
   1  -8   7   49.57    2.58
   1  -8   7   52.64    2.71
   1  -8   7   52.61    2.44
   1  -8   7   55.28    2.76
   1  -8   7   52.67    2.59
  -2   8  -7    4.11    0.59
   2  -8   7    3.69    0.55
   2  -8   7    3.39    0.51
   2  -8   7    3.31    0.66
   2  -8   7    3.50    0.53
   3  -8   7   15.41    1.06
   3  -8   7   14.27    0.97
   3  -8   7   14.86    1.12
   4  -8   7    0.19    0.39
   4  -8   7    0.54    0.35
   5  -8   7    0.03    0.24
   6   7  -7    0.39    0.32
   5   7  -7   16.85    1.13
  -5  -7   7   18.55    1.18
  -5  -7   7   14.40    1.19
   4   7  -7   17.69    1.19
   4   7  -7   16.00    1.22
  -4  -7   7   15.29    1.19
   3   7  -7    9.16    0.94
  -3  -7   7    9.32    0.87
  -3  -7   7    9.19    0.85
   2   7  -7    2.24    0.55
  -2  -7   7    1.29    0.43
  -2  -7   7    2.07    0.50
  -1  -7   7   62.46    3.08
  -1  -7   7   64.49    3.13
  -1  -7   7   61.45    2.94
   0   7  -7   -0.13    0.34
   0  -7   7    0.14    0.29
   0  -7   7   -0.01    0.46
   0  -7   7    0.39    0.34
   0  -7   7   -0.05    0.36
  -1   7  -7    6.02    0.67
   1  -7   7    4.57    0.56
   1  -7   7    5.41    0.60
   1  -7   7    5.98    0.60
   1  -7   7    5.21    0.56
   1  -7   7    4.99    0.61
   1  -7   7    5.45    0.69
   2  -7   7    0.41    0.37
   2  -7   7    0.73    0.35
   2  -7   7    0.44    0.38
   2  -7   7    0.15    0.41
   3  -7   7    7.48    0.76
   3  -7   7    7.50    0.70
   3  -7   7    8.46    0.88
   4  -7   7   10.98    0.94
   4  -7   7   10.10    0.80
   5  -7   7    0.25    0.24
   5  -7   7    0.60    0.29
   6   6  -7    0.92    0.39
  -6  -6   7    0.39    0.36
  -6  -6   7    0.61    0.33
   5   6  -7    7.45    0.79
   5   6  -7    8.37    0.81
  -5  -6   7    6.88    0.77
   4   6  -7    3.42    0.58
   4   6  -7    4.28    0.68
  -4  -6   7    3.54    0.62
   3   6  -7    1.69    0.47
  -3  -6   7    2.77    0.52
  -3  -6   7    2.80    0.49
   2   6  -7   24.20    1.60
  -2  -6   7   29.34    1.58
  -2  -6   7   27.71    1.40
  -2  -6   7   29.26    1.60
  -1  -6   7   -0.03    0.28
  -1  -6   7    0.23    0.30
  -1  -6   7    0.35    0.32
  -1  -6   7    0.18    0.31
  -1  -6   7   -0.24    0.52
   0   6  -7    4.78    0.60
   0  -6   7    4.65    0.65
   0  -6   7    3.89    0.49
   0  -6   7    4.14    0.51
   0  -6   7    4.93    0.54
   0  -6   7    3.96    0.47
   0  -6   7    4.34    0.57
   1  -6   7   14.83    0.93
   1  -6   7   15.25    1.04
   1  -6   7   14.25    1.10
   1  -6   7   14.95    0.91
   1  -6   7   15.06    0.98
   2  -6   7   45.25    2.39
   2  -6   7   45.06    2.04
   2  -6   7   44.95    2.09
   2  -6   7   43.73    2.22
   3  -6   7    0.57    0.40
   3  -6   7    0.58    0.40
   3  -6   7   -0.20    0.42
   4  -6   7   23.56    1.17
   4  -6   7   17.22    1.30
   4  -6   7   21.38    1.36
   5  -6   7    2.23    0.42
   6   5  -7    0.90    0.41
  -6  -5   7    1.04    0.42
  -6  -5   7    0.35    0.39
   5   5  -7    8.64    0.85
   5   5  -7    7.54    0.80
  -5  -5   7    7.47    0.79
  -5  -5   7    9.29    0.94
   4   5  -7    1.26    0.50
  -4  -5   7    0.69    0.39
   3   5  -7    1.69    0.46
  -3  -5   7    0.80    0.35
  -3  -5   7    1.18    0.39
   2   5  -7   13.05    0.99
  -2  -5   7   12.66    0.85
  -2  -5   7   14.44    0.93
  -2  -5   7   14.64    0.97
  -2  -5   7   13.03    0.87
   1   5  -7    2.66    0.56
   1   5  -7    3.54    0.56
  -1  -5   7    3.40    0.44
  -1  -5   7    2.66    0.62
  -1  -5   7    3.26    0.46
  -1  -5   7    2.92    0.56
  -1  -5   7    3.96    0.48
  -1  -5   7    4.60    0.55
   0   5  -7    8.66    0.83
   0  -5   7    9.75    0.71
   0  -5   7    8.63    0.69
   0  -5   7    9.88    0.82
   0  -5   7    9.45    0.76
   0  -5   7    8.64    0.67
   1  -5   7   17.43    1.17
   1  -5   7   17.43    1.08
   1  -5   7   17.48    1.12
   1  -5   7   17.54    1.01
   1  -5   7   17.68    0.98
   2  -5   7    0.99    0.36
   2  -5   7    1.11    0.50
   2  -5   7    0.25    0.33
   2  -5   7    0.50    0.33
   3  -5   7   22.30    1.47
   3  -5   7   21.81    1.20
   4  -5   7    0.08    0.42
   4  -5   7   -0.01    0.30
   4  -5   7    0.03    0.48
   5  -5   7    1.71    0.41
   5  -5   7    1.31    0.39
   5  -5   7    0.87    0.24
   7   4  -7    1.53    0.32
   6   4  -7    0.30    0.35
  -6  -4   7   -0.05    0.34
  -6  -4   7    0.27    0.38
   5   4  -7    3.17    0.59
   5   4  -7    1.87    0.46
  -5  -4   7    2.37    0.50
  -5  -4   7    2.47    0.55
   4   4  -7   80.79    4.16
  -4  -4   7   85.22    3.98
   3   4  -7   20.20    1.31
  -3  -4   7   20.63    1.24
   2   4  -7   18.32    1.13
   2   4  -7   17.04    1.10
   2   4  -7   18.72    1.33
  -2  -4   7   16.07    1.18
  -2  -4   7   16.25    1.07
  -2  -4   7   16.95    1.04
   1   4  -7   -0.16    0.22
   1   4  -7    0.11    0.26
  -1  -4   7   -0.19    0.28
  -1  -4   7    0.09    0.32
   0   4  -7    9.27    0.80
   0  -4   7    9.79    0.90
   0  -4   7    9.23    0.80
   0  -4   7    9.66    0.69
   0  -4   7    9.27    0.66
   0  -4   7   10.19    0.72
   1  -4   7    4.98    0.62
   1  -4   7    3.49    0.47
   1  -4   7    4.05    0.46
   1  -4   7    4.61    0.57
   1  -4   7    4.08    0.49
   2  -4   7    4.15    0.48
   2  -4   7    4.43    0.64
   2  -4   7    3.76    0.53
   3  -4   7   12.20    0.82
   3  -4   7   11.93    1.09
   4  -4   7    0.05    0.41
   4  -4   7    0.34    0.35
   4  -4   7    0.09    0.47
   5  -4   7    1.48    0.42
   5  -4   7    0.99    0.40
   7   3  -7   12.85    0.91
  -7  -3   7   11.60    0.81
   6   3  -7    4.29    0.59
   6   3  -7    3.60    0.56
  -6  -3   7    3.17    0.55
  -6  -3   7    3.76    0.61
   5   3  -7    7.09    0.80
   5   3  -7    6.92    0.79
  -5  -3   7    7.16    0.80
   4   3  -7    0.57    0.42
  -4  -3   7    0.25    0.34
   3   3  -7   65.32    3.27
  -3  -3   7   63.27    3.08
   2   3  -7   21.19    1.41
  -2  -3   7   22.10    1.40
  -2  -3   7   20.16    1.23
   1   3  -7    2.29    0.44
  -1  -3   7    2.44    0.52
   0   3  -7    1.69    0.37
   0  -3   7    0.96    0.29
   0  -3   7    1.27    0.35
   0  -3   7    1.17    0.39
   0  -3   7    1.20    0.46
   1  -3   7   83.59    4.10
   1  -3   7   88.69    3.69
   1  -3   7   87.69    3.55
   1  -3   7   88.31    4.14
   2  -3   7   33.66    1.69
   2  -3   7   35.82    1.96
   2  -3   7   36.67    1.68
   3  -3   7    0.97    0.36
   3  -3   7    0.91    0.47
   4  -3   7   13.52    1.02
   4  -3   7   13.02    1.10
   5  -3   7    0.40    0.36
   5  -3   7   -0.24    0.30
   7   2  -7    0.39    0.31
  -7  -2   7   -0.15    0.27
   6   2  -7    1.83    0.52
   6   2  -7    2.46    0.51
  -6  -2   7    2.39    0.53
   5   2  -7    8.53    0.90
  -5  -2   7    8.80    0.86
   4   2  -7   13.31    1.04
  -4  -2   7   13.14    0.96
   3   2  -7   11.01    0.87
  -3  -2   7   11.03    0.81
  -3  -2   7   10.87    0.82
   2   2  -7   59.42    2.99
  -2  -2   7   54.80    2.94
  -2  -2   7   57.42    2.82
   1   2  -7   69.28    3.30
  -1  -2   7   62.11    3.29
  -1  -2   7   71.41    3.42
   0  -2   7   10.70    0.94
   0  -2   7   10.18    0.97
   0  -2   7   10.40    0.71
   0  -2   7   10.12    0.68
   0  -2   7   10.33    0.81
   1  -2   7    3.01    0.57
   1  -2   7    2.69    0.42
   1  -2   7    3.23    0.41
   2  -2   7    0.58    0.36
   2  -2   7    0.84    0.48
   2  -2   7    0.55    0.30
   3  -2   7    2.28    0.58
   3  -2   7    2.40    0.53
   3  -2   7    1.36    0.37
   4  -2   7   -0.07    0.42
   4  -2   7    0.69    0.49
   5  -2   7    0.31    0.36
   5  -2   7    0.55    0.33
   7   1  -7   -0.05    0.28
  -7  -1   7   -0.22    0.27
   6   1  -7    0.01    0.35
   6   1  -7   -0.19    0.43
  -6  -1   7    0.05    0.35
   5   1  -7   10.34    0.98
  -5  -1   7   11.02    0.91
   4   1  -7   58.83    2.98
  -4  -1   7   54.63    2.80
   3   1  -7    6.39    0.63
  -3  -1   7    6.74    0.66
   2   1  -7    8.82    0.81
  -2  -1   7    8.20    0.64
  -2  -1   7    6.11    0.80
  -2  -1   7    8.45    0.74
  -2  -1   7    8.25    0.64
  -1  -1   7    4.33    0.58
  -1  -1   7    4.27    0.71
  -1  -1   7    3.90    0.66
  -1  -1   7    5.16    0.53
  -1  -1   7    5.62    0.53
   0  -1   7   52.93    2.20
   0  -1   7   50.26    2.28
   0  -1   7   50.01    2.51
   1  -1   7    7.99    0.81
   1  -1   7    7.37    0.65
   1  -1   7    7.31    0.63
   2  -1   7   30.20    1.56
   2  -1   7   31.36    1.49
   2  -1   7   30.82    1.69
   3  -1   7   16.96    1.15
   3  -1   7   16.33    1.14
   4  -1   7   28.21    1.65
   4  -1   7   29.82    1.63
   7   0  -7   -0.26    0.25
  -7   0   7    0.11    0.25
   6   0  -7    0.18    0.43
   6   0  -7    0.35    0.36
  -6   0   7    0.26    0.37
   5   0  -7    3.33    0.61
  -5   0   7    3.16    0.53
   4   0  -7    8.15    0.83
  -4   0   7    7.44    0.75
   3   0  -7    9.15    0.80
  -3   0   7   10.64    0.79
  -3   0   7    9.75    0.89
  -2   0   7   28.87    1.53
  -2   0   7   25.28    1.39
  -2   0   7   26.07    1.34
  -1   0   7    0.20    0.39
  -1   0   7    0.55    0.35
   0   0   7   21.99    1.13
   0   0   7   22.24    1.19
   0   0   7   21.22    1.33
   1   0   7   19.90    1.16
   1   0   7   18.58    1.06
   1   0   7   20.86    1.33
   2   0   7   29.99    1.61
   2   0   7   34.24    1.81
   3   0   7    1.52    0.43
   3   0   7    1.26    0.43
   4   0   7    2.30    0.48
   7  -1  -7    2.63    0.45
   6  -1  -7    5.11    0.68
  -6   1   7    5.80    0.67
   5  -1  -7    0.64    0.44
  -5   1   7    1.19    0.42
   4  -1  -7    1.80    0.48
  -4   1   7    2.10    0.46
  -4   1   7    1.32    0.43
   3  -1  -7    6.14    0.68
  -3   1   7    4.22    0.59
  -3   1   7    5.63    0.59
   2  -1  -7    1.13    0.35
  -2   1   7    1.20    0.43
  -2   1   7    1.60    0.40
  -1   1   7    4.98    0.70
  -1   1   7    5.62    0.63
   0   1   7    1.00    0.38
   0   1   7    1.35    0.51
   1   1   7    7.93    0.74
   1   1   7    8.16    0.88
   2   1   7    0.51    0.42
   3   1   7   10.30    0.90
   3   1   7   11.04    0.92
   4   1   7    0.43    0.36
   6  -2  -7    0.00    0.37
   5  -2  -7    2.51    0.56
   4  -2  -7   27.89    1.72
   3  -2  -7    1.03    0.40
  -3   2   7    1.47    0.45
   2  -2  -7    3.91    0.57
  -2   2   7    4.74    0.68
  -1   2   7    0.45    0.39
  -1   2   7    0.60    0.47
   0   2   7    7.43    0.72
   0   2   7    7.38    0.79
   1   2   7   -0.07    0.43
   2   2   7   16.49    1.19
   2   2   7   16.17    1.14
   3   2   7    4.49    0.56
   3   2   7    4.33    0.57
   6  -3  -7    0.73    0.38
  -6   3   7    0.85    0.33
   5  -3  -7    1.67    0.54
  -5   3   7    1.75    0.45
   4  -3  -7    0.39    0.42
  -4   3   7    0.11    0.37
   3  -3  -7   38.70    2.08
  -3   3   7   34.59    1.90
  -3   3   7   35.16    1.90
   2  -3  -7   20.35    1.36
  -2   3   7   22.33    1.37
  -1   3   7   -0.12    0.37
   0   3   7    2.65    0.52
   1   3   7   18.43    1.21
   2   3   7    0.41    0.48
   2   3   7    0.23    0.38
   3   3   7    0.33    0.36
   3   3   7    0.00    0.33
   5  -4  -7   12.23    0.85
   5  -4  -7   14.94    1.04
  -5   4   7   12.47    0.91
   4  -4  -7   11.23    1.01
   4  -4  -7   13.72    0.94
  -4   4   7   11.17    0.91
   3  -4  -7    1.66    0.47
   3  -4  -7    2.65    0.51
  -3   4   7    2.05    0.40
  -2   4   7    2.58    0.46
  -1   4   7    6.21    0.68
   0   4   7    2.01    0.52
   1   4   7    2.14    0.52
   2   4   7    0.79    0.40
   2   4   7    0.50    0.36
   5  -5  -7    0.39    0.31
  -5   5   7    0.64    0.24
   4  -5  -7    0.11    0.36
   4  -5  -7    0.16    0.32
  -4   5   7    0.12    0.24
   3  -5  -7    4.49    0.54
   3  -5  -7    2.18    0.46
   2  -5  -7    0.78    0.38
   2  -5  -7    0.86    0.36
   1  -5  -7   27.56    1.45
  -1   5   7   27.47    1.45
   0   5   7   28.91    1.54
   1   5   7    0.16    0.32
   3  -6  -7   25.61    1.42
   3  -6  -7   26.78    1.32
   2  -6  -7   11.31    0.72
   2  -6  -7   10.49    0.80
   1  -6  -7    1.14    0.31
   0  12  -8    0.76    0.28
   0 -12   8    0.46    0.28
   2  11  -8    5.27    0.62
  -2 -11   8    6.09    0.60
  -2 -11   8    6.05    0.59
  -2 -11   8    5.93    0.55
   1  11  -8    0.65    0.38
  -1 -11   8    0.37    0.30
  -1 -11   8    1.01    0.39
  -1 -11   8    0.21    0.34
   0  11  -8    5.71    0.63
   0 -11   8    5.74    0.60
   0 -11   8    2.89    0.43
   0 -11   8    3.52    0.51
   0 -11   8    3.39    0.43
   1 -11   8    3.53    0.39
   1 -11   8    3.94    0.48
   1 -11   8    2.36    0.43
   1 -11   8    4.19    0.50
   2 -11   8    3.08    0.41
  -4 -10   8    1.45    0.38
   3  10  -8    7.91    0.77
  -3 -10   8    9.22    0.81
   2  10  -8    5.57    0.66
  -2 -10   8    5.95    0.65
  -2 -10   8    3.52    0.56
  -2 -10   8    3.69    0.48
   1  10  -8    0.13    0.40
  -1 -10   8    0.30    0.39
  -1 -10   8    0.45    0.46
  -1 -10   8    0.35    0.39
   0 -10   8   12.25    1.00
   0 -10   8   11.60    0.90
   0 -10   8   13.81    1.00
   0 -10   8   13.97    0.97
   1 -10   8    7.36    0.66
   1 -10   8    8.91    0.81
   1 -10   8    7.39    0.71
   1 -10   8    9.00    0.79
   2 -10   8   13.01    0.89
   2 -10   8   11.30    0.79
   3 -10   8    8.61    0.67
   3 -10   8    8.96    0.59
   4   9  -8   16.15    1.10
   4   9  -8   18.39    1.15
  -4  -9   8   17.28    1.14
   3   9  -8    1.89    0.54
  -3  -9   8    0.92    0.43
  -3  -9   8    1.19    0.47
   2   9  -8   10.18    0.98
  -2  -9   8    9.54    0.91
  -2  -9   8    8.90    0.91
  -2  -9   8    8.09    0.78
   1   9  -8   -0.32    0.41
  -1  -9   8    0.18    0.38
  -1  -9   8    0.02    0.45
  -1  -9   8   -0.43    0.35
  -1  -9   8   -0.12    0.35
   0  -9   8    0.45    0.37
   0  -9   8    0.68    0.41
   0  -9   8    0.81    0.43
   0  -9   8   -0.37    0.39
  -1   9  -8   -0.19    0.36
   1  -9   8    0.24    0.37
   1  -9   8    0.83    0.58
   1  -9   8   -0.01    0.41
   1  -9   8    0.49    0.41
  -2   9  -8    4.86    0.59
   2  -9   8    5.46    0.70
   2  -9   8    7.54    0.64
   2  -9   8    7.20    0.74
   2  -9   8    7.54    0.68
   3  -9   8    1.28    0.37
   3  -9   8    1.53    0.45
   3  -9   8    1.03    0.36
   4  -9   8    0.81    0.28
   5   8  -8    1.47    0.40
  -5  -8   8    1.36    0.36
   4   8  -8    6.06    0.70
   4   8  -8    6.94    0.76
  -4  -8   8    9.06    0.83
   3   8  -8   39.73    2.24
  -3  -8   8   38.42    2.11
  -3  -8   8   39.70    2.14
   2   8  -8    0.11    0.43
  -2  -8   8   -0.08    0.39
  -2  -8   8    0.00    0.38
  -2  -8   8    0.06    0.36
   1   8  -8    0.57    0.42
  -1  -8   8    0.25    0.37
  -1  -8   8    0.41    0.39
  -1  -8   8    0.61    0.42
  -1  -8   8    0.87    0.45
   0  -8   8    1.51    0.62
   0  -8   8   -0.07    0.30
   0  -8   8    0.28    0.36
   0  -8   8    0.46    0.42
   0  -8   8    0.13    0.38
  -1   8  -8   53.75    2.94
   1  -8   8   58.94    2.77
   1  -8   8   58.09    2.91
   1  -8   8   56.00    2.86
   1  -8   8   55.27    2.46
   1  -8   8   58.47    2.59
   2  -8   8    1.72    0.60
   2  -8   8    1.58    0.47
   2  -8   8    2.14    0.45
   2  -8   8    1.69    0.45
   3  -8   8    5.81    0.60
   3  -8   8    6.59    0.60
   3  -8   8    5.86    0.72
   4  -8   8    2.87    0.45
   4  -8   8    2.87    0.38
   5   7  -8    2.01    0.46
   5   7  -8    2.52    0.50
  -5  -7   8    1.91    0.46
   4   7  -8    0.45    0.47
  -4  -7   8    0.32    0.39
   3   7  -8    4.36    0.69
  -3  -7   8    4.69    0.68
  -3  -7   8    4.97    0.68
   2   7  -8    3.13    0.56
  -2  -7   8    3.63    0.55
  -2  -7   8    2.72    0.52
  -2  -7   8    3.61    0.54
   1   7  -8   11.19    0.92
  -1  -7   8    9.04    0.79
  -1  -7   8    9.76    0.79
  -1  -7   8    8.94    0.90
  -1  -7   8    8.92    0.75
   0  -7   8   45.54    2.09
   0  -7   8   41.63    2.14
   0  -7   8   45.86    2.39
   0  -7   8   45.79    2.35
   0  -7   8   45.40    2.21
   0  -7   8   41.10    1.97
   1  -7   8   -0.61    0.33
   1  -7   8   -0.07    0.44
   1  -7   8    0.05    0.32
   1  -7   8   -0.29    0.37
   1  -7   8   -0.61    0.34
   2  -7   8   26.53    1.43
   2  -7   8   27.72    1.65
   2  -7   8   26.35    1.52
   2  -7   8   26.64    1.39
   3  -7   8    0.87    0.40
   3  -7   8    1.32    0.43
   3  -7   8    0.59    0.45
   4  -7   8    0.33    0.37
   4  -7   8    0.04    0.30
   6   6  -8   -0.25    0.29
  -6  -6   8   -0.18    0.28
   5   6  -8    8.52    0.81
   5   6  -8    7.67    0.82
  -5  -6   8    7.69    0.80
   4   6  -8    0.41    0.43
  -4  -6   8    0.32    0.40
   3   6  -8    0.28    0.40
  -3  -6   8    0.94    0.44
  -3  -6   8    0.51    0.38
   2   6  -8    3.01    0.52
  -2  -6   8    3.95    0.51
  -2  -6   8    2.26    0.48
  -2  -6   8    3.43    0.50
   1   6  -8    9.07    0.84
  -1  -6   8   10.69    1.01
  -1  -6   8   10.14    0.79
  -1  -6   8    9.69    0.74
  -1  -6   8    9.13    0.74
  -1  -6   8    9.61    0.87
   0  -6   8   10.57    0.87
   0  -6   8    9.24    0.79
   0  -6   8   10.80    0.82
   0  -6   8    9.58    0.77
   0  -6   8    9.64    0.99
   1  -6   8    4.04    0.54
   1  -6   8    5.80    0.62
   1  -6   8    6.04    0.69
   1  -6   8    5.25    0.70
   1  -6   8    5.60    0.58
   2  -6   8    7.80    0.79
   2  -6   8    8.69    0.90
   2  -6   8    7.74    0.73
   2  -6   8    7.91    0.76
   3  -6   8    5.48    0.58
   3  -6   8    4.84    0.68
   4  -6   8    5.77    0.55
   4  -6   8    7.73    0.78
   6   5  -8    3.60    0.55
  -6  -5   8    4.16    0.57
   5   5  -8    1.68    0.52
   5   5  -8    0.70    0.39
  -5  -5   8    0.82    0.42
   4   5  -8    3.21    0.56
  -4  -5   8    5.58    0.68
   3   5  -8   11.32    0.94
  -3  -5   8    9.19    0.83
  -3  -5   8    9.57    0.85
   2   5  -8    1.41    0.39
  -2  -5   8    1.62    0.43
  -2  -5   8    1.78    0.41
  -2  -5   8    1.76    0.41
   1   5  -8    3.03    0.46
  -1  -5   8    2.97    0.46
  -1  -5   8    4.27    0.61
  -1  -5   8    2.67    0.67
  -1  -5   8    2.65    0.41
  -1  -5   8    3.47    0.48
  -1  -5   8    3.64    0.44
   0  -5   8    4.04    0.49
   0  -5   8    3.81    0.58
   0  -5   8    3.88    0.63
   0  -5   8    4.48    0.55
   0  -5   8    4.05    0.55
   1  -5   8    0.68    0.50
   1  -5   8    0.86    0.38
   1  -5   8    0.75    0.39
   1  -5   8    0.65    0.37
   1  -5   8    0.42    0.36
   2  -5   8   15.93    1.02
   2  -5   8   15.88    1.20
   2  -5   8   15.99    1.04
   3  -5   8    0.70    0.38
   3  -5   8    0.80    0.53
   4  -5   8   -0.09    0.25
   4  -5   8    0.44    0.42
   6   4  -8    1.56    0.42
   6   4  -8    0.79    0.40
  -6  -4   8    0.90    0.40
   5   4  -8    0.08    0.42
  -5  -4   8   -0.15    0.34
   4   4  -8    1.46    0.46
  -4  -4   8    2.08    0.47
   3   4  -8    2.12    0.49
  -3  -4   8    1.83    0.41
  -3  -4   8    3.11    0.55
   2   4  -8    8.07    0.73
  -2  -4   8    7.85    0.68
  -2  -4   8    7.72    0.67
  -2  -4   8    7.70    0.64
  -2  -4   8    8.98    0.77
  -1  -4   8   29.45    1.68
  -1  -4   8   32.33    1.76
  -1  -4   8   30.86    1.49
  -1  -4   8   32.65    1.56
   0  -4   8    7.34    0.66
   0  -4   8    7.10    0.78
   0  -4   8    6.95    0.64
   1  -4   8    5.96    0.59
   1  -4   8    5.32    0.70
   1  -4   8    5.68    0.65
   1  -4   8    7.40    0.77
   2  -4   8    2.24    0.43
   2  -4   8    2.52    0.59
   2  -4   8    3.47    0.52
   3  -4   8    8.62    0.94
   3  -4   8    9.50    0.76
   4  -4   8    3.30    0.52
   6   3  -8    3.11    0.54
   6   3  -8    3.52    0.57
  -6  -3   8    3.23    0.52
   5   3  -8    0.23    0.43
  -5  -3   8    0.24    0.37
   4   3  -8   34.79    2.01
  -4  -3   8   35.06    1.91
   3   3  -8    4.52    0.62
  -3  -3   8    3.37    0.52
  -3  -3   8    4.53    0.55
   2   3  -8   19.99    1.28
  -2  -3   8   21.32    1.31
  -2  -3   8   21.49    1.16
  -2  -3   8   21.94    1.21
  -1  -3   8    1.24    0.42
  -1  -3   8    1.17    0.46
  -1  -3   8    1.03    0.34
  -1  -3   8    1.07    0.36
   0  -3   8    4.18    0.49
   0  -3   8    7.23    0.76
   0  -3   8    4.28    0.52
   0  -3   8    4.97    0.61
   1  -3   8    1.43    0.45
   1  -3   8    1.33    0.37
   2  -3   8   54.72    2.52
   2  -3   8   56.63    2.44
   2  -3   8   55.58    2.86
   3  -3   8    0.55    0.48
   3  -3   8    0.21    0.35
   4  -3   8    0.86    0.36
   6   2  -8    0.86    0.44
  -6  -2   8    0.25    0.36
   5   2  -8    1.72    0.51
  -5  -2   8    0.65    0.41
   4   2  -8   16.24    1.18
  -4  -2   8   18.32    1.19
   3   2  -8   57.20    2.86
  -3  -2   8   52.57    2.68
   2   2  -8    0.12    0.30
  -2  -2   8   -0.01    0.28
  -2  -2   8    0.33    0.27
  -2  -2   8   -0.37    0.36
  -1  -2   8    5.25    0.56
  -1  -2   8    5.13    0.63
  -1  -2   8    4.32    0.50
   0  -2   8    6.98    0.67
   0  -2   8    6.86    0.74
   0  -2   8    7.15    0.65
   1  -2   8   22.31    1.17
   1  -2   8   18.87    1.31
   1  -2   8   22.50    1.23
   2  -2   8    1.22    0.41
   2  -2   8    0.73    0.35
   4  -2   8    0.70    0.32
   6   1  -8   12.33    1.01
  -6  -1   8   12.96    0.94
  -6  -1   8   12.95    0.94
   5   1  -8    2.05    0.56
  -5  -1   8    2.13    0.49
   4   1  -8   16.84    1.18
  -4  -1   8   16.41    1.15
  -4  -1   8   15.01    1.07
   3   1  -8    0.32    0.33
  -3  -1   8   -0.03    0.41
  -3  -1   8    0.13    0.31
  -2  -1   8   37.17    1.96
  -2  -1   8   35.38    1.74
  -1  -1   8    0.12    0.31
  -1  -1   8    0.30    0.42
   0  -1   8    7.28    0.69
   0  -1   8    7.57    0.85
   0  -1   8    6.68    0.62
   1  -1   8    0.05    0.31
   1  -1   8    1.23    0.42
   1  -1   8    0.07    0.40
   2  -1   8   25.43    1.51
   2  -1   8   26.89    1.33
   2  -1   8   26.94    1.43
   6   0  -8    0.75    0.40
  -6   0   8    1.20    0.39
   5   0  -8    0.35    0.45
  -5   0   8    0.51    0.39
  -5   0   8    0.43    0.41
   4   0  -8    0.24    0.39
  -4   0   8    0.00    0.41
  -4   0   8    0.20    0.35
   3   0  -8    3.08    0.53
  -3   0   8    2.62    0.57
  -3   0   8    2.81    0.47
  -2   0   8    1.98    0.53
  -2   0   8    2.47    0.46
  -1   0   8   13.36    0.92
  -1   0   8   12.12    1.02
   0   0   8   32.43    1.59
   0   0   8   29.11    1.77
   1   0   8   35.82    2.00
   1   0   8   38.05    1.86
   2   0   8    2.44    0.51
   2   0   8    3.38    0.56
   3   0   8    0.63    0.36
   6  -1  -8    3.14    0.52
   5  -1  -8    0.17    0.43
   4  -1  -8    6.12    0.75
  -4   1   8    6.88    0.74
   3  -1  -8    9.35    0.87
  -3   1   8    9.99    0.89
  -2   1   8   10.28    0.93
  -2   1   8    8.93    0.77
  -1   1   8    5.80    0.63
  -1   1   8    6.34    0.78
   0   1   8    2.25    0.58
   0   1   8    2.15    0.49
   1   1   8    0.34    0.45
   2   1   8    6.01    0.74
   3   1   8   -0.10    0.32
   6  -2  -8    6.57    0.68
  -6   2   8    6.68    0.66
   5  -2  -8    0.87    0.47
  -5   2   8    0.97    0.37
   4  -2  -8    5.28    0.68
  -4   2   8    4.88    0.63
  -4   2   8    6.14    0.68
   3  -2  -8    6.47    0.75
  -3   2   8    5.92    0.71
  -3   2   8    6.11    0.66
  -2   2   8    1.59    0.51
  -1   2   8    2.87    0.59
   0   2   8   -0.04    0.41
   1   2   8    0.20    0.46
   2   2   8    1.84    0.51
   5  -3  -8    1.60    0.45
  -5   3   8    2.19    0.40
   4  -3  -8    1.71    0.45
   4  -3  -8    1.66    0.46
  -4   3   8    1.14    0.37
   3  -3  -8    0.25    0.36
  -3   3   8    0.02    0.36
  -2   3   8    2.66    0.50
  -1   3   8   15.32    1.11
   0   3   8   -0.32    0.40
   1   3   8    5.56    0.66
   2   3   8   24.69    1.30
   4  -4  -8    4.91    0.58
   4  -4  -8    5.07    0.53
   3  -4  -8   21.89    1.35
   3  -4  -8   22.10    1.25
   2  -4  -8    0.02    0.33
  -2   4   8    0.09    0.33
   1  -4  -8    2.86    0.45
  -1   4   8    2.39    0.48
   0   4   8   16.57    1.07
   1   4   8    0.32    0.29
   3  -5  -8    4.04    0.42
   2  -5  -8    6.73    0.58
   2  11  -9    2.57    0.41
  -2 -11   9    2.16    0.35
  -2 -11   9    2.36    0.37
   1  11  -9    0.60    0.34
  -1 -11   9    0.41    0.32
  -1 -11   9    0.58    0.25
  -1 -11   9    0.16    0.28
   0  11  -9    0.80    0.33
   0 -11   9    0.54    0.34
   0 -11   9    0.16    0.26
   0 -11   9    0.46    0.33
  -1  11  -9    0.58    0.28
   1 -11   9    0.04    0.25
   1 -11   9    0.39    0.29
   1 -11   9    0.27    0.32
   3  10  -9   -0.08    0.33
  -3 -10   9    0.04    0.30
   2  10  -9   -0.06    0.37
  -2 -10   9    0.06    0.29
  -2 -10   9   -0.13    0.30
  -2 -10   9   -0.01    0.35
   1  10  -9   10.85    0.92
  -1 -10   9    9.71    0.87
  -1 -10   9   10.22    0.76
  -1 -10   9    8.75    0.79
   0  10  -9    4.44    0.62
   0 -10   9    3.93    0.53
   0 -10   9    3.12    0.49
   0 -10   9    3.42    0.58
   0 -10   9    3.16    0.38
  -1  10  -9   -0.20    0.31
   1 -10   9    0.17    0.36
   1 -10   9   -0.21    0.36
   1 -10   9    0.78    0.36
   2 -10   9    0.13    0.28
   2 -10   9    0.26    0.28
   4   9  -9    1.06    0.36
  -4  -9   9    0.63    0.31
   3   9  -9   16.51    1.18
  -3  -9   9   16.27    1.10
  -3  -9   9   16.78    1.11
   2   9  -9    4.81    0.67
  -2  -9   9    7.04    0.72
  -2  -9   9    7.66    0.82
  -2  -9   9    6.42    0.63
   1   9  -9    6.62    0.74
  -1  -9   9    7.06    0.68
  -1  -9   9    7.51    0.72
  -1  -9   9    5.67    0.62
  -1  -9   9    5.55    0.69
   0   9  -9    7.07    0.79
   0  -9   9    5.58    0.63
   0  -9   9    8.92    0.77
   0  -9   9    7.03    0.77
  -1   9  -9    0.68    0.36
   1  -9   9    0.30    0.41
   1  -9   9    0.72    0.45
   1  -9   9    0.37    0.39
   2  -9   9    0.43    0.33
   2  -9   9    1.87    0.52
   2  -9   9    0.71    0.36
   2  -9   9    0.81    0.36
   3  -9   9    1.40    0.40
   3  -9   9    1.13    0.30
  -5  -8   9   -0.10    0.22
   4   8  -9    0.35    0.42
  -4  -8   9    0.28    0.36
   3   8  -9    0.25    0.46
  -3  -8   9    0.72    0.42
  -3  -8   9    0.57    0.39
   2   8  -9    0.11    0.43
  -2  -8   9    0.61    0.48
  -2  -8   9    0.27    0.36
  -2  -8   9   -0.01    0.35
   1   8  -9    5.86    0.73
  -1  -8   9    5.66    0.61
  -1  -8   9    4.93    0.62
  -1  -8   9    4.76    0.62
  -1  -8   9    4.50    0.71
   0   8  -9   -0.14    0.35
   0  -8   9    0.47    0.43
   0  -8   9   -0.28    0.38
   0  -8   9   -0.04    0.44
   1  -8   9    1.98    0.47
   1  -8   9    1.52    0.47
   1  -8   9    2.87    0.56
   1  -8   9    1.50    0.40
   1  -8   9    2.86    0.63
   2  -8   9   35.62    1.66
   2  -8   9   34.52    1.68
   2  -8   9   36.55    1.82
   2  -8   9   32.16    1.93
   3  -8   9    3.69    0.47
   3  -8   9    3.03    0.51
   5   7  -9    1.18    0.39
  -5  -7   9    0.31    0.31
   4   7  -9    8.01    0.89
  -4  -7   9    8.04    0.82
   3   7  -9    7.48    0.87
  -3  -7   9    7.91    0.80
  -3  -7   9    7.56    0.79
   2   7  -9   15.81    1.15
  -2  -7   9   14.65    1.15
  -2  -7   9   15.03    1.00
  -2  -7   9   14.91    1.03
   1   7  -9    7.37    0.78
  -1  -7   9    7.47    0.71
  -1  -7   9    6.42    0.64
  -1  -7   9    7.26    0.81
   0  -7   9    4.43    0.52
   0  -7   9    6.49    0.79
   0  -7   9    6.12    0.76
   0  -7   9    3.99    0.55
   0  -7   9    5.80    0.67
   1  -7   9   -0.08    0.54
   1  -7   9    0.33    0.38
   1  -7   9    0.68    0.45
   1  -7   9   -0.05    0.37
   1  -7   9    0.42    0.38
   2  -7   9   -0.31    0.48
   2  -7   9   -0.25    0.37
   2  -7   9   -0.26    0.40
   3  -7   9   -0.29    0.40
   3  -7   9   -0.16    0.30
   4  -7   9    0.04    0.29
   4  -7   9    0.00    0.25
  -6  -6   9   -0.15    0.25
   5   6  -9    0.42    0.41
  -5  -6   9    0.17    0.34
   4   6  -9    0.62    0.43
  -4  -6   9    0.93    0.39
   3   6  -9    0.34    0.42
  -3  -6   9    1.25    0.42
  -3  -6   9    0.31    0.41
   2   6  -9    0.33    0.37
  -2  -6   9    0.65    0.33
  -2  -6   9    0.49    0.37
  -2  -6   9    0.46    0.46
   1   6  -9    2.57    0.50
  -1  -6   9    2.54    0.47
  -1  -6   9    2.82    0.62
  -1  -6   9    2.76    0.47
   0  -6   9    0.47    0.44
   0  -6   9    0.15    0.52
   0  -6   9    0.61    0.40
   0  -6   9    0.06    0.34
   1  -6   9   11.14    0.87
   1  -6   9   11.30    0.89
   1  -6   9   10.88    0.94
   1  -6   9   10.20    1.02
   2  -6   9   18.77    1.13
   2  -6   9   18.81    1.32
   2  -6   9   17.78    1.10
   3  -6   9    0.37    0.38
   3  -6   9    0.13    0.33
   4  -6   9    6.79    0.61
   4  -6   9    6.60    0.53
   6   5  -9    0.51    0.36
  -6  -5   9    0.84    0.32
   5   5  -9    0.75    0.44
  -5  -5   9    0.88    0.39
   4   5  -9    0.20    0.41
  -4  -5   9    0.48    0.38
   3   5  -9    0.55    0.40
  -3  -5   9    0.43    0.41
  -3  -5   9    0.69    0.38
   2   5  -9    1.22    0.40
  -2  -5   9    1.54    0.50
  -2  -5   9    0.91    0.32
  -2  -5   9    1.63    0.42
  -2  -5   9    0.06    0.41
  -1  -5   9    1.41    0.40
  -1  -5   9    1.50    0.51
  -1  -5   9    1.10    0.40
   0  -5   9    4.34    0.58
   0  -5   9    3.03    0.48
   0  -5   9    5.73    0.73
   1  -5   9    4.77    0.59
   1  -5   9    2.49    0.52
   1  -5   9    4.40    0.59
   1  -5   9    4.18    0.68
   2  -5   9    0.70    0.36
   2  -5   9    0.61    0.46
   2  -5   9    0.96    0.43
   3  -5   9    0.34    0.30
   3  -5   9    0.58    0.41
   4  -5   9    0.02    0.27
   4  -5   9    0.13    0.20
   6   4  -9    4.04    0.52
  -6  -4   9    2.70    0.40
   5   4  -9    4.38    0.64
  -5  -4   9    3.24    0.52
   4   4  -9   40.54    2.27
  -4  -4   9   40.31    2.12
   3   4  -9    2.60    0.52
  -3  -4   9    2.92    0.56
  -3  -4   9    2.51    0.45
   2   4  -9    0.11    0.32
  -2  -4   9    0.35    0.45
  -2  -4   9   -0.03    0.27
  -2  -4   9    0.37    0.37
  -2  -4   9   -0.20    0.41
  -1  -4   9    1.08    0.38
  -1  -4   9    0.66    0.42
  -1  -4   9    1.67    0.56
  -1  -4   9    1.47    0.42
   0  -4   9    0.14    0.40
   0  -4   9    0.15    0.38
   0  -4   9    0.33    0.42
   1  -4   9    0.91    0.44
   1  -4   9    0.80    0.43
   2  -4   9    0.47    0.45
   2  -4   9    0.70    0.38
   2  -4   9    0.91    0.45
   3  -4   9    2.67    0.41
   3  -4   9    1.77    0.45
   6   3  -9   13.30    1.02
  -6  -3   9   15.41    0.98
   5   3  -9    4.02    0.60
  -5  -3   9    4.63    0.58
   4   3  -9   -0.28    0.38
  -4  -3   9   -0.46    0.32
   3   3  -9   10.70    0.88
  -3  -3   9    9.70    0.79
  -3  -3   9    8.99    0.97
  -2  -3   9    0.17    0.35
  -2  -3   9    0.10    0.41
  -1  -3   9   17.61    1.04
  -1  -3   9   16.37    1.20
  -1  -3   9   16.56    1.04
   0  -3   9    9.52    0.76
   0  -3   9    6.02    0.71
   0  -3   9    8.26    0.72
   1  -3   9   17.15    1.11
   1  -3   9   16.32    1.01
   2  -3   9    2.66    0.43
   2  -3   9    3.73    0.53
   3  -3   9   -0.07    0.23
   6   2  -9    5.83    0.68
  -6  -2   9    6.57    0.65
  -6  -2   9    8.50    0.76
   5   2  -9    1.00    0.46
  -5  -2   9    0.47    0.39
  -5  -2   9    0.62    0.43
   4   2  -9    0.70    0.41
  -4  -2   9    0.16    0.47
  -4  -2   9    0.86    0.40
   3   2  -9    0.45    0.34
  -3  -2   9    0.01    0.30
  -3  -2   9   -0.09    0.45
  -2  -2   9   43.26    2.25
  -2  -2   9   40.46    1.97
  -1  -2   9   34.00    1.67
  -1  -2   9   32.34    1.84
   0  -2   9    0.45    0.45
   0  -2   9    0.37    0.41
   0  -2   9    0.33    0.42
   1  -2   9    9.73    0.93
   1  -2   9   10.27    0.81
   1  -2   9   10.64    0.91
   2  -2   9   10.94    0.89
   2  -2   9   11.73    0.81
   6   1  -9    0.26    0.36
  -6  -1   9    0.26    0.25
  -6  -1   9    0.41    0.32
   5   1  -9    5.75    0.68
  -5  -1   9    6.96    0.75
  -5  -1   9    6.38    0.67
   4   1  -9    8.26    0.85
  -4  -1   9    8.99    0.93
  -4  -1   9    8.06    0.74
   3   1  -9    4.67    0.60
  -3  -1   9    3.57    0.68
  -3  -1   9    3.44    0.47
  -2  -1   9    1.13    0.40
  -2  -1   9    1.81    0.60
  -1  -1   9    0.52    0.43
  -1  -1   9    0.52    0.46
   0  -1   9    1.31    0.49
   0  -1   9    2.45    0.54
   1  -1   9    2.00    0.55
   1  -1   9    1.80    0.51
   2  -1   9    0.48    0.37
   2  -1   9    0.31    0.40
   6   0  -9    0.44    0.34
   5   0  -9    0.14    0.39
  -5   0   9    0.02    0.40
   4   0  -9    2.25    0.52
  -4   0   9    2.03    0.54
   3   0  -9    6.92    0.72
  -3   0   9    3.88    0.60
  -2   0   9   10.66    0.84
  -2   0   9    9.09    0.94
  -1   0   9    1.32    0.49
  -1   0   9    1.76    0.47
   0   0   9    1.74    0.51
   0   0   9    0.86    0.47
   1   0   9   24.41    1.48
   1   0   9   24.55    1.38
   2   0   9    3.41    0.54
   5  -1  -9    0.94    0.41
  -5   1   9    0.64    0.32
   4  -1  -9    0.52    0.40
  -4   1   9    0.44    0.32
  -4   1   9    0.89    0.43
   3  -1  -9    0.50    0.37
  -3   1   9    0.85    0.45
  -2   1   9    0.45    0.46
  -1   1   9    7.84    0.88
   0   1   9    0.15    0.47
   1   1   9    7.00    0.80
   2   1   9    0.01    0.36
   5  -2  -9    1.88    0.39
  -5   2   9    2.23    0.33
   4  -2  -9    5.53    0.65
   3  -2  -9    1.08    0.39
  -3   2   9    1.32    0.44
  -2   2   9   -0.15    0.43
  -1   2   9    2.14    0.60
   0   2   9   -0.10    0.43
   1   2   9    0.62    0.41
   4  -3  -9    0.47    0.28
   4  -3  -9    0.32    0.30
   3  -3  -9   15.26    1.02
   3  -3  -9   16.89    1.01
  -2   3   9    3.70    0.50
  -1   3   9    1.19    0.46
   0   3   9    5.50    0.58
   2  10 -10    1.68    0.39
  -2 -10  10    2.15    0.42
  -2 -10  10    1.10    0.29
  -2 -10  10    0.83    0.24
   1  10 -10    2.87    0.49
  -1 -10  10    2.60    0.47
  -1 -10  10    1.26    0.34
   0  10 -10    0.20    0.29
   0 -10  10    0.50    0.34
   0 -10  10    0.34    0.36
   1 -10  10    2.61    0.40
   3   9 -10    3.15    0.49
  -3  -9  10    3.47    0.43
  -3  -9  10    2.43    0.44
   2   9 -10    7.32    0.78
  -2  -9  10    6.64    0.71
  -2  -9  10    5.43    0.58
   1   9 -10    1.86    0.43
  -1  -9  10    1.17    0.41
  -1  -9  10    2.82    0.54
   0   9 -10    1.78    0.41
   0  -9  10    1.72    0.48
   0  -9  10    1.75    0.43
   1  -9  10    9.52    0.80
   1  -9  10    9.44    0.77
   2  -9  10    6.52    0.53
   4   8 -10   -0.10    0.34
  -4  -8  10    0.12    0.27
   3   8 -10    0.07    0.40
  -3  -8  10   -0.18    0.29
  -3  -8  10    0.13    0.39
   2   8 -10   -0.07    0.38
  -2  -8  10    0.06    0.41
  -2  -8  10   -0.22    0.31
  -2  -8  10   -0.22    0.26
   1   8 -10    9.91    0.87
  -1  -8  10   11.10    0.94
  -1  -8  10   10.17    0.82
   0  -8  10    3.75    0.61
   0  -8  10    2.53    0.51
   1  -8  10    7.51    0.66
   1  -8  10    9.16    0.79
   1  -8  10    7.95    0.78
   2  -8  10    1.41    0.46
   2  -8  10    0.41    0.35
   2  -8  10    0.27    0.31
   5   7 -10    4.90    0.56
   4   7 -10    0.29    0.38
  -4  -7  10    0.34    0.30
   3   7 -10    0.44    0.40
  -3  -7  10    0.13    0.39
  -3  -7  10    0.10    0.30
   2   7 -10   21.65    1.36
  -2  -7  10   21.51    1.19
  -2  -7  10   20.97    1.37
  -2  -7  10   20.15    1.18
   1   7 -10    2.60    0.48
  -1  -7  10    1.97    0.52
  -1  -7  10    2.49    0.49
   0  -7  10    0.83    0.43
   0  -7  10    0.49    0.36
   0  -7  10    0.58    0.48
   1  -7  10    1.68    0.51
   1  -7  10    2.09    0.51
   1  -7  10    1.86    0.43
   1  -7  10    1.21    0.53
   2  -7  10   -0.60    0.37
   2  -7  10   -0.17    0.35
   2  -7  10   -0.04    0.35
   3  -7  10    0.07    0.28
   3  -7  10    0.19    0.29
   5   6 -10    1.71    0.41
  -5  -6  10    0.92    0.32
   4   6 -10    0.25    0.38
  -4  -6  10    0.05    0.32
   3   6 -10    3.24    0.57
  -3  -6  10    2.86    0.43
  -3  -6  10    1.65    0.43
  -3  -6  10    2.17    0.50
   2   6 -10    1.27    0.42
  -2  -6  10    1.95    0.54
  -2  -6  10    2.11    0.47
  -1  -6  10    2.31    0.56
  -1  -6  10    2.00    0.44
  -1  -6  10    2.03    0.45
   0  -6  10   12.76    0.92
   0  -6  10   13.02    1.07
   0  -6  10   11.12    0.90
   1  -6  10    1.59    0.49
   1  -6  10    0.97    0.42
   1  -6  10    0.74    0.52
   2  -6  10    0.80    0.39
   2  -6  10    0.15    0.38
   2  -6  10   -0.11    0.34
   3  -6  10    3.39    0.40
   3  -6  10    3.22    0.43
   5   5 -10    1.61    0.45
  -5  -5  10    0.89    0.31
   4   5 -10    6.99    0.80
  -4  -5  10    6.43    0.67
   3   5 -10    0.27    0.36
  -3  -5  10    0.92    0.36
  -3  -5  10    0.91    0.47
   2   5 -10    4.34    0.58
  -2  -5  10    3.71    0.60
  -2  -5  10    4.76    0.57
  -2  -5  10    6.58    0.78
  -1  -5  10   -0.28    0.39
  -1  -5  10    0.60    0.48
  -1  -5  10   -0.39    0.36
   0  -5  10   -0.21    0.37
   0  -5  10    0.47    0.44
   1  -5  10    1.79    0.51
   1  -5  10    1.03    0.38
   2  -5  10   -0.02    0.32
   2  -5  10    0.47    0.37
   3  -5  10    4.27    0.41
   5   4 -10    0.79    0.42
  -5  -4  10    0.68    0.33
  -5  -4  10    1.06    0.49
   4   4 -10    0.50    0.37
  -4  -4  10    0.56    0.51
  -4  -4  10    0.53    0.33
   3   4 -10    0.89    0.37
  -3  -4  10    1.30    0.52
  -3  -4  10    1.58    0.36
  -2  -4  10    0.87    0.48
  -2  -4  10    1.29    0.43
  -1  -4  10    3.02    0.53
  -1  -4  10    4.39    0.66
   0  -4  10    0.39    0.41
   0  -4  10    0.30    0.40
   1  -4  10   21.59    1.28
   1  -4  10   20.98    1.18
   2  -4  10    0.08    0.28
   2  -4  10   -0.02    0.35
   5   3 -10    1.46    0.42
  -5  -3  10    1.12    0.31
  -5  -3  10    1.89    0.54
   4   3 -10    0.64    0.39
  -4  -3  10    0.29    0.31
  -4  -3  10    1.00    0.53
   3   3 -10   10.34    0.88
  -3  -3  10   11.78    1.03
  -2  -3  10    9.73    0.97
  -2  -3  10    9.62    0.80
  -1  -3  10    0.47    0.43
  -1  -3  10    0.51    0.45
   0  -3  10    6.22    0.70
   0  -3  10    2.76    0.54
   0  -3  10    4.55    0.58
   1  -3  10    0.29    0.44
   1  -3  10   -0.13    0.35
   2  -3  10    1.92    0.43
   2  -3  10    1.99    0.34
   5   2 -10    5.52    0.62
  -5  -2  10    5.00    0.61
   4   2 -10    0.19    0.35
  -4  -2  10   -0.23    0.26
  -4  -2  10    0.12    0.47
   3   2 -10    8.98    0.80
  -3  -2  10    9.68    0.92
  -2  -2  10    0.40    0.46
  -2  -2  10    0.29    0.35
  -1  -2  10    5.08    0.61
  -1  -2  10    6.24    0.78
   0  -2  10    3.47    0.59
   0  -2  10    5.90    0.67
   1  -2  10    0.07    0.41
   1  -2  10    0.06    0.38
   5   1 -10    5.18    0.61
  -5  -1  10    5.57    0.64
   4   1 -10    1.28    0.42
  -4  -1  10    1.93    0.57
   3   1 -10    0.25    0.34
  -3  -1  10    0.10    0.44
  -2  -1  10    2.56    0.43
  -2  -1  10    2.16    0.54
  -1  -1  10    1.79    0.53
  -1  -1  10    1.73    0.48
   0  -1  10   10.77    1.00
   0  -1  10   12.54    0.96
   1  -1  10    0.31    0.39
   1  -1  10    0.18    0.39
   5   0 -10    2.28    0.40
   4   0 -10   -0.08    0.30
  -4   0  10    0.09    0.42
   3   0 -10    0.10    0.30
  -3   0  10    0.27    0.50
  -2   0  10    1.87    0.59
  -1   0  10   17.82    1.10
  -1   0  10   17.40    1.24
   0   0  10    1.21    0.50
   1   0  10    0.78    0.40
   4  -1 -10    2.56    0.42
  -4   1  10    2.26    0.42
  -3   1  10    3.67    0.55
  -2   1  10    0.23    0.48
  -1   1  10    0.80    0.46
   0   1  10    0.46    0.42
  -2   2  10    3.33    0.47
  -1   2  10    0.47    0.34
   2   9 -11    0.52    0.31
  -2  -9  11    0.32    0.30
  -2  -9  11    0.71    0.28
   1   9 -11    0.67    0.30
  -1  -9  11    0.67    0.31
  -1  -9  11    0.76    0.36
   0  -9  11    0.37    0.34
   0  -9  11    0.40    0.32
   3   8 -11    5.88    0.67
   2   8 -11    0.43    0.34
  -2  -8  11    0.36    0.37
  -2  -8  11    0.38    0.29
   1   8 -11    1.49    0.36
  -1  -8  11    1.86    0.39
  -1  -8  11    2.06    0.50
   0  -8  11    9.74    0.75
   0  -8  11    9.03    0.83
   1  -8  11    0.26    0.26
   1  -8  11   -0.10    0.30
   4   7 -11    0.03    0.30
  -4  -7  11    0.05    0.19
   3   7 -11   -0.06    0.32
   2   7 -11   -0.24    0.30
  -2  -7  11   -0.15    0.30
  -2  -7  11    0.08    0.39
  -1  -7  11    5.45    0.65
  -1  -7  11    6.09    0.63
   0  -7  11    0.10    0.37
   0  -7  11   -0.02    0.32
   1  -7  11    1.56    0.38
   1  -7  11    1.74    0.41
   2  -7  11    7.82    0.59
   4   6 -11   -0.11    0.31
  -4  -6  11   -0.29    0.36
  -4  -6  11    0.04    0.20
   3   6 -11    3.01    0.48
  -3  -6  11    2.43    0.48
   2   6 -11    0.38    0.30
  -2  -6  11    0.01    0.31
  -1  -6  11    0.06    0.37
   0  -6  11    0.19    0.40
   0  -6  11   -0.22    0.34
   1  -6  11    0.22    0.36
   1  -6  11    0.13    0.34
   2  -6  11    0.15    0.27
   5   5 -11   -0.35    0.25
  -5  -5  11    0.06    0.39
   4   5 -11    9.11    0.78
  -4  -5  11    7.82    0.78
   3   5 -11    0.91    0.34
  -3  -5  11    1.39    0.46
  -2  -5  11    0.64    0.44
  -2  -5  11    0.08    0.31
  -1  -5  11    9.30    0.82
   0  -5  11    9.34    0.84
   1  -5  11    0.71    0.36
   1  -5  11    1.22    0.42
   2  -5  11    0.09    0.24
   5   4 -11    0.12    0.28
  -5  -4  11   -0.19    0.29
   4   4 -11    5.93    0.65
  -4  -4  11    5.90    0.67
   3   4 -11    0.03    0.29
  -3  -4  11    0.01    0.46
  -2  -4  11    1.96    0.41
  -2  -4  11    3.15    0.57
  -1  -4  11    2.98    0.56
  -1  -4  11    3.92    0.55
   0  -4  11    3.45    0.55
   1  -4  11    8.83    0.76
   5   3 -11    0.51    0.31
  -5  -3  11    0.07    0.28
   4   3 -11    1.92    0.39
  -4  -3  11    1.78    0.49
   3   3 -11   18.62    1.16
  -3  -3  11   18.49    1.25
  -2  -3  11    2.40    0.43
  -2  -3  11    1.75    0.56
  -1  -3  11    0.25    0.43
  -1  -3  11    0.34    0.38
   0  -3  11    0.75    0.41
   0  -3  11    0.17    0.39
   1  -3  11    0.12    0.34
   4   2 -11    7.15    0.67
  -4  -2  11    6.40    0.67
  -3  -2  11    0.76    0.48
  -2  -2  11   13.47    1.10
  -2  -2  11   14.35    0.89
  -1  -2  11    2.50    0.45
  -1  -2  11    2.49    0.54
   0  -2  11    1.32    0.42
   0  -2  11    0.67    0.40
   4   1 -11    0.01    0.25
  -4  -1  11   -0.15    0.35
  -3  -1  11    0.74    0.46
  -2  -1  11    0.87    0.47
  -1  -1  11    1.97    0.51
   0  -1  11    2.20    0.44
  -3   0  11    0.34    0.36
  -2   0  11    0.80    0.40
  -1   0  11    0.19    0.37
  -1  -7  12    3.22    0.39
   0  -7  12    0.27    0.29
  -2  -6  12    0.17    0.23
  -1  -6  12   -0.08    0.28
   0  -6  12    3.34    0.44
  -3  -5  12    0.79    0.39
  -2  -5  12    1.70    0.32
  -1  -5  12    0.33    0.28
   0  -5  12    1.86    0.37
  -3  -4  12    1.49    0.41
  -2  -4  12    0.11    0.24
  -2  -4  12    0.55    0.37
  -1  -4  12    0.16    0.26
   0  -4  12    1.27    0.34
  -3  -3  12    2.88    0.46
  -2  -3  12    7.84    0.69
  -1  -3  12    3.09    0.41
   0   0   0    0.00    0.00
;
_shelx_hkl_checksum              5473
loop_
_space_group_symop_operation_xyz
'x, y, z'
'-x, -y, -z'
loop_
_atom_site_label
_atom_site_type_symbol
_atom_site_fract_x
_atom_site_fract_y
_atom_site_fract_z
_atom_site_U_iso_or_equiv
_atom_site_adp_type
_atom_site_occupancy
_atom_site_site_symmetry_order
_atom_site_calc_flag
Cl1 Cl 0.67964(11) 0.02142(6) 0.20145(7) 0.0447(2) Uani 1 1 d
O1 O 0.1253(2) 0.81077(15) 0.17497(17) 0.0311(4) Uani 1 1 d
O2 O 0.7573(2) 0.72409(16) 0.45443(17) 0.0311(4) Uani 1 1 d
C1 C 0.0569(3) 0.5527(2) 0.0471(2) 0.0245(5) Uani 1 1 d
C2 C 0.2054(3) 0.6826(2) 0.1629(2) 0.0237(5) Uani 1 1 d
C3 C 0.2197(4) 0.6867(2) 0.3100(2) 0.0256(5) Uani 1 1 d
C4 C 0.3847(4) 0.6660(2) 0.3868(2) 0.0269(5) Uani 1 1 d
C5 C 0.5793(3) 0.6343(2) 0.3378(2) 0.0262(5) Uani 1 1 d
C6 C 0.5762(3) 0.6558(2) 0.2038(2) 0.0237(5) Uani 1 1 d
C7 C 0.4115(3) 0.6769(2) 0.1267(2) 0.0233(5) Uani 1 1 d
C8 C 0.6063(4) 0.4792(2) 0.3037(2) 0.0255(5) Uani 1 1 d
C9 C 0.4376(4) 0.3702(3) 0.2354(3) 0.0349(6) Uani 1 1 d
C10 C 0.4590(4) 0.2295(3) 0.2020(3) 0.0360(6) Uani 1 1 d
C11 C 0.6540(4) 0.1979(2) 0.2386(3) 0.0318(5) Uani 1 1 d
C12 C 0.8263(4) 0.3042(3) 0.3055(3) 0.0320(5) Uani 1 1 d
C13 C 0.8013(4) 0.4451(2) 0.3378(3) 0.0299(5) Uani 1 1 d
C14 C 0.0975(5) 0.8344(3) 0.0494(3) 0.0389(6) Uani 1 1 d
C15 C 0.7594(5) 0.8751(3) 0.5055(3) 0.0443(7) Uani 1 1 d
H3 H 0.104(4) 0.707(2) 0.346(3) 0.027(6) Uiso 1 1 d
H4 H 0.387(4) 0.666(3) 0.478(3) 0.041(7) Uiso 1 1 d
H6 H 0.698(4) 0.647(2) 0.174(2) 0.022(6) Uiso 1 1 d
H7 H 0.414(4) 0.684(2) 0.044(3) 0.021(6) Uiso 1 1 d
H9 H 0.302(4) 0.393(3) 0.212(3) 0.039(7) Uiso 1 1 d
H10 H 0.349(5) 0.158(3) 0.156(3) 0.046(8) Uiso 1 1 d
H12 H 0.962(4) 0.281(2) 0.340(2) 0.017(5) Uiso 1 1 d
H13 H 0.919(4) 0.521(3) 0.387(3) 0.026(6) Uiso 1 1 d
H14A H 0.020(5) 0.739(4) -0.041(4) 0.070(10) Uiso 1 1 d
H14B H 0.233(5) 0.857(3) 0.033(3) 0.051(8) Uiso 1 1 d
H14C H 0.015(5) 0.914(3) 0.066(3) 0.057(9) Uiso 1 1 d
H15A H 0.751(5) 0.901(3) 0.425(4) 0.059(9) Uiso 1 1 d
H15B H 0.647(6) 0.905(4) 0.541(4) 0.069(11) Uiso 1 1 d
H15C H 0.900(4) 0.927(3) 0.585(3) 0.039(7) Uiso 1 1 d
loop_
_atom_site_aniso_label
_atom_site_aniso_U_11
_atom_site_aniso_U_22
_atom_site_aniso_U_33
_atom_site_aniso_U_23
_atom_site_aniso_U_13
_atom_site_aniso_U_12
Cl1 0.0556(5) 0.0261(3) 0.0470(4) 0.0143(3) 0.0064(3) 0.0075(3)
O1 0.0361(10) 0.0247(8) 0.0325(9) 0.0123(7) 0.0090(7) 0.0085(7)
O2 0.0261(9) 0.0249(8) 0.0311(9) 0.0083(7) -0.0042(7) -0.0015(6)
C1 0.0215(11) 0.0250(10) 0.0281(13) 0.0126(9) 0.0067(9) 0.0051(8)
C2 0.0232(12) 0.0203(10) 0.0252(12) 0.0092(9) 0.0041(9) 0.0030(8)
C3 0.0244(12) 0.0251(10) 0.0266(12) 0.0090(9) 0.0114(10) 0.0033(9)
C4 0.0312(13) 0.0263(11) 0.0208(12) 0.0089(9) 0.0067(10) 0.0007(9)
C5 0.0239(12) 0.0247(10) 0.0245(12) 0.0090(9) 0.0008(9) 0.0004(9)
C6 0.0199(12) 0.0230(10) 0.0251(12) 0.0084(9) 0.0055(9) 0.0007(8)
C7 0.0260(12) 0.0218(10) 0.0203(12) 0.0082(9) 0.0069(9) -0.0010(8)
C8 0.0284(12) 0.0266(11) 0.0188(11) 0.0090(9) 0.0034(9) 0.0039(9)
C9 0.0301(14) 0.0302(12) 0.0381(15) 0.0139(11) 0.0002(11) 0.0011(10)
C10 0.0342(14) 0.0278(12) 0.0336(14) 0.0091(11) -0.0029(11) -0.0055(11)
C11 0.0419(15) 0.0254(11) 0.0248(12) 0.0090(10) 0.0080(11) 0.0033(10)
C12 0.0319(14) 0.0350(12) 0.0303(13) 0.0156(11) 0.0074(11) 0.0085(10)
C13 0.0260(13) 0.0309(12) 0.0330(14) 0.0156(11) 0.0065(10) 0.0000(10)
C14 0.0389(16) 0.0377(14) 0.0429(17) 0.0224(13) 0.0061(13) 0.0092(12)
C15 0.0411(17) 0.0281(12) 0.0466(18) 0.0111(12) -0.0078(14) -0.0039(12)
loop_
_atom_type_symbol
_atom_type_description
_atom_type_scat_dispersion_real
_atom_type_scat_dispersion_imag
_atom_type_scat_source
C C 0.0181 0.0091 'International Tables Vol C Tables 4.2.6.8 and 6.1.1.4'
H H 0.0000 0.0000 'International Tables Vol C Tables 4.2.6.8 and 6.1.1.4'
O O 0.0492 0.0322 'International Tables Vol C Tables 4.2.6.8 and 6.1.1.4'
Cl Cl 0.3639 0.7018 'International Tables Vol C Tables 4.2.6.8 and 6.1.1.4'
loop_
_geom_angle_atom_site_label_1
_geom_angle_atom_site_label_2
_geom_angle_atom_site_label_3
_geom_angle
_geom_angle_site_symmetry_1
C14 O1 C2 115.75(17) .
C15 O2 C5 114.63(18) .
C1 C1 C2 177.9(3) 2_565
O1 C2 C1 110.04(17) .
O1 C2 C7 112.97(17) .
C1 C2 C7 108.39(17) .
O1 C2 C3 103.91(16) .
C1 C2 C3 109.65(18) .
C7 C2 C3 111.80(18) .
C4 C3 C2 123.6(2) .
C4 C3 H3 120.5(15) .
C2 C3 H3 116.0(15) .
C3 C4 C5 124.2(2) .
C3 C4 H4 121.4(17) .
C5 C4 H4 114.4(16) .
O2 C5 C4 110.14(18) .
O2 C5 C6 110.17(18) .
C4 C5 C6 111.37(19) .
O2 C5 C8 105.71(17) .
C4 C5 C8 110.22(18) .
C6 C5 C8 109.07(17) .
C7 C6 C5 123.8(2) .
C7 C6 H6 120.6(14) .
C5 C6 H6 115.4(14) .
C6 C7 C2 123.7(2) .
C6 C7 H7 120.9(15) .
C2 C7 H7 115.3(15) .
C9 C8 C13 118.8(2) .
C9 C8 C5 120.4(2) .
C13 C8 C5 120.9(2) .
C8 C9 C10 121.3(2) .
C8 C9 H9 119.4(16) .
C10 C9 H9 119.3(16) .
C9 C10 C11 119.1(2) .
C9 C10 H10 121.4(18) .
C11 C10 H10 119.4(18) .
C12 C11 C10 121.0(2) .
C12 C11 Cl1 119.88(19) .
C10 C11 Cl1 119.07(19) .
C11 C12 C13 118.9(2) .
C11 C12 H12 119.6(12) .
C13 C12 H12 121.1(13) .
C12 C13 C8 120.9(2) .
C12 C13 H13 119.9(14) .
C8 C13 H13 119.1(14) .
O1 C14 H14A 108.4(19) .
O1 C14 H14B 110.5(18) .
H14A C14 H14B 107(3) .
O1 C14 H14C 106.4(18) .
H14A C14 H14C 112(3) .
H14B C14 H14C 113(2) .
O2 C15 H15A 110.7(19) .
O2 C15 H15B 113(2) .
H15A C15 H15B 105(3) .
O2 C15 H15C 106.5(14) .
H15A C15 H15C 110(2) .
H15B C15 H15C 112(3) .
loop_
_geom_bond_atom_site_label_1
_geom_bond_atom_site_label_2
_geom_bond_distance
_geom_bond_site_symmetry_2
Cl1 C11 1.740(2) .
O1 C14 1.416(3) .
O1 C2 1.437(2) .
O2 C15 1.429(3) .
O2 C5 1.443(3) .
C1 C1 1.194(4) 2_565
C1 C2 1.494(3) .
C2 C7 1.504(3) .
C2 C3 1.506(3) .
C3 C4 1.315(3) .
C3 H3 0.92(2) .
C4 C5 1.503(3) .
C4 H4 0.95(3) .
C5 C6 1.509(3) .
C5 C8 1.533(3) .
C6 C7 1.317(3) .
C6 H6 0.93(2) .
C7 H7 0.91(2) .
C8 C9 1.379(3) .
C8 C13 1.392(3) .
C9 C10 1.381(3) .
C9 H9 0.97(3) .
C10 C11 1.386(4) .
C10 H10 0.90(3) .
C11 C12 1.380(4) .
C12 C13 1.390(3) .
C12 H12 0.99(2) .
C13 H13 0.96(3) .
C14 H14A 1.04(4) .
C14 H14B 0.99(3) .
C14 H14C 1.00(3) .
C15 H15A 0.98(3) .
C15 H15B 0.92(4) .
C15 H15C 1.05(3) .
loop_
_geom_hbond_atom_site_label_D
_geom_hbond_atom_site_label_H
_geom_hbond_atom_site_label_A
_geom_hbond_distance_DH
_geom_hbond_distance_HA
_geom_hbond_distance_DA
_geom_hbond_angle_DHA
_geom_hbond_site_symmetry_A
C12 H12 O2 0.99(2) 2.57(2) 3.472(3) 150.7(16) 2_766
C14 H14C Cl1 1.00(3) 2.93(3) 3.748(3) 140(2) 1_465
loop_
_geom_torsion_atom_site_label_1
_geom_torsion_atom_site_label_2
_geom_torsion_atom_site_label_3
_geom_torsion_atom_site_label_4
_geom_torsion
C14 O1 C2 C1 -63.1(2)
C14 O1 C2 C7 58.2(3)
C14 O1 C2 C3 179.58(19)
O1 C2 C3 C4 -131.7(2)
C1 C2 C3 C4 110.7(2)
C7 C2 C3 C4 -9.5(3)
C2 C3 C4 C5 -0.6(3)
C15 O2 C5 C4 -59.5(3)
C15 O2 C5 C6 63.8(3)
C15 O2 C5 C8 -178.5(2)
C3 C4 C5 O2 132.8(2)
C3 C4 C5 C6 10.3(3)
C3 C4 C5 C8 -110.9(2)
O2 C5 C6 C7 -132.6(2)
C4 C5 C6 C7 -10.1(3)
C8 C5 C6 C7 111.8(2)
C5 C6 C7 C2 0.2(3)
O1 C2 C7 C6 126.5(2)
C1 C2 C7 C6 -111.3(2)
C3 C2 C7 C6 9.7(3)
O2 C5 C8 C9 157.9(2)
C4 C5 C8 C9 38.9(3)
C6 C5 C8 C9 -83.6(3)
O2 C5 C8 C13 -23.6(3)
C4 C5 C8 C13 -142.6(2)
C6 C5 C8 C13 94.8(2)
C13 C8 C9 C10 0.7(4)
C5 C8 C9 C10 179.2(2)
C8 C9 C10 C11 0.2(4)
C9 C10 C11 C12 -1.0(4)
C9 C10 C11 Cl1 178.1(2)
C10 C11 C12 C13 0.8(4)
Cl1 C11 C12 C13 -178.23(18)
C11 C12 C13 C8 0.0(3)
C9 C8 C13 C12 -0.8(3)
C5 C8 C13 C12 -179.3(2)
