#------------------------------------------------------------------------------
#$Date: 2016-06-17 01:46:50 +0300 (Fri, 17 Jun 2016) $
#$Revision: 183572 $
#$URL: file:///home/coder/svn-repositories/cod/cif/4/12/50/4125093.cif $
#------------------------------------------------------------------------------
#
# This file is available in the Crystallography Open Database (COD),
# http://www.crystallography.net/
#
# All data on this site have been placed in the public domain by the
# contributors.
#
data_4125093
loop_
_publ_author_name
'Transue, Wesley J.'
'Velian, Alexandra'
'Nava, Matthew'
'Martin-Drumel, Marie-Aline'
'Womack, Caroline C.'
'Jiang, Jun'
'Hou, Gao-Lei'
'Wang, Xue-Bin'
'McCarthy, Michael C.'
'Field, Robert W.'
'Cummins, Christopher C.'
_publ_section_title
;
 A Molecular Precursor to Phosphaethyne and Its Application in Synthesis
 of the Aromatic 1,2,3,4-Phosphatriazolate Anion.
;
_journal_issue                   21
_journal_name_full               'Journal of the American Chemical Society'
_journal_page_first              6731
_journal_page_last               6734
_journal_paper_doi               10.1021/jacs.6b03910
_journal_volume                  138
_journal_year                    2016
_chemical_formula_sum            'C7 H19 N6 P S'
_chemical_formula_weight         250.31
_space_group_crystal_system      triclinic
_space_group_IT_number           2
_space_group_name_Hall           '-P 1'
_space_group_name_H-M_alt        'P -1'
_symmetry_space_group_name_Hall  '-P 1'
_symmetry_space_group_name_H-M   'P -1'
_atom_sites_solution_hydrogens   mixed
_atom_sites_solution_primary     direct
_atom_sites_solution_secondary   difmap
_audit_creation_method           SHELXL-2014/7
_cell_angle_alpha                90.002(2)
_cell_angle_beta                 89.996(2)
_cell_angle_gamma                83.296(2)
_cell_formula_units_Z            2
_cell_length_a                   6.0072(5)
_cell_length_b                   10.1348(9)
_cell_length_c                   10.3082(9)
_cell_measurement_reflns_used    9816
_cell_measurement_temperature    100(2)
_cell_measurement_theta_max      28.29
_cell_measurement_theta_min      2.83
_cell_volume                     623.29(9)
_computing_cell_refinement       'SAINT 7.46A (Bruker-AXS, 2011)'
_computing_data_collection       'APEX2 v2011.4.0 (Bruker-AXS, 2011)'
_computing_data_reduction        'SAINT 7.46A (Bruker-AXS, 2011)'
_computing_molecular_graphics    'Bruker SHELXTL'
_computing_publication_material  'Bruker SHELXTL'
_computing_structure_refinement  'SHELXL-2014/7 (Sheldrick, 2014)'
_computing_structure_solution    'SHELXS-97 (Sheldrick, 2008)'
_diffrn_ambient_temperature      100(2)
_diffrn_detector_area_resol_mean 8.3
_diffrn_measured_fraction_theta_full 0.997
_diffrn_measured_fraction_theta_max 0.993
_diffrn_measurement_device_type  'Bruker Smart APEX2 CCD'
_diffrn_measurement_method       '\f and \w scans'
_diffrn_radiation_type           MoK\a
_diffrn_radiation_wavelength     0.71073
_diffrn_reflns_av_unetI/netI     0.0129
_diffrn_reflns_Laue_measured_fraction_full 0.997
_diffrn_reflns_Laue_measured_fraction_max 0.993
_diffrn_reflns_limit_h_max       8
_diffrn_reflns_limit_h_min       -7
_diffrn_reflns_limit_k_max       13
_diffrn_reflns_limit_k_min       -13
_diffrn_reflns_limit_l_max       13
_diffrn_reflns_limit_l_min       0
_diffrn_reflns_number            3070
_diffrn_reflns_point_group_measured_fraction_full 0.997
_diffrn_reflns_point_group_measured_fraction_max 0.993
_diffrn_reflns_theta_full        25.242
_diffrn_reflns_theta_max         28.318
_diffrn_reflns_theta_min         1.976
_diffrn_source
'I\mS micro-focus sealed tube, multilayer optics'
_exptl_absorpt_coefficient_mu    0.370
_exptl_absorpt_correction_type   multi-scan
_exptl_absorpt_process_details   'SADABS (Sheldrick, 2009)'
_exptl_crystal_colour            colourless
_exptl_crystal_density_diffrn    1.334
_exptl_crystal_density_method    'not measured'
_exptl_crystal_description       plate
_exptl_crystal_F_000             268
_exptl_crystal_size_max          0.180
_exptl_crystal_size_mid          0.150
_exptl_crystal_size_min          0.070
_exptl_transmission_factor_max   0.745687
_exptl_transmission_factor_min   0.688383
_refine_diff_density_max         0.451
_refine_diff_density_min         -0.311
_refine_diff_density_rms         0.051
_refine_ls_extinction_method     none
_refine_ls_goodness_of_fit_ref   1.048
_refine_ls_hydrogen_treatment    mixed
_refine_ls_matrix_type           full
_refine_ls_number_parameters     146
_refine_ls_number_reflns         3070
_refine_ls_number_restraints     1
_refine_ls_restrained_S_all      1.047
_refine_ls_R_factor_all          0.0293
_refine_ls_R_factor_gt           0.0271
_refine_ls_shift/su_max          0.001
_refine_ls_shift/su_mean         0.000
_refine_ls_structure_factor_coef Fsqd
_refine_ls_weighting_details
'w=1/[\s^2^(Fo^2^)+(0.0416P)^2^+0.1288P] where P=(Fo^2^+2Fc^2^)/3'
_refine_ls_weighting_scheme      calc
_refine_ls_wR_factor_gt          0.0722
_refine_ls_wR_factor_ref         0.0741
_reflns_Friedel_coverage         0.000
_reflns_number_gt                2839
_reflns_number_total             3070
_reflns_threshold_expression     'I > 2\s(I)'
_cod_data_source_file            ja6b03910_si_004.cif
_cod_data_source_block           wt_6
_cod_depositor_comments
'Adding full bibliography for 4125091--4125093.cif.'
_cod_database_code               4125093
_shelx_shelxl_version_number     2014/7
_shelx_space_group_comment
; 
The symmetry employed for this shelxl refinement is uniquely defined 
by the following loop, which should always be used as a source of 
symmetry information in preference to the above space-group names. 
They are only intended as comments. 
;
_shelx_estimated_absorpt_t_min   0.936
_shelx_estimated_absorpt_t_max   0.975
_shelx_res_file
; 
  
    wt_6.res created by SHELXL-2014/7 
  
  
TITL wt_5.res in P-1 
REM Old TITL wt in P-1 
  
REM SHELXT solution in P-1 
REM R1 0.096,  Rweak 0.003,  Alpha 0.027,  Orientation as input 
REM Formula found by SHELXT:  C13 P S 
  
CELL  0.71073   6.0072  10.1348  10.3082   90.002   89.996   83.296 
ZERR    2.000   0.0005   0.0009   0.0009    0.002    0.002    0.002 
LATT  1 
SFAC C H N P S 
UNIT 14 38 12 2 2 
TEMP -173.170 
SIZE 0.070 0.150 0.180 
L.S. 10 
BOND $H 
LIST 4 
FMAP 2 
PLAN 20 
  
omit 0 0 7 
omit 0 0 5 
omit 0 -3 9 
  
acta 
  
dfix 0.95 c1 h1 
  
rem Tris(dimethylamino)sulfonium cation 
  
WGHT    0.041600    0.128800 
BASF   0.47707 
FVAR       1.71569 
S1    5    0.525814    0.675566    0.750026    11.00000    0.01328    0.01460 = 
         0.01513   -0.00003   -0.00013   -0.00105 
N10   3    0.275347    0.614111    0.749964    11.00000    0.01581    0.01686 = 
         0.01663    0.00027   -0.00043   -0.00576 
C11   1    0.247565    0.533847    0.868119    11.00000    0.02214    0.02004 = 
         0.02071    0.00312    0.00279   -0.00523 
AFIX 137 
H11A  2    0.101357    0.499964    0.865657    11.00000   -1.50000 
H11B  2    0.256335    0.589503    0.945274    11.00000   -1.50000 
H11C  2    0.366668    0.459099    0.871409    11.00000   -1.50000 
AFIX   0 
C12   1    0.247320    0.533810    0.631917    11.00000    0.02218    0.01964 = 
         0.02095   -0.00331   -0.00319   -0.00489 
AFIX 137 
H12A  2    0.366877    0.459329    0.628332    11.00000   -1.50000 
H12B  2    0.255130    0.589546    0.554741    11.00000   -1.50000 
H12C  2    0.101449    0.499539    0.634743    11.00000   -1.50000 
AFIX   0 
N20   3    0.499002    0.759295    0.615674    11.00000    0.01396    0.01845 = 
         0.01568    0.00192    0.00146   -0.00199 
C21   1    0.711792    0.783051    0.553865    11.00000    0.01637    0.02159 = 
         0.01993   -0.00064    0.00432   -0.00472 
AFIX 137 
H21A  2    0.691440    0.788608    0.459617    11.00000   -1.50000 
H21B  2    0.827454    0.709734    0.574678    11.00000   -1.50000 
H21C  2    0.758057    0.866617    0.586177    11.00000   -1.50000 
AFIX   0 
C22   1    0.310069    0.862248    0.590839    11.00000    0.01700    0.01960 = 
         0.01678    0.00195   -0.00147   -0.00015 
AFIX 137 
H22A  2    0.350371    0.948839    0.618625    11.00000   -1.50000 
H22B  2    0.178399    0.841425    0.639471    11.00000   -1.50000 
H22C  2    0.275627    0.865036    0.497885    11.00000   -1.50000 
AFIX   0 
N30   3    0.498904    0.759349    0.884214    11.00000    0.01397    0.01824 = 
         0.01591   -0.00223   -0.00168   -0.00152 
C31   1    0.310039    0.862405    0.909136    11.00000    0.01690    0.01935 = 
         0.01651   -0.00166    0.00134    0.00022 
AFIX 137 
H31A  2    0.275689    0.865206    1.002104    11.00000   -1.50000 
H31B  2    0.178286    0.841639    0.860558    11.00000   -1.50000 
H31C  2    0.350419    0.948973    0.881335    11.00000   -1.50000 
AFIX   0 
C32   1    0.711713    0.783130    0.946257    11.00000    0.01668    0.02107 = 
         0.02016    0.00069   -0.00491   -0.00438 
AFIX 137 
H32A  2    0.757435    0.867054    0.914531    11.00000   -1.50000 
H32B  2    0.827738    0.710174    0.924944    11.00000   -1.50000 
H32C  2    0.691430    0.787970    1.040540    11.00000   -1.50000 
AFIX   0 
  
rem 1,2,3,4-Triazaphospholate anion 
  
P1    4    0.205244    0.697007    0.249993    11.00000    0.02186    0.01678 = 
         0.02284   -0.00001   -0.00022   -0.00372 
C1    1    0.034302    0.845697    0.249913    11.00000    0.01738    0.02498 = 
         0.01558   -0.00006   -0.00008   -0.00102 
H1    2   -0.122472    0.865848    0.249188    11.00000   -1.20000 
N1    3    0.152140    0.950107    0.250021    11.00000    0.02688    0.01916 = 
         0.01752   -0.00010   -0.00057   -0.00162 
N2    3    0.374340    0.911471    0.249960    11.00000    0.02564    0.02608 = 
         0.01698    0.00005   -0.00054   -0.01073 
N3    3    0.431262    0.780865    0.250023    11.00000    0.01654    0.02782 = 
         0.01779   -0.00012   -0.00032   -0.00265 
HKLF 5 
  
REM  wt_5.res in P-1 
REM R1 =  0.0271 for    2839 Fo > 4sig(Fo)  and  0.0293 for all    3070 data 
REM    146 parameters refined using      1 restraints 
  
END 
  
WGHT      0.0416      0.1288 
  
REM Highest difference peak  0.451,  deepest hole -0.311,  1-sigma level  0.051 
Q1    1   0.5093  0.7352  0.6800  11.00000  0.05    0.45 
Q2    1   0.0978  0.7803  0.2530  11.00000  0.05    0.40 
Q3    1   0.5114  0.7340  0.8242  11.00000  0.05    0.36 
Q4    1   0.4015  0.8441  0.2526  11.00000  0.05    0.28 
Q5    1   0.2189  0.6159  0.2810  11.00000  0.05    0.28 
Q6    1   0.2608  0.5835  0.8023  11.00000  0.05    0.28 
Q7    1   0.2602  0.5849  0.7011  11.00000  0.05    0.28 
Q8    1   0.4945  0.7026  0.9121  11.00000  0.05    0.27 
Q9    1   0.4175  0.7998  0.6136  11.00000  0.05    0.24 
Q10   1   0.0901  0.8882  0.2482  11.00000  0.05    0.24 
Q11   1   0.4121  0.7926  0.8965  11.00000  0.05    0.24 
Q12   1   0.6053  0.7715  0.5888  11.00000  0.05    0.24 
Q13   1   0.5848  0.7726  0.8998  11.00000  0.05    0.24 
Q14   1   0.1256  1.0226  0.2572  11.00000  0.05    0.23 
Q15   1   0.3446  0.7357  0.2408  11.00000  0.05    0.23 
Q16   1   0.6106  0.6089  0.7406  11.00000  0.05    0.22 
Q17   1   0.4273  0.9912  0.2506  11.00000  0.05    0.21 
Q18   1   0.2509  0.9350  0.2463  11.00000  0.05    0.21 
Q19   1   0.2011  0.6781  0.7490  11.00000  0.05    0.21 
Q20   1   0.0619  0.9216  0.7527  11.00000  0.05    0.20 
;
_shelx_res_checksum              60273
_shelx_hkl_file
; 
   1   0   0 6539.30 28.9345   1 
  -1   0   3 4630.87 97.7675  -2 
   2   0   0 4630.87 97.7675   1 
   3   0   0 873.899 5.26004   1 
   4   0   0 2287.70 13.0918   1 
   5   0   0 306.066 4.25589   1 
   6   0   0 146.525 3.05415   1 
   7   0   0 37.9728 2.08215   1 
  -7   1   0 92.2795 2.90314   1 
  -6   1   0 198.881 3.89528   1 
  -5   1   0 23.8684 1.33616   1 
  -4   1   0 406.112 3.30460   1 
  -3   1   0 930.318 6.05954   1 
  -2   1   0 1.88910 0.21223   1 
  -1   1   0 1937.22 10.1538   1 
   0   1   0 0.08989 0.05714   1 
   1   1   0 3357.20 14.0132   1 
   2   1   0 394.999 2.47315   1 
   3   1   0 137.022 1.58002   1 
   4   1   0 1184.55 7.72797   1 
   5   1   0 22.6803 1.20767   1 
   6   1   0 999.483 9.07305   1 
   7   1   0 7.93496 1.05499   1 
   8   1   0 0.88033 1.03233   1 
  -7   2   0 53.1990 2.69563   1 
  -6   2   0 3.33182 0.77119   1 
  -5   2   0 161.987 3.02946   1 
  -4   2   0 1005.08 7.79557   1 
  -3   2   0 116.209 1.25310   1 
  -2   2   0 41.5346 0.66799   1 
  -1   2   0 3309.13 16.7034   1 
   0   2   0 5532.76 29.1215   1 
   1   2   0 2769.03 13.2863   1 
   2   2   0 3836.92 18.4726   1 
   3   2   0 6216.72 31.3140   1 
   4   2   0 912.089 6.12859   1 
   5   2   0 48.3770 1.66637   1 
   6   2   0 648.162 6.68907   1 
  -3  -1  11 585.287 7.25565  -2 
   7   2   0 585.287 7.25565   1 
   8   2   0 0.86588 0.96339   1 
  -7   3   0 136.796 3.65489   1 
  -6   3   0 452.471 6.61033   1 
  -5   3   0 38.6281 2.06259   1 
  -4   3   0 184.367 2.63520   1 
  -3   3   0 1044.53 6.39704   1 
  -2   3   0 1282.22 7.45900   1 
  -1   3   0 3795.76 20.4962   1 
   0   3   0 177.597 1.51063   1 
   1   3   0 1842.84 9.91095   1 
   2   3   0 3.71288 0.24631   1 
   3   3   0 4473.73 21.8505   1 
   4   3   0 938.299 6.84464   1 
   5   3   0 63.4829 1.65057   1 
   6   3   0 6.65412 0.85100   1 
  -3  -2  11 289.465 4.83290  -2 
   7   3   0 289.465 4.83290   1 
  -7   4   0 2.81937 1.07134   1 
  -6   4   0 316.740 5.09023   1 
  -5   4   0 462.145 6.44264   1 
  -4   4   0 58.8392 1.75411   1 
  -3   4   0 94.1034 1.51339   1 
  -2   4   0 9.11554 0.44525   1 
  -1   4   1 2676.43 23.5486  -2 
  -1   4   0 2676.43 23.5486   1 
   0   4   0 140.171 1.44075   1 
   1   4   0 32.6177 0.65357   1 
   2   4   0 629.700 3.76826   1 
   3   4   0 1969.08 10.8775   1 
   4   4   0 75.9123 1.49193   1 
   5   4   0 504.813 5.36296   1 
   6   4   0 293.253 4.54950   1 
   7   4   0 99.2901 2.81159   1 
  -7   5   0 288.073 6.05996   1 
  -6   5   0 7.08156 1.20219   1 
  -5   5   0 266.227 4.52390   1 
  -4   5   0 270.520 3.92250   1 
  -2   5   4 117.998 2.07288  -2 
  -3   5   0 117.998 2.07288   1 
  -2   5   0 1.30510 0.30338   1 
  -1   5   1 1212.40 7.60866  -2 
  -1   5   0 1212.40 7.60866   1 
   0   5   0 690.303 5.03467   1 
   1   5   0 0.30635 0.21511   1 
   2   5   0 57.0834 0.91126   1 
   3   5   0 1315.38 7.40311   1 
   4   5   0 903.271 7.18752   1 
   5   5   0 39.3398 1.72849   1 
   6   5   0 152.030 3.21060   1 
   7   5   0 256.261 4.56072   1 
  -6   6   0 107.432 3.68596   1 
  -3   6   7 33.9309 4.56800  -2 
  -5   6   0 33.9309 4.56800   1 
  -4   6   0 344.090 4.74637   1 
  -2   6   4 2381.52 20.0495  -2 
  -3   6   0 2381.52 20.0495   1 
  -2   6   0 4.82460 0.53211   1 
  -1   6   0 1239.22 7.95428   1 
   0   6   0 110.130 1.44969   1 
   1   6   0 395.178 3.09858   1 
   2   6   0 1.80030 0.29662   1 
   3   6   0 418.964 3.50065   1 
   4   6   0 7.21520 0.75162   1 
   5   6   0 2.30768 0.64236   1 
  -2  -5  10 152.073 4.78302  -2 
   6   6   0 152.073 4.78302   1 
   7   6   0 11.6942 1.42106   1 
  -6   7   0 133.697 4.17755   1 
  -5   7   0 170.722 4.09304   1 
  -4   7   0 17.4479 1.42690   1 
  -3   7   0 292.394 4.21322   1 
  -2   7   0 1149.93 8.75449   1 
  -1   7   0 47.7726 1.26838   1 
   0   7   0 14.7714 0.74666   1 
   1   7   0 979.304 6.81927   1 
   2   7   0 88.0669 1.35857   1 
   3   7   0 338.539 3.39127   1 
  -1  -6   7 129.067 8.57830  -2 
   4   7   0 129.067 8.57830   1 
   5   7   0 41.2093 1.99700   1 
  -2  -6  10 525.045 7.36679  -2 
   6   7   0 525.045 7.36679   1 
   7   7   0 227.635 4.72094   1 
  -5   8   0 176.525 4.37721   1 
  -4   8   0 35.2509 2.07878   1 
  -3   8   0 562.884 7.55437   1 
  -2   8   0 1.02881 0.48522   1 
  -1   8   0 220.099 3.01596   1 
   0   8   0 192.439 2.45132   1 
   1   8   0 168.271 2.30226   1 
   2   8   0 16.4925 0.86837   1 
   3   8   0 192.503 2.62579   1 
  -1  -7   7 77.6269 2.61390  -2 
   4   8   0 77.6269 2.61390   1 
   5   8   0 119.925 2.94762   1 
  -2  -7  10 272.956 6.09411  -2 
   6   8   0 272.956 6.09411   1 
  -5   9   0 275.998 5.76804   1 
  -3   9   5 5.24003 1.91302  -2 
  -4   9   0 5.24003 1.91302   1 
  -3   9   0 85.4641 3.14042   1 
  -2   9   2 903.162 8.64777  -2 
  -2   9   0 903.162 8.64777   1 
  -1   9   0 761.465 7.00031   1 
   0   9   0 298.595 3.56136   1 
   1   9   0 678.370 6.36980   1 
   2   9   0 40.8620 1.53583   1 
   3   9   0 72.8360 1.88966   1 
   4   9   0 727.001 7.14325   1 
   5   9   0 14.6444 1.54075   1 
   6   9   0 209.029 4.62902   1 
  -3  10   5 13.2707 1.80109  -2 
  -4  10   0 13.2707 1.80109   1 
  -3  10   0 9.73191 1.35452   1 
  -2  10   2 442.100 18.3889  -2 
  -2  10   0 442.100 18.3889   1 
  -1  10   0 106.115 2.32812   1 
   0  10   0 1.83196 0.57624   1 
   1  10   0 48.5423 2.07713   1 
   2  10   0 63.9180 1.95812   1 
   3  10   0 0.17430 0.57704   1 
   4  10   0 0.05112 0.62915   1 
   5  10   0 0.27755 0.94656   1 
   6  10   0 5.62765 1.34041   1 
  -3  11   0 274.565 5.71864   1 
  -2  11   0 59.7903 2.39179   1 
  -1  11   0 5.85928 0.92387   1 
   0  11   0 848.031 8.86808   1 
   1  11   0 630.058 7.56048   1 
   2  11   0 15.4378 1.40067   1 
   0 -10   6 55.0059 4.28095  -2 
   3  11   0 55.0059 4.28095   1 
   4  11   0 673.933 8.49788   1 
  -1 -10   9 425.795 7.91610  -2 
   5  11   0 425.795 7.91610   1 
  -2  12   0 945.971 10.7849   1 
  -1  12   0 0.76182 0.81835   1 
   0  12   0 32.9502 2.03458   1 
   1  12   0 649.367 8.05476   1 
   2  12   0 525.998 6.67038   1 
   0 -11   6 493.816 7.26727  -2 
   3  12   0 493.816 7.26727   1 
   4  12   0 1.33574 0.97737   1 
  -1  13   0 0.17434 0.99820   1 
   0  13   0 598.220 8.04397   1 
   1 -12   3 162.633 4.73557  -2 
   1  13   0 162.633 4.73557   1 
   2  13   0 52.6824 2.80327   1 
   0 -12   6 85.2054 3.43897  -2 
   3  13   0 85.2054 3.43897   1 
  -3 -13   1 208.645 5.34954   1 
  -2 -13   1 124.200 3.80136   1 
  -1 -13   1 25.9132 1.91076   1 
   1 -13   1 315.797 7.13630  -2 
   0 -13   1 315.797 7.13630   1 
   1 -13   1 129.738 3.90677   1 
  -1 -11   7 29.1936 3.48971  -2 
  -4 -12   1 29.1936 3.48971   1 
  -3 -12   1 4.82624 0.99694   1 
  -2 -12   1 252.418 4.64120   1 
  -1 -12   1 171.038 3.97677   1 
   0 -12   1 20.3298 1.68247   1 
   1 -12   1 179.776 3.83994   1 
   2 -12   1 3.81513 1.03720   1 
  -5 -11   1 220.219 5.34299   1 
  -4 -11   1 99.8653 3.29263   1 
  -3 -11   1 275.642 4.35283   1 
  -2 -11   1 92.9500 2.44445   1 
  -1 -11   1 1.72355 0.66990   1 
   0 -11   1 72.5381 2.68581   1 
   1 -11   1 286.158 4.62423   1 
   2 -11   1 0.91474 0.83462   1 
   3 -11   1 225.831 4.82153   1 
  -6 -10   1 393.885 6.74815   1 
  -5 -10   1 99.0398 3.26052   1 
  -4 -10   1 14.7847 1.67355   1 
  -3 -10   1 228.894 3.58342   1 
  -2 -10   1 268.453 3.93162   1 
  -1 -10   1 3.38244 0.68827   1 
   0 -10   1 118.909 2.41847   1 
  -1  10   1 1519.55 14.3215  -2 
   1 -10   1 1519.55 14.3215   1 
   2 -10   1 325.905 4.65796   1 
  -2  10   4 246.021 4.36563  -2 
   3 -10   1 246.021 4.36563   1 
   4 -10   1 147.252 3.93482   1 
  -6  -9   1 201.958 4.45922   1 
  -5  -9   1 391.942 6.26076   1 
  -4  -9   1 0.64793 0.70339   1 
  -3  -9   1 3.75889 0.69186   1 
  -2  -9   1 1297.19 10.2778   1 
   0  -9   2 6.55188 2.81264  -2 
  -1  -9   1 6.55188 2.81264   1 
   0  -9   1 360.800 4.17890   1 
  -1   9   1 16.6201 1.15650  -2 
   1  -9   1 16.6201 1.15650   1 
   2  -9   1 41.5135 1.74942   1 
  -2   9   4 253.173 4.36424  -2 
   3  -9   1 253.173 4.36424   1 
   4  -9   1 57.8894 2.87112   1 
   5  -9   1 8.71618 1.54048   1 
  -6  -8   1 2.45894 0.91571   1 
  -5  -8   1 15.8536 1.46682   1 
  -4  -8   1 20.2268 1.63311   1 
  -3  -8   1 485.125 4.87934   1 
  -2  -8   1 27.9496 1.08164   1 
   0  -8   2 1560.96 11.1820  -2 
  -1  -8   1 1560.96 11.1820   1 
   0  -8   1 325.643 3.63806   1 
  -1   8   1 923.849 8.49819  -2 
   1  -8   1 923.849 8.49819   1 
   2  -8   1 1.12280 0.54072   1 
   3  -8   1 112.009 2.38288   1 
   4  -8   1 698.194 8.62088   1 
   5  -8   1 50.5996 2.95685   1 
  -3  -6  11 26.2054 2.18246  -2 
  -7  -7   1 26.2054 2.18246   1 
  -6  -7   1 105.415 2.85569   1 
  -5  -7   1 12.0278 1.19211   1 
  -4  -7   1 7.47563 0.92086   1 
  -3  -7   1 128.241 1.89464   1 
  -2  -7   1 1278.85 8.53179   1 
  -1  -7   1 392.527 3.51176   1 
   0  -7   1 4.35294 0.47263   1 
   1  -7   1 357.631 3.61546   1 
   2  -7   1 15.3824 0.99836   1 
   3  -7   1 50.6648 1.67169   1 
   4  -7   1 60.1617 2.62976   1 
   5  -7   1 100.161 3.46992   1 
   6  -7   1 137.341 4.41412   1 
  -3  -5  11 277.782 5.53668  -2 
  -7  -6   1 277.782 5.53668   1 
  -6  -6   1 13.4006 1.25578   1 
  -5  -6   1 644.597 7.30098   1 
  -4  -6   1 26.8916 1.37306   1 
  -3  -6   1 3.10568 0.41258   1 
  -2  -6   1 72.1861 1.12406   1 
  -1  -6   1 85.7628 1.25702   1 
   0  -6   1 4.08726 0.41011   1 
   1  -6   1 72.8378 1.29952   1 
   2  -6   1 260.031 2.93086   1 
   3  -6   1 0.56338 0.43034   1 
   4  -6   1 186.954 3.45105   1 
   5  -6   1 17.7384 1.80292   1 
  -3   7   9 44.3758 4.89083  -2 
   6  -6   1 44.3758 4.89083   1 
  -7  -5   1 144.774 3.25506   1 
  -6  -5   1 125.800 2.82431   1 
  -5  -5   1 0.31262 0.51742   1 
  -4  -5   1 788.484 7.19748   1 
  -3  -5   1 176.277 1.86410   1 
  -2  -5   1 18.3639 0.61392   1 
  -1  -5   1 50.7397 0.93493   1 
   0   5   0 848.527 9.37177  -2 
   0  -5   1 848.527 9.37177   1 
   1  -5   1 1314.31 8.19623   1 
   2  -5   1 2.72716 0.39848   1 
   3  -5   1 0.39786 0.36116   1 
  -2   6   6 212.193 11.7906  -2 
   4  -5   1 212.193 11.7906   1 
   5  -5   1 100.623 3.00383   1 
   6  -5   1 -0.1437 0.87486   1 
   7  -5   1 4.74388 1.34743   1 
  -7  -4   1 14.2877 1.31539   1 
  -6  -4   1 1.02587 0.59951   1 
  -5  -4   1 470.927 5.29628   1 
  -4  -4   1 41.4498 1.17168   1 
  -3  -4   1 123.570 1.33161   1 
  -1  -4   3 4623.95 22.2856  -2 
  -2  -4   1 4623.95 22.2856   1 
  -1  -4   1 114.574 1.25690   1 
   0   4   0 669.185 4.43707  -2 
   0  -4   1 669.185 4.43707   1 
   1  -4   1 1802.37 10.5193   1 
   2  -4   1 3311.77 18.6150   1 
   3  -4   1 85.3012 1.21564   1 
   4  -4   1 17.5098 1.23669   1 
   5  -4   1 164.665 3.72278   1 
   6  -4   1 88.7800 2.91224   1 
   7  -4   1 1.28116 1.10792   1 
  -7  -3   1 228.792 3.91996   1 
  -6  -3   1 276.905 3.74277   1 
  -5  -3   1 289.376 3.57319   1 
  -4  -3   1 304.468 3.12470   1 
  -3  -3   1 0.55303 0.21550   1 
  -1  -3   3 824.873 6.03323  -2 
  -2  -3   1 824.873 6.03323   1 
  -1  -3   1 2862.72 15.0623   1 
   0  -3   1 -0.0548 0.17091   1 
   1  -3   1 623.543 3.95662   1 
   2  -3   1 2114.38 11.7537   1 
   3  -3   1 281.889 2.53737   1 
   4  -3   1 905.113 8.42741   1 
   5  -3   1 18.6512 1.52755   1 
   6  -3   1 42.8236 2.41839   1 
   7  -3   1 43.9465 2.55016   1 
  -7  -2   1 84.2033 2.17080   1 
  -6  -2   1 -0.0222 0.50107   1 
  -5  -2   1 163.499 2.48516   1 
  -4  -2   1 82.4425 1.33994   1 
  -3  -2   1 230.262 1.87064   1 
  -2  -2   1 808.662 5.21900   1 
  -1  -2   1 513.544 2.82466   1 
   0  -2   1 2180.60 10.8507   1 
   1  -2   1 4109.21 21.9942   1 
   2  -2   1 1624.68 8.31226   1 
   3  -2   1 16.8428 0.63547   1 
   4  -2   1 582.245 5.14993   1 
  -2   3   8 1019.27 27.9512  -2 
   5  -2   1 1019.27 27.9512   1 
   6  -2   1 0.83020 0.68303   1 
  -3   3  11 80.2906 3.19970  -2 
   7  -2   1 80.2906 3.19970   1 
  -7  -1   1 100.180 2.69432   1 
  -6  -1   1 206.740 3.08594   1 
  -5  -1   1 1780.50 12.8577   1 
  -4  -1   1 1244.71 9.03150   1 
  -3  -1   1 167.443 1.70955   1 
  -2  -1   1 653.954 3.69278   1 
  -1  -1   1 541.006 3.01076   1 
   0  -1   1 384.421 2.18400   1 
   1  -1   1 8455.65 44.5183   1 
   2  -1   1 400.369 2.49775   1 
   3  -1   1 52.6769 0.86736   1 
   4  -1   1 307.148 2.76570   1 
  -2   2   8 1795.05 17.0739  -2 
   5  -1   1 1795.05 17.0739   1 
   6  -1   1 66.7702 2.82253   1 
  -3   2  11 107.606 3.57801  -2 
   7  -1   1 107.606 3.57801   1 
  -7   0   1 306.818 4.96906   1 
  -6   0   1 27.8762 1.58398   1 
  -5   0   1 76.2011 1.62461   1 
  -4   0   1 1597.28 10.6653   1 
  -2   0   4 1109.23 9.80224  -2 
  -3   0   1 1109.23 9.80224   1 
  -2   0   1 56.5965 0.76147   1 
  -1   0   1 524.444 5.41527   1 
   0   0   1 0.07874 0.05216   1 
   1   0   1 507.999 2.94300   1 
   2   0   1 54.6058 0.69841   1 
   3   0   1 1072.38 6.21905   1 
   4   0   1 1593.79 9.05506   1 
   5   0   1 71.8630 2.11973   1 
   6   0   1 26.1429 1.66167   1 
   7   0   1 306.524 5.12198   1 
  -7   1   1 112.338 3.43263   1 
  -6   1   1 66.6686 2.29798   1 
  -3   1   7 1681.96 16.4843  -2 
  -5   1   1 1681.96 16.4843   1 
  -4   1   1 302.311 2.73864   1 
  -2   1   4 381.984 2.86050  -2 
  -3   1   1 381.984 2.86050   1 
  -2   1   1 404.344 2.59604   1 
  -1   1   1 8759.69 44.8147   1 
   0   1   1 386.232 2.02471   1 
   1   1   1 530.194 3.00678   1 
   2   1   1 637.180 3.43327   1 
   3   1   1 166.266 1.58816   1 
   4   1   1 1221.58 7.19096   1 
   5   1   1 1761.19 13.9257   1 
   6   1   1 207.095 3.58083   1 
   7   1   1 98.1304 2.84744   1 
  -7   2   1 13.1104 1.59666   1 
  -6   2   1 0.00479 0.60718   1 
  -3   2   7 1059.40 12.4886  -2 
  -5   2   1 1059.40 12.4886   1 
  -4   2   1 582.225 4.57468   1 
  -2   2   4 552.381 14.3790  -2 
  -3   2   1 552.381 14.3790   1 
  -2   2   1 1672.29 9.41957   1 
  -1   2   1 4169.86 21.3214   1 
   0   2   1 2184.26 10.5439   1 
   1   2   1 511.748 2.95167   1 
   2   2   1 799.611 4.33378   1 
   3   2   1 222.884 1.81342   1 
   4   2   1 84.3687 1.19254   1 
   5   2   1 158.606 2.52157   1 
  -2  -1  10 216.582 5.64641  -2 
   6   2   1 216.582 5.64641   1 
   7   2   1 84.2242 2.69662   1 
  -7   3   1 41.4230 2.74501   1 
  -6   3   1 48.2524 2.28197   1 
  -5   3   1 15.7057 1.19673   1 
  -4   3   1 911.510 7.29708   1 
  -3   3   1 285.290 2.53175   1 
  -2   3   1 2177.00 12.1376   1 
  -1   3   1 638.835 3.53942   1 
   0   3   1 0.25125 0.17611   1 
   1   3   1 2890.44 14.4964   1 
   2   3   1 656.272 4.06331   1 
   3   3   1 0.40241 0.20125   1 
  -1  -2   7 321.483 3.18701  -2 
   4   3   1 321.483 3.18701   1 
   5   3   1 286.866 3.45873   1 
  -2  -2  10 287.158 4.69821  -2 
   6   3   1 287.158 4.69821   1 
   7   3   1 224.830 4.02738   1 
  -7   4   1 1.65220 0.89742   1 
  -6   4   1 90.9712 2.56635   1 
  -5   4   1 156.853 3.09065   1 
  -4   4   1 18.7191 1.21425   1 
  -3   4   1 86.3764 1.40089   1 
  -2   4   1 3324.47 18.4152   1 
  -1   4   1 1807.82 9.98656   1 
   0   4   1 519.377 3.49733   1 
   1   4   1 116.412 1.24050   1 
   2   4   1 3689.07 18.6461   1 
   3   4   1 125.821 1.42483   1 
  -1  -3   7 945.981 8.26361  -2 
   4   4   1 945.981 8.26361   1 
   5   4   1 462.824 5.13821   1 
   6   4   1 1.05215 0.73195   1 
   7   4   1 13.5471 1.50597   1 
  -7   5   1 5.19707 1.15879   1 
  -4   5   8 2.46598 3.96661  -2 
  -6   5   1 2.46598 3.96661   1 
  -5   5   1 99.5661 2.58114   1 
  -3   5   5 195.495 3.53632  -2 
  -4   5   1 195.495 3.53632   1 
  -3   5   1 0.72110 0.45055   1 
  -2   5   1 1.24966 0.32142   1 
  -1   5   1 1311.48 7.72696   1 
   0   5   1 175.817 1.80467   1 
   1   5   1 49.0384 0.88096   1 
   2   5   1 16.4264 0.60981   1 
   3   5   1 174.240 1.86570   1 
   4   5   1 801.976 6.16083   1 
   5   5   1 0.54520 0.54281   1 
   6   5   1 128.476 3.09425   1 
   7   5   1 154.359 3.80548   1 
  -4   6   8 32.3459 2.24686  -2 
  -6   6   1 32.3459 2.24686   1 
  -5   6   1 15.9158 1.41741   1 
  -3   6   5 220.925 4.21688  -2 
  -4   6   1 220.925 4.21688   1 
  -3   6   1 -0.0242 0.49606   1 
  -2   6   1 264.593 2.85109   1 
  -1   6   1 73.1457 1.15571   1 
   0   6   1 3.98138 0.36417   1 
   1   6   1 90.0781 1.29027   1 
   2   6   1 74.8419 1.14738   1 
   3   6   1 3.38908 0.44142   1 
   4   6   1 27.7777 1.04517   1 
   5   6   1 647.001 7.12286   1 
   6   6   1 14.8027 1.47128   1 
   7   6   1 21.5743 1.83897   1 
  -4   7   8 168.415 4.88601  -2 
  -6   7   1 168.415 4.88601   1 
  -5   7   1 95.5466 2.92489   1 
  -4   7   1 54.0560 2.39108   1 
  -3   7   1 46.3100 2.08707   1 
  -2   7   1 15.2520 0.87350   1 
  -1   7   1 370.822 3.44696   1 
   0   7   1 4.74770 0.45590   1 
   1   7   1 393.261 3.30159   1 
   2   7   1 1298.96 8.35265   1 
   0  -6   6 282.108 6.60195  -2 
   3   7   1 282.108 6.60195   1 
   4   7   1 6.54018 0.68509   1 
  -1  -6   9 79.2104 3.38200  -2 
   5   7   1 79.2104 3.38200   1 
   6   7   1 105.425 2.89675   1 
   7   7   1 -0.1472 0.84926   1 
  -5   8   1 52.7926 2.81037   1 
  -4   8   1 679.277 8.79432   1 
  -3   8   1 112.765 2.97773   1 
  -2   8   1 0.92138 0.49995   1 
  -1   8   1 464.583 4.72774   1 
   0   8   1 322.688 3.54916   1 
   1  -7   3 3298.23 54.5190  -2 
   1   8   1 3298.23 54.5190   1 
   2   8   1 26.2816 1.05967   1 
   0  -7   6 499.463 4.86004  -2 
   3   8   1 499.463 4.86004   1 
   4   8   1 15.0801 1.07950   1 
   5   8   1 16.8758 1.42744   1 
   6   8   1 2.48097 0.86962   1 
  -5   9   1 6.35408 1.35071   1 
  -4   9   1 54.1721 2.79919   1 
  -3   9   1 57.5032 2.79994   1 
  -2   9   1 44.7917 1.72440   1 
  -1   9   1 6.88587 0.76380   1 
   0   9   1 367.814 3.84264   1 
   1  -8   3 90.9789 2.25606  -2 
   1   9   1 90.9789 2.25606   1 
   2   9   1 1305.20 9.90602   1 
   0  -8   6 202.226 10.4318  -2 
   3   9   1 202.226 10.4318   1 
   4   9   1 1.07283 0.60066   1 
   5   9   1 396.718 6.41711   1 
   6   9   1 200.340 4.58975   1 
  -4  10   1 152.642 4.15514   1 
  -3  10   1 1.61002 0.90729   1 
  -2  10   1 333.226 4.70949   1 
  -1  10   1 785.824 7.41408   1 
   0  10   1 111.724 2.28675   1 
   1  10   1 3.50685 0.66297   1 
   2  10   1 269.084 3.69759   1 
   3  10   1 224.298 3.41019   1 
   4  10   1 12.8964 1.18470   1 
   5  10   1 96.2334 3.34474   1 
   6  10   1 382.057 7.35732   1 
  -3  11   1 238.355 5.23002   1 
  -2  11   1 1.63375 0.74907   1 
  -1  11   1 290.408 4.35952   1 
   0  11   1 65.7189 2.33762   1 
   1  11   1 1.02434 0.69785   1 
   2  11   1 91.5059 2.33805   1 
   3  11   1 277.125 4.43617   1 
   4  11   1 102.745 2.64118   1 
   5  11   1 222.704 5.52174   1 
  -2  12   1 5.13692 1.17825   1 
  -1  12   1 191.570 4.30468   1 
   2 -11   2 87.5944 6.84767  -2 
   0  12   1 87.5944 6.84767   1 
   1  12   1 171.400 3.73009   1 
   1 -11   5 326.885 5.85393  -2 
   2  12   1 326.885 5.85393   1 
   3  12   1 6.26240 1.12061   1 
   4  12   1 4.59263 1.09483   1 
  -1  13   1 128.224 3.79986   1 
   2 -12   2 483.008 7.71604  -2 
   0  13   1 483.008 7.71604   1 
   1  13   1 23.7319 1.71269   1 
   1 -12   5 378.412 7.85627  -2 
   2  13   1 378.412 7.85627   1 
   3  13   1 195.265 5.84311   1 
  -2 -13   2 15.0784 1.69522   1 
   0 -13   2 165.021 4.44189  -2 
  -1 -13   2 165.021 4.44189   1 
   0 -13   2 154.823 3.90547   1 
  -4 -12   2 17.9178 1.88856   1 
  -1 -12   5 165.133 5.09791  -2 
  -3 -12   2 165.133 5.09791   1 
  -2 -12   2 24.8710 1.82929   1 
   0 -12   2 453.205 7.01956  -2 
  -1 -12   2 453.205 7.01956   1 
   0 -12   2 7.76049 1.13557   1 
   1 -12   2 1.54939 0.85397   1 
   2 -12   2 274.633 5.21426   1 
  -5 -11   2 21.7099 1.93055   1 
  -4 -11   2 254.463 5.16182   1 
  -3 -11   2 118.157 2.73560   1 
  -2 -11   2 139.810 2.93460   1 
  -1 -11   2 388.286 5.68355   1 
   0 -11   2 165.546 3.60496   1 
   1 -11   2 74.6580 2.61187   1 
   2 -11   2 85.1806 3.01818   1 
   3 -11   2 592.607 7.57337   1 
  -5 -10   2 2.54168 0.94051   1 
  -4 -10   2 43.5363 2.25699   1 
  -3 -10   2 127.756 2.68005   1 
  -2 -10   2 26.4945 1.42998   1 
  -1 -10   2 48.8864 1.87367   1 
   0 -10   2 129.612 2.66053   1 
   1 -10   2 7.51433 0.97338   1 
   2 -10   2 178.850 3.13136   1 
   3 -10   2 -0.1022 0.66861   1 
   4 -10   2 0.56638 0.96023   1 
  -6  -9   2 70.2965 3.15383   1 
  -5  -9   2 16.5576 1.60152   1 
  -4  -9   2 37.4026 2.18457   1 
  -3  -9   2 4.08135 0.68427   1 
  -1  -9   3 548.536 5.80712  -2 
  -2  -9   2 548.536 5.80712   1 
  -1  -9   2 1202.17 9.83398   1 
   0   9   0 271.917 4.32654  -2 
   0  -9   2 271.917 4.32654   1 
   1  -9   2 8.31101 0.89391   1 
   2  -9   2 455.638 5.05645   1 
   3  -9   2 435.340 5.52560   1 
   4  -9   2 0.55030 0.87066   1 
   5  -9   2 31.0504 2.70284   1 
  -6  -8   2 54.4440 2.67232   1 
  -5  -8   2 5.48014 0.95244   1 
  -2  -8   6 383.266 7.72804  -2 
  -4  -8   2 383.266 7.72804   1 
  -3  -8   2 469.579 5.22363   1 
  -1  -8   3 726.130 5.69260  -2 
  -2  -8   2 726.130 5.69260   1 
  -1  -8   2 95.6669 1.69161   1 
   0   8   0 1052.75 12.6128  -2 
   0  -8   2 1052.75 12.6128   1 
   1  -8   2 79.5951 1.79417   1 
   2  -8   2 220.452 3.14881   1 
   3  -8   2 370.955 4.62065   1 
   4  -8   2 -0.4198 0.76423   1 
   5  -8   2 27.4340 2.27430   1 
  -7  -7   2 44.4359 2.25762   1 
  -6  -7   2 292.625 4.70585   1 
  -5  -7   2 23.3703 1.53038   1 
  -2  -7   6 96.0815 2.49895  -2 
  -4  -7   2 96.0815 2.49895   1 
  -3  -7   2 169.843 2.68757   1 
  -1  -7   3 395.066 6.00377  -2 
  -2  -7   2 395.066 6.00377   1 
  -1  -7   2 332.753 2.99136   1 
   0  -7   2 2.70450 0.41658   1 
   1  -7   2 59.6622 1.36154   1 
   2  -7   2 795.126 6.78407   1 
   3  -7   2 79.4599 1.88727   1 
   4  -7   2 73.7017 2.92521   1 
   5  -7   2 181.934 4.41286   1 
   6  -7   2 165.505 4.95801   1 
  -7  -6   2 28.6814 1.79926   1 
  -6  -6   2 264.033 4.20724   1 
  -5  -6   2 4.21643 0.72521   1 
  -4  -6   2 1125.67 9.63881   1 
  -3  -6   2 199.547 2.64928   1 
  -2  -6   2 2.40710 0.33966   1 
  -1  -6   2 1.44027 0.31002   1 
   0  -6   2 392.407 3.14652   1 
   1  -6   2 193.148 2.07826   1 
   2  -6   2 929.514 6.68451   1 
   3  -6   2 592.545 5.50907   1 
   4  -6   2 75.4363 2.60071   1 
  -2   7   8 563.414 9.17441  -2 
   5  -6   2 563.414 9.17441   1 
   6  -6   2 720.305 10.8357   1 
  -7  -5   2 402.347 5.91032   1 
  -6  -5   2 553.718 6.48872   1 
  -5  -5   2 11.1528 0.92137   1 
  -4  -5   2 403.965 4.38594   1 
  -3  -5   2 702.969 4.85037   1 
  -2  -5   2 20.7312 0.55454   1 
  -1  -5   2 809.415 5.01711   1 
   0  -5   2 1316.56 7.89285   1 
   1  -5   2 36.5270 0.88132   1 
   2  -5   2 206.363 2.27754   1 
  -1   6   5 149.076 5.27185  -2 
   3  -5   2 149.076 5.27185   1 
   4  -5   2 13.7165 1.20767   1 
  -2   6   8 144.820 4.33139  -2 
   5  -5   2 144.820 4.33139   1 
   6  -5   2 27.0945 2.38039   1 
  -7  -4   2 74.3522 2.55524   1 
  -6  -4   2 555.047 6.03742   1 
  -3  -4   7 133.515 7.17265  -2 
  -5  -4   2 133.515 7.17265   1 
  -4  -4   2 324.489 3.44194   1 
  -2  -4   4 609.943 4.34093  -2 
  -3  -4   2 609.943 4.34093   1 
  -2  -4   2 375.278 2.63545   1 
  -1  -4   2 552.702 3.64285   1 
   0  -4   2 205.707 1.76321   1 
   1  -4   2 123.980 1.36032   1 
   2  -4   2 869.895 5.80545   1 
   3  -4   2 81.1808 1.42619   1 
   4  -4   2 -0.1063 0.52285   1 
   5  -4   2 689.023 8.94730   1 
   6  -4   2 477.129 7.36986   1 
   7  -4   2 47.0814 3.07479   1 
  -7  -3   2 101.454 2.79143   1 
  -6  -3   2 92.1923 2.02579   1 
  -3  -3   7 239.882 3.18869  -2 
  -5  -3   2 239.882 3.18869   1 
  -4  -3   2 660.234 5.03291   1 
  -2  -3   4 659.971 4.68882  -2 
  -3  -3   2 659.971 4.68882   1 
  -2  -3   2 401.756 2.95289   1 
  -1  -3   2 1445.91 7.44809   1 
   0  -3   2 3787.06 18.8010   1 
   1  -3   2 246.922 1.95429   1 
   2  -3   2 391.403 3.01325   1 
   3  -3   2 1254.45 7.79236   1 
   4  -3   2 278.208 3.42710   1 
   5  -3   2 33.9650 2.11303   1 
   6  -3   2 125.727 3.77525   1 
   7  -3   2 10.9854 1.47396   1 
  -4  -2  10 531.618 14.8909  -2 
  -7  -2   2 531.618 14.8909   1 
  -6  -2   2 95.3688 1.91796   1 
  -3  -2   7 37.7117 1.34875  -2 
  -5  -2   2 37.7117 1.34875   1 
  -4  -2   2 384.914 3.11965   1 
  -3  -2   2 3757.12 22.0979   1 
  -2  -2   2 1477.56 8.62209   1 
  -1  -2   2 19.4703 0.45571   1 
   0  -2   2 171.654 1.37094   1 
   1  -2   2 487.646 3.29868   1 
   2  -2   2 84.0367 1.20901   1 
   3  -2   2 62.7063 0.97095   1 
  -1   3   7 265.739 9.37963  -2 
   4  -2   2 265.739 9.37963   1 
   5  -2   2 294.411 4.68681   1 
   6  -2   2 53.1375 2.60853   1 
   7  -2   2 6.44578 1.40104   1 
  -7  -1   2 9.35612 1.18085   1 
  -6  -1   2 268.556 3.55726   1 
  -5  -1   2 95.6317 1.57413   1 
  -4  -1   2 621.752 4.86944   1 
  -3  -1   2 198.426 2.01005   1 
  -2  -1   2 516.634 4.08872   1 
  -1  -1   2 6496.91 35.9275   1 
   0  -1   2 173.097 1.17010   1 
   1  -1   2 1382.33 7.70445   1 
   0   2   4 996.641 12.3247  -2 
   2  -1   2 996.641 12.3247   1 
   3  -1   2 496.379 3.49476   1 
  -1   2   7 870.893 6.77035  -2 
   4  -1   2 870.893 6.77035   1 
   5  -1   2 100.273 2.81164   1 
   6  -1   2 307.794 5.48221   1 
   7  -1   2 71.4987 3.27896   1 
  -7   0   2 115.723 3.09027   1 
  -6   0   2 22.0105 1.54024   1 
  -5   0   2 246.744 2.83555   1 
  -4   0   2 133.455 1.83946   1 
  -3   0   2 1890.07 13.8640   1 
  -2   0   2 791.955 8.10985   1 
  -1   0   2 215.397 1.88163   1 
   0   0   2 9999.99 45.6073   1 
   1   0   2 218.161 1.67845   1 
   0   1   4 858.935 14.1132  -2 
   2   0   2 858.935 14.1132   1 
   3   0   2 1826.48 10.0259   1 
   4   0   2 133.920 1.82970   1 
   5   0   2 241.417 4.03187   1 
   6   0   2 20.7665 1.64377   1 
   7   0   2 121.159 3.45076   1 
  -7   1   2 76.2108 3.30536   1 
  -4   1   8 571.114 7.85211  -2 
  -6   1   2 571.114 7.85211   1 
  -5   1   2 96.3362 1.98134   1 
  -3   1   5 363.364 9.52158  -2 
  -4   1   2 363.364 9.52158   1 
  -3   1   2 498.721 4.29350   1 
  -2   1   2 35.5111 0.62078   1 
  -1   1   2 1445.16 7.49578   1 
   0   1   2 171.813 1.14244   1 
   1   1   2 6556.85 28.8317   1 
   2   1   2 504.795 3.28063   1 
   3   1   2 196.413 1.83821   1 
   4   1   2 620.726 4.84819   1 
   5   1   2 91.7313 2.26763   1 
   6   1   2 265.153 4.28012   1 
   7   1   2 8.68736 1.28271   1 
  -7   2   2 6.69737 1.41673   1 
  -4   2   8 132.711 3.11528  -2 
  -6   2   2 132.711 3.11528   1 
  -5   2   2 305.812 3.51808   1 
  -4   2   2 65.6185 1.12259   1 
  -3   2   2 65.4583 0.95596   1 
  -2   2   2 88.0863 0.90354   1 
  -1   2   2 491.185 2.99105   1 
   0   2   2 170.441 1.27272   1 
   1   2   2 21.2586 0.54587   1 
   2   2   2 1433.87 7.79878   1 
   3   2   2 3699.72 18.7319   1 
   4   2   2 379.576 3.45616   1 
   5   2   2 33.1750 1.53859   1 
   6   2   2 94.1925 2.54004   1 
   7   2   2 313.457 5.58194   1 
  -7   3   2 16.2661 2.01455   1 
  -6   3   2 126.025 2.81036   1 
  -5   3   2 37.1580 1.65939   1 
  -4   3   2 291.932 3.10115   1 
  -3   3   2 1302.87 8.06842   1 
  -2   3   2 409.485 2.98546   1 
  -1   3   2 244.470 1.74874   1 
   0   3   2 3819.01 18.7884   1 
   1   3   2 1445.10 8.23993   1 
   2   3   2 403.030 2.80757   1 
   0  -2   6 1701.63 26.3438  -2 
   3   3   2 1701.63 26.3438   1 
   4   3   2 642.038 4.74315   1 
   5   3   2 230.746 3.26906   1 
   6   3   2 88.1263 2.36028   1 
   7   3   2 102.928 2.95717   1 
  -7   4   2 45.5571 2.71243   1 
  -6   4   2 479.580 6.03728   1 
  -5   4   2 706.388 7.59017   1 
  -4   4   2 -0.5768 0.41620   1 
  -3   4   2 83.9457 1.46547   1 
  -2   4   2 903.270 5.48567   1 
  -1   4   2 124.061 1.16364   1 
   0   4   2 200.000 1.72886   1 
   1  -3   3 929.300 12.8486  -2 
   1   4   2 929.300 12.8486   1 
   2   4   2 381.046 3.04660   1 
   0  -3   6 1212.09 29.5770  -2 
   3   4   2 1212.09 29.5770   1 
   4   4   2 330.884 3.12425   1 
   5   4   2 140.186 2.63089   1 
   6   4   2 543.804 6.97338   1 
   7   4   2 73.4837 3.24396   1 
  -6   5   2 28.2670 1.81598   1 
  -5   5   2 13.6048 1.17465   1 
  -4   5   2 16.3959 1.17017   1 
  -3   5   2 124.005 2.34329   1 
  -2   5   2 206.789 2.05978   1 
  -1   5   2 37.9158 0.77774   1 
   0   5   2 1337.53 7.86830   1 
   1  -4   3 1672.10 23.0073  -2 
   1   5   2 1672.10 23.0073   1 
   2   5   2 21.0551 0.75174   1 
   3   5   2 699.467 4.71990   1 
   4   5   2 403.696 3.67975   1 
   5   5   2 11.2287 1.06183   1 
   6   5   2 537.698 7.54933   1 
   7   5   2 402.558 6.63756   1 
  -6   6   2 731.230 8.77076   1 
  -4   6   6 279.846 12.9225  -2 
  -5   6   2 279.846 12.9225   1 
  -4   6   2 77.9573 2.17692   1 
  -3   6   2 586.792 6.52501   1 
  -2   6   2 934.461 6.77590   1 
  -1   6   2 200.395 2.11461   1 
   0   6   2 398.946 3.20755   1 
   1   6   2 1.97514 0.31688   1 
   2   6   2 1.73647 0.36144   1 
   3   6   2 193.382 2.37814   1 
   4   6   2 1143.14 8.63613   1 
   5   6   2 3.34805 0.77105   1 
   6   6   2 256.383 4.57941   1 
   7   6   2 27.7002 2.11627   1 
  -6   7   2 172.610 3.94637   1 
  -5   7   2 189.165 3.87080   1 
  -4   7   2 73.2550 2.42620   1 
  -3   7   2 78.2170 2.20035   1 
  -2   7   2 806.060 7.35257   1 
  -1   7   2 59.2218 1.25509   1 
   0   7   2 2.64400 0.39615   1 
   1   7   2 325.417 3.16657   1 
   2   7   2 110.019 1.69605   1 
   3   7   2 178.521 2.53278   1 
   4   7   2 62.6757 1.65113   1 
   5   7   2 24.2471 1.72304   1 
   6   7   2 295.542 5.03252   1 
   7   7   2 42.0351 2.70428   1 
  -5   8   2 23.8242 1.93814   1 
  -4   8   2 0.47884 0.70259   1 
  -3   8   2 378.390 5.44050   1 
  -2   8   2 228.621 3.75317   1 
  -1   8   2 86.7793 1.64559   1 
   0   8   2 859.371 6.91878   1 
   1   8   2 92.1347 1.66834   1 
   1  -7   5 615.070 21.2264  -2 
   2   8   2 615.070 21.2264   1 
   3   8   2 466.917 4.67805   1 
   4   8   2 357.690 4.47820   1 
   5   8   2 4.96894 1.05345   1 
   6   8   2 53.7391 2.84527   1 
  -5   9   2 35.1033 2.39885   1 
  -4   9   2 -0.3380 0.74760   1 
  -3   9   2 422.297 6.44396   1 
  -3   8   1 582.810 14.6185  -2 
  -2   9   2 582.810 14.6185   1 
  -1   9   2 6.70412 0.72284   1 
   2  -8   2 206.976 3.25252  -2 
   0   9   2 206.976 3.25252   1 
   1   9   2 1214.56 8.64272   1 
   2   9   2 433.975 4.39362   1 
   3   9   2 3.07019 0.59838   1 
   4   9   2 35.9714 1.87986   1 
   5   9   2 15.3447 1.51098   1 
   6   9   2 72.3801 3.46128   1 
  -4  10   2 0.80295 0.94115   1 
  -3  10   2 0.43759 0.78857   1 
  -3   9   1 222.567 4.87075  -2 
  -2  10   2 222.567 4.87075   1 
  -1  10   2 7.51070 0.87926   1 
   0  10   2 130.196 2.34526   1 
   1  10   2 39.6119 1.75516   1 
   2  10   2 27.2336 1.51586   1 
   3  10   2 125.080 2.51646   1 
   4  10   2 43.7110 2.19202   1 
   5  10   2 3.74615 1.07228   1 
  -3  11   2 579.313 8.61224   1 
  -2  11   2 81.2066 3.39449   1 
  -1  11   2 75.9997 2.62400   1 
   0  11   2 170.657 3.21333   1 
   1  11   2 390.583 5.30282   1 
   2  11   2 128.072 2.88962   1 
   3  11   2 114.299 2.81081   1 
   4  11   2 247.039 4.76290   1 
   5  11   2 21.2791 1.96359   1 
  -2  12   2 291.256 5.87488   1 
  -1  12   2 -0.6967 0.76429   1 
   0  12   2 8.60887 1.18972   1 
   1  12   2 424.171 6.18375   1 
   2  12   2 21.9943 1.62159   1 
   3  12   2 160.667 3.92646   1 
   4  12   2 15.6557 1.59855   1 
   0  13   2 159.840 4.35144   1 
   1  13   2 35.7988 2.02938   1 
   2  13   2 16.1391 1.73931   1 
  -1 -13   3 0.66755 1.99265  -2 
  -2 -13   3 0.66755 1.99265   1 
  -1 -13   3 0.22893 0.88711   1 
   0  13   0 863.984 28.7489  -2 
   0 -13   3 863.984 28.7489   1 
  -2 -12   6 171.094 5.90524  -2 
  -4 -12   3 171.094 5.90524   1 
  -3 -12   3 51.7403 2.51841   1 
  -1 -12   3 408.990 6.13750  -2 
  -2 -12   3 408.990 6.13750   1 
  -1 -12   3 1.40205 0.82674   1 
   0 -12   3 137.827 3.53900   1 
   1 -12   3 104.828 3.22448   1 
   2 -12   3 10.6998 1.49843   1 
  -5 -11   3 111.975 3.61069   1 
  -2 -11   6 38.6904 2.43784  -2 
  -4 -11   3 38.6904 2.43784   1 
  -3 -11   3 11.2821 1.31947   1 
  -1 -11   3 62.2740 6.93373  -2 
  -2 -11   3 62.2740 6.93373   1 
  -1 -11   3 28.5352 1.75733   1 
   0 -11   3 77.6038 2.83014   1 
   1 -11   3 77.8346 2.95333   1 
   2 -11   3 57.7440 2.54276   1 
   3 -11   3 125.159 3.59568   1 
  -5 -10   3 -0.0361 0.83246   1 
  -4 -10   3 152.663 3.49841   1 
  -3 -10   3 100.718 2.65429   1 
  -2 -10   3 367.612 4.36237   1 
  -1 -10   3 35.3077 1.59467   1 
   0 -10   3 -0.0662 0.54070   1 
   1 -10   3 29.2021 1.71468   1 
   2 -10   3 117.520 2.88018   1 
  -1  11   5 170.548 7.34613  -2 
   3 -10   3 170.548 7.34613   1 
   4 -10   3 248.297 5.26823   1 
  -6  -9   3 200.561 4.35309   1 
  -5  -9   3 960.309 11.1118   1 
  -4  -9   3 332.079 5.45567   1 
  -3  -9   3 45.9177 1.94021   1 
  -2  -9   3 785.661 6.62036   1 
  -1  -9   3 117.015 2.11058   1 
   0  -9   3 39.1431 1.50739   1 
   1  -9   3 138.489 2.67801   1 
   2  -9   3 27.3216 1.46556   1 
  -1  10   5 300.517 5.03611  -2 
   3  -9   3 300.517 5.03611   1 
   4  -9   3 -0.4034 0.86103   1 
   5  -9   3 48.1123 3.06244   1 
  -6  -8   3 148.000 3.34731   1 
  -3  -8   7 528.459 6.65445  -2 
  -5  -8   3 528.459 6.65445   1 
  -4  -8   3 320.553 4.58672   1 
  -2  -8   4 197.759 3.22007  -2 
  -3  -8   3 197.759 3.22007   1 
  -2  -8   3 161.774 2.23569   1 
  -1  -8   3 615.828 5.13813   1 
   0  -8   3 19.7090 0.97782   1 
   1  -8   3 88.5669 1.82445   1 
   2  -8   3 0.90482 0.53691   1 
   3  -8   3 56.5461 2.02924   1 
   4  -8   3 383.763 5.40278   1 
   5  -8   3 36.1276 2.63628   1 
  -4  -7  10 6.64466 1.83802  -2 
  -7  -7   3 6.64466 1.83802   1 
  -6  -7   3 182.214 3.52886   1 
  -3  -7   7 323.079 4.66396  -2 
  -5  -7   3 323.079 4.66396   1 
  -4  -7   3 213.804 3.43462   1 
  -3  -7   3 878.849 8.28416   1 
  -2  -7   3 1774.99 11.2732   1 
  -1  -7   3 289.128 2.86864   1 
   0  -7   3 31.8596 1.02141   1 
   1  -7   3 2617.03 16.8321   1 
   2  -7   3 1113.52 8.56518   1 
   3  -7   3 72.8951 1.95058   1 
   4  -7   3 6.24847 0.95021   1 
   5  -7   3 386.706 6.80392   1 
   6  -7   3 74.4592 4.10761   1 
  -4  -6  10 255.337 5.35092  -2 
  -7  -6   3 255.337 5.35092   1 
  -6  -6   3 130.587 2.79789   1 
  -3  -6   7 786.191 10.2569  -2 
  -5  -6   3 786.191 10.2569   1 
  -4  -6   3 8.45428 0.82959   1 
  -3  -6   3 3.05359 0.56920   1 
  -2  -6   3 941.096 5.77726   1 
  -1  -6   3 854.303 5.36321   1 
   0  -6   3 150.836 1.73959   1 
   1  -6   3 4.95145 0.49064   1 
   2  -6   3 862.245 6.44570   1 
   3  -6   3 126.254 2.27651   1 
   4  -6   3 80.9279 2.39121   1 
   5  -6   3 13.7577 1.59963   1 
   6  -6   3 27.7651 2.42109   1 
  -7  -5   3 12.8361 1.27920   1 
  -6  -5   3 0.91590 0.59372   1 
  -5  -5   3 3.52661 0.55912   1 
  -4  -5   3 66.0797 1.56698   1 
  -3  -5   3 2203.01 15.2358   1 
  -2  -5   3 93.4923 1.30158   1 
  -1  -5   3 79.6192 1.08807   1 
   0  -5   3 1250.69 7.44088   1 
   1  -5   3 4728.83 23.8679   1 
   0   6   4 752.938 12.6449  -2 
   2  -5   3 752.938 12.6449   1 
   3  -5   3 125.854 2.17574   1 
  -1   6   7 363.713 13.7409  -2 
   4  -5   3 363.713 13.7409   1 
   5  -5   3 325.871 5.77659   1 
   6  -5   3 27.0179 2.17264   1 
  -7  -4   3 4.88422 1.13453   1 
  -6  -4   3 28.7516 1.46497   1 
  -5  -4   3 543.056 5.30630   1 
  -4  -4   3 83.1605 1.51379   1 
  -3  -4   3 15.5600 0.65359   1 
  -2  -4   3 2261.00 13.3017   1 
  -1  -4   3 955.545 5.26751   1 
   0  -4   3 206.600 1.83875   1 
   1  -4   3 957.577 5.90637   1 
   0   5   4 722.528 9.15863  -2 
   2  -4   3 722.528 9.15863   1 
   3  -4   3 35.4667 1.27152   1 
   4  -4   3 1130.80 8.51228   1 
   5  -4   3 715.096 9.10649   1 
   6  -4   3 5.06300 1.20403   1 
   7  -4   3 153.841 4.81943   1 
  -7  -3   3 75.4028 2.40973   1 
  -4  -3   8 163.238 3.18648  -2 
  -6  -3   3 163.238 3.18648   1 
  -5  -3   3 6.66025 0.59914   1 
  -4  -3   3 91.7047 1.26609   1 
  -3  -3   3 268.885 2.23261   1 
  -2  -3   3 314.806 2.59555   1 
  -1  -3   3 167.535 1.51012   1 
   0  -3   3 248.585 1.93833   1 
   1  -3   3 373.286 2.91978   1 
   2  -3   3 67.8777 1.20415   1 
   3  -3   3 248.454 2.59450   1 
   4  -3   3 1945.48 12.9811   1 
   5  -3   3 40.3787 2.20599   1 
   6  -3   3 2.96232 1.07439   1 
   7  -3   3 90.1224 3.91009   1 
  -7  -2   3 393.386 5.45793   1 
  -4  -2   8 311.678 5.37760  -2 
  -6  -2   3 311.678 5.37760   1 
  -5  -2   3 136.637 2.25141   1 
  -4  -2   3 231.515 2.38770   1 
  -3  -2   3 556.261 4.25296   1 
  -2  -2   3 232.695 1.89021   1 
  -1  -2   3 2040.77 10.9972   1 
   0  -2   3 5675.79 27.4953   1 
   1  -2   3 763.492 4.92202   1 
   2  -2   3 347.076 2.92285   1 
   3  -2   3 2.60011 0.41432   1 
   4  -2   3 772.625 5.96820   1 
   5  -2   3 1164.40 12.8345   1 
   6  -2   3 33.2626 2.53609   1 
   7  -2   3 20.1993 1.98720   1 
  -7  -1   3 -0.1922 0.72100   1 
  -6  -1   3 1.71692 0.61723   1 
  -5  -1   3 678.785 6.04582   1 
  -4  -1   3 125.770 1.77553   1 
  -3  -1   3 79.9847 1.33193   1 
  -2  -1   3 456.175 3.72317   1 
  -1  -1   3 69.7412 0.69230   1 
   0  -1   3 7646.21 34.8524   1 
   1  -1   3 157.728 1.58003   1 
   2  -1   3 1457.30 8.59418   1 
   3  -1   3 121.136 1.59813   1 
   4  -1   3 282.999 2.91882   1 
   5  -1   3 1.12074 0.84567   1 
   6  -1   3 1.05646 0.80310   1 
   7  -1   3 0.80288 0.98966   1 
  -7   0   3 294.144 6.42252   1 
  -6   0   3 22.7560 1.45716   1 
  -5   0   3 84.0761 1.79466   1 
  -4   0   3 864.987 11.2162   1 
  -3   0   3 415.925 4.80970   1 
  -2   0   3 66.6696 1.43284   1 
  -1   0   3 3833.57 19.3590   1 
   0   0   3 0.17209 0.14579   1 
   1   1   3 3875.11 36.0572  -2 
   1   0   3 3875.11 36.0572   1 
   2   0   3 64.6790 1.06590   1 
   3   0   3 400.702 3.20816   1 
   4   0   3 858.079 6.12758   1 
   5   0   3 89.3606 2.35590   1 
   6   0   3 23.0834 1.87243   1 
   7   0   3 305.109 5.81482   1 
  -7   1   3 -0.8617 1.07458   1 
  -6   1   3 1.23459 0.72228   1 
  -5   1   3 0.96282 0.54784   1 
  -4   1   3 287.336 3.38149   1 
  -3   1   3 130.250 1.83793   1 
  -2   1   3 1538.19 10.5226   1 
  -1   1   3 159.487 1.16447   1 
   0   1   3 7743.66 33.0276   1 
   1   1   3 67.1820 0.89395   1 
   2   1   3 451.257 3.17950   1 
   3   1   3 79.1427 1.22068   1 
   4   1   3 119.285 1.73161   1 
   5   1   3 667.876 6.80304   1 
   6   1   3 1.65586 0.88589   1 
   7   1   3 0.38615 0.84927   1 
  -5   2   9 510.303 17.2538  -2 
  -7   2   3 510.303 17.2538   1 
  -6   2   3 30.5206 2.05746   1 
  -5   2   3 1180.99 10.5782   1 
  -4   2   3 794.641 6.33450   1 
  -3   2   3 3.32792 0.32174   1 
  -2   2   3 362.668 2.32742   1 
  -1   2   3 779.002 4.20914   1 
   0   2   3 5725.36 25.8895   1 
   1   2   3 2069.92 10.0620   1 
   2   2   3 228.753 2.05430   1 
   3   2   3 556.789 4.18466   1 
   4   2   3 232.396 2.53433   1 
   5   2   3 130.439 2.75094   1 
   6   2   3 160.710 3.54243   1 
   7   2   3 398.984 6.67248   1 
  -7   3   3 92.0434 3.41774   1 
  -6   3   3 2.32823 0.90463   1 
  -5   3   3 45.1781 1.44636   1 
  -4   3   3 1983.98 13.6275   1 
  -3   3   3 243.084 2.14420   1 
  -2   3   3 71.5015 0.93055   1 
  -1   3   3 379.683 2.48454   1 
   0   3   3 249.789 1.85877   1 
   1   3   3 167.313 1.46106   1 
   2   3   3 319.779 2.47749   1 
   3   3   3 268.167 2.44921   1 
   4   3   3 88.7639 1.56291   1 
   5   3   3 5.14873 0.75779   1 
   6   3   3 15.0569 1.45155   1 
   7   3   3 74.0553 3.06267   1 
  -7   4   3 164.258 4.84716   1 
  -6   4   3 5.48742 1.01039   1 
  -5   4   3 734.740 7.57390   1 
  -4   4   3 1134.19 10.1939   1 
  -3   4   3 36.5658 0.95687   1 
  -2   4   3 433.976 3.19637   1 
  -1   4   3 983.589 5.73258   1 
   0   4   3 213.242 1.82365   1 
   1   4   3 971.199 5.81372   1 
   2   4   3 2281.24 12.2231   1 
   3   4   3 15.6343 0.71686   1 
   4   4   3 81.4348 1.50183   1 
   5   4   3 544.278 5.93958   1 
   6   4   3 26.3484 1.67926   1 
   7   4   3 4.59617 1.19567   1 
  -6   5   3 24.3914 1.83778   1 
  -5   5   3 327.013 4.59465   1 
  -4   5   3 351.297 4.53431   1 
  -3   5   3 135.191 2.40462   1 
  -3   4   1 479.162 10.0125  -2 
  -2   5   3 479.162 10.0125   1 
  -1   5   3 4690.55 23.3076   1 
   0   5   3 1275.80 7.39307   1 
   1   5   3 77.7520 1.13384   1 
   2   5   3 96.1469 1.41687   1 
   3   5   3 2242.76 12.6471   1 
   4   5   3 65.5042 1.48210   1 
   5   5   3 3.85414 0.61880   1 
   6   5   3 1.56266 0.83820   1 
   7   5   3 13.7975 1.67680   1 
  -6   6   3 24.4867 1.92926   1 
  -5   6   3 12.2799 1.16372   1 
  -4   5   4 89.2258 6.43463  -2 
  -4   6   3 89.2258 6.43463   1 
  -3   6   3 129.396 2.38394   1 
  -3   5   1 854.046 26.3175  -2 
  -2   6   3 854.046 26.3175   1 
  -1   6   3 5.09996 0.46411   1 
   0   6   3 155.575 1.80213   1 
   1   6   3 867.145 5.83845   1 
   2   6   3 931.495 6.25947   1 
   3   6   3 3.99373 0.53527   1 
   4   6   3 9.37950 0.75180   1 
   5   6   3 781.197 7.45812   1 
   6   6   3 128.122 3.45062   1 
   7   6   3 32.8730 2.33319   1 
  -6   7   3 69.1266 2.97145   1 
  -5   7   3 371.419 5.51494   1 
  -4   7   3 6.46580 0.88869   1 
  -3   7   3 75.9020 2.15444   1 
  -2   7   3 1091.80 9.72152   1 
  -1   7   3 2652.00 16.5637   1 
   0   7   3 29.3956 1.08559   1 
   1   7   3 294.318 2.93637   1 
   2   7   3 1824.33 12.1756   1 
   3   7   3 890.333 7.35594   1 
   4   7   3 219.100 3.04073   1 
   5   7   3 230.962 3.48837   1 
   6   7   3 174.682 4.44027   1 
   7   7   3 0.18094 1.04739   1 
  -5   8   3 33.3853 2.05369   1 
  -4   8   3 374.317 5.57450   1 
  -3   8   3 56.3685 2.37895   1 
  -2   8   3 0.03447 0.44921   1 
  -1   8   3 92.2751 1.74549   1 
   0   8   3 19.6402 1.02923   1 
   1   8   3 624.430 5.37181   1 
   2   8   3 162.493 2.34903   1 
   3   8   3 190.550 2.94794   1 
   4   8   3 323.153 4.09656   1 
   5   8   3 132.916 2.96861   1 
   6   8   3 144.996 4.14775   1 
  -5   9   3 47.8734 2.73657   1 
  -4   9   3 1.40112 0.85772   1 
  -4   8   2 42.9772 3.51562  -2 
  -3   9   3 42.9772 3.51562   1 
  -2   9   3 31.5848 1.99063   1 
  -1   9   3 144.087 2.37257   1 
   0   9   3 36.5851 1.38907   1 
   1   9   3 120.277 2.27977   1 
   2   9   3 789.654 7.19919   1 
   3   9   3 46.9070 1.80670   1 
   4   9   3 327.084 4.49660   1 
   5   9   3 946.858 10.1139   1 
   6   9   3 199.799 4.78754   1 
  -4  10   3 238.496 5.03017   1 
  -4   9   2 95.1509 3.49208  -2 
  -3  10   3 95.1509 3.49208   1 
  -2  10   3 115.818 3.23606   1 
  -1  10   3 30.6850 1.55745   1 
   0  10   3 -0.2590 0.42094   1 
   1  10   3 31.9535 1.48755   1 
   2  10   3 358.312 4.64003   1 
   3  10   3 100.821 2.28747   1 
   4  10   3 143.690 3.33277   1 
   5  10   3 0.63793 0.79087   1 
  -3  11   3 120.586 3.73600   1 
  -2  11   3 54.9709 2.86188   1 
  -1  11   3 75.7613 2.39679   1 
   0  11   3 77.3309 2.30340   1 
   1  11   3 27.0932 1.51181   1 
   2  11   3 47.6722 2.08365   1 
   3  11   3 10.7401 1.13892   1 
   4  11   3 40.7150 2.60015   1 
   5  11   3 103.941 4.28652   1 
  -2  12   3 9.00735 1.46666   1 
  -1  12   3 101.772 3.31713   1 
   0  12   3 135.627 3.35389   1 
   1  12   3 1.42364 0.78193   1 
   2  12   3 374.314 5.46060   1 
   3  12   3 55.3456 2.64941   1 
   4  12   3 40.8635 2.64757   1 
   0  13   3 289.867 5.97700   1 
   1  13   3 -0.3639 0.78815   1 
   2  13   3 0.23268 0.78248   1 
  -3 -12   4 73.6767 3.58835   1 
  -2 -12   4 0.49305 0.80892   1 
  -1 -12   4 98.0464 3.00205   1 
   0 -12   4 0.74635 0.90311   1 
   1 -12   4 5.34492 1.15974   1 
   2 -12   4 175.219 4.35076   1 
  -4 -11   4 384.292 7.25576   1 
  -3 -11   4 143.163 3.55355   1 
  -2 -11   4 1.65175 0.70139   1 
  -1 -11   4 90.3211 2.50285   1 
   0 -11   4 233.897 4.26831   1 
   1 -11   4 15.9685 1.46822   1 
   2 -11   4 4.55002 1.09262   1 
   3 -11   4 212.127 4.96901   1 
  -3 -10   7 159.800 10.3987  -2 
  -5 -10   4 159.800 10.3987   1 
  -4 -10   4 78.9413 3.42436   1 
  -3 -10   4 185.587 3.60947   1 
  -2 -10   4 13.0600 1.05478   1 
  -1 -10   4 128.725 2.62293   1 
   0 -10   4 460.656 5.68541   1 
   1 -10   4 63.5258 2.62708   1 
   2 -10   4 279.331 4.54695   1 
   3 -10   4 0.10715 0.89443   1 
   4 -10   4 115.209 4.06203   1 
  -6  -9   4 87.5702 3.02003   1 
  -5  -9   4 5.18617 1.06124   1 
  -4  -9   4 18.5835 1.50075   1 
  -3  -9   4 80.1665 2.20564   1 
  -2  -9   4 152.953 2.50016   1 
  -1  -9   4 1265.64 9.90544   1 
   0  -9   4 1.92694 0.58986   1 
   1  -9   4 11.6910 1.05137   1 
   0  10   4 652.005 9.52085  -2 
   2  -9   4 652.005 9.52085   1 
   3  -9   4 317.489 4.84820   1 
   4  -9   4 3.38487 1.04842   1 
  -6  -8   4 249.053 4.38836   1 
  -5  -8   4 237.946 4.15640   1 
  -4  -8   4 305.518 4.71275   1 
  -3  -8   4 187.695 3.09472   1 
  -2  -8   4 4.25817 0.57131   1 
  -1  -8   4 836.430 6.48728   1 
   1   9   1 1198.07 16.4829  -2 
   0  -8   4 1198.07 16.4829   1 
   1  -8   4 4.11164 0.69085   1 
   2  -8   4 280.040 3.82186   1 
   3  -8   4 975.407 9.45627   1 
   4  -8   4 45.6488 2.28528   1 
   5  -8   4 22.7245 2.18278   1 
  -4  -7   8 263.975 5.29424  -2 
  -6  -7   4 263.975 5.29424   1 
  -5  -7   4 40.1045 1.88251   1 
  -4  -7   4 73.9711 2.13290   1 
  -3  -7   4 193.281 2.94877   1 
  -2  -7   4 299.108 3.43001   1 
  -1  -7   4 65.9714 1.38799   1 
   0  -7   4 2.32148 0.44833   1 
   1  -7   4 186.404 2.51420   1 
   2  -7   4 261.024 3.67688   1 
   3  -7   4 20.6189 1.29029   1 
   4  -7   4 42.3450 2.09204   1 
   5  -7   4 399.104 7.13975   1 
  -7  -6   4 204.604 4.79684   1 
  -6  -6   4 17.4787 1.28924   1 
  -5  -6   4 2.10186 0.57268   1 
  -4  -6   4 791.893 7.69396   1 
  -3  -6   4 563.493 5.60412   1 
  -2  -6   4 382.004 3.50024   1 
  -1  -6   4 107.962 1.59303   1 
   0  -6   4 377.325 3.19494   1 
   1  -6   4 447.904 3.83808   1 
   2  -6   4 1278.78 9.18998   1 
   3  -6   4 754.716 6.85134   1 
   4  -6   4 273.033 4.16838   1 
   5  -6   4 161.743 4.26878   1 
   6  -6   4 702.604 11.2268   1 
  -7  -5   4 775.185 10.6238   1 
  -6  -5   4 558.234 6.54033   1 
  -5  -5   4 196.011 2.84474   1 
  -4  -5   4 286.826 3.62852   1 
  -3  -5   4 1950.75 14.4817   1 
  -2  -5   4 308.566 2.73597   1 
  -1  -5   4 128.533 1.42713   1 
   0  -5   4 326.863 2.71417   1 
   1  -5   4 80.2803 1.36230   1 
   2  -5   4 10.2312 0.72218   1 
   3  -5   4 80.2033 1.83987   1 
   4  -5   4 2.35885 0.65366   1 
   5  -5   4 1.06491 0.94086   1 
   6  -5   4 0.46235 0.99589   1 
  -7  -4   4 2.39085 0.85096   1 
  -6  -4   4 250.105 4.09079   1 
  -5  -4   4 9.43490 0.77441   1 
  -4  -4   4 465.299 4.45607   1 
  -3  -4   4 354.634 3.10358   1 
  -2  -4   4 8.92103 0.50203   1 
   2   5   0 2278.90 35.0623  -2 
  -1  -4   4 2278.90 35.0623   1 
   0  -4   4 758.907 4.89183   1 
   1  -4   4 216.115 2.17354   1 
   2  -4   4 1188.27 7.54855   1 
   3  -4   4 1054.30 8.03598   1 
   4  -4   4 180.727 2.91977   1 
   5  -4   4 422.083 6.29827   1 
   6  -4   4 311.122 6.15375   1 
  -7  -3   4 104.948 3.12609   1 
  -6  -3   4 2.28844 0.64998   1 
  -5  -3   4 160.098 2.48681   1 
  -4  -3   4 1114.55 8.49512   1 
  -3  -3   4 553.538 4.05896   1 
  -2  -3   4 503.301 3.66104   1 
   2   4   0 1044.48 24.6991  -2 
  -1  -3   4 1044.48 24.6991   1 
   0  -3   4 3759.73 19.3838   1 
   1  -3   4 288.072 2.49066   1 
   2  -3   4 102.137 1.52199   1 
   3  -3   4 1528.76 9.66743   1 
   4  -3   4 188.142 2.78210   1 
   5  -3   4 2.21083 0.75319   1 
   6  -3   4 147.025 4.42302   1 
   7  -3   4 80.0779 3.87966   1 
  -7  -2   4 25.1097 2.25177   1 
  -6  -2   4 15.4133 1.62409   1 
  -5  -2   4 5.81980 1.17262   1 
  -4  -2   4 529.264 8.08304   1 
  -3  -2   4 912.829 7.64665   1 
  -2  -2   4 177.371 1.64518   1 
  -1  -2   4 189.359 1.50319   1 
   0  -2   4 1035.29 5.84057   1 
   1  -2   4 107.866 1.34653   1 
   2  -2   4 608.834 4.37784   1 
   3  -2   4 592.497 4.81623   1 
   4  -2   4 23.4708 1.12307   1 
   5  -2   4 381.869 5.61024   1 
   6  -2   4 185.939 4.51957   1 
   7  -2   4 5.13841 1.32169   1 
  -7  -1   4 19.1274 2.06820   1 
  -6  -1   4 232.231 8.69122   1 
  -5  -1   4 37.3852 3.87516   1 
  -4  -1   4 462.400 9.50739   1 
  -3  -1   4 0.46364 0.37794   1 
  -2  -1   4 85.8990 1.02482   1 
  -1  -1   4 1623.10 8.71118   1 
   0  -1   4 88.6117 0.91893   1 
   1  -1   4 19.6827 0.67526   1 
   2  -1   4 349.456 2.93610   1 
   3  -1   4 183.278 2.13925   1 
   4  -1   4 3.69299 0.58341   1 
   5  -1   4 117.362 2.32295   1 
   6  -1   4 800.599 9.66537   1 
   7  -1   4 93.8150 3.93981   1 
  -7   0   4 -0.1208 2.02791   1 
  -6   0   4 3.23476 2.08220   1 
  -5   0   4 200.214 7.36370   1 
  -4   0   4 3.65028 0.94751   1 
  -3   0   4 253.558 3.56401   1 
  -2   0   4 14.2219 0.53593   1 
  -1   0   4 0.24158 0.16854   1 
   0   0   4 2722.47 13.3501   1 
   1   0   4 0.13459 0.24684   1 
   2   0   4 14.1652 0.62312   1 
   3   0   4 248.343 2.56202   1 
   4   0   4 3.28635 0.52805   1 
   5   0   4 198.248 2.91575   1 
   6   0   4 5.54021 1.14633   1 
   7   0   4 0.63461 0.96474   1 
  -7   1   4 93.6705 5.51992   1 
  -6   1   4 850.365 19.3174   1 
  -5   1   4 120.266 4.42508   1 
  -4   0   4 6.69260 1.32376  -2 
  -4   1   4 6.69260 1.32376   1 
  -3   1   4 192.506 3.04020   1 
  -2   1   4 363.922 3.16135   1 
  -1   1   4 20.3556 0.48707   1 
   0   1   4 90.3652 0.90055   1 
   1   1   4 1643.48 9.74999   1 
   2   1   4 86.7538 1.28983   1 
   3   1   4 0.17137 0.30626   1 
   4   1   4 439.813 4.10493   1 
   5   1   4 29.9705 1.31217   1 
   6   1   4 226.924 4.76086   1 
   7   1   4 15.7218 1.76258   1 
  -7   2   4 6.29268 1.62857   1 
  -6   2   4 181.326 4.59683   1 
  -5   2   4 391.094 8.75516   1 
  -4   1   4 24.2983 2.79650  -2 
  -4   2   4 24.2983 2.79650   1 
  -3   2   4 624.053 5.53655   1 
  -2   2   4 619.970 3.96548   1 
  -1   2   4 111.180 1.11932   1 
   0   2   4 1050.56 5.31405   1 
   1   2   4 194.218 1.77785   1 
   2   2   4 179.011 1.87650   1 
   3   2   4 919.924 5.79998   1 
   4   2   4 530.147 4.65491   1 
   5   2   4 7.85199 0.78581   1 
   6   2   4 20.2858 1.69682   1 
   7   2   4 22.7341 2.04880   1 
  -7   3   4 84.5043 4.10569   1 
  -6   3   4 159.103 4.48149   1 
  -5   3   4 1.71125 0.74631   1 
  -4   3   4 194.974 2.60176   1 
  -3   3   4 1562.64 9.66664   1 
  -2   3   4 105.843 1.15971   1 
  -1   3   4 292.310 2.09076   1 
   0   3   4 3739.65 17.3423   1 
   1   3   4 498.539 3.47761   1 
   2   3   4 503.612 3.61216   1 
   3   3   4 548.856 4.21519   1 
   4   3   4 1101.20 8.16864   1 
   5   3   4 159.876 2.66460   1 
   6   3   4 2.56126 0.95108   1 
   7   3   4 101.117 3.32205   1 
  -6   4   4 327.143 5.87607   1 
  -5   4   4 415.179 5.87617   1 
  -4   4   4 181.941 2.53212   1 
  -3   4   4 1079.62 8.36953   1 
  -2   4   4 1204.33 7.36770   1 
  -1   4   4 220.248 1.93742   1 
   0   4   4 781.482 4.78934   1 
   1   4   4 2225.61 11.9422   1 
   2   4   4 9.84332 0.56545   1 
   3   4   4 354.316 3.10787   1 
   4   4   4 468.488 4.34192   1 
   5   4   4 9.44734 0.86632   1 
   6   4   4 259.344 4.80440   1 
   7   4   4 3.33872 1.11412   1 
  -6   5   4 -0.3611 0.89022   1 
  -5   5   4 1.24970 0.66335   1 
  -4   5   4 3.81872 0.60751   1 
  -3   5   4 84.7302 1.87505   1 
  -2   5   4 11.5978 0.80458   1 
  -1   5   4 80.7106 1.25745   1 
   0   5   4 327.077 2.62455   1 
   1   5   4 130.738 1.64618   1 
   2   5   4 315.202 2.95613   1 
   3   5   4 1979.68 11.8275   1 
   4   5   4 281.747 3.31897   1 
   5   5   4 195.125 3.08563   1 
   6   5   4 570.644 7.50434   1 
   7   5   4 766.605 11.3381   1 
  -6   6   4 698.485 9.39042   1 
  -5   5   5 365.938 5.22239  -2 
  -5   6   4 365.938 5.22239   1 
  -4   6   4 266.630 3.97478   1 
  -3   6   4 750.272 7.69785   1 
  -2   6   4 1276.23 10.7016   1 
  -1   6   4 445.945 4.10121   1 
   0   6   4 376.714 3.28160   1 
   1   6   4 113.883 1.64581   1 
   2   6   4 387.426 3.58516   1 
   3   6   4 570.826 5.13540   1 
   4   6   4 792.289 6.89131   1 
   5   6   4 2.96746 0.69526   1 
   6   6   4 17.1672 1.66635   1 
   7   6   4 209.163 5.42158   1 
  -5   7   4 406.768 5.72917   1 
  -4   7   4 44.3727 1.98758   1 
  -3   7   4 19.1971 1.25970   1 
  -2   7   4 257.768 3.64233   1 
  -1   7   4 191.897 2.74825   1 
   0   7   4 1.83131 0.43806   1 
   1   7   4 66.1524 1.50586   1 
   2   7   4 298.641 3.15447   1 
   3   7   4 198.277 2.76297   1 
   4   7   4 78.6210 1.92793   1 
   5   7   4 39.0333 1.87170   1 
   6   7   4 231.282 5.33925   1 
  -5   8   4 22.3834 1.73569   1 
  -4   8   4 43.8074 2.19329   1 
  -3   8   4 982.322 9.54573   1 
  -2   8   4 274.630 4.00896   1 
  -1   8   4 3.94727 0.58586   1 
   0   8   4 1153.12 8.77268   1 
   1   8   4 834.811 6.95552   1 
   2   8   4 3.61846 0.63906   1 
   3   8   4 193.874 3.08442   1 
   4   8   4 311.363 4.13905   1 
   5   8   4 247.393 4.09363   1 
   6   8   4 243.347 5.59288   1 
  -4   9   4 3.17164 0.95132   1 
  -3   9   4 313.086 5.31710   1 
  -2   9   4 224.734 3.75736   1 
  -1   9   4 10.2084 0.86718   1 
   0   9   4 1.57011 0.48680   1 
   1   9   4 1263.22 9.75794   1 
   2   9   4 155.178 2.84934   1 
   3   9   4 81.9328 2.33474   1 
   4   9   4 22.4591 1.47199   1 
   5   9   4 2.92241 0.94525   1 
   6   9   4 88.6516 3.75520   1 
  -4  10   4 110.418 3.48409   1 
  -3  10   4 -0.7344 0.76764   1 
  -2  10   4 264.772 5.00693   1 
  -1  10   4 64.1864 2.32445   1 
   0  10   4 463.301 5.22811   1 
   1  10   4 139.875 2.55506   1 
   2  10   4 10.3313 1.04278   1 
   3  10   4 173.526 3.60206   1 
   4  10   4 88.5504 2.95281   1 
   5  10   4 -0.0516 0.91061   1 
  -3  11   4 209.068 4.77471   1 
  -2  11   4 4.49215 1.07626   1 
  -1  11   4 15.0632 1.36463   1 
   0  11   4 240.833 3.69700   1 
   1  11   4 89.1645 2.37908   1 
   2  11   4 1.42276 0.67930   1 
   3  11   4 132.454 2.92507   1 
   4  11   4 387.036 6.83012   1 
  -2  12   4 176.252 4.51540   1 
  -1  12   4 4.52380 1.07612   1 
   0  12   4 1.25198 0.78068   1 
   1  12   4 97.0703 2.62424   1 
   2  12   4 0.69661 0.72529   1 
   3  12   4 69.0540 2.70993   1 
  -3 -12   5 26.8937 2.50673   1 
  -2 -12   5 132.769 3.95790   1 
  -1 -12   5 1.10358 0.93319   1 
   1  13   1 21.5997 4.34523  -2 
   0 -12   5 21.5997 4.34523   1 
   1 -12   5 262.151 5.28054   1 
  -4 -11   5 38.2330 2.58321   1 
  -3 -11   5 74.5599 3.44287   1 
  -2 -11   5 1.24707 0.83783   1 
  -1 -11   5 16.9619 1.47417   1 
   0 -11   5 34.5964 2.04366   1 
   1 -11   5 80.5461 3.37641   1 
   2 -11   5 14.9358 1.69445   1 
  -5 -10   5 85.3366 3.36596   1 
  -4 -10   5 2.75822 1.00038   1 
  -3 -10   5 36.8970 2.09084   1 
  -2 -10   5 4.31226 0.87107   1 
  -1 -10   5 3.49639 0.74613   1 
   0 -10   5 208.184 3.72160   1 
   1 -10   5 277.325 4.95546   1 
   2 -10   5 32.5255 2.21867   1 
   3 -10   5 0.04661 0.86419   1 
  -5  -9   5 716.105 9.14851   1 
  -4  -9   5 109.163 2.99626   1 
  -3  -9   5 2.08403 0.74390   1 
  -2  -9   5 863.489 8.53714   1 
  -1  -9   5 220.867 3.35471   1 
   0  -9   5 1.48858 0.61567   1 
   1  -9   5 1.39938 0.73361   1 
   2  -9   5 0.65583 0.78578   1 
   3  -9   5 4.37780 0.93708   1 
   4  -9   5 34.9382 2.44850   1 
  -6  -8   5 25.8167 1.72468   1 
  -5  -8   5 10.2003 1.12952   1 
  -4  -8   5 39.7302 2.07648   1 
  -3  -8   5 155.087 3.08338   1 
  -2  -8   5 26.1109 1.45373   1 
   2   9   0 693.061 21.4706  -2 
  -1  -8   5 693.061 21.4706   1 
   0  -8   5 64.5988 1.95893   1 
   1  -8   5 267.235 3.86880   1 
   2  -8   5 4.79806 0.92029   1 
   3  -8   5 7.87308 1.10146   1 
   4  -8   5 263.257 4.99661   1 
   5  -8   5 63.9596 3.56173   1 
  -6  -7   5 528.626 7.31986   1 
  -5  -7   5 134.659 2.78481   1 
  -4  -7   5 39.9134 1.93348   1 
  -3  -7   5 200.879 3.32865   1 
  -2  -7   5 2623.59 19.4110   1 
  -1  -7   5 917.230 7.06559   1 
   0  -7   5 12.2676 0.87012   1 
   1  -7   5 520.159 5.32223   1 
   2  -7   5 429.779 4.89116   1 
   3  -7   5 4.82423 0.82930   1 
   4  -7   5 54.5057 2.43840   1 
   5  -7   5 177.175 4.39087   1 
  -6  -6   5 127.700 2.99592   1 
  -5  -6   5 489.961 5.35749   1 
  -4  -6   5 9.77486 0.91585   1 
  -3  -6   5 25.5892 1.21962   1 
  -2  -6   5 630.630 5.84996   1 
  -1  -6   5 338.070 3.34659   1 
   0  -6   5 220.631 2.63284   1 
   1  -6   5 41.3142 1.40923   1 
   2  -6   5 1158.96 8.39511   1 
   3  -6   5 35.0490 1.62006   1 
   4  -6   5 418.565 5.08583   1 
   5  -6   5 41.8092 2.17054   1 
   6  -6   5 8.42788 1.55704   1 
  -7  -5   5 2.82646 0.97620   1 
  -6  -5   5 126.100 2.94642   1 
  -5  -5   5 5.40556 0.69722   1 
  -4  -5   5 74.5020 1.76574   1 
  -3  -5   5 686.343 6.31767   1 
  -2  -5   5 163.007 2.21974   1 
  -1  -5   5 0.63416 0.26132   1 
   0  -5   5 838.254 5.64318   1 
   1  -5   5 2092.66 12.0012   1 
   2  -5   5 7.82054 0.70825   1 
   3  -5   5 116.264 2.31923   1 
   4  -5   5 593.677 6.08562   1 
   5  -5   5 221.861 4.03231   1 
   6  -5   5 2.58254 1.16850   1 
  -7  -4   5 24.5227 2.23589   1 
  -6  -4   5 26.6743 1.72522   1 
  -5  -4   5 89.9233 2.17830   1 
  -4  -4   5 271.999 3.07714   1 
  -3  -4   5 683.904 5.68592   1 
  -2  -4   5 1684.81 10.9317   1 
  -1  -4   5 14.6145 0.65488   1 
   0  -4   5 15.8084 0.66425   1 
   1  -4   5 2052.35 11.7569   1 
   2  -4   5 1631.21 10.5555   1 
   3  -4   5 60.6852 1.83592   1 
   4  -4   5 107.605 2.31931   1 
   5  -4   5 238.016 3.92865   1 
   6  -4   5 36.6755 2.88170   1 
  -7  -3   5 73.2818 3.63563   1 
  -6  -3   5 1.30051 0.82136   1 
  -5  -3   5 2.87710 0.99310   1 
  -4  -4   4 657.881 21.7311  -2 
  -4  -3   5 657.881 21.7311   1 
  -3  -3   5 25.1889 0.73852   1 
  -2  -3   5 111.716 1.40967   1 
  -1  -3   5 27.3134 0.69869   1 
   0  -3   5 0.66317 0.26800   1 
   1  -3   5 74.0599 1.31529   1 
   2  -3   5 8.50286 0.63146   1 
   3  -3   5 201.388 2.62651   1 
   4  -3   5 839.791 7.14499   1 
   5  -3   5 21.6583 1.44116   1 
   6  -3   5 4.02925 1.30930   1 
  -7  -2   5 170.721 12.6637   1 
  -6  -2   5 -2.7537 2.01330   1 
  -5  -2   5 12.0883 2.90612   1 
  -4  -2   5 101.216 2.81946   1 
  -3  -2   5 43.8145 0.97981   1 
  -2  -2   5 659.508 4.35205   1 
  -1  -2   5 49.8105 0.83773   1 
   0  -2   5 944.087 5.57025   1 
   1  -2   5 1070.22 6.81090   1 
   2  -2   5 1305.83 8.10028   1 
   3  -2   5 16.7795 0.90465   1 
   4  -2   5 182.242 2.73486   1 
   5  -2   5 466.237 5.65510   1 
   6  -2   5 87.1111 3.81688   1 
   7  -2   5 90.8241 4.58440   1 
  -7  -1   5 35.3084 7.19957   1 
  -6  -1   5 10.0380 4.19786   1 
  -5  -1   5 1526.28 24.1585   1 
  -4  -1   5 330.360 7.68399   1 
  -3  -1   5 318.928 3.79095   1 
  -2  -1   5 0.24959 0.18650   1 
  -1  -1   5 241.552 2.01212   1 
   0  -1   5 117.387 1.10708   1 
   1  -1   5 391.696 3.03191   1 
   2  -1   5 22.3612 0.82670   1 
   3  -1   5 4.51116 0.52163   1 
   4  -1   5 -0.0925 0.46158   1 
   5  -1   5 342.191 4.04343   1 
   6  -1   5 2.47297 1.00127   1 
   7  -1   5 112.582 4.54912   1 
  -7   0   5 123.166 10.4049   1 
  -6   0   5 0.57587 2.69286   1 
  -5   0   5 310.716 9.48709   1 
  -4   0   5 721.304 10.8031   1 
  -3   0   5 26.0003 1.37488   1 
  -2   0   5 1.80672 0.28524   1 
  -1   0   5 3168.67 16.0118   1 
   0   0   5 14.6961 0.97762   1 
   1   0   5 3154.18 16.5930   1 
   2   0   5 1.58248 0.34048   1 
   3   0   5 24.8773 1.00157   1 
   4   0   5 703.469 5.89148   1 
   5   0   5 280.830 3.67750   1 
   6   0   5 0.18202 0.87650   1 
   7   0   5 107.062 4.49050   1 
  -6   1   5 8.56084 3.80064   1 
  -5   1   5 343.136 10.1291   1 
  -4   1   5 0.34246 0.77011   1 
  -3   1   5 4.76497 0.58273   1 
  -2   1   5 23.4336 0.65864   1 
  -1   1   5 391.223 2.66573   1 
   0   1   5 119.112 1.20936   1 
   1   1   5 239.678 2.37395   1 
   2   1   5 0.31808 0.28814   1 
   3   1   5 317.586 3.05838   1 
   4   1   5 323.649 3.65591   1 
   5   1   5 1493.60 11.3463   1 
   6   1   5 15.4907 1.66410   1 
   7   1   5 41.2721 3.07394   1 
  -6   2   5 92.7604 5.66330   1 
  -5   2   5 491.112 10.1663   1 
  -4   2   5 201.299 5.48467   1 
  -3   2   5 17.0476 0.66470   1 
  -2   2   5 1311.39 7.28922   1 
  -1   2   5 1052.08 5.83072   1 
   0   2   5 952.656 5.13279   1 
   1   2   5 48.6619 0.94022   1 
   2   2   5 670.045 4.74947   1 
   3   2   5 48.5706 1.41023   1 
   4   2   5 97.0458 1.84659   1 
   5   2   5 13.5814 1.05502   1 
   6   2   5 1.12038 0.92208   1 
   7   2   5 171.148 4.59536   1 
  -6   3   5 6.96131 3.46466   1 
  -5   3   5 26.3614 1.71379   1 
  -4   3   5 850.087 8.08937   1 
  -3   3   5 206.518 2.00590   1 
  -2   3   5 8.94569 0.48183   1 
  -1   3   5 73.7814 0.97154   1 
   0   3   5 0.82168 0.20958   1 
   1   3   5 28.7401 0.86649   1 
   2   3   5 111.786 1.46853   1 
   3   3   5 23.0374 0.97159   1 
   4   3   5 250.220 3.16899   1 
   5   3   5 3.61672 0.74392   1 
   6   3   5 0.94166 0.97107   1 
   7   3   5 81.7211 4.16206   1 
  -6   4   5 33.8304 2.78201   1 
  -5   4   5 238.296 4.36953   1 
  -4   4   5 107.884 2.16243   1 
  -3   4   5 55.3422 1.22391   1 
  -2   4   5 1635.56 10.5482   1 
  -1   4   5 2032.53 10.8435   1 
   0   4   5 16.5316 0.57864   1 
   1   4   5 14.6440 0.66078   1 
   2   4   5 1771.61 10.6619   1 
   3   4   5 702.228 5.21793   1 
   4   4   5 266.567 3.21301   1 
   5   4   5 91.1908 2.33008   1 
   6   4   5 30.3813 1.91373   1 
   7   4   5 21.2199 1.97712   1 
  -6   5   5 0.01215 0.89579   1 
  -5   5   5 226.502 4.59010   1 
  -4   5   5 597.834 6.30767   1 
  -3   5   5 122.088 2.28713   1 
  -2   5   5 6.03802 0.62677   1 
  -1   5   5 2128.80 13.6006   1 
   0   5   5 866.537 5.78109   1 
   1   5   5 0.66735 0.30892   1 
   2   5   5 168.289 2.21246   1 
   3   5   5 689.721 5.38633   1 
   4   5   5 76.5104 1.95896   1 
   5   5   5 6.20939 0.89319   1 
   6   5   5 139.635 3.53396   1 
   7   5   5 1.17208 1.16495   1 
  -6   5   6 22.6565 5.01344  -2 
  -6   6   5 22.6565 5.01344   1 
  -5   6   5 38.7140 2.15878   1 
  -4   6   5 410.641 5.15970   1 
  -3   6   5 38.6289 1.69851   1 
  -2   6   5 1174.95 10.1134   1 
  -1   6   5 40.3583 1.46246   1 
   0   6   5 225.214 2.50692   1 
   1   6   5 343.165 3.52882   1 
   2   6   5 645.407 5.21234   1 
   3   6   5 22.9849 1.17995   1 
   4   6   5 10.1461 0.90215   1 
   5   6   5 514.322 6.06574   1 
   6   6   5 131.553 3.47622   1 
  -5   7   5 177.508 4.08011   1 
  -4   7   5 54.3739 1.95044   1 
  -3   7   5 6.62855 0.88261   1 
  -2   7   5 422.612 5.02585   1 
  -1   7   5 528.634 5.84303   1 
   0   7   5 11.8406 0.77252   1 
   1   7   5 930.908 7.18803   1 
   2   7   5 2666.80 17.1777   1 
   3   7   5 201.528 3.02271   1 
   4   7   5 37.9374 1.65020   1 
   5   7   5 142.278 3.00863   1 
   6   7   5 552.927 7.73254   1 
  -5   8   5 68.0765 2.65321   1 
  -4   8   5 254.579 4.38383   1 
  -3   8   5 8.34117 1.00633   1 
  -2   8   5 5.31918 0.81241   1 
  -1   8   5 277.531 4.26394   1 
   0   8   5 64.0972 1.52705   1 
   1   8   5 653.008 5.71614   1 
   2   8   5 27.5220 1.35185   1 
   3   8   5 150.831 2.88709   1 
   4   8   5 37.7356 1.84172   1 
   5   8   5 9.81160 1.22570   1 
   6   8   5 32.4028 2.66118   1 
  -4   9   5 33.9372 2.18080   1 
  -3   9   5 5.25406 0.91261   1 
  -2   9   5 0.22090 0.67135   1 
  -1   9   5 0.80838 0.65287   1 
   0   9   5 0.56921 0.48407   1 
   1   9   5 219.252 3.13908   1 
   2   9   5 858.377 8.24323   1 
   3   9   5 3.27771 0.83625   1 
   4   9   5 110.719 2.81584   1 
   5   9   5 721.729 9.24665   1 
  -3  10   5 -0.2774 0.79294   1 
  -2  10   5 29.4826 1.88979   1 
  -1  10   5 282.471 5.09416   1 
   0  10   5 211.145 3.45759   1 
   1  10   5 3.95478 0.73050   1 
   2  10   5 3.57041 0.77915   1 
   3  10   5 34.2774 1.89975   1 
   4  10   5 4.47619 0.99514   1 
   5  10   5 81.6258 3.46076   1 
  -2  11   5 13.7617 1.57210   1 
  -1  11   5 75.1780 2.83491   1 
   0  11   5 34.6792 1.77852   1 
   1  11   5 12.2761 1.24376   1 
   2  11   5 0.62323 0.72206   1 
   3  11   5 77.8380 2.89029   1 
   4  11   5 34.2414 2.32754   1 
  -1  12   5 265.937 5.18473   1 
   0  12   5 2.81496 0.80698   1 
   1  12   5 -0.4910 0.68055   1 
   2  12   5 138.298 3.33642   1 
   3  12   5 22.2440 1.65652   1 
  -2 -12   6 143.862 6.02390   1 
  -1 -12   6 299.824 6.08098   1 
   0 -12   6 3.00128 1.24325   1 
  -3 -11   6 51.8168 3.29030   1 
  -2 -11   6 1.39936 1.04395   1 
  -1 -11   6 243.917 4.67413   1 
   0 -11   6 525.895 7.98817   1 
   1 -11   6 3.81993 1.09322   1 
   2 -11   6 4.79506 1.19497   1 
  -4 -10   6 20.0807 1.83429   1 
  -3 -10   6 89.2455 3.16799   1 
  -2 -10   6 41.6364 2.47458   1 
  -1 -10   6 2.25752 0.79291   1 
   0 -10   6 30.1265 1.92599   1 
   1 -10   6 0.20793 0.81202   1 
   2 -10   6 143.402 3.58060   1 
   3 -10   6 0.92455 1.03851   1 
  -5  -9   6 19.2135 1.71802   1 
  -4  -9   6 263.018 4.79212   1 
  -3  -9   6 3.79832 0.88907   1 
  -2  -9   6 55.7947 2.52589   1 
  -1  -9   6 606.456 6.88640   1 
   0  -9   6 71.0053 2.27684   1 
   1  -9   6 134.998 3.15298   1 
   2  -9   6 391.216 5.80515   1 
   3  -9   6 163.758 3.79492   1 
   4  -9   6 8.93168 1.53008   1 
  -5  -8   6 -0.3118 0.64736   1 
  -4  -8   6 16.4652 1.43234   1 
  -3  -8   6 138.803 3.04442   1 
  -2  -8   6 0.02586 0.60127   1 
  -1  -8   6 277.827 3.54685   1 
   0  -8   6 228.655 3.45696   1 
   1  -8   6 101.220 2.42076   1 
   2  -8   6 60.8486 2.59452   1 
   3  -8   6 705.388 7.97610   1 
   4  -8   6 23.4535 1.96880   1 
  -6  -7   6 309.547 5.21163   1 
  -5  -7   6 23.4496 1.53845   1 
  -4  -7   6 11.2021 1.13361   1 
  -3  -7   6 37.5888 1.86398   1 
  -2  -7   6 36.5740 1.84251   1 
  -1  -7   6 141.799 2.39880   1 
   0  -7   6 14.3394 0.97054   1 
   1  -7   6 94.7914 2.18635   1 
   2  -7   6 641.672 6.74350   1 
   3  -7   6 76.7089 2.65193   1 
   4  -7   6 18.1888 1.72733   1 
   5  -7   6 141.223 3.81934   1 
  -6  -6   6 10.4219 1.28790   1 
  -5  -6   6 0.16427 0.55097   1 
  -4  -6   6 70.8227 1.95682   1 
  -3  -6   6 0.59267 0.48077   1 
  -2  -6   6 55.8326 2.04801   1 
  -1  -6   6 155.939 2.51067   1 
   0  -6   6 156.775 2.33882   1 
   1  -6   6 11.5887 0.94699   1 
   2  -6   6 129.327 2.43469   1 
   3  -6   6 419.325 5.22323   1 
   4  -6   6 257.852 4.11865   1 
   5  -6   6 49.7648 2.63348   1 
  -6  -5   6 241.455 4.09432   1 
  -5  -5   6 26.6775 1.77366   1 
  -4  -5   6 474.182 5.23523   1 
  -3  -5   6 942.969 8.24836   1 
  -2  -5   6 0.05431 0.47139   1 
  -1  -5   6 5.56027 0.55429   1 
   0  -5   6 408.438 3.81678   1 
   1  -5   6 103.873 1.90972   1 
   2  -5   6 2.11058 0.55278   1 
   3  -5   6 6.36710 0.84573   1 
   4  -5   6 131.718 2.72538   1 
   5  -5   6 29.7393 1.91371   1 
   6  -5   6 13.8082 1.84926   1 
  -7  -4   6 105.791 4.36751   1 
  -6  -4   6 213.942 4.73475   1 
  -5  -4   6 31.7316 1.63604   1 
  -4  -4   6 59.7994 1.55456   1 
  -3  -4   6 1037.97 8.12994   1 
  -2  -4   6 386.311 4.26240   1 
  -1  -4   6 369.348 3.27365   1 
   0  -4   6 141.660 1.83001   1 
   1  -4   6 218.059 2.60878   1 
   2  -4   6 151.003 2.28947   1 
   3  -4   6 21.1977 1.23607   1 
   4  -4   6 0.08782 0.57519   1 
   5  -4   6 357.513 5.18095   1 
   6  -4   6 283.061 6.77621   1 
  -7  -3   6 122.132 13.9864   1 
  -6  -3   6 11.9481 3.38721   1 
  -5  -3   6 6.47582 2.50498   1 
  -4  -3   6 799.903 8.32551   1 
  -3  -3   6 1125.38 7.70134   1 
  -2  -3   6 74.6868 1.33022   1 
  -1  -3   6 -0.0693 0.26811   1 
   0  -3   6 588.662 4.19783   1 
   1  -3   6 353.247 3.26074   1 
   2  -3   6 64.8579 1.56392   1 
   3  -3   6 1154.12 8.96728   1 
   4  -3   6 -0.4393 0.53081   1 
   5  -3   6 35.1125 1.98034   1 
   6  -3   6 138.698 4.32608   1 
  -6  -3   8 326.895 18.0577  -2 
  -7  -2   6 326.895 18.0577   1 
  -6  -2   6 127.272 7.89127   1 
  -5  -2   6 2.64224 2.03641   1 
  -4  -2   6 348.985 11.6474   1 
  -3  -2   6 1690.27 11.6698   1 
  -2  -2   6 387.746 3.05827   1 
  -1  -2   6 278.862 2.49119   1 
   0  -2   6 1594.49 8.77496   1 
   1  -2   6 271.053 2.69017   1 
   2  -2   6 126.160 1.83915   1 
   3  -2   6 39.9493 1.41891   1 
   4  -2   6 491.789 5.31289   1 
   5  -2   6 2.18802 0.80801   1 
   6  -2   6 53.3939 2.90074   1 
  -7  -1   6 13.3536 5.17682   1 
  -6  -1   6 254.495 15.0303   1 
  -5  -1   6 7.58558 2.68423   1 
  -4  -1   6 159.660 7.53765   1 
  -3  -1   6 23.1886 1.57204   1 
  -2  -1   6 1.12632 0.25875   1 
  -1  -1   6 1121.13 6.45285   1 
   0  -1   6 58.2749 0.85811   1 
   1  -1   6 305.915 2.78395   1 
   2  -1   6 56.4453 1.42523   1 
   3  -1   6 464.693 4.37228   1 
   4  -1   6 146.329 2.64185   1 
   5  -1   6 51.7542 2.07101   1 
   6  -1   6 197.005 4.81081   1 
   7  -1   6 26.1948 2.66922   1 
  -7   0   6 8.77378 4.54107   1 
  -6   0   6 116.397 10.0394   1 
  -5   0   6 26.8114 4.23215   1 
  -4   0   6 341.465 11.4569   1 
  -3   0   6 296.936 4.27066   1 
  -2   0   6 0.45146 0.23116   1 
  -1   0   6 777.150 4.92705   1 
   0   0   6 9519.39 47.8244   1 
   1   0   6 783.136 5.49556   1 
   2   0   6 0.79331 0.33233   1 
   3   0   6 308.629 3.25436   1 
   4   0   6 345.699 4.02658   1 
   5   0   6 23.7217 1.41153   1 
   6   0   6 122.470 3.76803   1 
   7   0   6 4.77950 1.50418   1 
  -6   1   6 211.503 13.2546   1 
  -5   1   6 45.0946 7.09928   1 
  -4   1   6 148.803 4.99992   1 
  -3   1   6 468.843 5.38689   1 
  -2   1   6 54.7711 0.83103   1 
  -1   1   6 305.516 2.32064   1 
   0   1   6 58.9761 1.03242   1 
   1   1   6 1141.19 7.11464   1 
   2   1   6 1.12911 0.36224   1 
   3   1   6 23.6224 1.06792   1 
   4   1   6 167.602 2.75957   1 
   5   1   6 9.62885 0.98515   1 
   6   1   6 246.365 5.27035   1 
   0   2  13 78.1280 9.97091  -2 
   7   1   6 78.1280 9.97091   1 
  -6   2   6 68.7762 9.28240   1 
  -5   2   6 4.68853 3.01838   1 
  -4   2   6 504.024 11.3408   1 
  -3   2   6 35.7329 0.99326   1 
  -2   2   6 125.149 1.36660   1 
  -1   2   6 272.966 2.18225   1 
   0   2   6 1566.87 8.87467   1 
   1   2   6 282.452 2.51615   1 
   2   2   6 399.665 3.60094   1 
   3   2   6 1707.40 11.1138   1 
   4   2   6 349.431 4.19036   1 
   5   2   6 2.96670 0.66231   1 
   6   2   6 125.977 3.04042   1 
   7   2   6 281.449 6.63738   1 
  -5   3   6 34.8733 5.44696   1 
  -4   3   6 1.24704 0.68253   1 
  -3   3   6 1174.12 8.64896   1 
  -2   3   6 59.9097 0.98877   1 
  -1   3   6 352.789 2.78531   1 
   0   3   6 593.910 3.90487   1 
   1   3   6 0.12790 0.29484   1 
   2   3   6 77.6485 1.40067   1 
   3   3   6 1137.63 8.10393   1 
   4   3   6 806.397 7.22036   1 
   5   3   6 4.11849 0.76656   1 
   6   3   6 11.1917 1.28434   1 
   7   3   6 101.498 4.76294   1 
  -6   4   6 282.543 11.9480   1 
  -5   4   6 351.044 7.34640   1 
  -4   4   6 0.03369 0.56233   1 
  -3   4   6 21.0669 0.93374   1 
  -2   4   6 145.909 1.99832   1 
  -1   4   6 216.513 2.51949   1 
   0   4   6 142.076 1.80594   1 
   1   4   6 380.049 3.35543   1 
   2   4   6 394.131 3.75326   1 
   3   4   6 1043.91 7.40754   1 
   4   4   6 62.8050 1.97974   1 
   5   4   6 34.9871 1.68171   1 
   6   4   6 236.810 3.97256   1 
   7   4   6 97.8693 4.29844   1 
  -6   5   6 9.16426 1.98996   1 
  -5   5   6 27.5816 1.85887   1 
  -4   5   6 130.895 2.57415   1 
  -3   5   6 6.95549 0.78440   1 
  -2   5   6 2.05605 0.48061   1 
  -1   5   6 106.967 1.95491   1 
   0   5   6 418.929 3.57891   1 
   1   5   6 6.40995 0.64083   1 
   2   5   6 0.14901 0.41216   1 
   3   5   6 951.555 6.98016   1 
   4   5   6 478.879 5.17669   1 
   5   5   6 29.6151 1.61784   1 
   6   5   6 257.404 4.40725   1 
  -5   6   6 43.0100 2.45219   1 
  -4   6   6 258.493 3.82673   1 
  -3   6   6 411.432 5.12507   1 
  -2   6   6 131.561 2.34084   1 
  -1   6   6 12.4129 0.94649   1 
   0   6   6 159.545 2.09926   1 
   1   6   6 163.798 2.34604   1 
   2   6   6 50.9430 1.67751   1 
   3   6   6 1.65056 0.58057   1 
   4   6   6 77.7271 2.24595   1 
   5   6   6 0.32557 0.71573   1 
   1  -3  12 60.9657 9.26043  -2 
   6   6   6 60.9657 9.26043   1 
  -5   7   6 134.651 4.01098   1 
  -4   7   6 18.1955 1.39068   1 
  -3   7   6 77.1723 2.19608   1 
  -2   7   6 630.134 6.68831   1 
  -1   7   6 85.4793 2.03312   1 
   0   7   6 15.1619 0.84655   1 
   1   7   6 135.803 2.20542   1 
   2   7   6 39.2139 1.60866   1 
   3   7   6 39.7907 1.76999   1 
   4   7   6 11.6572 1.14546   1 
   5   7   6 23.5848 1.75656   1 
   6   7   6 318.992 5.66461   1 
  -4   8   6 24.8920 1.56859   1 
  -3   8   6 661.952 7.76367   1 
  -2   8   6 59.6190 2.49488   1 
  -1   8   6 101.763 2.55757   1 
   0   8   6 237.708 3.26769   1 
   1   8   6 270.292 3.46661   1 
   2   8   6 0.60303 0.53326   1 
   3   8   6 142.749 3.05389   1 
   4   8   6 16.9113 1.34066   1 
   5   8   6 1.46136 0.82376   1 
  -4   9   6 6.95204 1.14495   1 
  -3   9   6 160.784 3.69997   1 
  -2   9   6 376.855 5.91871   1 
  -1   9   6 143.271 3.20026   1 
   0   9   6 67.0173 1.94489   1 
   1   9   6 615.135 6.01228   1 
   2   9   6 52.8619 1.97409   1 
   3   9   6 4.78930 0.87982   1 
   4   9   6 279.414 4.91754   1 
   5   9   6 17.5911 1.73136   1 
  -3  10   6 -0.1105 0.76703   1 
  -2  10   6 136.547 3.60666   1 
  -1  10   6 -0.3766 0.68603   1 
   0  10   6 25.5789 1.46932   1 
   1  10   6 2.37983 0.72810   1 
   2  10   6 40.5289 2.00527   1 
   3  10   6 81.1846 2.75492   1 
   4  10   6 24.0624 1.84430   1 
  -2  11   6 6.68877 1.15414   1 
  -1  11   6 3.00706 0.96129   1 
   0  11   6 528.891 6.92810   1 
   1  11   6 242.581 4.48446   1 
   2  11   6 1.54405 0.84451   1 
   3  11   6 50.2499 2.40669   1 
   0  12   6 0.64109 0.84435   1 
   1  12   6 308.541 4.86554   1 
   2  12   6 142.683 4.86156   1 
  -3 -11   7 86.9314 6.45510   1 
  -2 -11   7 63.0526 3.49179   1 
  -1 -11   7 24.5092 2.05263   1 
   0 -11   7 119.333 4.13016   1 
   1 -11   7 124.610 4.25623   1 
  -4 -10   7 10.7129 1.41458   1 
  -3 -10   7 169.484 4.11561   1 
  -2 -10   7 239.159 5.32616   1 
  -1 -10   7 14.3575 1.72839   1 
   0 -10   7 56.8778 2.90666   1 
   1 -10   7 380.646 6.32565   1 
   2 -10   7 279.007 5.49179   1 
  -4  -9   7 7.20685 1.13959   1 
  -3  -9   7 33.0359 2.14450   1 
  -2  -9   7 603.065 7.59640   1 
  -1  -9   7 23.1906 1.90983   1 
   0  -9   7 269.441 4.60558   1 
   1  -9   7 0.14290 0.74168   1 
   2  -9   7 39.0512 2.27773   1 
   3  -9   7 47.0736 2.59881   1 
  -5  -8   7 39.0425 2.19306   1 
  -4  -8   7 1.71404 0.80942   1 
  -3  -8   7 421.403 5.78115   1 
  -2  -8   7 84.8526 2.86794   1 
  -1  -8   7 409.026 6.09453   1 
   0  -8   7 75.3564 2.57107   1 
   1  -8   7 257.573 4.09671   1 
   2  -8   7 73.1306 2.96516   1 
   3  -8   7 153.763 3.67547   1 
   4  -8   7 302.682 6.11426   1 
  -5  -7   7 -0.4713 0.76649   1 
  -4  -7   7 0.64344 0.64384   1 
  -3  -7   7 101.456 2.56790   1 
  -2  -7   7 525.420 6.43640   1 
  -1  -7   7 81.3270 2.76874   1 
   0  -7   7 8.63204 0.87511   1 
   1  -7   7 314.426 4.17057   1 
   2  -7   7 23.6291 1.58102   1 
   3  -7   7 75.2534 2.94766   1 
   4  -7   7 1.68099 0.99700   1 
  -6  -6   7 23.3637 1.75059   1 
  -5  -6   7 616.413 8.30082   1 
  -4  -6   7 22.0028 1.45063   1 
  -3  -6   7 25.4174 1.53651   1 
  -2  -6   7 2.73466 0.71089   1 
  -1  -6   7 135.400 2.88228   1 
   0  -6   7 3.31763 0.60922   1 
   1  -6   7 26.4313 1.40951   1 
   2  -6   7 47.6684 2.03944   1 
   3  -6   7 26.9147 1.73053   1 
   4  -6   7 87.1610 2.94413   1 
   5  -6   7 0.56333 0.98298   1 
  -6  -5   7 6.19659 1.10596   1 
  -5  -5   7 -0.5074 0.66998   1 
  -4  -5   7 200.278 3.02526   1 
  -3  -5   7 64.0847 1.74879   1 
  -2  -5   7 11.7215 0.94150   1 
  -1  -5   7 87.4493 2.13027   1 
   0  -5   7 167.290 2.45056   1 
   1  -5   7 860.939 7.15511   1 
   2  -5   7 18.3918 1.24614   1 
   3  -5   7 31.2354 1.78799   1 
   4  -5   7 30.5253 1.87464   1 
   5  -5   7 124.599 3.63498   1 
  -6  -4   7 -0.2453 1.05838   1 
  -5  -4   7 350.464 6.11203   1 
  -4  -4   7 60.5377 1.83497   1 
  -3  -4   7 14.5540 0.92951   1 
  -2  -4   7 1034.22 8.59675   1 
  -1  -4   7 130.951 2.16376   1 
   0  -4   7 19.5330 0.95984   1 
   1  -4   7 587.251 5.35058   1 
   2  -4   7 847.250 7.23481   1 
   3  -4   7 43.2159 1.94227   1 
   4  -4   7 64.8331 2.32390   1 
   5  -4   7 118.635 3.13935   1 
   6  -4   7 15.7767 2.11734   1 
  -6  -3   7 299.779 12.6870   1 
  -5  -3   7 86.0127 7.35580   1 
  -4  -3   7 77.3093 1.94005   1 
  -3  -3   7 3.32257 0.48446   1 
  -2  -3   7 620.964 5.72070   1 
  -1  -3   7 965.985 7.39322   1 
   0  -3   7 10.9294 0.72902   1 
   1  -3   7 227.343 2.77567   1 
   2  -3   7 684.017 6.13719   1 
   3  -3   7 294.801 3.69199   1 
   4  -3   7 275.239 3.84562   1 
   5  -3   7 0.29816 0.77998   1 
   6  -3   7 3.36478 1.36659   1 
  -6  -2   7 13.9537 3.63812   1 
  -5  -2   7 24.3362 4.26831   1 
  -4  -2   7 102.945 6.45373   1 
  -3  -2   7 9.79486 0.70905   1 
  -2  -2   7 448.898 3.93093   1 
  -1  -2   7 11.2152 0.71941   1 
   0  -2   7 389.906 4.00204   1 
   1  -2   7 534.585 4.48411   1 
   2  -2   7 405.123 3.76849   1 
   3  -2   7 12.4048 0.95234   1 
   4  -2   7 525.178 5.74765   1 
   5  -2   7 432.884 5.55871   1 
   6  -2   7 9.36524 1.22276   1 
  -6  -1   7 230.562 10.8155   1 
  -5  -1   7 893.844 22.7930   1 
  -4  -1   7 330.758 11.7694   1 
  -3  -1   7 75.0319 1.45128   1 
  -2  -1   7 838.959 5.49925   1 
  -1  -1   7 638.587 5.20375   1 
   0  -1   7 10.7561 0.71400   1 
   1  -1   7 1249.08 7.86996   1 
   2  -1   7 571.908 4.76678   1 
   3  -1   7 141.589 2.33695   1 
   4  -1   7 103.626 2.35842   1 
   5  -1   7 604.214 6.21375   1 
   6  -1   7 46.3942 2.52122   1 
  -6   0   7 86.6436 10.7684   1 
  -5   0   7 46.8456 5.45406   1 
  -4   0   7 1095.69 25.1107   1 
  -3   0   7 423.624 5.18249   1 
  -2   0   7 82.1770 1.19890   1 
  -1   0   7 71.8931 1.21578   1 
   0   0   7 18.1832 0.99907   1 
   1   0   7 73.8655 1.38924   1 
   2   0   7 78.7953 1.47824   1 
   3   0   7 412.726 4.06374   1 
   4   0   7 1068.80 8.76386   1 
   5   0   7 45.5725 1.98700   1 
   6   0   7 86.6719 3.09137   1 
  -6   1   7 53.6040 8.69006   1 
  -5   1   7 630.859 24.3970   1 
  -4   1   7 115.542 6.75886   1 
  -3   1   7 145.918 2.18046   1 
  -2   1   7 573.116 4.05675   1 
  -1   1   7 1242.99 8.36711   1 
   0   1   7 9.00240 0.63751   1 
   1   1   7 633.731 4.87286   1 
   2   1   7 856.646 6.30362   1 
   3   1   7 78.2403 1.80926   1 
   4   1   7 325.238 4.03229   1 
   5   1   7 895.190 8.21969   1 
   1   2  12 250.147 5.93556  -2 
   6   1   7 250.147 5.93556   1 
  -4   2   7 515.271 13.4328   1 
  -3   2   7 14.9184 0.76628   1 
  -2   2   7 402.943 3.43851   1 
  -1   2   7 522.383 4.13637   1 
   0   2   7 385.278 3.31081   1 
   1   2   7 10.3217 0.66917   1 
   2   2   7 454.446 4.20743   1 
   3   2   7 10.0304 0.83816   1 
   4   2   7 102.513 2.30226   1 
   5   2   7 25.1951 1.48301   1 
   1   1  12 406.047 9.30182  -2 
   6   2   7 406.047 9.30182   1 
  -4   3   7 261.866 6.56772   1 
  -3   3   7 290.797 3.27390   1 
  -2   3   7 676.413 4.77077   1 
  -1   3   7 224.353 2.64220   1 
   0   3   7 9.99196 0.63308   1 
   1   3   7 984.510 6.99079   1 
   2   3   7 630.435 5.07157   1 
   3   3   7 4.08960 0.65402   1 
   4   3   7 77.2196 2.23434   1 
   5   3   7 87.2101 2.33674   1 
   6   3   7 319.035 5.40067   1 
  -5   4   7 107.125 6.83352   1 
  -4   4   7 61.6948 2.13560   1 
  -3   4   7 37.1900 1.26106   1 
  -2   4   7 850.395 6.81119   1 
  -1   4   7 592.022 5.12496   1 
   0   4   7 18.2634 0.94414   1 
   1   4   7 129.746 1.98686   1 
   2   4   7 1046.05 8.15985   1 
   3   4   7 14.6372 1.00676   1 
   4   4   7 56.6643 2.12433   1 
   5   4   7 381.583 4.82365   1 
   6   4   7 -0.0121 0.83419   1 
  -5   5   7 121.446 3.23137   1 
  -4   5   7 27.0255 1.92433   1 
  -3   5   7 30.9905 1.38192   1 
  -2   5   7 20.1785 1.08306   1 
  -1   5   7 883.051 7.55901   1 
   0   5   7 167.949 2.35528   1 
   1   5   7 86.8148 1.72399   1 
   2   5   7 11.7233 0.90855   1 
   3   5   7 64.9936 2.09518   1 
   4   5   7 199.194 3.51449   1 
   5   5   7 -0.3100 0.72914   1 
   6   5   7 6.75217 1.22006   1 
  -5   6   7 0.70078 0.90928   1 
  -4   6   7 75.8959 2.55397   1 
  -3   6   7 24.7484 1.41147   1 
  -2   6   7 49.4318 1.81588   1 
  -1   6   7 27.1139 1.38982   1 
   0   6   7 4.13435 0.65292   1 
   1   6   7 139.110 2.22314   1 
   2   6   7 3.72385 0.64530   1 
   3   6   7 23.4136 1.43903   1 
   4   6   7 22.9888 1.52473   1 
   2  -3  11 655.084 12.9771  -2 
   5   6   7 655.084 12.9771   1 
   6   6   7 25.7384 2.02802   1 
  -4   7   7 1.76375 0.81410   1 
  -3   7   7 69.2164 2.19396   1 
  -2   7   7 19.8435 1.40427   1 
  -1   7   7 307.390 4.16385   1 
   0   7   7 9.01292 0.95363   1 
   1   7   7 73.0775 1.75087   1 
   2   7   7 551.130 5.61502   1 
   3  -4   8 118.518 8.79206  -2 
   3   7   7 118.518 8.79206   1 
   4   7   7 -0.0416 0.66989   1 
   5   7   7 -0.0314 0.78681   1 
  -4   8   7 286.624 4.94022   1 
  -3   8   7 158.976 3.38571   1 
  -2   8   7 66.6878 2.52619   1 
  -1   8   7 250.080 3.99212   1 
   0   8   7 73.6695 2.46446   1 
   1   8   7 417.087 4.66600   1 
   2   8   7 84.6194 2.06907   1 
   3   8   7 439.648 5.86614   1 
   4   8   7 1.76683 0.81491   1 
   5   8   7 41.0712 2.59224   1 
  -3   9   7 47.2504 2.51391   1 
  -2   9   7 36.2795 2.16253   1 
  -1   9   7 -0.0512 0.65463   1 
   0   9   7 273.516 4.70047   1 
   1   9   7 17.5844 1.20963   1 
   2   9   7 612.674 6.50858   1 
   3   9   7 33.1805 1.94453   1 
   4   9   7 10.4829 1.25587   1 
  -2  10   7 281.436 5.32040   1 
  -1  10   7 374.051 5.82819   1 
   0  10   7 60.4199 2.74654   1 
   1  10   7 14.0208 1.22524   1 
   2  10   7 243.832 4.30937   1 
   3  10   7 167.155 3.62964   1 
   4  10   7 12.7089 1.46396   1 
  -1  11   7 124.917 3.67014   1 
   0  11   7 114.211 3.29369   1 
   1  11   7 27.3241 1.59499   1 
   4  -8   7 331.263 7.13108  -2 
   2  11   7 331.263 7.13108   1 
   3  11   7 77.1704 8.90530   1 
  -1 -11   8 417.659 20.9277   1 
  -3 -10   8 8.60321 1.43400   1 
  -2 -10   8 25.0783 2.27508   1 
  -1 -10   8 6.16191 1.41506   1 
   0 -10   8 1.05160 0.93740   1 
   1 -10   8 6.87588 1.33903   1 
   2 -10   8 83.8089 12.4124   1 
  -4  -9   8 72.1495 3.20918   1 
  -3  -9   8 75.8622 3.24285   1 
  -2  -9   8 258.035 4.77871   1 
  -1  -9   8 486.163 7.94004   1 
   0  -9   8 20.1092 1.59655   1 
   1  -9   8 110.914 3.61446   1 
   2  -9   8 317.243 5.86479   1 
   3  -9   8 207.645 4.87011   1 
  -5  -8   8 32.3752 5.48115   1 
  -4  -8   8 77.6571 3.12005   1 
  -3  -8   8 262.602 4.87774   1 
  -2  -8   8 111.514 2.99452   1 
  -1  -8   8 2.18093 0.85360   1 
   0  -8   8 202.950 3.84859   1 
   1  -8   8 21.5266 1.69188   1 
   2  -8   8 36.6681 2.34687   1 
   3  -8   8 42.9941 2.65473   1 
  -5  -7   8 1.04552 0.91196   1 
  -4  -7   8 17.7614 1.45272   1 
  -3  -7   8 82.6474 2.51565   1 
  -2  -7   8 6.69261 0.94019   1 
  -1  -7   8 325.397 4.85906   1 
   0  -7   8 1.27084 0.65250   1 
   1  -7   8 12.8974 1.20786   1 
   2  -7   8 569.810 7.32288   1 
   3  -7   8 171.006 3.87847   1 
   4  -7   8 25.8535 2.02708   1 
  -5  -6   8 0.16127 0.93647   1 
  -4  -6   8 325.553 4.64149   1 
  -3  -6   8 0.77161 0.67167   1 
  -2  -6   8 62.6379 2.37105   1 
  -1  -6   8 6.88778 0.95451   1 
   0  -6   8 118.626 2.31929   1 
   1  -6   8 4.61772 0.84354   1 
   2  -6   8 147.149 3.36422   1 
   3  -6   8 222.660 4.28702   1 
   4  -6   8 19.5370 1.78815   1 
   5  -6   8 -1.0060 1.12786   1 
  -6  -5   8 169.340 3.99263   1 
  -5  -5   8 1.48728 0.85282   1 
  -4  -5   8 270.246 4.01787   1 
  -3  -5   8 132.241 2.50289   1 
  -2  -5   8 13.6365 1.08090   1 
  -1  -5   8 267.979 4.05201   1 
   0  -5   8 657.872 6.12710   1 
   1  -5   8 31.1910 1.59744   1 
   2  -5   8 158.662 3.12968   1 
   3  -5   8 67.1711 2.79606   1 
   4  -5   8 3.28457 1.00232   1 
   5  -5   8 30.7052 2.25765   1 
  -6  -4   8 336.961 14.0932   1 
  -5  -4   8 234.574 4.91645   1 
  -4  -4   8 13.1448 1.26087   1 
  -3  -4   8 359.516 4.18503   1 
  -2  -4   8 226.071 3.29995   1 
  -1  -4   8 3.23645 0.73896   1 
   0  -4   8 2.38963 0.53164   1 
   1  -4   8 57.5638 1.92351   1 
   2  -4   8 123.919 2.52819   1 
   3  -4   8 25.1947 1.63458   1 
   4  -4   8 32.2983 1.83676   1 
   5  -4   8 337.564 5.97848   1 
  -6  -3   8 54.6000 6.91187   1 
  -5  -3   8 49.9424 6.12939   1 
  -4  -3   8 161.228 3.23278   1 
  -3  -3   8 193.692 2.73153   1 
  -2  -3   8 12.4127 0.96775   1 
  -1  -3   8 163.802 2.60359   1 
   0  -3   8 465.385 5.05404   1 
   1  -3   8 132.093 2.39650   1 
   2  -3   8 1.19754 0.61915   1 
   3  -3   8 415.893 5.42928   1 
   4  -3   8 33.1099 1.92089   1 
   5  -3   8 17.3157 1.71187   1 
   1   6  12 120.388 4.41159  -2 
   6  -3   8 120.388 4.41159   1 
  -6  -2   8 264.862 12.1030   1 
  -5  -2   8 0.30692 2.11278   1 
  -4  -2   8 158.436 8.26235   1 
  -3  -2   8 1959.20 14.7815   1 
  -2  -2   8 1148.22 9.26388   1 
  -1  -2   8 169.490 2.68471   1 
   0  -2   8 201.093 2.90096   1 
   1  -2   8 353.452 3.89987   1 
   2  -2   8 197.689 3.04029   1 
   3  -2   8 10.6748 1.09090   1 
   2   5   9 179.131 8.23659  -2 
   4  -2   8 179.131 8.23659   1 
   5  -2   8 21.7275 1.66317   1 
   6  -2   8 1.74264 1.16258   1 
  -6  -1   8 184.528 10.1521   1 
  -5  -1   8 36.3565 5.21324   1 
  -4  -1   8 251.989 10.5801   1 
  -3  -1   8 70.0307 1.73667   1 
  -2  -1   8 178.201 2.31847   1 
  -1  -1   8 1337.45 10.4982   1 
   0  -1   8 118.863 2.10578   1 
   1  -1   8 419.018 4.26924   1 
   2  -1   8 12.5518 0.92455   1 
   3  -1   8 398.394 4.59095   1 
   4  -1   8 289.899 4.49136   1 
   5  -1   8 22.4866 1.62371   1 
   6  -1   8 41.4817 2.85738   1 
  -6   0   8 43.9011 8.42928   1 
  -5   0   8 3.06792 2.27007   1 
  -4   0   8 421.719 14.1278   1 
  -3   0   8 958.320 7.95252   1 
  -2   0   8 140.838 1.93993   1 
  -1   0   8 442.179 4.65080   1 
   0   0   8 4524.59 27.6868   1 
   1   0   8 438.215 4.20686   1 
   2   0   8 141.758 2.45403   1 
   3   0   8 961.431 7.80384   1 
   4   0   8 424.822 5.53585   1 
   5   0   8 7.11315 1.06387   1 
   6   0   8 39.1717 2.70432   1 
  -5   1   8 20.2102 6.40137   1 
  -4   1   8 266.390 16.3150   1 
  -3   1   8 411.348 4.37423   1 
  -2   1   8 12.4083 0.74300   1 
  -1   1   8 411.733 4.43059   1 
   0   1   8 129.998 2.08110   1 
   1   1   8 1331.65 9.29294   1 
   2   1   8 178.244 2.73531   1 
   3   1   8 76.5592 2.21830   1 
   4   1   8 262.656 4.21961   1 
   5   1   8 45.2184 2.12227   1 
   6   1   8 191.854 4.61293   1 
  -4   2   8 81.9202 11.0517   1 
  -3   2   8 12.4913 0.80867   1 
  -2   2   8 199.941 2.59563   1 
  -1   2   8 354.745 3.90196   1 
   0   2   8 200.466 2.89296   1 
   1   2   8 169.761 2.28225   1 
   2   2   8 1174.30 8.72630   1 
   3   1   8 2054.68 21.8523  -2 
   3   2   8 2054.68 21.8523   1 
   4   2   8 179.910 3.44130   1 
   5   2   8 0.65376 0.74702   1 
   6   2   8 271.888 5.94660   1 
  -4   3   8 32.2630 3.27259   1 
  -3   3   8 429.412 5.11278   1 
  -2   3   8 1.46912 0.48424   1 
  -1   3   8 131.101 2.25106   1 
   0   3   8 469.441 4.72744   1 
   1   3   8 169.505 2.35603   1 
   2   3   8 12.6646 0.94117   1 
   3   0   8 1072.79 23.5637  -2 
   3   3   8 1072.79 23.5637   1 
   4   3   8 162.359 3.25952   1 
   5   3   8 57.2770 2.49639   1 
   6   3   8 73.3876 3.38518   1 
  -5   4   8 319.601 12.8747   1 
  -4   4   8 34.5281 1.82800   1 
  -3   4   8 24.6743 1.20096   1 
  -2   4   8 124.229 2.22810   1 
  -1   4   8 57.1599 1.68254   1 
   0   4   8 1.91112 0.54669   1 
   1   4   8 2.44095 0.55539   1 
   2   4   8 243.252 3.38375   1 
   3   4   8 357.922 4.31613   1 
   4   4   8 11.7561 1.21821   1 
   5   4   8 232.928 3.96636   1 
   6   4   8 361.374 6.10857   1 
  -5   5   8 32.1662 3.06015   1 
  -4   5   8 3.20995 0.88106   1 
  -3   5   8 65.6351 1.87631   1 
  -2   5   8 165.624 2.75591   1 
  -1   5   8 33.1227 1.49952   1 
   0   5   8 652.040 6.40204   1 
   1   5   8 266.788 3.45930   1 
   2   5   8 12.2750 1.00021   1 
   3   5   8 134.556 2.88104   1 
   4   5   8 269.171 4.53780   1 
   5   5   8 3.34340 0.95613   1 
   6   5   8 175.106 4.37440   1 
  -5   6   8 0.44917 0.85450   1 
  -4   6   8 15.3007 1.70137   1 
  -3   6   8 225.858 3.65981   1 
  -2   6   8 145.333 2.81573   1 
  -1   6   8 6.61828 0.85988   1 
   0   6   8 122.612 2.69708   1 
   1   6   8 5.30520 0.70099   1 
   4  -3   7 315.111 16.0294  -2 
   2   6   8 315.111 16.0294   1 
   3   6   8 1.66953 0.67517   1 
   4   6   8 325.571 5.07418   1 
   5   6   8 0.88183 0.85798   1 
  -4   7   8 20.5229 1.76888   1 
  -3   7   8 170.801 3.53566   1 
  -2   7   8 553.334 6.44850   1 
  -1   7   8 12.7118 1.15416   1 
   0   7   8 1.67016 0.68917   1 
   1   7   8 337.244 4.25599   1 
   4  -4   7 59.7828 3.29916  -2 
   2   7   8 59.7828 3.29916   1 
   3   7   8 92.4487 2.74296   1 
   4   7   8 17.8490 1.55045   1 
   5   7   8 1.32585 0.93536   1 
  -3   8   8 44.2698 2.31953   1 
  -2   8   8 39.6177 2.15280   1 
  -1   8   8 26.1082 1.65835   1 
   0   8   8 207.918 3.80118   1 
   1   8   8 2.77530 0.66262   1 
   2   8   8 114.994 2.49282   1 
   3   8   8 257.453 4.25510   1 
   4   8   8 75.4798 2.93350   1 
  -3   9   8 192.543 4.49270   1 
  -2   9   8 299.591 5.35019   1 
  -1   9   8 107.043 2.96154   1 
   0   9   8 21.0982 1.57719   1 
   1   9   8 500.082 5.71355   1 
   2   9   8 259.306 4.22935   1 
   3   9   8 73.3203 2.79539   1 
   4   9   8 63.4834 2.78927   1 
  -2  10   8 91.4152 5.53491   1 
  -1  10   8 7.37006 1.18969   1 
   0  10   8 0.33868 0.82456   1 
   1  10   8 5.55827 1.08087   1 
   2  10   8 26.0400 1.77624   1 
   3  10   8 6.51780 1.12574   1 
  -1 -10   9 15.0125 1.93315   1 
   0 -10   9 4.11146 1.27887   1 
  -3  -9   9 0.36479 0.92445   1 
  -2  -9   9 454.071 6.87667   1 
  -1  -9   9 26.7509 2.24394   1 
   0  -9   9 16.2830 1.73634   1 
   1  -9   9 2.75384 1.17065   1 
   2  -9   9 1.76959 1.18038   1 
  -4  -8   9 -0.8877 0.80066   1 
  -3  -8   9 71.3192 3.00137   1 
  -2  -8   9 4.44261 1.01084   1 
  -1  -8   9 102.709 3.59036   1 
   0  -8   9 250.596 5.08959   1 
   1  -8   9 85.3476 3.25051   1 
   2  -8   9 20.0379 2.04172   1 
   3  -8   9 31.6993 2.40805   1 
  -4  -7   9 75.2292 2.77493   1 
  -3  -7   9 152.156 3.48256   1 
  -2  -7   9 268.262 4.49771   1 
  -1  -7   9 57.3212 2.51247   1 
   0  -7   9 28.0116 2.01731   1 
   1  -7   9 560.781 7.25100   1 
   2  -7   9 64.7599 2.95037   1 
   3  -7   9 41.6984 2.64490   1 
  -5  -6   9 107.713 3.81627   1 
  -4  -6   9 2.72627 0.93447   1 
  -3  -6   9 42.6114 2.10229   1 
  -2  -6   9 133.641 3.00194   1 
  -1  -6   9 84.1960 2.83480   1 
   0  -6   9 49.3090 2.55575   1 
   1  -6   9 -0.5486 0.66217   1 
   2  -6   9 117.912 3.38093   1 
   3  -6   9 30.0790 2.20103   1 
   2   9   9 420.779 7.06564  -2 
   4  -6   9 420.779 7.06564   1 
  -5  -5   9 2.47300 1.08606   1 
  -4  -5   9 106.134 3.15588   1 
  -3  -5   9 283.831 4.19632   1 
  -2  -5   9 107.124 2.64139   1 
  -1  -5   9 17.4459 1.37783   1 
   0  -5   9 5.76794 1.01048   1 
   1  -5   9 548.893 6.50211   1 
   2  -5   9 138.206 3.01432   1 
   3  -5   9 86.9060 3.39475   1 
   4  -5   9 16.4598 1.76386   1 
  -5  -4   9 200.541 5.58169   1 
  -4  -4   9 0.31323 0.78417   1 
  -3  -4   9 0.70921 0.58828   1 
  -2  -4   9 1125.25 10.1914   1 
  -1  -4   9 376.806 5.03368   1 
   0  -4   9 10.6756 1.17685   1 
   1  -4   9 168.154 3.06722   1 
   2  -4   9 479.143 5.84639   1 
   3  -4   9 2.13570 0.93995   1 
   4  -4   9 114.895 3.46078   1 
   5  -4   9 124.766 4.31194   1 
  -5  -3   9 214.316 10.8772   1 
  -4  -3   9 176.225 3.60092   1 
  -3  -3   9 56.0363 1.75698   1 
  -2  -3   9 3.75711 0.70557   1 
  -1  -3   9 204.891 3.65905   1 
   0  -3   9 24.0645 1.90161   1 
   1  -3   9 40.4619 1.56879   1 
   2  -3   9 316.566 4.48746   1 
   3  -3   9 0.70897 0.78307   1 
   4  -3   9 675.200 8.25713   1 
   5  -3   9 -0.3838 0.97565   1 
  -6  -2   9 4.55088 2.94057   1 
  -5  -2   9 -1.4418 1.86993   1 
  -4  -2   9 6.61586 1.16426   1 
  -3  -2   9 -0.2580 0.55045   1 
  -2  -2   9 55.3503 1.78673   1 
  -1  -2   9 0.31097 0.53960   1 
   0  -2   9 742.766 7.66319   1 
   4   5   5 1088.16 19.0839  -2 
   1  -2   9 1088.16 19.0839   1 
   2  -2   9 129.495 2.74280   1 
   3   5   8 181.965 4.05842  -2 
   3  -2   9 181.965 4.05842   1 
   4  -2   9 271.458 4.76255   1 
   5  -2   9 676.312 8.41488   1 
  -6  -1   9 6.92221 3.61650   1 
  -5  -1   9 330.595 13.4461   1 
  -4  -1   9 373.766 13.7571   1 
  -3  -1   9 149.170 2.71135   1 
  -2  -1   9 243.485 3.46533   1 
  -1  -1   9 2.04093 0.64010   1 
   0  -1   9 79.5738 2.35540   1 
   4   4   5 1109.15 22.8517  -2 
   1  -1   9 1109.15 22.8517   1 
   2  -1   9 458.833 5.18389   1 
   3   4   8 360.590 18.1764  -2 
   3  -1   9 360.590 18.1764   1 
   4  -1   9 0.38548 0.75707   1 
   5  -1   9 224.811 4.43775   1 
  -6   0   9 1.42076 3.48002   1 
  -5   0   9 3.71046 2.68229   1 
  -4   0   9 166.144 13.4014   1 
  -3   0   9 179.925 3.26194   1 
  -2   0   9 16.1401 1.01403   1 
  -1   0   9 285.413 3.76243   1 
   0   0   9 0.63095 0.60542   1 
   1   0   9 285.470 3.34873   1 
   2   0   9 15.0892 1.13942   1 
   3   0   9 184.627 3.26425   1 
   4   0   9 196.625 3.74355   1 
   5   0   9 3.94483 0.95367   1 
   6   0   9 1.62974 1.14578   1 
  -5   1   9 218.748 16.2358   1 
  -4   1   9 -0.9954 2.88254   1 
  -3   1   9 17.9817 1.27196   1 
  -2   1   9 482.495 4.90758   1 
  -1   1   9 869.299 7.78179   1 
   0   1   9 78.7512 2.28430   1 
   1   1   9 2.48649 0.56704   1 
   2   1   9 241.761 3.25501   1 
   3   1   9 151.441 2.91182   1 
   4   1   9 370.020 5.60115   1 
   5   1   9 356.744 5.67863   1 
   6   1   9 8.41176 1.73294   1 
  -4   2   9 260.568 16.6672   1 
  -3   2   9 64.4796 1.81628   1 
  -2   2   9 135.377 2.24896   1 
  -1   2   9 984.851 8.53995   1 
   0   2   9 759.583 7.61464   1 
   1   2   9 -0.3632 0.42383   1 
   2   2   9 57.7923 1.89591   1 
   3   2   9 0.34411 0.59090   1 
   4   2   9 7.97846 1.13767   1 
   5   2   9 0.83467 0.89913   1 
   6   2   9 6.82082 1.60563   1 
  -4   3   9 675.635 13.2053   1 
  -3   3   9 1.22536 0.59523   1 
  -2   3   9 311.223 3.65149   1 
  -1   3   9 39.5289 1.66965   1 
   5   0   4 216.149 3.65276  -2 
   0   3   9 216.149 3.65276   1 
   1   3   9 205.003 2.85337   1 
   2   3   9 4.74052 0.74538   1 
   3   3   9 54.6845 2.12002   1 
   4   3   9 178.078 3.73703   1 
   5   3   9 214.819 4.30266   1 
  -4   4   9 116.770 4.64330   1 
  -3   4   9 2.37722 0.61525   1 
  -2   4   9 491.704 5.23898   1 
  -1   4   9 168.711 3.03830   1 
   5  -1   4 127.541 8.70493  -2 
   0   4   9 127.541 8.70493   1 
   1   4   9 389.078 4.75248   1 
   2   4   9 1154.94 9.57499   1 
   3   4   9 -0.0835 0.63165   1 
   4   4   9 0.08549 0.71644   1 
   5   4   9 220.173 4.16885   1 
  -4   5   9 19.4989 1.73178   1 
  -3   5   9 77.1096 2.18319   1 
  -2   5   9 126.988 2.61899   1 
  -1   5   9 548.000 6.17514   1 
   0   5   9 5.47392 0.86197   1 
   1   5   9 19.4860 1.19232   1 
   2   5   9 109.610 2.35774   1 
   3   5   9 282.954 4.40773   1 
   4   5   9 110.832 3.08950   1 
   5   5   9 0.88731 0.93734   1 
  -4   6   9 13.4955 1.71473   1 
  -3   6   9 29.4814 1.61457   1 
  -2   6   9 105.131 2.64713   1 
  -1   6   9 0.54950 0.62740   1 
   0   6   9 48.3414 2.31166   1 
   1   6   9 84.3687 1.98944   1 
   2   6   9 133.856 2.71654   1 
   3   6   9 45.3864 2.14116   1 
   4   6   9 3.00259 0.91297   1 
   3  -2  12 114.725 4.52441  -2 
   5   6   9 114.725 4.52441   1 
  -3   7   9 33.8086 1.97815   1 
  -2   7   9 66.0239 2.55067   1 
   6  -4   3 577.895 8.61249  -2 
  -1   7   9 577.895 8.61249   1 
   0   7   9 28.5967 1.74084   1 
   1   7   9 58.3202 2.39526   1 
   2   7   9 274.119 4.14410   1 
   3   7   9 155.717 3.31936   1 
   4   7   9 75.7021 3.02631   1 
  -7   5   0 281.482 7.16756  -2 
  -3   8   9 281.482 7.16756   1 
  -2   8   9 20.4235 1.83013   1 
   6  -5   3 116.245 3.71400  -2 
  -1   8   9 116.245 3.71400   1 
   0   8   9 264.833 4.49901   1 
   1   8   9 103.086 2.82126   1 
   2   8   9 7.99047 1.03443   1 
   3   8   9 62.8672 2.72936   1 
   4   8   9 1.03412 0.90573   1 
  -2   9   9 4.05171 1.10313   1 
  -1   9   9 3.75510 1.00951   1 
   0   9   9 17.6563 1.54264   1 
   1   9   9 28.3696 1.81703   1 
   2   9   9 471.051 6.37908   1 
   3   9   9 -1.0289 0.78441   1 
   0  10   9 2.60494 1.05540   1 
   1  10   9 13.6912 1.48830   1 
  -1  -9  10 354.440 6.77842   1 
   0  -9  10 32.8641 2.71481   1 
  -3  -8  10 103.623 3.53706   1 
  -2  -8  10 1.95191 1.02603   1 
  -1  -8  10 195.184 4.78348   1 
   0  -8  10 444.852 8.01732   1 
   1  -8  10 14.9752 1.61000   1 
   2  -8  10 56.5012 3.50237   1 
  -4  -7  10 7.28080 1.40100   1 
  -3  -7  10 268.384 4.84866   1 
  -2  -7  10 178.644 3.79441   1 
  -1  -7  10 191.292 4.06175   1 
   0  -7  10 52.4671 3.19855   1 
   4  10   5 13.2506 4.46570  -2 
   1  -7  10 13.2506 4.46570   1 
   2  -7  10 40.7999 2.67803   1 
   3  10   8 19.7292 9.47326  -2 
   3  -7  10 19.7292 9.47326   1 
  -4  -6  10 250.038 5.02557   1 
  -3  -6  10 54.4642 2.54131   1 
  -2  -6  10 69.0565 2.77144   1 
  -1  -6  10 125.535 3.38404   1 
   0  -6  10 132.132 3.70281   1 
   4   9   5 109.981 3.03770  -2 
   1  -6  10 109.981 3.03770   1 
   2  -6  10 388.617 6.44433   1 
   3   9   8 616.307 9.35877  -2 
   3  -6  10 616.307 9.35877   1 
  -4  -5  10 122.286 4.13392   1 
  -3  -5  10 483.288 6.30966   1 
  -2  -5  10 91.1347 2.74157   1 
   5   8   2 79.5319 5.90708  -2 
  -1  -5  10 79.5319 5.90708   1 
   0  -5  10 127.422 3.41522   1 
   4   8   5 32.7013 2.49415  -2 
   1  -5  10 32.7013 2.49415   1 
   2  -5  10 0.67100 0.88991   1 
   3  -5  10 146.812 3.97393   1 
   4  -5  10 1.52452 1.10723   1 
  -5  -4  10 97.7897 3.60557   1 
  -4  -4  10 0.18687 0.82355   1 
  -3  -4  10 53.2144 2.30556   1 
  -2  -4  10 60.6570 2.43325   1 
  -1  -4  10 294.092 4.86099   1 
   0  -4  10 0.30009 0.78206   1 
   1  -4  10 80.6369 2.44005   1 
   2  -4  10 438.245 6.02541   1 
   3  -4  10 283.423 5.09672   1 
   4  -4  10 32.7688 2.34059   1 
  -5  -3  10 18.2792 2.51976   1 
  -4  -3  10 191.608 3.99578   1 
  -3  -3  10 283.254 4.32050   1 
  -2  -3  10 6.14495 0.96596   1 
  -1  -3  10 61.7582 2.57022   1 
   0  -3  10 402.388 5.49781   1 
   1  -3  10 246.779 3.73107   1 
   2  -3  10 10.9783 1.15474   1 
   3  -3  10 249.943 4.68238   1 
   4  -3  10 6.22636 1.35262   1 
  -5  -2  10 0.51502 2.49322   1 
  -4  -2  10 239.683 5.22616   1 
  -3  -2  10 590.295 6.66888   1 
  -2  -2  10 1.29525 0.67285   1 
  -1  -2  10 39.9859 2.07912   1 
   5   5   4 372.879 7.23611  -2 
   0  -2  10 372.879 7.23611   1 
   1  -2  10 241.669 3.49458   1 
   2  -2  10 7.45257 0.94741   1 
   3  -2  10 228.967 4.16769   1 
   4  -2  10 1.22884 0.92311   1 
   5  -2  10 20.6733 1.98375   1 
  -5  -1  10 6.37537 3.08884   1 
  -4  -1  10 385.350 8.76388   1 
  -3  -1  10 2.30118 0.81452   1 
   6   4   1 249.670 3.84357  -2 
  -2  -1  10 249.670 3.84357   1 
  -1  -1  10 178.361 3.21547   1 
   5   4   4 84.3936 2.77160  -2 
   0  -1  10 84.3936 2.77160   1 
   1  -1  10 2.48249 0.60451   1 
   2  -1  10 53.0018 1.99897   1 
   3  -1  10 52.4744 2.41539   1 
   4  -1  10 8.76252 1.30887   1 
   5  -1  10 64.6473 2.92921   1 
  -5   0  10 15.0108 6.32045   1 
  -4   0  10 116.197 6.51416   1 
  -3   0  10 170.444 3.60151   1 
   6   3   1 251.202 5.13520  -2 
  -2   0  10 251.202 5.13520   1 
  -1   0  10 38.0317 1.85888   1 
   0   0  10 1791.76 14.8806   1 
   1   0  10 38.1184 1.39046   1 
   2   0  10 11.1343 1.01016   1 
   3   0  10 170.818 3.52960   1 
   4   0  10 141.768 3.52045   1 
   5   0  10 23.7894 1.90364   1 
  -5   1  10 44.9206 9.53076   1 
  -4   1  10 5.74304 4.71100   1 
  -3   1  10 49.1965 2.10633   1 
  -2   1  10 53.8551 1.83102   1 
  -1   1  10 2.34055 0.68959   1 
   0   1  10 81.1240 2.54349   1 
   1   1  10 177.251 3.26801   1 
   2   1  10 252.158 3.76518   1 
   3   1  10 2.29868 0.76614   1 
   4   1  10 398.808 6.07810   1 
   3   3  12 146.532 4.27710  -2 
   5   1  10 146.532 4.27710   1 
  -4   2  10 -1.1792 0.86762   1 
  -3   2  10 221.201 4.15528   1 
  -2   2  10 6.53583 0.75144   1 
  -1   2  10 239.811 3.72687   1 
   0   2  10 190.775 3.45807   1 
   1   2  10 40.5791 1.89028   1 
   2   2  10 1.69397 0.65581   1 
   3   2  10 588.874 6.71107   1 
   4   2  10 248.912 4.65489   1 
   3   2  12 199.367 4.52271  -2 
   5   2  10 199.367 4.52271   1 
  -4   3  10 6.27658 1.30402   1 
   7   0   0 289.508 5.37855  -2 
  -3   3  10 289.508 5.37855   1 
  -2   3  10 12.7158 1.02897   1 
   6   0   3 250.556 11.6411  -2 
  -1   3  10 250.556 11.6411   1 
   0   3  10 412.795 5.36048   1 
   1   3  10 57.6183 2.51157   1 
   2   3  10 6.58501 0.87415   1 
   3   3  10 300.605 4.32465   1 
   4   3  10 197.557 3.93309   1 
   3   1  12 17.9525 3.22201  -2 
   5   3  10 17.9525 3.22201   1 
  -4   4  10 28.2341 2.91627   1 
  -7   1   0 349.657 6.37275  -2 
  -3   4  10 349.657 6.37275   1 
  -2   4  10 436.781 5.24191   1 
   6  -1   3 81.7299 7.22565  -2 
  -1   4  10 81.7299 7.22565   1 
   0   4  10 0.18523 0.70400   1 
   1   4  10 290.266 5.11473   1 
   2   4  10 53.6936 2.06860   1 
   3   4  10 53.2391 2.38237   1 
   4   4  10 0.92557 0.82762   1 
   5   4  10 104.626 3.35010   1 
  -4   5  10 0.80447 0.89353   1 
  -3   5  10 141.814 3.29917   1 
  -2   5  10 2.03349 0.73067   1 
  -1   5  10 0.52176 0.70030   1 
   0   5  10 121.588 2.96775   1 
   1   5  10 93.6866 3.07247   1 
   2   5  10 93.5520 2.68443   1 
   3   5  10 496.948 6.73725   1 
   4   5  10 122.651 3.30730   1 
  -3   6  10 516.918 7.44095   1 
  -2   6  10 381.886 5.54392   1 
  -1   6  10 5.29820 0.99878   1 
   0   6  10 131.915 3.33437   1 
   1   6  10 129.947 3.24406   1 
   5  -2   8 85.4949 4.96479  -2 
   2   6  10 85.4949 4.96479   1 
   3   6  10 51.4280 2.51501   1 
   4  -2  11 350.092 5.77276  -2 
   4   6  10 350.092 5.77276   1 
  -3   7  10 0.35407 0.86692   1 
  -2   7  10 45.5966 2.44694   1 
  -1   7  10 12.1191 1.33769   1 
   0   7  10 50.9882 2.54260   1 
   1   7  10 192.603 4.30142   1 
   5  -3   8 214.635 4.54929  -2 
   2   7  10 214.635 4.54929   1 
   3   7  10 281.125 4.95762   1 
   4  -3  11 398.070 6.72196  -2 
   4   7  10 398.070 6.72196   1 
  -2   8  10 50.7985 2.64287   1 
  -1   8  10 15.1612 1.53313   1 
   0   8  10 445.196 6.73215   1 
   1   8  10 196.008 4.43113   1 
   5  -4   8 306.953 12.9004  -2 
   2   8  10 306.953 12.9004   1 
   3   8  10 102.827 3.68833   1 
   0   9  10 32.1274 2.21429   1 
   1   9  10 374.549 6.39187   1 
  -1  -8  11 209.212 5.17302   1 
   0  -8  11 27.4938 2.48475   1 
  -2  -7  11 769.305 9.01113   1 
  -1  -7  11 293.035 5.53650   1 
   0  -7  11 18.8371 2.09043   1 
   1  -7  11 336.095 6.54836   1 
  -3  -6  11 31.4103 2.08710   1 
   6   9   1 383.774 6.09977  -2 
  -2  -6  11 383.774 6.09977   1 
  -1  -6  11 100.628 3.72586   1 
   5   9   4 23.9192 4.53206  -2 
   0  -6  11 23.9192 4.53206   1 
   1  -6  11 23.1090 2.11946   1 
   2  -6  11 260.890 5.58770   1 
  -4  -5  11 5.85619 1.34278   1 
  -3  -5  11 271.908 4.70471   1 
   6   8   1 92.0057 2.89327  -2 
  -2  -5  11 92.0057 2.89327   1 
  -1  -5  11 17.2075 1.69300   1 
   5   8   4 449.776 12.0373  -2 
   0  -5  11 449.776 12.0373   1 
   1  -5  11 702.782 9.51438   1 
   2  -5  11 69.8185 3.17005   1 
   3  -5  11 107.006 4.06520   1 
  -7  -7   2 102.048 6.52345  -2 
  -4  -4  11 102.048 6.52345   1 
  -3  -4  11 115.822 3.18328   1 
   6   7   1 682.858 12.2113  -2 
  -2  -4  11 682.858 12.2113   1 
  -1  -4  11 49.2075 2.53005   1 
   0  -4  11 -0.4936 0.83283   1 
   1  -4  11 425.562 6.52560   1 
   2  -4  11 474.919 6.74227   1 
   3  -4  11 4.82775 1.33008   1 
  -4  -3  11 33.6795 2.12952   1 
  -3  -3  11 42.3043 2.46464   1 
  -2  -3  11 36.2512 2.03438   1 
  -1  -3  11 -0.9998 0.73201   1 
   0  -3  11 17.4555 1.66085   1 
   1  -3  11 89.4060 3.46319   1 
   2  -3  11 -0.3711 0.74455   1 
   3  -3  11 81.9408 3.19884   1 
   4  -3  11 409.802 6.94840   1 
  -4  -2  11 14.8145 1.88009   1 
  -3  -2  11 7.38246 1.13094   1 
  -2  -2  11 172.721 3.48598   1 
  -1  -2  11 6.88960 1.07300   1 
   0  -2  11 205.362 3.91083   1 
   1  -2  11 391.345 5.76895   1 
   2  -2  11 287.042 4.66675   1 
   4   6   9 3.18095 1.99746  -2 
   3  -2  11 3.18095 1.99746   1 
   4  -2  11 129.100 3.86651   1 
  -4  -1  11 52.5638 2.86094   1 
   7   4   0 114.429 3.50607  -2 
  -3  -1  11 114.429 3.50607   1 
  -2  -1  11 7.71058 1.01545   1 
  -1  -1  11 14.7997 1.39404   1 
   0  -1  11 60.4578 2.53201   1 
   1  -1  11 82.0730 3.04994   1 
   2  -1  11 15.0220 1.32502   1 
   3  -1  11 3.87670 1.02246   1 
   4  -1  11 8.40245 1.35857   1 
  -4   0  11 191.675 6.11638   1 
   7   3   0 232.044 5.02535  -2 
  -3   0  11 232.044 5.02535   1 
  -2   0  11 0.36080 0.64681   1 
  -1   0  11 385.720 5.18609   1 
   0   0  11 6.70787 0.98167   1 
   1   0  11 377.277 5.54016   1 
   2   0  11 -0.0522 0.63335   1 
   3   0  11 23.9125 1.84763   1 
   4   0  11 198.245 4.33794   1 
  -4   1  11 4.02902 1.45796   1 
  -3   1  11 3.94511 0.96248   1 
  -2   1  11 16.5805 1.29331   1 
  -1   1  11 84.1351 2.45946   1 
   0   1  11 67.1806 2.71444   1 
   1   1  11 17.1405 1.42350   1 
   2   1  11 7.33171 0.98824   1 
   3   1  11 30.1201 1.94506   1 
   4   3  11 92.6357 3.35881  -2 
   4   1  11 92.6357 3.35881   1 
  -4   2  11 114.308 3.76998   1 
  -3   2  11 1.88604 0.87518   1 
  -2   2  11 278.907 4.29257   1 
  -1   2  11 389.073 5.19419   1 
   0   2  11 204.262 3.76838   1 
   1   2  11 8.48753 1.21003   1 
   5   2   8 187.834 3.75141  -2 
   2   2  11 187.834 3.75141   1 
   3   2  11 7.76848 1.15781   1 
   4   2  11 30.1182 2.15014  -2 
   4   2  11 30.1182 2.15014   1 
  -4   3  11 388.735 8.86355   1 
  -3   3  11 75.8685 2.78985   1 
  -2   3  11 0.45437 0.63437   1 
  -1   3  11 80.5191 2.50742   1 
   0   3  11 17.0561 1.48978   1 
   1   3  11 -0.1663 0.73280   1 
   5   1   8 75.7056 2.49935  -2 
   2   3  11 75.7056 2.49935   1 
   3   3  11 42.6915 2.21152   1 
   4   1  11 85.8144 3.43261  -2 
   4   3  11 85.8144 3.43261   1 
  -3   4  11 3.56229 0.91620   1 
  -2   4  11 475.400 5.72101   1 
  -1   4  11 397.348 5.89018   1 
   0   4  11 1.75947 0.85939   1 
   1   4  11 42.4189 2.47836   1 
   5   0   8 582.189 13.1923  -2 
   2   4  11 582.189 13.1923   1 
   3   4  11 116.345 3.43322   1 
   4   4  11 67.8124 3.21091   1 
  -3   5  11 102.264 2.87107   1 
  -2   5  11 70.1116 2.60527   1 
  -1   5  11 665.732 8.19616   1 
   0   5  11 254.929 4.55188   1 
   1   5  11 19.1336 1.75978   1 
   2   5  11 100.520 2.78578   1 
   3   5  11 283.759 5.30502   1 
   4   5  11 1.15621 0.98927   1 
  -2   6  11 256.411 4.56223   1 
  -1   6  11 23.4614 1.79752   1 
   0   6  11 22.3515 1.85608   1 
   6  -2   7 104.826 4.22825  -2 
   1   6  11 104.826 4.22825   1 
   2   6  11 194.219 4.05887   1 
   5  -2  10 53.1874 2.82318  -2 
   3   6  11 53.1874 2.82318   1 
   7  -3   4 453.148 13.3395  -2 
  -1   7  11 453.148 13.3395   1 
   0   7  11 21.6643 1.83166   1 
   6  -3   7 321.330 6.04179  -2 
   1   7  11 321.330 6.04179   1 
   2   7  11 778.167 10.0663   1 
   0   8  11 26.8115 2.08236   1 
   6  -4   7 240.754 5.40712  -2 
   1   8  11 240.754 5.40712   1 
  -2  -6  12 43.8439 2.61595   1 
  -1  -6  12 44.8397 2.60255   1 
   0  -6  12 183.745 4.91441   1 
   1  -6  12 92.6900 4.64472   1 
  -2  -5  12 2.38650 0.97781   1 
  -1  -5  12 12.8369 1.61176   1 
   0  -5  12 234.051 5.41301   1 
   1  -5  12 102.090 4.49172   1 
   2  -5  12 0.56814 0.98368   1 
   7   7   0 368.411 24.0453  -2 
  -3  -4  12 368.411 24.0453   1 
  -2  -4  12 98.0185 3.26730   1 
  -1  -4  12 205.364 4.44118   1 
   0  -4  12 253.796 5.12723   1 
   1  -4  12 1.15331 1.10040   1 
   2  -4  12 90.3461 3.15214   1 
  -3  -3  12 156.582 4.07309   1 
  -2  -3  12 15.5265 1.53849   1 
  -1  -3  12 90.2367 3.41683   1 
   0  -3  12 325.494 5.72238   1 
   1  -3  12 46.5830 2.70492   1 
   5   7   8 -2.0984 2.69739  -2 
   2  -3  12 -2.0984 2.69739   1 
   3  -3  12 431.115 7.11811   1 
  -3  -2  12 195.661 5.59603   1 
  -2  -2  12 39.3958 2.21132   1 
  -1  -2  12 28.7138 2.03219   1 
   6   6   5 205.740 14.0403  -2 
   0  -2  12 205.740 14.0403   1 
   1  -2  12 3.87552 1.16712   1 
   5   6   8 88.8565 3.05961  -2 
   2  -2  12 88.8565 3.05961   1 
   3  -2  12 5.16694 1.29277   1 
  -3  -1  12 -1.0707 0.97898   1 
  -2  -1  12 17.9991 1.53209   1 
  -1  -1  12 389.139 5.92568   1 
   6   5   5 125.958 3.58772  -2 
   0  -1  12 125.958 3.58772   1 
   1  -1  12 113.921 3.78523   1 
   5   5   8 37.2175 2.36587  -2 
   2  -1  12 37.2175 2.36587   1 
   3  -1  12 209.680 4.64271   1 
  -3   0  12 40.7223 2.88529   1 
  -2   0  12 5.68447 0.98937   1 
  -1   0  12 28.5218 1.91585   1 
   6   4   5 756.459 18.7868  -2 
   0   0  12 756.459 18.7868   1 
   1   0  12 28.4359 1.94161   1 
   2   0  12 4.05849 1.14403   1 
   3   0  12 42.4227 2.59851   1 
  -3   1  12 189.925 5.11339   1 
  -2   1  12 31.5002 1.88617   1 
  -1   1  12 103.782 2.96940   1 
   0   1  12 6.57163 1.06310   1 
   1   1  12 404.618 6.05915   1 
   2   1  12 15.2681 1.63289   1 
   3   1  12 -0.5402 0.85395   1 
  -3   2  12 7.28458 1.47946   1 
  -2   2  12 95.5145 2.70817   1 
  -1   2  12 4.41706 0.90439   1 
   0   2  12 102.347 2.99154   1 
   6   2   7 39.0166 2.70069  -2 
   1   2  12 39.0166 2.70069   1 
   2   2  12 37.5243 2.37633   1 
   5   2  10 212.331 4.87920  -2 
   3   2  12 212.331 4.87920   1 
  -3   3  12 420.756 9.34021   1 
  -2   3  12 2.38020 0.80406   1 
   7   1   4 57.3394 2.53077  -2 
  -1   3  12 57.3394 2.53077   1 
   0   3  12 324.529 5.31144   1 
   6   1   7 300.527 5.75587  -2 
   1   3  12 300.527 5.75587   1 
   2   3  12 16.5038 1.70808   1 
   5   1  10 158.721 13.5032  -2 
   3   3  12 158.721 13.5032   1 
  -2   4  12 88.8821 2.83222   1 
   7   0   4 1.80937 1.77727  -2 
  -1   4  12 1.80937 1.77727   1 
   0   4  12 250.028 4.95132   1 
   6   0   7 288.528 5.75371  -2 
   1   4  12 288.528 5.75371   1 
   2   4  12 87.4972 3.41183   1 
   3   4  12 166.519 4.06393   1 
  -2   5  12 0.39869 0.79314   1 
  -1   5  12 99.4784 3.33237   1 
   0   5  12 220.587 4.40325   1 
   1   5  12 10.4219 1.52231   1 
   2   5  12 2.26052 1.04331   1 
  -1   6  12 80.7828 3.30755   1 
   0   6  12 183.050 4.29484   1 
   1   6  12 45.8473 2.55817   1 
   2   6  12 42.3447 2.68539   1 
  -1  -4  13 14.5009 1.67785   1 
   6   8   5 54.4973 4.77596  -2 
   0  -4  13 54.4973 4.77596   1 
  -2  -3  13 63.4733 2.93620   1 
  -1  -3  13 45.1541 2.67621   1 
   0  -3  13 14.8233 1.70414   1 
   1  -3  13 66.6132 3.58913   1 
  -2  -2  13 183.236 4.02563   1 
   7   6   4 278.207 5.72684  -2 
  -1  -2  13 278.207 5.72684   1 
   0  -2  13 73.2753 3.36383   1 
   6   6   7 49.7512 3.13432  -2 
   1  -2  13 49.7512 3.13432   1 
   2  -2  13 140.988 4.24164   1 
  -2  -1  13 143.864 3.48085   1 
   7   5   4 958.918 10.6980  -2 
  -1  -1  13 958.918 10.6980   1 
   0  -1  13 14.7675 1.67024   1 
   6   5   7 34.7735 2.69820  -2 
   1  -1  13 34.7735 2.69820   1 
   2  -1  13 77.4528 3.40446   1 
  -2   0  13 24.5924 1.77576   1 
   7   4   4 53.0128 2.64202  -2 
  -1   0  13 53.0128 2.64202   1 
   0   0  13 5.57380 1.21269   1 
   1   0  13 52.5102 2.88796   1 
   2   0  13 23.6837 2.24762   1 
  -2   1  13 70.7089 2.83177   1 
  -1   1  13 27.4500 1.92188   1 
   0   1  13 13.7899 1.47550   1 
   1   1  13 201.733 4.82184   1 
   2   1  13 148.209 4.34354   1 
  -2   2  13 135.989 3.67885   1 
  -1   2  13 24.4526 1.86888   1 
   0   2  13 61.9848 2.93374   1 
   1   2  13 96.3281 4.02028   1 
   2   2  13 187.478 4.84131   1 
  -1   3  13 73.6147 3.03768   1 
   7   1   6 21.5607 2.98294  -2 
   0   3  13 21.5607 2.98294   1 
   1   3  13 45.3306 2.79270   1 
   2   3  13 64.5371 3.53640   1 
   0   4  13 28.1077 2.21277   1 
   1   4  13 11.9880 1.64282   1 
   0   0   0    0.00    0.00   0 
;
_shelx_hkl_checksum              17422
loop_
_space_group_symop_operation_xyz
'x, y, z'
'-x, -y, -z'
loop_
_atom_site_label
_atom_site_type_symbol
_atom_site_fract_x
_atom_site_fract_y
_atom_site_fract_z
_atom_site_U_iso_or_equiv
_atom_site_adp_type
_atom_site_occupancy
_atom_site_site_symmetry_order
_atom_site_calc_flag
_atom_site_refinement_flags_posn
_atom_site_refinement_flags_adp
S1 S 0.52581(4) 0.67557(2) 0.75003(2) 0.01438(8) Uani 1 1 d . .
N10 N 0.27535(16) 0.61411(9) 0.74996(9) 0.01613(19) Uani 1 1 d . .
C11 C 0.2476(2) 0.53385(12) 0.86812(11) 0.0207(2) Uani 1 1 d . .
H11A H 0.1014 0.5000 0.8657 0.031 Uiso 1 1 calc R U
H11B H 0.2563 0.5895 0.9453 0.031 Uiso 1 1 calc R U
H11C H 0.3667 0.4591 0.8714 0.031 Uiso 1 1 calc R U
C12 C 0.2473(2) 0.53381(12) 0.63192(11) 0.0207(2) Uani 1 1 d . .
H12A H 0.3669 0.4593 0.6283 0.031 Uiso 1 1 calc R U
H12B H 0.2551 0.5895 0.5547 0.031 Uiso 1 1 calc R U
H12C H 0.1014 0.4995 0.6347 0.031 Uiso 1 1 calc R U
N20 N 0.49900(16) 0.75930(9) 0.61567(9) 0.01603(19) Uani 1 1 d . .
C21 C 0.71179(19) 0.78305(12) 0.55386(11) 0.0191(2) Uani 1 1 d . .
H21A H 0.6914 0.7886 0.4596 0.029 Uiso 1 1 calc R U
H21B H 0.8275 0.7097 0.5747 0.029 Uiso 1 1 calc R U
H21C H 0.7581 0.8666 0.5862 0.029 Uiso 1 1 calc R U
C22 C 0.31007(19) 0.86225(11) 0.59084(11) 0.0180(2) Uani 1 1 d . .
H22A H 0.3504 0.9488 0.6186 0.027 Uiso 1 1 calc R U
H22B H 0.1784 0.8414 0.6395 0.027 Uiso 1 1 calc R U
H22C H 0.2756 0.8650 0.4979 0.027 Uiso 1 1 calc R U
N30 N 0.49890(16) 0.75935(9) 0.88421(9) 0.01607(19) Uani 1 1 d . .
C31 C 0.31004(19) 0.86241(11) 0.90914(11) 0.0178(2) Uani 1 1 d . .
H31A H 0.2757 0.8652 1.0021 0.027 Uiso 1 1 calc R U
H31B H 0.1783 0.8416 0.8606 0.027 Uiso 1 1 calc R U
H31C H 0.3504 0.9490 0.8813 0.027 Uiso 1 1 calc R U
C32 C 0.71171(19) 0.78313(12) 0.94626(11) 0.0191(2) Uani 1 1 d . .
H32A H 0.7574 0.8671 0.9145 0.029 Uiso 1 1 calc R U
H32B H 0.8277 0.7102 0.9249 0.029 Uiso 1 1 calc R U
H32C H 0.6914 0.7880 1.0405 0.029 Uiso 1 1 calc R U
P1 P 0.20524(5) 0.69701(3) 0.24999(3) 0.02038(9) Uani 1 1 d . .
C1 C 0.0343(2) 0.84570(12) 0.24991(11) 0.0194(2) Uani 1 1 d D .
H1 H -0.122(2) 0.8658(15) 0.2492(15) 0.023 Uiso 1 1 d D U
N1 N 0.15214(18) 0.95011(10) 0.25002(10) 0.0213(2) Uani 1 1 d . .
N2 N 0.37434(19) 0.91147(10) 0.24996(10) 0.0223(2) Uani 1 1 d . .
N3 N 0.43126(17) 0.78086(10) 0.25002(10) 0.0207(2) Uani 1 1 d . .
loop_
_atom_site_aniso_label
_atom_site_aniso_U_11
_atom_site_aniso_U_22
_atom_site_aniso_U_33
_atom_site_aniso_U_23
_atom_site_aniso_U_13
_atom_site_aniso_U_12
S1 0.01328(14) 0.01460(13) 0.01513(13) -0.00003(9) -0.00013(9) -0.00105(9)
N10 0.0158(4) 0.0169(4) 0.0166(4) 0.0003(3) -0.0004(3) -0.0058(3)
C11 0.0221(6) 0.0200(5) 0.0207(5) 0.0031(4) 0.0028(4) -0.0052(4)
C12 0.0222(6) 0.0196(5) 0.0209(5) -0.0033(4) -0.0032(4) -0.0049(4)
N20 0.0140(4) 0.0185(4) 0.0157(4) 0.0019(3) 0.0015(3) -0.0020(3)
C21 0.0164(5) 0.0216(5) 0.0199(5) -0.0006(4) 0.0043(4) -0.0047(4)
C22 0.0170(5) 0.0196(5) 0.0168(5) 0.0020(4) -0.0015(4) -0.0002(4)
N30 0.0140(4) 0.0182(4) 0.0159(4) -0.0022(3) -0.0017(3) -0.0015(3)
C31 0.0169(5) 0.0193(5) 0.0165(5) -0.0017(4) 0.0013(4) 0.0002(4)
C32 0.0167(5) 0.0211(5) 0.0202(5) 0.0007(4) -0.0049(4) -0.0044(4)
P1 0.02186(17) 0.01678(15) 0.02284(16) -0.00001(11) -0.00022(12) -0.00372(11)
C1 0.0174(5) 0.0250(6) 0.0156(5) -0.0001(4) -0.0001(4) -0.0010(4)
N1 0.0269(5) 0.0192(5) 0.0175(5) -0.0001(3) -0.0006(4) -0.0016(4)
N2 0.0256(5) 0.0261(5) 0.0170(5) 0.0001(4) -0.0005(4) -0.0107(4)
N3 0.0165(5) 0.0278(5) 0.0178(5) -0.0001(4) -0.0003(4) -0.0027(4)
loop_
_atom_type_symbol
_atom_type_description
_atom_type_scat_dispersion_real
_atom_type_scat_dispersion_imag
_atom_type_scat_source
C C 0.0033 0.0016 'International Tables Vol C Tables 4.2.6.8 and 6.1.1.4'
H H 0.0000 0.0000 'International Tables Vol C Tables 4.2.6.8 and 6.1.1.4'
N N 0.0061 0.0033 'International Tables Vol C Tables 4.2.6.8 and 6.1.1.4'
P P 0.1023 0.0942 'International Tables Vol C Tables 4.2.6.8 and 6.1.1.4'
S S 0.1246 0.1234 'International Tables Vol C Tables 4.2.6.8 and 6.1.1.4'
loop_
_geom_angle_atom_site_label_1
_geom_angle_atom_site_label_2
_geom_angle_atom_site_label_3
_geom_angle
N30 S1 N20 117.17(5)
N30 S1 N10 98.88(5)
N20 S1 N10 98.84(5)
C12 N10 C11 110.17(9)
C12 N10 S1 111.37(8)
C11 N10 S1 111.25(7)
N10 C11 H11A 109.5
N10 C11 H11B 109.5
H11A C11 H11B 109.5
N10 C11 H11C 109.5
H11A C11 H11C 109.5
H11B C11 H11C 109.5
N10 C12 H12A 109.5
N10 C12 H12B 109.5
H12A C12 H12B 109.5
N10 C12 H12C 109.5
H12A C12 H12C 109.5
H12B C12 H12C 109.5
C22 N20 C21 114.90(9)
C22 N20 S1 122.73(8)
C21 N20 S1 114.81(8)
N20 C21 H21A 109.5
N20 C21 H21B 109.5
H21A C21 H21B 109.5
N20 C21 H21C 109.5
H21A C21 H21C 109.5
H21B C21 H21C 109.5
N20 C22 H22A 109.5
N20 C22 H22B 109.5
H22A C22 H22B 109.5
N20 C22 H22C 109.5
H22A C22 H22C 109.5
H22B C22 H22C 109.5
C31 N30 C32 114.80(9)
C31 N30 S1 122.81(8)
C32 N30 S1 114.86(8)
N30 C31 H31A 109.5
N30 C31 H31B 109.5
H31A C31 H31B 109.5
N30 C31 H31C 109.5
H31A C31 H31C 109.5
H31B C31 H31C 109.5
N30 C32 H32A 109.5
N30 C32 H32B 109.5
H32A C32 H32B 109.5
N30 C32 H32C 109.5
H32A C32 H32C 109.5
H32B C32 H32C 109.5
N3 P1 C1 89.54(6)
N1 C1 P1 112.03(9)
N1 C1 H1 115.9(10)
P1 C1 H1 132.1(10)
C1 N1 N2 111.56(10)
N3 N2 N1 114.90(10)
N2 N3 P1 111.97(8)
loop_
_geom_bond_atom_site_label_1
_geom_bond_atom_site_label_2
_geom_bond_distance
S1 N30 1.6212(10)
S1 N20 1.6224(10)
S1 N10 1.6943(10)
N10 C12 1.4844(14)
N10 C11 1.4848(14)
C11 H11A 0.9800
C11 H11B 0.9800
C11 H11C 0.9800
C12 H12A 0.9800
C12 H12B 0.9800
C12 H12C 0.9800
N20 C22 1.4717(14)
N20 C21 1.4730(14)
C21 H21A 0.9800
C21 H21B 0.9800
C21 H21C 0.9800
C22 H22A 0.9800
C22 H22B 0.9800
C22 H22C 0.9800
N30 C31 1.4722(14)
N30 C32 1.4743(14)
C31 H31A 0.9800
C31 H31B 0.9800
C31 H31C 0.9800
C32 H32A 0.9800
C32 H32B 0.9800
C32 H32C 0.9800
P1 N3 1.6838(11)
P1 C1 1.7216(12)
C1 N1 1.3400(16)
C1 H1 0.940(13)
N1 N2 1.3465(15)
N2 N3 1.3279(15)
