#------------------------------------------------------------------------------
#$Date: 2017-01-05 03:58:03 +0200 (Thu, 05 Jan 2017) $
#$Revision: 189857 $
#$URL: file:///home/coder/svn-repositories/cod/cif/4/12/53/4125399.cif $
#------------------------------------------------------------------------------
#
# This file is available in the Crystallography Open Database (COD),
# http://www.crystallography.net/
#
# All data on this site have been placed in the public domain by the
# contributors.
#
data_4125399
loop_
_publ_author_name
'Beldjoudi, Yassine'
'Arauzo, Ana'
'Palacio, Fernando'
'Pilkington, Melanie'
'Rawson, Jeremy M.'
_publ_section_title
;
 Studies on a &quot;Disappearing Polymorph&quot;: Thermal and Magnetic
 Characterization of \a-p-NCC6F4CNSSN(&#x2022;).
;
_journal_issue                   51
_journal_name_full               'Journal of the American Chemical Society'
_journal_page_first              16779
_journal_page_last               16786
_journal_paper_doi               10.1021/jacs.6b10707
_journal_volume                  138
_journal_year                    2016
_chemical_formula_moiety         'C8 F4 N3 S2'
_chemical_formula_sum            'C8 F4 N3 S2'
_chemical_formula_weight         278.23
_chemical_name_systematic
;
 ?
;
_space_group_crystal_system      triclinic
_space_group_IT_number           2
_space_group_name_Hall           '-P 1'
_space_group_name_H-M_alt        'P -1'
_symmetry_space_group_name_Hall  '-P 1'
_symmetry_space_group_name_H-M   'P -1'
_atom_sites_solution_primary     intrinsic
_audit_creation_method           SHELXL-2013
_cell_angle_alpha                65.868(9)
_cell_angle_beta                 67.908(9)
_cell_angle_gamma                67.474(9)
_cell_formula_units_Z            2
_cell_length_a                   7.7121(12)
_cell_length_b                   8.0974(13)
_cell_length_c                   9.7050(16)
_cell_measurement_reflns_used    4880
_cell_measurement_temperature    323(2)
_cell_measurement_theta_max      27.13
_cell_measurement_theta_min      2.38
_cell_volume                     493.28(14)
_computing_cell_refinement       'Bruker SAINT'
_computing_data_collection       'Bruker APEX2'
_computing_data_reduction        'Bruker SAINT'
_computing_molecular_graphics    'Bruker SHELXTL'
_computing_publication_material  'Bruker SHELXTL'
_computing_structure_refinement  'SHELXL-2014 (Sheldrick 2014)'
_computing_structure_solution    'SHELXS-97 (Sheldrick 2008)'
_diffrn_ambient_temperature      323(2)
_diffrn_measured_fraction_theta_full 0.988
_diffrn_measured_fraction_theta_max 0.977
_diffrn_measurement_device_type  'Bruker APEX-II with CCD detector'
_diffrn_measurement_method       'phi and omega scans'
_diffrn_radiation_type           MoK\a
_diffrn_radiation_wavelength     0.71073
_diffrn_reflns_av_R_equivalents  0.0673
_diffrn_reflns_av_unetI/netI     0.0361
_diffrn_reflns_Laue_measured_fraction_full 0.988
_diffrn_reflns_Laue_measured_fraction_max 0.977
_diffrn_reflns_limit_h_max       9
_diffrn_reflns_limit_h_min       -9
_diffrn_reflns_limit_k_max       10
_diffrn_reflns_limit_k_min       -10
_diffrn_reflns_limit_l_max       12
_diffrn_reflns_limit_l_min       -12
_diffrn_reflns_number            6360
_diffrn_reflns_point_group_measured_fraction_full 0.988
_diffrn_reflns_point_group_measured_fraction_max 0.977
_diffrn_reflns_theta_full        25.242
_diffrn_reflns_theta_max         27.193
_diffrn_reflns_theta_min         2.382
_diffrn_source                   'fine-focus sealed tube'
_exptl_absorpt_coefficient_mu    0.576
_exptl_absorpt_correction_T_max  0.7455
_exptl_absorpt_correction_T_min  0.6751
_exptl_absorpt_correction_type   multi-scan
_exptl_absorpt_process_details   sadabs
_exptl_crystal_colour            'dark brown'
_exptl_crystal_density_diffrn    1.873
_exptl_crystal_description       block
_exptl_crystal_F_000             274
_exptl_crystal_size_max          0.500
_exptl_crystal_size_mid          0.150
_exptl_crystal_size_min          0.010
_refine_diff_density_max         0.325
_refine_diff_density_min         -0.322
_refine_diff_density_rms         0.070
_refine_ls_extinction_method     none
_refine_ls_goodness_of_fit_ref   1.294
_refine_ls_hydrogen_treatment    undef
_refine_ls_matrix_type           full
_refine_ls_number_parameters     154
_refine_ls_number_reflns         2157
_refine_ls_number_restraints     0
_refine_ls_restrained_S_all      1.294
_refine_ls_R_factor_all          0.0656
_refine_ls_R_factor_gt           0.0610
_refine_ls_shift/su_max          0.000
_refine_ls_shift/su_mean         0.000
_refine_ls_structure_factor_coef Fsqd
_refine_ls_weighting_details
'w=1/[\s^2^(Fo^2^)+(0.0246P)^2^+0.8391P] where P=(Fo^2^+2Fc^2^)/3'
_refine_ls_weighting_scheme      calc
_refine_ls_wR_factor_gt          0.1399
_refine_ls_wR_factor_ref         0.1421
_reflns_Friedel_coverage         0.000
_reflns_number_gt                1979
_reflns_number_total             2157
_reflns_threshold_expression     'I > 2\s(I)'
_cod_data_source_file            ja6b10707_si_001.cif
_cod_data_source_block           YBalpha50C
_cod_original_cell_volume        493.28(15)
_cod_database_code               4125399
_shelx_space_group_comment
;
The symmetry employed for this shelxl refinement is uniquely defined
by the following loop, which should always be used as a source of
symmetry information in preference to the above space-group names.
They are only intended as comments.
;
_shelx_estimated_absorpt_t_min   0.762
_shelx_estimated_absorpt_t_max   0.972
_shelxl_version_number           2013-3
_shelx_res_file
;
TITL YBalpha50C_a.res in P-1
CELL  0.71073   7.7121   8.0974   9.7050   65.868   67.908   67.474
ZERR    2.000   0.0012   0.0013   0.0016    0.009    0.009    0.009
LATT 1
SFAC C  N  F  S
UNIT 16  6  8  4
TEMP 50.070
SIZE 0.50 0.13 0.05
REM Old TITL YBalpha50C in P-1
REM SHELXT solution in P-1
REM R1 0.213,  Rweak 0.014,  Alpha 0.059,  Orientation as input
REM Formula found by SHELXT:  C9 N2 F4 S2
L.S. 10
ACTA
LIST
BOND $H
FMAP 2
PLAN 5
WGHT    0.024600    0.839100
FVAR       0.39795
S1    4    0.734242    0.519685    0.064763    11.00000    0.04005    0.03835 =
         0.04799   -0.01052    0.01020   -0.01699
S2    4    0.526598    0.752816    0.121797    11.00000    0.05279    0.02755 =
         0.05586   -0.00238    0.00996   -0.01570
F2    3    0.427025    0.109667    0.274362    11.00000    0.06340    0.04872 =
         0.04129   -0.02536    0.00871   -0.02849
F3    3    0.210232   -0.105291    0.501334    11.00000    0.06050    0.03379 =
         0.05960   -0.01575   -0.00751   -0.02383
F6    3    0.221669    0.515000    0.578833    11.00000    0.07685    0.04422 =
         0.04758   -0.02342    0.00461   -0.03437
F5    3    0.008671    0.294994    0.804557    11.00000    0.06561    0.06820 =
         0.03731   -0.02481    0.01130   -0.03290
N1    2    0.617755    0.368043    0.201657    11.00000    0.03622    0.03043 =
         0.04593   -0.01190    0.00462   -0.01384
N2    2    0.382739    0.630848    0.263927    11.00000    0.04030    0.02883 =
         0.04654   -0.00787    0.00781   -0.01049
C1    1    0.332275    0.323666    0.415737    11.00000    0.02757    0.02886 =
         0.03118   -0.00716   -0.00684   -0.01043
C0    1    0.450602    0.447060    0.287568    11.00000    0.03015    0.02784 =
         0.02991   -0.00551   -0.00609   -0.01075
C3    1    0.214312    0.046450    0.520705    11.00000    0.03529    0.02482 =
         0.03885   -0.00720   -0.01104   -0.01127
C2    1    0.325604    0.160204    0.403158    11.00000    0.03228    0.03053 =
         0.03138   -0.01078   -0.00412   -0.00941
C4    1    0.102926    0.088932    0.659228    11.00000    0.02956    0.03355 =
         0.03242   -0.00222   -0.00464   -0.01260
C6    1    0.221179    0.364231    0.554769    11.00000    0.03930    0.02962 =
         0.03349   -0.00923   -0.00335   -0.01533
N3    2   -0.114270   -0.119752    0.870982    11.00000    0.04799    0.04925 =
         0.05781    0.00521   -0.00295   -0.02451
C5    1    0.110246    0.250296    0.673230    11.00000    0.03412    0.03988 =
         0.03149   -0.01208   -0.00364   -0.01148
C7    1   -0.017120   -0.027269    0.778400    11.00000    0.03606    0.03797 =
         0.04256   -0.00376   -0.00793   -0.01313
HKLF 4

REM  YBalpha50C_a.res in P-1
REM R1 =  0.0610 for    1979 Fo > 4sig(Fo)  and  0.0656 for all    2157 data
REM    154 parameters refined using      0 restraints

END

WGHT      0.0177      0.8494

REM Highest difference peak  0.325,  deepest hole -0.322,  1-sigma level  0.070
Q1    1   0.4185  0.7585  0.1001  11.00000  0.05    0.32
Q2    1   0.6311  0.5408  0.0250  11.00000  0.05    0.32
Q3    1   0.6707  0.4345  0.1017  11.00000  0.05    0.31
Q4    1   0.2924  0.2825  0.3887  11.00000  0.05    0.29
Q5    1   0.6487  0.2882  0.1477  11.00000  0.05    0.29
;
_shelx_res_checksum              19550
_shelx_hkl_file
;
   0   0  -1   42.67    0.11
   0   0  -1   66.17    0.13
   0   0  -1   42.59    0.10
   0   0  -1   57.41    0.12
   0   0  -1   10.98    0.06
   0   0   1   18.38    0.07
   0   0   1    0.00    0.00
   0   0   1    3.10    0.03
   0   0  -2    9.91    0.08
   0   0  -2   10.87    0.09
   0   0  -2   10.14    0.08
   0   0  -2    9.95    0.08
   0   0  -2    6.05    0.07
   0   0   2    9.00    0.08
   0   0   2   11.01    0.09
   0   0   2    0.01    0.01
   0   0   2    9.35    0.08
   0   0   2   10.13    0.09
   0   0  -3  161.02    0.36
   0   0  -3  152.11    0.34
   0   0  -3  147.82    0.33
   0   0  -3  151.30    0.37
   0   0   3  132.21    0.33
   0   0   3    0.06    0.02
   0   0   3  134.03    0.32
   0   0   3  149.36    0.36
   0   0  -4    0.14    0.06
   0   0  -4    0.29    0.06
   0   0  -4    0.41    0.06
   0   0  -4    0.21    0.05
   0   0   4    0.34    0.06
   0   0   4    0.36    0.06
   0   0   4    0.26    0.05
   0   0  -5   32.80    0.22
   0   0  -5   30.32    0.20
   0   0  -5   29.05    0.20
   0   0  -5   29.12    0.22
   0   0   5   26.05    0.20
   0   0   5   27.22    0.20
   0   0   5   29.05    0.22
   0   0  -6   32.59    0.24
   0   0  -6   28.60    0.22
   0   0  -6   29.59    0.22
   0   0  -6   29.83    0.24
   0   0   6   26.62    0.22
   0   0   6   26.79    0.22
   0   0   6   28.34    0.24
   0   0  -7    0.24    0.09
   0   0  -7   -0.10    0.06
   0   0   7    0.15    0.08
   0   0   7    0.12    0.08
   0   0   7    0.37    0.08
   0   0  -8    4.84    0.15
   0   0   8    3.69    0.14
   0   0  -9    0.71    0.12
   0   0   9    0.39    0.10
   0   0 -10    1.93    0.16
   0   0  10    1.68    0.16
   0  -1  10    0.59    0.14
   0   1 -10   -0.14    0.12
   0  -1   9    0.07    0.12
   0   1  -9    0.55    0.12
   0  -1   8   71.97    0.45
   0   1  -8   85.46    0.46
   0  -1   7    5.05    0.14
   0  -1   7    5.04    0.16
   0   1  -7    6.29    0.15
   0  -1   6   85.90    0.41
   0  -1   6   90.18    0.41
   0  -1   6   98.97    0.45
   0   1  -6  105.31    0.43
   0   1  -6   94.73    0.40
   0   1  -6  101.00    0.46
   0  -1   5    0.02    0.06
   0  -1   5    0.06    0.05
   0  -1   5    0.08    0.06
   0   1  -5   -0.03    0.07
   0   1  -5    0.14    0.06
   0   1  -5    0.08    0.06
   0   1  -5   -0.09    0.05
   0  -1   4    0.01    0.06
   0  -1   4   -0.08    0.05
   0  -1   4    0.08    0.05
   0   1  -4    0.11    0.07
   0   1  -4    0.17    0.06
   0   1  -4   -0.07    0.04
   0   1  -4    0.12    0.05
   0  -1   3   60.40    0.24
   0  -1   3   62.08    0.24
   0  -1   3   70.69    0.27
   0   1  -3   71.64    0.26
   0   1  -3   65.49    0.24
   0   1  -3   63.79    0.23
   0   1  -3   69.21    0.27
   0  -1   2  136.34    0.30
   0  -1   2  154.88    0.31
   0  -1   2  170.26    0.35
   0   1  -2  177.17    0.34
   0   1  -2  150.73    0.30
   0   1  -2  165.35    0.35
   0  -1   1  337.50    0.61
   0  -1   1  387.51    0.65
   0  -1   1  350.98    0.74
   0  -1   1  390.23    0.88
   0   1  -1  340.44    0.54
   0   1  -1  385.38    0.57
   0   1  -1  354.66    0.71
   0   1  -1  385.76    0.70
   0  -1   0   56.14    0.12
   0  -1   0   56.98    0.13
   0  -1   0   56.18    0.12
   0  -1   0   58.04    0.13
   0  -1   0   52.35    0.13
   0   1   0   57.90    0.12
   0   1   0   65.10    0.13
   0   1   0   58.99    0.12
   0   1   0   58.99    0.14
   0  -1  -1    8.14    0.06
   0  -1  -1    8.42    0.06
   0  -1  -1    8.21    0.06
   0  -1  -1    7.15    0.05
   0  -1  -1    8.23    0.06
   0   1   1    8.67    0.06
   0   1   1    8.50    0.06
   0   1   1    8.38    0.06
   0   1   1    7.27    0.05
   0   1   1    8.12    0.06
   0  -1  -2   48.12    0.16
   0  -1  -2   52.49    0.17
   0  -1  -2   51.36    0.16
   0  -1  -2    0.53    0.02
   0  -1  -2   47.84    0.17
   0   1   2   48.59    0.16
   0   1   2   51.36    0.17
   0   1   2   49.63    0.16
   0   1   2   44.42    0.15
   0   1   2   49.74    0.18
   0  -1  -3   11.70    0.11
   0  -1  -3   11.84    0.10
   0  -1  -3   10.21    0.10
   0  -1  -3   11.15    0.11
   0   1   3   10.73    0.10
   0   1   3   11.69    0.10
   0   1   3   11.07    0.10
   0   1   3   11.47    0.11
   0  -1  -4   46.12    0.22
   0  -1  -4   45.43    0.22
   0  -1  -4   43.48    0.21
   0  -1  -4   35.88    0.21
   0   1   4   41.16    0.21
   0   1   4   43.96    0.21
   0   1   4   40.35    0.20
   0   1   4   44.82    0.23
   0  -1  -5  122.04    0.40
   0  -1  -5  118.54    0.39
   0  -1  -5  117.80    0.39
   0  -1  -5   44.99    0.26
   0   1   5  106.32    0.38
   0   1   5  109.93    0.38
   0   1   5  111.02    0.38
   0   1   5  120.23    0.42
   0  -1  -6   41.36    0.27
   0  -1  -6   42.06    0.26
   0  -1  -6   40.78    0.26
   0   1   6   35.77    0.25
   0   1   6   37.92    0.25
   0   1   6   41.27    0.28
   0  -1  -7    2.53    0.12
   0  -1  -7    2.62    0.10
   0  -1  -7    3.50    0.13
   0  -1  -7    0.01    0.03
   0   1   7    2.79    0.11
   0   1   7    2.93    0.11
   0   1   7    3.06    0.12
   0  -1  -8    7.81    0.17
   0   1   8    6.26    0.16
   0  -1  -9    6.58    0.18
   0   1   9    6.51    0.18
   0  -1 -10    4.24    0.18
   0   1  10    3.49    0.17
   0  -1 -11    0.65    0.15
   0   1  11    0.70    0.15
   0  -2   9    4.57    0.18
   0   2  -9    4.74    0.16
   0  -2   8    2.18    0.14
   0   2  -8    2.21    0.14
   0  -2   7   26.69    0.27
   0   2  -7   31.92    0.28
   0  -2   6   20.61    0.22
   0  -2   6   24.29    0.23
   0  -2   6   24.57    0.25
   0   2  -6   25.22    0.23
   0   2  -6   24.05    0.24
   0  -2   5    7.35    0.13
   0  -2   5    8.12    0.13
   0  -2   5    8.10    0.14
   0   2  -5    7.91    0.14
   0  -2   4   76.62    0.36
   0  -2   4   77.67    0.33
   0  -2   4   84.71    0.36
   0   2  -4   90.02    0.34
   0   2  -4   85.82    0.33
   0   2  -4   85.62    0.37
   0  -2   3   17.54    0.15
   0  -2   3   18.67    0.15
   0  -2   3   20.80    0.17
   0   2  -3   21.40    0.16
   0   2  -3   19.19    0.15
   0   2  -3   19.24    0.14
   0   2  -3   19.67    0.17
   0  -2   2  139.02    0.35
   0  -2   2  162.63    0.37
   0  -2   2  165.53    0.40
   0   2  -2  176.98    0.38
   0   2  -2  162.92    0.35
   0   2  -2  164.45    0.41
   0  -2   1   15.06    0.11
   0  -2   1   17.06    0.11
   0  -2   1   17.21    0.12
   0   2  -1   17.68    0.12
   0   2  -1   18.23    0.11
   0   2  -1   16.60    0.12
   0  -2   0   28.71    0.13
   0  -2   0   32.25    0.14
   0  -2   0   32.08    0.14
   0  -2   0   31.07    0.14
   0  -2   0   26.84    0.13
   0   2   0   30.98    0.13
   0   2   0   30.18    0.13
   0   2   0   31.46    0.13
   0  -2  -1  230.09    0.35
   0  -2  -1  245.33    0.37
   0  -2  -1  241.40    0.36
   0  -2  -1  246.79    0.36
   0  -2  -1  229.60    0.37
   0   2   1  239.77    0.35
   0   2   1  250.65    0.36
   0   2   1  213.04    0.36
   0  -2  -2   32.13    0.15
   0  -2  -2   30.71    0.14
   0  -2  -2   27.01    0.14
   0  -2  -2   29.54    0.15
   0   2   2   30.01    0.14
   0   2   2   31.77    0.14
   0   2   2   26.87    0.13
   0   2   2   29.98    0.16
   0  -2  -3   87.37    0.28
   0  -2  -3   89.58    0.27
   0  -2  -3   81.91    0.26
   0  -2  -3   85.21    0.28
   0   2   3   81.75    0.26
   0   2   3   89.62    0.27
   0   2   3   79.06    0.25
   0   2   3   86.21    0.29
   0  -2  -4   94.73    0.32
   0  -2  -4   91.12    0.31
   0  -2  -4    0.02    0.02
   0  -2  -4   95.01    0.34
   0   2   4   88.65    0.31
   0   2   4   91.36    0.30
   0   2   4   81.31    0.29
   0   2   4   90.84    0.33
   0  -2  -5   69.29    0.31
   0  -2  -5   69.36    0.30
   0  -2  -5   59.76    0.28
   0  -2  -5   67.92    0.32
   0   2   5   64.60    0.29
   0   2   5   68.59    0.30
   0   2   5   59.71    0.28
   0   2   5   69.38    0.33
   0  -2  -6    9.21    0.14
   0  -2  -6    8.19    0.13
   0  -2  -6    7.96    0.13
   0  -2  -6    9.10    0.14
   0   2   6    9.41    0.14
   0   2   6    7.61    0.12
   0   2   6    8.94    0.13
   0   2   6    8.45    0.14
   0  -2  -7    1.22    0.12
   0  -2  -7    0.90    0.08
   0  -2  -7    0.92    0.08
   0  -2  -7    1.05    0.09
   0   2   7    1.21    0.11
   0   2   7    0.73    0.09
   0   2   7    0.85    0.10
   0   2   7    1.09    0.10
   0  -2  -8   27.94    0.27
   0   2   8   24.04    0.25
   0  -2  -9   19.68    0.26
   0   2   9   18.65    0.25
   0  -2 -10    0.61    0.14
   0   2  10    0.61    0.13
   0  -2 -11    0.61    0.15
   0   2  11    0.73    0.15
   0  -3   9    2.98    0.18
   0   3  -9    2.77    0.15
   0  -3   8    1.44    0.16
   0   3  -8    1.25    0.13
   0  -3   7    5.02    0.16
   0   3  -7    6.13    0.16
   0  -3   6    2.00    0.12
   0   3  -6    2.21    0.12
   0  -3   5    0.05    0.08
   0  -3   5    0.44    0.09
   0  -3   5    0.47    0.09
   0   3  -5    0.18    0.09
   0   3  -5    0.54    0.09
   0  -3   4    5.91    0.12
   0  -3   4    6.23    0.12
   0  -3   4    7.03    0.13
   0   3  -4    8.06    0.13
   0   3  -4    7.37    0.13
   0  -3   3   47.50    0.27
   0  -3   3   54.85    0.28
   0  -3   3   58.32    0.30
   0   3  -3   61.94    0.28
   0   3  -3   54.49    0.30
   0  -3   2    0.07    0.06
   0  -3   2    0.19    0.06
   0  -3   2    0.05    0.05
   0   3  -2   -0.11    0.05
   0  -3   1  102.34    0.32
   0  -3   1  119.38    0.34
   0  -3   1  115.20    0.35
   0   3  -1  123.11    0.33
   0   3  -1  143.72    0.41
   0   3  -1  108.81    0.35
   0  -3   0   26.59    0.16
   0  -3   0   29.47    0.17
   0  -3   0   29.93    0.17
   0  -3   0   25.42    0.16
   0   3   0   29.75    0.16
   0   3   0   29.49    0.15
   0  -3  -1  394.56    0.57
   0  -3  -1  422.27    0.58
   0  -3  -1  380.53    0.59
   0   3   1  403.98    0.55
   0   3   1  348.92    0.57
   0  -3  -2  475.42    0.65
   0  -3  -2  502.42    0.65
   0  -3  -2  406.40    0.58
   0  -3  -2  450.24    0.66
   0   3   2  460.07    0.61
   0   3   2  462.19    0.59
   0   3   2  424.50    0.65
   0  -3  -3   25.29    0.16
   0   3   3   26.09    0.18
   0  -3  -4   62.82    0.28
   0  -3  -4   61.05    0.27
   0  -3  -4   53.55    0.25
   0  -3  -4   59.25    0.28
   0   3   4   58.34    0.26
   0   3   4   58.16    0.25
   0   3   4   52.49    0.24
   0   3   4   59.68    0.29
   0  -3  -5  132.99    0.49
   0  -3  -5  144.17    0.45
   0  -3  -5   30.46    0.21
   0  -3  -5  132.99    0.46
   0   3   5  132.45    0.43
   0   3   5  131.83    0.41
   0   3   5  114.83    0.39
   0   3   5  132.82    0.46
   0  -3  -6   92.15    0.40
   0  -3  -6   86.98    0.38
   0  -3  -6   78.29    0.36
   0  -3  -6   86.79    0.41
   0   3   6   84.71    0.38
   0   3   6   86.78    0.37
   0   3   6   76.87    0.35
   0   3   6   89.16    0.42
   0  -3  -7    1.02    0.11
   0  -3  -7    1.37    0.10
   0  -3  -7    1.96    0.14
   0  -3  -7    1.29    0.10
   0   3   7    1.15    0.10
   0   3   7    0.97    0.09
   0   3   7    1.67    0.11
   0  -3  -8    0.57    0.12
   0   3   8    1.07    0.12
   0  -3  -9   20.17    0.27
   0   3   9   17.89    0.24
   0  -3 -10    1.27    0.16
   0   3  10    1.46    0.14
   0  -3 -11    2.62    0.20
   0   3  11    1.96    0.17
   0  -4   8    0.72    0.16
   0  -4   7    4.13    0.18
   0   4  -7    5.11    0.16
   0  -4   6    0.50    0.11
   0   4  -6   -0.05    0.09
   0  -4   5    0.30    0.10
   0  -4   5    0.67    0.10
   0   4  -5    1.28    0.12
   0  -4   4   12.55    0.18
   0  -4   4   14.88    0.19
   0   4  -4   15.59    0.19
   0   4  -4   15.62    0.20
   0  -4   3    3.00    0.11
   0  -4   3    2.80    0.10
   0  -4   3    2.97    0.10
   0   4  -3    3.42    0.11
   0   4  -3    2.98    0.11
   0  -4   2   56.08    0.31
   0  -4   2   64.57    0.31
   0  -4   2   65.94    0.33
   0   4  -2   67.88    0.30
   0   4  -2   63.78    0.33
   0  -4   1   62.41    0.30
   0  -4   1   72.55    0.31
   0  -4   1   68.73    0.32
   0  -4   1   58.04    0.29
   0   4  -1   69.95    0.28
   0   4  -1   66.97    0.32
   0  -4   0    7.34    0.12
   0  -4   0    8.21    0.12
   0  -4   0    7.79    0.11
   0  -4   0    7.60    0.11
   0   4   0    8.01    0.11
   0  -4  -1  203.77    0.48
   0  -4  -1  225.07    0.50
   0  -4  -1  201.54    0.50
   0  -4  -1  189.99    0.48
   0   4   1  210.12    0.45
   0   4   1  179.66    0.48
   0  -4  -2    0.40    0.07
   0  -4  -2   -0.14    0.06
   0  -4  -2    0.07    0.05
   0  -4  -2    0.10    0.06
   0   4   2    0.60    0.07
   0   4   2    0.36    0.07
   0   4   3    0.96    0.07
   0  -4  -4  203.69    0.54
   0  -4  -4  221.01    0.55
   0  -4  -4  177.47    0.49
   0  -4  -4  200.68    0.55
   0   4   4  208.65    0.51
   0   4   4  162.68    0.44
   0   4   4  205.32    0.44
   0   4   4  192.59    0.55
   0  -4  -5    5.14    0.12
   0  -4  -5    5.13    0.12
   0  -4  -5    4.41    0.10
   0  -4  -5    4.69    0.11
   0   4   5    5.07    0.11
   0   4   5    4.27    0.10
   0   4   5    5.11    0.08
   0   4   5    4.80    0.12
   0  -4  -6    8.86    0.15
   0  -4  -6   10.02    0.16
   0  -4  -6    6.57    0.12
   0  -4  -6    9.72    0.16
   0   4   6    9.58    0.15
   0   4   6    7.20    0.13
   0   4   6    8.54    0.16
   0  -4  -7    0.16    0.09
   0  -4  -7   -0.21    0.08
   0   4   7   -0.06    0.08
   0  -4  -8   10.47    0.20
   0   4   8   11.67    0.19
   0  -4  -9    1.66    0.16
   0   4   9    1.45    0.13
   0  -4 -10    0.76    0.16
   0   4  10    0.60    0.13
   0  -4 -11    1.78    0.22
   0   4  11    1.04    0.16
   0  -5   7    2.51    0.19
   0  -5   6    1.16    0.15
   0   5  -6    1.51    0.12
   0  -5   5   16.98    0.25
   0   5  -5   17.49    0.21
   0  -5   4    0.05    0.11
   0  -5   4    0.38    0.10
   0   5  -4    0.50    0.10
   0  -5   3   47.95    0.34
   0  -5   3   53.40    0.34
   0   5  -3   48.78    0.43
   0   5  -3   54.73    0.36
   0  -5   2   84.83    0.41
   0  -5   2   97.88    0.43
   0   5  -2  102.59    0.39
   0   5  -2   88.72    0.43
   0  -5   1   21.90    0.21
   0  -5   1   21.67    0.20
   0   5  -1   23.62    0.19
   0  -5   0  120.09    0.44
   0  -5   0  131.97    0.45
   0  -5   0  125.45    0.46
   0   5   0  132.05    0.41
   0  -5  -1   42.84    0.31
   0  -5  -1   54.71    0.29
   0  -5  -1   45.64    0.27
   0  -5  -1   43.40    0.29
   0   5   1   53.05    0.26
   0  -5  -2    4.37    0.19
   0  -5  -2    4.02    0.11
   0  -5  -2    3.64    0.10
   0  -5  -2    4.29    0.11
   0   5   2    4.58    0.10
   0   5   2    3.78    0.10
   0  -5  -3   74.18    0.35
   0  -5  -3   80.60    0.35
   0  -5  -3   64.97    0.32
   0  -5  -3   67.55    0.34
   0   5   3   75.46    0.32
   0   5   3   66.90    0.34
   0  -5  -4    2.72    0.11
   0  -5  -4    2.92    0.11
   0  -5  -4    2.00    0.09
   0  -5  -4    2.27    0.09
   0   5   4    1.82    0.09
   0   5   4    2.46    0.10
   0  -5  -5    1.66    0.11
   0  -5  -5    2.27    0.11
   0  -5  -5    1.57    0.09
   0  -5  -5    2.20    0.10
   0   5   5    2.24    0.15
   0   5   5    1.80    0.08
   0   5   5    1.55    0.10
   0  -5  -6    2.28    0.13
   0  -5  -6    2.69    0.13
   0  -5  -6    2.10    0.10
   0   5   6    2.09    0.10
   0   5   6    1.84    0.09
   0   5   6    2.00    0.11
   0  -5  -7    1.18    0.13
   0   5   7    1.23    0.11
   0   5   7    1.27    0.12
   0  -5  -8    1.85    0.16
   0   5   8    1.71    0.14
   0  -5  -9    6.88    0.21
   0   5   9    5.45    0.17
   0  -5 -10    0.10    0.15
   0   5  10    0.80    0.14
   0  -5 -11    2.71    0.26
   0   5  11    1.39    0.16
   0  -6   6    1.61    0.18
   0  -6   5   14.46    0.26
   0  -6   4    6.60    0.21
   0   6  -4    7.41    0.16
   0  -6   3    1.94    0.16
   0   6  -3    2.18    0.11
   0  -6   2   35.98    0.31
   0  -6   2   39.48    0.31
   0   6  -2   38.25    0.30
   0  -6   1    4.87    0.16
   0  -6   1    5.15    0.13
   0   6  -1    5.60    0.14
   0  -6   0    1.77    0.12
   0  -6   0    2.12    0.11
   0   6   0    1.66    0.10
   0  -6  -1    0.87    0.10
   0  -6  -1    0.71    0.10
   0   6   1    0.27    0.08
   0  -6  -2    4.46    0.13
   0  -6  -2    4.59    0.13
   0  -6  -2    3.91    0.11
   0   6   2    5.11    0.12
   0   6   2    3.68    0.12
   0  -6  -3    4.41    0.14
   0  -6  -3    4.83    0.13
   0  -6  -3    3.66    0.11
   0   6   3    4.64    0.12
   0   6   3    3.06    0.11
   0  -6  -4   -0.14    0.09
   0  -6  -4    0.18    0.09
   0   6   4    0.07    0.09
   0  -6  -5   91.89    0.45
   0  -6  -5   89.52    0.45
   0  -6  -5   98.76    0.46
   0   6   5   87.48    0.40
   0   6   5   91.37    0.39
   0   6   5   71.98    0.42
   0  -6  -6  203.51    0.70
   0  -6  -6  203.30    0.73
   0   6   6  188.95    0.61
   0   6   6  196.74    0.53
   0   6   6  154.89    0.63
   0  -6  -7   11.11    0.23
   0   6   7   10.54    0.18
   0  -6  -8    1.80    0.18
   0   6   8    1.98    0.13
   0  -6  -9    0.14    0.16
   0   6   9    0.08    0.10
   0  -6 -10    0.92    0.19
   0   6  10   -0.25    0.11
   0  -7   4    2.35    0.20
   0  -7   3    1.77    0.18
   0  -7   2    8.69    0.23
   0  -7   1    8.87    0.22
   0   7  -1   10.11    0.16
   0  -7   0   14.21    0.24
   0  -7   0   15.81    0.22
   0   7   0   11.89    0.19
   0  -7  -1   10.31    0.20
   0  -7  -1    9.79    0.18
   0  -7  -2    0.40    0.12
   0  -7  -2    0.41    0.11
   0   7   2    0.08    0.14
   0  -7  -3    4.15    0.16
   0  -7  -3    4.55    0.15
   0   7   3    4.14    0.13
   0  -7  -4    3.04    0.15
   0  -7  -4    3.23    0.14
   0   7   4    3.46    0.13
   0   7   4    1.46    0.15
   0  -7  -5   17.72    0.25
   0   7   5   18.20    0.21
   0   7   5   14.36    0.22
   0  -7  -6   19.39    0.27
   0   7   6   20.02    0.23
   0   7   6   19.64    0.22
   0  -7  -7    9.67    0.23
   0  -7  -7    9.84    0.24
   0   7   7    8.56    0.18
   0  -7  -8    1.44    0.19
   0   7   8    1.45    0.14
   0  -7  -9    0.28    0.19
   0   7   9    0.33    0.11
   0  -7 -10    4.09    0.28
   0   7  10    4.28    0.18
   0  -8   3    0.17    0.15
   0  -8   2    1.53    0.19
   0  -8   1   12.04    0.29
   0  -8   0   32.41    0.37
   0  -8  -1    3.89    0.20
   0  -8  -2    2.22    0.19
   0  -8  -3   16.52    0.26
   0   8   3   16.71    0.26
   0  -8  -4   12.37    0.24
   0   8   4   14.15    0.19
   0  -8  -5    7.71    0.22
   0   8   5    7.77    0.16
   0  -8  -6    9.79    0.24
   0   8   6   10.10    0.18
   0  -8  -7    0.68    0.17
   0   8   7    1.29    0.13
   0  -8  -8    2.43    0.20
   0  -8  -9    1.06    0.19
   0  -8  -9    0.45    0.20
   0  -9   0    0.46    0.19
   0  -9  -1    3.96    0.24
   0  -9  -2    3.64    0.23
   0  -9  -3   10.29    0.27
   0  -9  -4   10.18    0.25
   0  -9  -5    1.64    0.20
   0  -9  -6    2.45    0.21
   0   9   6    3.87    0.18
   0  -9  -7    0.92    0.19
   1  -9  -5    0.01    0.16
  -1   9   4    0.82    0.17
   1  -9  -4    0.52    0.16
   1  -9  -3    1.01    0.18
   1  -9  -2    1.94    0.24
   1  -8  -7   -0.31    0.15
  -1   8   6    1.01    0.14
   1  -8  -6    1.97    0.20
  -1   8   5    1.51    0.16
   1  -8  -5    1.16    0.16
  -1   8   4    3.27    0.18
   1  -8  -4    3.16    0.18
   1  -8  -3    1.39    0.16
   1  -8  -2    2.88    0.18
   1  -8  -1   47.24    0.41
   1  -8   0    6.73    0.24
   1  -8   1    7.02    0.26
   1  -8   2    0.69    0.19
   1  -7  -9    9.14    0.31
   1  -7  -8    0.01    0.20
   1  -7  -7   19.75    0.31
  -1   7   6    5.22    0.17
   1  -7  -6    5.25    0.21
  -1   7   5    1.33    0.14
   1  -7  -5    1.07    0.14
  -1   7   4    1.57    0.15
  -1   7   4    1.63    0.13
   1  -7  -4    2.03    0.17
   1  -7  -4    1.20    0.13
  -1   7   3   11.38    0.19
   1  -7  -3   13.25    0.22
   1  -7  -3   14.54    0.22
   1  -7  -2   21.95    0.26
   1  -7  -2   24.48    0.26
   1  -7  -1   19.54    0.25
   1  -7  -1   17.69    0.23
   1  -7   0   13.37    0.23
   1  -7   0   13.68    0.21
   1  -7   1    3.57    0.19
   1  -7   1    3.60    0.14
   1  -7   2    2.48    0.20
   1  -7   3   38.80    0.38
   1  -7   4    3.76    0.21
  -1   6   9    6.76    0.18
   1  -6  -9    8.02    0.28
  -1   6   8    2.45    0.13
   1  -6  -8    2.64    0.22
  -1   6   7    6.75    0.15
   1  -6  -7    7.12    0.22
  -1   6   6    1.61    0.11
  -1   6   6    1.31    0.12
  -1   6   6    0.93    0.11
   1  -6  -6    2.53    0.18
   1  -6  -6    2.55    0.21
  -1   6   5   52.37    0.36
  -1   6   5   46.73    0.32
  -1   6   5   39.25    0.32
   1  -6  -5   47.74    0.36
   1  -6  -5   53.24    0.36
  -1   6   4    7.35    0.16
  -1   6   4    5.86    0.15
   1  -6  -4    7.06    0.16
   1  -6  -4    6.80    0.17
   1  -6  -4    6.53    0.17
   1  -6  -4    5.40    0.14
  -1   6   3   19.08    0.17
  -1   6   3   15.53    0.20
   1  -6  -3   19.52    0.22
   1  -6  -3   16.11    0.19
  -1   6   2    0.35    0.08
   1  -6  -2    0.55    0.11
   1  -6  -2    0.30    0.09
   1  -6  -2    0.27    0.08
   1  -6  -1   21.44    0.23
   1  -6  -1   22.43    0.22
   1  -6   0    0.53    0.11
   1  -6   0    0.27    0.10
   1  -6   1    1.82    0.14
   1  -6   1    1.24    0.11
   1  -6   2    8.69    0.20
   1  -6   2    9.71    0.18
   1  -6   3   35.51    0.34
   1  -6   3   34.82    0.30
   1  -6   4    2.29    0.18
   1  -6   5    0.58    0.16
   1  -6   6    0.31    0.15
  -1   5  10    7.56    0.20
   1  -5 -10    9.55    0.28
  -1   5   9    8.70    0.19
   1  -5  -9    9.54    0.24
  -1   5   8    1.12    0.12
   1  -5  -8    0.21    0.13
  -1   5   7    0.64    0.09
  -1   5   7    1.08    0.12
   1  -5  -7    1.19    0.14
  -1   5   6    5.84    0.13
  -1   5   6    5.97    0.13
  -1   5   6    4.80    0.14
   1  -5  -6    5.02    0.16
   1  -5  -6    5.38    0.16
  -1   5   5    7.44    0.13
  -1   5   5    5.70    0.13
  -1   5   5    6.09    0.14
   1  -5  -5    7.32    0.16
   1  -5  -5    6.91    0.15
   1  -5  -5    5.85    0.13
  -1   5   4   98.17    0.36
  -1   5   4   99.29    0.41
  -1   5   4   86.57    0.41
   1  -5  -4  100.83    0.43
   1  -5  -4  104.95    0.43
   1  -5  -4   82.13    0.38
  -1   5   3    7.11    0.11
  -1   5   3    5.59    0.12
   1  -5  -3    7.59    0.14
   1  -5  -3    7.00    0.13
   1  -5  -3    6.04    0.12
  -1   5   2   29.74    0.18
  -1   5   2   25.49    0.22
   1  -5  -2   30.24    0.23
   1  -5  -2   30.34    0.22
   1  -5  -2   23.33    0.19
   1  -5  -1    7.35    0.14
   1  -5  -1    7.96    0.13
   1  -5   0    0.78    0.09
   1  -5   0    1.30    0.12
   1  -5   1   16.58    0.19
   1  -5   2   14.20    0.19
   1  -5   2   14.92    0.18
  -1   5  -3    5.50    0.14
   1  -5   3    5.29    0.16
   1  -5   3    5.31    0.13
  -1   5  -4    3.72    0.13
   1  -5   4    2.89    0.16
   1  -5   4    3.58    0.13
   1  -5   5   18.77    0.26
   1  -5   6    1.61    0.17
   1  -5   7   12.48    0.26
  -1   4  10    2.07    0.15
   1  -4 -10    1.66    0.20
  -1   4   9    0.60    0.11
   1  -4  -9    0.55    0.15
  -1   4   8   24.46    0.25
   1  -4  -8   25.70    0.30
  -1   4   7   15.29    0.19
  -1   4   7   14.21    0.21
   1  -4  -7   16.20    0.23
   1  -4  -7   15.40    0.22
  -1   4   6    0.78    0.09
  -1   4   6    0.32    0.09
   1  -4  -6    0.87    0.11
   1  -4  -6    1.05    0.11
   1  -4  -6    0.06    0.08
  -1   4   5    3.18    0.10
  -1   4   5    3.72    0.09
  -1   4   5    3.13    0.11
   1  -4  -5    3.49    0.12
   1  -4  -5    3.50    0.11
   1  -4  -5    2.77    0.10
  -1   4   4    0.91    0.08
  -1   4   4    1.02    0.08
  -1   4   4    1.00    0.08
   1  -4  -4    1.01    0.09
   1  -4  -4    0.82    0.08
   1  -4  -4    0.76    0.08
  -1   4   3    8.04    0.11
  -1   4   3    7.84    0.12
  -1   4   3    7.67    0.13
   1  -4  -3    7.90    0.13
   1  -4  -3    8.22    0.13
   1  -4  -3    6.94    0.11
  -1   4   2   74.55    0.25
  -1   4   2   67.44    0.30
   1  -4  -2   77.13    0.31
   1  -4  -2   76.64    0.30
   1  -4  -2   61.88    0.27
  -1   4   1  167.68    0.46
   1  -4  -1  205.50    0.48
   1  -4  -1  199.87    0.47
   1  -4   0    0.04    0.07
   1  -4   0    0.47    0.07
   1  -4   1   20.55    0.17
   1  -4   1   22.55    0.18
  -1   4  -2   22.49    0.20
   1  -4   2   21.40    0.18
  -1   4  -3   34.29    0.20
  -1   4  -3   31.59    0.25
   1  -4   3   28.01    0.23
   1  -4   3   32.01    0.23
  -1   4  -4  107.60    0.37
  -1   4  -4  101.32    0.49
   1  -4   4   91.68    0.43
   1  -4   4  110.63    0.53
  -1   4  -5   58.77    0.30
  -1   4  -5   51.45    0.54
   1  -4   5   52.10    0.36
  -1   4  -6    0.31    0.13
   1  -4   6    0.41    0.11
   1  -4   7    4.26    0.18
   1  -4   8    0.49    0.14
  -1   3  10    0.68    0.14
   1  -3 -10    0.82    0.16
  -1   3   9    1.90    0.13
   1  -3  -9    2.25    0.17
  -1   3   8   -0.09    0.09
   1  -3  -8   -0.32    0.11
  -1   3   7   14.56    0.19
  -1   3   7   13.21    0.21
   1  -3  -7   14.68    0.21
   1  -3  -7   14.49    0.20
  -1   3   6   31.61    0.24
  -1   3   6   31.26    0.27
   1  -3  -6   32.21    0.26
   1  -3  -6   32.62    0.25
   1  -3  -6   30.61    0.24
   1  -3  -6   32.02    0.26
  -1   3   5    9.54    0.13
  -1   3   5    9.25    0.15
   1  -3  -5   10.04    0.15
   1  -3  -5    9.48    0.14
   1  -3  -5    8.86    0.13
   1  -3  -5    9.74    0.14
  -1   3   4  100.99    0.34
  -1   3   4   99.29    0.31
  -1   3   4   98.00    0.38
   1  -3  -4  100.64    0.37
   1  -3  -4  100.00    0.36
   1  -3  -4   85.03    0.33
   1  -3  -4   98.86    0.38
  -1   3   3  161.16    0.38
  -1   3   3  166.66    0.41
  -1   3   3  154.13    0.44
   1  -3  -3  171.51    0.44
   1  -3  -3  164.24    0.42
   1  -3  -3  137.31    0.38
   1  -3  -3  156.12    0.43
  -1   3   2    0.75    0.06
  -1   3   2    0.51    0.06
   1  -3  -2    0.60    0.07
   1  -3  -2    0.60    0.06
   1  -3  -2    0.48    0.06
   1  -3  -2    0.53    0.06
  -1   3   1  113.59    0.33
   1  -3  -1  129.67    0.33
   1  -3  -1  128.25    0.31
   1  -3  -1  128.75    0.34
   1  -3   0   10.66    0.11
   1  -3   0   10.75    0.10
   1  -3   0   10.85    0.11
   1  -3   0   10.22    0.10
  -1   3  -1    5.27    0.09
   1  -3   1    5.60    0.09
   1  -3   1    6.38    0.09
   1  -3   1    6.46    0.09
   1  -3   1    5.78    0.09
  -1   3  -2   29.31    0.19
   1  -3   2   29.66    0.19
   1  -3   2   31.51    0.19
   1  -3   2   32.39    0.22
  -1   3  -3   24.29    0.16
  -1   3  -3   21.10    0.18
   1  -3   3   19.94    0.17
   1  -3   3   21.38    0.17
  -1   3  -4   34.41    0.20
  -1   3  -4   32.61    0.24
   1  -3   4   29.32    0.23
   1  -3   4   32.89    0.23
  -1   3  -5    4.36    0.11
  -1   3  -5    3.89    0.12
   1  -3   5    2.88    0.11
   1  -3   5    3.53    0.11
  -1   3  -6   -0.21    0.08
   1  -3   6    0.22    0.10
   1  -3   6    0.08    0.09
  -1   3  -7    1.71    0.10
   1  -3   7    1.04    0.13
   1  -3   8    3.64    0.17
   1  -3   9   -0.12    0.14
  -1   2  10    0.42    0.11
   1  -2 -10    0.60    0.15
  -1   2   9   25.72    0.29
   1  -2  -9   30.00    0.33
  -1   2   8   32.06    0.29
   1  -2  -8   37.69    0.33
  -1   2   7    1.91    0.11
  -1   2   7    1.78    0.12
   1  -2  -7    1.84    0.12
   1  -2  -7    1.72    0.11
  -1   2   6   77.76    0.36
  -1   2   6   72.34    0.34
  -1   2   6   83.55    0.41
   1  -2  -6   85.23    0.40
   1  -2  -6   83.93    0.39
   1  -2  -6   62.63    0.33
   1  -2  -6   81.32    0.40
  -1   2   5   29.91    0.21
  -1   2   5   26.85    0.19
  -1   2   5   31.60    0.24
   1  -2  -5   33.23    0.29
   1  -2  -5   30.83    0.22
   1  -2  -5   28.75    0.21
   1  -2  -5   32.45    0.24
  -1   2   4    1.65    0.07
  -1   2   4    1.08    0.07
  -1   2   4    1.52    0.08
   1  -2  -4    1.54    0.08
   1  -2  -4    1.54    0.07
   1  -2  -4    1.36    0.07
   1  -2  -4    1.51    0.07
  -1   2   3  353.60    0.54
  -1   2   3  315.00    0.51
  -1   2   3  312.94    0.49
  -1   2   3  374.85    0.54
  -1   2   3  368.93    0.63
   1  -2  -3  380.92    0.60
   1  -2  -3  352.12    0.56
   1  -2  -3  332.82    0.55
   1  -2  -3  366.79    0.62
  -1   2   2  207.02    0.35
  -1   2   2  221.51    0.46
  -1   2   2  211.08    0.40
  -1   2   2  208.12    0.41
   1  -2  -2  212.55    0.39
   1  -2  -2  207.61    0.38
   1  -2  -2  185.48    0.35
   1  -2  -2  210.22    0.41
  -1   2   1    7.82    0.08
   1  -2  -1    8.31    0.08
   1  -2  -1    8.38    0.08
   1  -2  -1    7.85    0.07
   1  -2  -1    7.90    0.08
  -1   2   0   81.77    0.22
   1  -2   0   99.53    0.22
   1  -2   0   97.13    0.23
   1  -2   0   91.54    0.23
  -1   2  -1  114.04    0.28
   1  -2   1  117.84    0.26
   1  -2   1  122.17    0.25
   1  -2   1  119.72    0.28
   1  -2   1  101.22    0.26
  -1   2  -2    0.09    0.05
   1  -2   2    0.10    0.05
   1  -2   2    0.04    0.05
   1  -2   2    0.04    0.04
  -1   2  -3  106.35    0.28
  -1   2  -3   95.88    0.33
   1  -2   3   83.83    0.29
   1  -2   3   94.85    0.30
   1  -2   3   95.85    0.32
  -1   2  -4  154.90    0.39
  -1   2  -4  152.52    0.47
   1  -2   4  127.12    0.41
   1  -2   4  139.29    0.42
   1  -2   4  144.96    0.45
  -1   2  -5   20.63    0.17
  -1   2  -5   19.91    0.20
   1  -2   5   16.84    0.18
   1  -2   5   17.85    0.18
   1  -2   5   19.22    0.23
  -1   2  -6    2.30    0.10
  -1   2  -6    1.65    0.09
   1  -2   6    2.26    0.11
   1  -2   6    2.32    0.10
  -1   2  -7    7.23    0.14
  -1   2  -7    6.78    0.16
   1  -2   7    6.47    0.16
   1  -2   7    5.99    0.14
  -1   2  -8   17.62    0.21
   1  -2   8   15.95    0.24
  -1   2  -9    0.23    0.09
   1  -2   9    0.10    0.12
   1  -2  10    0.19    0.14
  -1   1  10    3.09    0.17
   1  -1 -10    3.19    0.19
  -1   1   9   14.99    0.24
   1  -1  -9   16.70    0.26
  -1   1   8    0.43    0.10
   1  -1  -8    0.14    0.11
  -1   1   7   23.09    0.24
  -1   1   7   24.26    0.26
   1  -1  -7   24.81    0.25
  -1   1   6   55.46    0.31
  -1   1   6   48.77    0.29
  -1   1   6   57.89    0.35
   1  -1  -6   59.86    0.34
   1  -1  -6   56.57    0.32
   1  -1  -6   55.99    0.32
   1  -1  -6   58.14    0.34
  -1   1   5   63.09    0.30
  -1   1   5   59.22    0.29
  -1   1   5   65.07    0.33
   1  -1  -5   61.17    0.30
   1  -1  -5    0.50    0.04
   1  -1  -5   67.25    0.34
  -1   1   4   75.03    0.29
  -1   1   4   69.06    0.27
  -1   1   4   77.05    0.32
   1  -1  -4   80.75    0.31
   1  -1  -4   71.41    0.29
   1  -1  -4   73.50    0.29
   1  -1  -4   79.25    0.32
  -1   1   3   45.54    0.20
  -1   1   3   42.83    0.19
  -1   1   3   46.94    0.22
   1  -1  -3   50.34    0.22
   1  -1  -3   45.46    0.20
   1  -1  -3   45.64    0.20
   1  -1  -3   47.66    0.22
  -1   1   2   82.75    0.21
  -1   1   2   72.75    0.19
  -1   1   2   82.68    0.24
   1  -1  -2   80.86    0.23
   1  -1  -2   85.95    0.24
   1  -1  -2   76.70    0.22
   1  -1  -2   73.64    0.21
   1  -1  -2   81.37    0.24
  -1   1   1  175.16    0.31
  -1   1   1  162.21    0.23
  -1   1   1  172.95    0.28
   1  -1  -1  175.78    0.25
   1  -1  -1  174.08    0.25
   1  -1  -1  157.66    0.23
   1  -1  -1  172.02    0.27
  -1   1   0  582.67    0.84
  -1   1  -1  252.48    0.44
   1  -1   1  276.59    0.37
  -1   1  -2   28.68    0.14
   1  -1   2   25.61    0.12
   1  -1   2   32.24    0.13
   1  -1   2   27.39    0.12
   1  -1   2   29.24    0.12
   1  -1   2   29.69    0.13
  -1   1  -3    1.48    0.06
  -1   1  -3    1.44    0.05
  -1   1  -3    1.46    0.06
   1  -1   3    1.16    0.06
   1  -1   3    1.35    0.06
   1  -1   3    1.67    0.06
  -1   1  -4    9.56    0.11
  -1   1  -4    9.16    0.12
   1  -1   4    7.06    0.10
   1  -1   4    8.50    0.11
   1  -1   4    8.92    0.11
  -1   1  -5   79.27    0.31
  -1   1  -5   76.21    0.34
   1  -1   5   65.97    0.31
   1  -1   5   70.36    0.31
   1  -1   5   73.93    0.34
  -1   1  -6   82.60    0.35
  -1   1  -6   75.32    0.38
   1  -1   6   66.90    0.35
   1  -1   6   72.29    0.35
   1  -1   6   75.77    0.38
  -1   1  -7   10.49    0.16
  -1   1  -7   11.53    0.18
   1  -1   7    9.49    0.17
   1  -1   7    9.29    0.16
  -1   1  -8    5.41    0.14
   1  -1   8    5.60    0.16
  -1   1  -9   33.70    0.30
   1  -1   9   29.67    0.32
  -1   1 -10    1.21    0.13
   1  -1  10    1.52    0.17
  -1   0  10    0.68    0.15
   1   0 -10    0.30    0.14
  -1   0   9    6.05    0.18
   1   0  -9    8.13    0.20
  -1   0   8    0.81    0.11
   1   0  -8    0.30    0.12
  -1   0   7  108.39    0.49
   1   0  -7  130.27    0.54
  -1   0   6   12.24    0.17
  -1   0   6   12.95    0.16
  -1   0   6   15.80    0.20
   1   0  -6   15.93    0.19
   1   0  -6   13.75    0.17
   1   0  -6   12.69    0.16
   1   0  -6   15.29    0.19
  -1   0   5    6.52    0.11
  -1   0   5    6.39    0.12
   1   0  -5    7.97    0.14
   1   0  -5    7.53    0.12
   1   0  -5    7.08    0.12
   1   0  -5    7.99    0.13
  -1   0   4    0.29    0.06
  -1   0   4    0.58    0.07
  -1   0   4    0.44    0.06
   1   0  -4    0.65    0.08
   1   0  -4    0.53    0.06
   1   0  -4    0.26    0.05
   1   0  -4    0.26    0.06
  -1   0   3  254.34    0.48
  -1   0   3  270.26    0.48
  -1   0   3  293.40    0.55
   1   0  -3  293.06    0.53
   1   0  -3  256.21    0.48
   1   0  -3  279.60    0.50
   1   0  -3  290.15    0.55
  -1   0   2    0.43    0.05
  -1   0   2    0.19    0.04
  -1   0   2    0.13    0.04
   1   0  -2    0.32    0.05
   1   0  -2    0.14    0.04
   1   0  -2    0.28    0.05
  -1   0   1  119.44    0.20
  -1   0   1  123.66    0.21
  -1   0   1  122.50    0.20
  -1   0   1  127.39    0.24
   1   0  -1  118.91    0.21
   1   0  -1  129.85    0.22
   1   0  -1  119.25    0.21
   1   0  -1  121.26    0.23
  -1   0   0   78.74    0.17
  -1   0  -1    5.18    0.05
  -1   0  -1    5.43    0.05
   1   0   1    5.25    0.05
  -1   0  -2   58.26    0.13
  -1   0  -2   55.85    0.16
   1   0   2   48.15    0.14
   1   0   2   58.69    0.15
   1   0   2   55.38    0.14
   1   0   2   49.90    0.13
   1   0   2   54.65    0.16
  -1   0  -3  127.74    0.32
  -1   0  -3  133.11    0.28
  -1   0  -3  132.00    0.27
  -1   0  -3  120.13    0.25
  -1   0  -3  123.02    0.30
   1   0   3  113.08    0.27
   1   0   3  119.90    0.37
   1   0   3  117.73    0.27
   1   0   3  118.95    0.27
   1   0   3  123.55    0.30
  -1   0  -4    4.34    0.08
  -1   0  -4    4.11    0.08
  -1   0  -4    3.68    0.07
  -1   0  -4    3.98    0.09
   1   0   4    3.73    0.08
   1   0   4    4.08    0.08
   1   0   4    3.58    0.07
   1   0   4    3.97    0.08
  -1   0  -5  128.11    0.38
  -1   0  -5  127.66    0.37
  -1   0  -5  124.06    0.42
   1   0   5  107.31    0.37
   1   0   5  118.92    0.38
   1   0   5  118.39    0.38
   1   0   5  124.95    0.41
  -1   0  -6   95.59    0.37
  -1   0  -6   90.89    0.40
   1   0   6   76.92    0.35
   1   0   6   82.85    0.36
   1   0   6   81.47    0.36
   1   0   6   88.45    0.39
  -1   0  -7    1.15    0.10
  -1   0  -7    0.66    0.08
   1   0   7    0.89    0.10
   1   0   7    0.81    0.09
   1   0   7    1.17    0.09
  -1   0  -8   51.99    0.33
   1   0   8   41.45    0.32
   1   0   8   49.60    0.48
  -1   0  -9    2.23    0.13
   1   0   9    1.72    0.14
  -1   0 -10    0.67    0.13
   1   0  10    1.05    0.14
  -1   0 -11    3.58    0.17
   1   0  11    2.77    0.19
  -1  -1  10    1.21    0.17
   1   1 -10    1.35    0.17
  -1  -1   9    0.21    0.12
   1   1  -9    0.19    0.14
  -1  -1   8    2.86    0.14
   1   1  -8    2.90    0.15
  -1  -1   7   55.57    0.37
   1   1  -7   68.84    0.41
  -1  -1   6    0.09    0.08
  -1  -1   6    0.37    0.08
  -1  -1   6   -0.13    0.06
   1   1  -6    0.32    0.10
   1   1  -6    0.10    0.07
   1   1  -6    0.11    0.05
  -1  -1   5    3.58    0.10
  -1  -1   5    3.01    0.09
  -1  -1   5    3.34    0.10
   1   1  -5    3.48    0.11
   1   1  -5    2.99    0.09
   1   1  -5    3.53    0.10
   1   1  -5    3.08    0.09
  -1  -1   4  100.76    0.37
  -1  -1   4  114.33    0.38
  -1  -1   4  117.46    0.42
   1   1  -4  122.37    0.41
   1   1  -4  105.92    0.37
   1   1  -4  112.67    0.38
   1   1  -4  122.48    0.43
  -1  -1   3  220.43    0.48
  -1  -1   3  232.15    0.48
  -1  -1   3  242.41    0.54
   1   1  -3  253.68    0.52
   1   1  -3  234.90    0.49
   1   1  -3  247.81    0.54
  -1  -1   2  177.18    0.37
  -1  -1   2  186.76    0.38
  -1  -1   2  208.80    0.43
   1   1  -2  214.70    0.42
   1   1  -2   31.46    0.16
   1   1  -2  204.66    0.43
  -1  -1   1   43.50    0.16
  -1  -1   1   49.38    0.17
  -1  -1   1   45.68    0.16
  -1  -1   1   47.85    0.18
   1   1  -1   45.07    0.16
   1   1  -1   49.88    0.17
   1   1  -1   33.58    0.14
   1   1  -1   48.49    0.18
  -1  -1   0    0.14    0.03
  -1  -1   0    0.24    0.03
  -1  -1   0    0.24    0.03
  -1  -1   0    0.37    0.04
   1   1   0    0.14    0.03
   1   1   0    0.30    0.03
   1   1   0    0.23    0.03
   1   1   0    0.25    0.03
  -1  -1  -1    4.72    0.04
  -1  -1  -1    5.05    0.04
  -1  -1  -1    5.25    0.04
  -1  -1  -1    4.39    0.04
  -1  -1  -1    4.63    0.05
   1   1   1    5.29    0.05
   1   1   1    5.04    0.05
   1   1   1    5.27    0.05
   1   1   1    4.39    0.04
   1   1   1    4.52    0.05
  -1  -1  -2  884.77    1.21
  -1  -1  -2  902.03    1.30
  -1  -1  -2  996.19    1.40
  -1  -1  -2  852.46    1.14
  -1  -1  -2  933.96    1.38
  -1  -1  -2  935.41    1.50
   1   1   2  878.16    1.30
   1   1   2  963.92    1.39
   1   1   2  823.41    1.20
   1   1   2  884.54    1.17
   1   1   2  911.93    1.33
  -1  -1  -3  969.27    1.27
  -1  -1  -3 1035.00    1.54
  -1  -1  -3  933.43    1.26
  -1  -1  -3  993.67    1.83
   1   1   3  888.52    1.46
   1   1   3  952.75    1.50
   1   1   3  861.14    1.45
   1   1   3  971.54    1.45
  -1  -1  -4   34.25    0.18
  -1  -1  -4   34.31    0.17
  -1  -1  -4   32.23    0.17
  -1  -1  -4   33.46    0.19
   1   1   4   29.77    0.17
   1   1   4   31.87    0.18
   1   1   4   29.59    0.17
   1   1   4   33.18    0.19
  -1  -1  -5   41.66    0.22
  -1  -1  -5   42.10    0.22
  -1  -1  -5   38.02    0.20
  -1  -1  -5   40.54    0.24
   1   1   5   35.99    0.22
   1   1   5   38.97    0.22
   1   1   5   36.51    0.21
   1   1   5   40.26    0.24
  -1  -1  -6   55.46    0.28
  -1  -1  -6   55.56    0.28
  -1  -1  -6   54.03    0.31
   1   1   6   52.43    0.33
   1   1   6   48.46    0.27
   1   1   6   48.06    0.27
   1   1   6   51.47    0.30
  -1  -1  -7    0.33    0.09
  -1  -1  -7    0.43    0.08
  -1  -1  -7    0.59    0.09
   1   1   7    0.76    0.09
   1   1   7    0.35    0.06
   1   1   7    0.60    0.09
   1   1   7    0.16    0.08
  -1  -1  -8   -0.18    0.09
  -1  -1  -8    0.37    0.12
   1   1   8    0.04    0.08
   1   1   8    0.49    0.10
  -1  -1  -9    0.91    0.12
   1   1   9    0.76    0.13
  -1  -1 -10    0.75    0.13
   1   1  10    0.65    0.13
  -1  -1 -11    1.97    0.16
   1   1  11    0.85    0.15
  -1  -2   9    3.82    0.18
   1   2  -9    3.72    0.19
  -1  -2   8    1.15    0.14
   1   2  -8    0.84    0.13
  -1  -2   7    1.68    0.12
   1   2  -7    1.68    0.15
  -1  -2   6    9.04    0.17
   1   2  -6   11.01    0.18
  -1  -2   5  107.92    0.45
  -1  -2   5  120.06    0.46
  -1  -2   5  126.57    0.51
   1   2  -5  129.48    0.49
   1   2  -5  115.92    0.45
   1   2  -5  117.72    0.45
   1   2  -5  122.72    0.51
  -1  -2   4   92.99    0.39
  -1  -2   4   98.74    0.38
  -1  -2   4  107.94    0.43
   1   2  -4   97.72    0.38
   1   2  -4  101.44    0.38
   1   2  -4   81.31    0.38
  -1  -2   3  271.10    0.59
  -1  -2   3  299.96    0.60
  -1  -2   3  334.90    0.69
   1   2  -3  334.17    0.65
   1   2  -3  316.50    0.61
  -1  -2   2  579.99    1.08
  -1  -2   2  655.62    1.53
  -1  -2   2  742.09    0.92
   1   2  -2  779.38    1.25
   1   2  -2  675.71    1.19
  -1  -2   1   14.78    0.12
  -1  -2   1   16.11    0.12
  -1  -2   1   17.36    0.13
   1   2  -1   17.75    0.13
   1   2  -1   16.00    0.12
   1   2  -1    0.01    0.01
   1   2   0   10.40    0.09
  -1  -2  -1    2.02    0.06
  -1  -2  -1    2.38    0.06
  -1  -2  -1    2.45    0.06
  -1  -2  -1    1.91    0.05
  -1  -2  -1    0.01    0.01
   1   2   1    2.47    0.06
   1   2   1    2.18    0.06
   1   2   1    1.10    0.04
   1   2   1    2.05    0.06
  -1  -2  -2   89.52    0.24
  -1  -2  -2   97.78    0.27
  -1  -2  -2   95.21    0.24
  -1  -2  -2   81.85    0.22
  -1  -2  -2   47.16    0.18
   1   2   2   91.97    0.24
   1   2   2   89.53    0.27
   1   2   2    0.17    0.02
   1   2   2   76.12    0.21
   1   2   2   84.08    0.24
  -1  -2  -3    6.10    0.09
  -1  -2  -3    6.52    0.09
  -1  -2  -3    6.19    0.08
  -1  -2  -3    5.88    0.05
  -1  -2  -3    6.42    0.09
   1   2   3    6.44    0.09
   1   2   3    0.01    0.01
   1   2   3    5.62    0.08
   1   2   3    6.77    0.09
  -1  -2  -4   10.94    0.12
  -1  -2  -4   10.28    0.11
  -1  -2  -4    9.68    0.11
  -1  -2  -4   10.33    0.12
   1   2   4    9.91    0.11
   1   2   4    0.00    0.02
   1   2   4    9.96    0.11
   1   2   4   10.21    0.12
  -1  -2  -5   53.87    0.26
  -1  -2  -5   55.88    0.26
  -1  -2  -5   50.32    0.24
  -1  -2  -5   52.87    0.27
   1   2   5   47.66    0.25
   1   2   5    8.96    0.11
   1   2   5   47.41    0.24
   1   2   5   52.99    0.27
  -1  -2  -6    1.87    0.09
  -1  -2  -6    1.88    0.08
  -1  -2  -6    2.12    0.08
  -1  -2  -6    1.90    0.09
   1   2   6    1.79    0.07
   1   2   6    1.89    0.09
   1   2   6    1.85    0.09
  -1  -2  -7    4.15    0.12
  -1  -2  -7    4.55    0.11
  -1  -2  -7    5.00    0.16
  -1  -2  -7    3.89    0.11
   1   2   7    4.07    0.12
   1   2   7    4.82    0.11
   1   2   7    4.10    0.11
   1   2   7    4.88    0.13
  -1  -2  -8   32.82    0.27
  -1  -2  -8   27.87    0.38
   1   2   8   27.93    0.26
   1   2   8   27.64    0.26
  -1  -2  -9    4.09    0.15
   1   2   9    3.65    0.15
  -1  -2 -10    7.43    0.19
   1   2  10    7.31    0.19
  -1  -2 -11   16.29    0.27
   1   2  11   14.27    0.27
  -1  -3   9    3.84    0.20
   1   3  -9    4.32    0.20
  -1  -3   8    0.87    0.13
   1   3  -8    1.43    0.15
  -1  -3   7    1.92    0.13
   1   3  -7    2.06    0.14
  -1  -3   6   46.85    0.35
   1   3  -6   55.97    0.37
  -1  -3   5   33.81    0.28
  -1  -3   5   36.99    0.28
  -1  -3   5   39.93    0.44
   1   3  -5   43.02    0.31
   1   3  -5   42.51    0.32
  -1  -3   4   14.77    0.18
  -1  -3   4   15.69    0.18
  -1  -3   4   17.15    0.19
   1   3  -4   17.37    0.19
   1   3  -4   18.44    0.20
  -1  -3   3   -0.09    0.06
  -1  -3   3    0.89    0.07
  -1  -3   3    0.25    0.06
   1   3  -3    0.50    0.08
   1   3  -3   -0.01    0.05
   1   3  -3    0.11    0.07
  -1  -3   2   16.87    0.16
  -1  -3   2   18.53    0.16
  -1  -3   2   20.03    0.18
   1   3  -2   19.66    0.17
   1   3  -2   19.76    0.16
   1   3  -2   18.25    0.17
  -1  -3   1   33.46    0.20
  -1  -3   1   38.22    0.21
  -1  -3   1   40.81    0.23
   1   3  -1   39.19    0.21
   1   3  -1   39.01    0.20
   1   3  -1   37.67    0.22
  -1  -3   0   10.51    0.12
  -1  -3   0   10.89    0.11
  -1  -3   0   10.47    0.11
  -1  -3   0   11.02    0.12
   1   3   0   13.40    0.12
   1   3   0   12.74    0.13
  -1  -3  -1    0.65    0.06
  -1  -3  -1    0.68    0.06
  -1  -3  -1    0.42    0.05
  -1  -3  -1    0.43    0.05
   1   3   1    0.37    0.06
   1   3   1    0.66    0.06
   1   3   1    0.45    0.06
  -1  -3  -2   12.99    0.12
  -1  -3  -2   14.58    0.12
  -1  -3  -2    3.05    0.06
  -1  -3  -2   12.05    0.12
   1   3   2   13.80    0.12
   1   3   2   13.72    0.12
   1   3   2   12.70    0.12
  -1  -3  -3  117.85    0.34
  -1  -3  -3  113.03    0.33
  -1  -3  -3  125.89    0.34
  -1  -3  -3  102.76    0.31
  -1  -3  -3  114.20    0.35
   1   3   3  114.71    0.33
   1   3   3  118.40    0.33
   1   3   3   95.77    0.30
   1   3   3  112.35    0.35
  -1  -3  -4   16.90    0.15
  -1  -3  -4   19.56    0.16
  -1  -3  -4   16.42    0.14
  -1  -3  -4   16.14    0.15
   1   3   4   18.19    0.16
   1   3   4   17.80    0.15
   1   3   4   15.98    0.14
   1   3   4   16.84    0.16
  -1  -3  -5   18.77    0.17
  -1  -3  -5   20.05    0.17
  -1  -3  -5   16.79    0.16
  -1  -3  -5    8.01    0.12
   1   3   5   18.08    0.17
   1   3   5   19.27    0.17
   1   3   5   16.54    0.16
   1   3   5   18.81    0.18
  -1  -3  -6   57.85    0.38
  -1  -3  -6   59.19    0.30
  -1  -3  -6   52.39    0.28
   1   3   6   54.21    0.30
   1   3   6   53.86    0.29
   1   3   6   52.53    0.29
   1   3   6   56.15    0.32
  -1  -3  -7   16.09    0.19
  -1  -3  -7   15.80    0.18
  -1  -3  -7   14.38    0.17
  -1  -3  -7    0.07    0.03
   1   3   7   14.74    0.18
   1   3   7   15.99    0.18
   1   3   7   14.35    0.18
   1   3   7   14.83    0.19
  -1  -3  -8    0.20    0.10
   1   3   8    0.07    0.09
  -1  -3  -9   13.64    0.22
   1   3   9   12.81    0.21
  -1  -3 -10    4.16    0.18
   1   3  10    3.12    0.16
  -1  -3 -11    7.76    0.24
   1   3  11    5.02    0.19
  -1  -4   8    6.28    0.21
   1   4  -8    8.75    0.22
  -1  -4   7    4.29    0.17
   1   4  -7    4.47    0.17
  -1  -4   6    3.21    0.15
   1   4  -6    4.34    0.16
  -1  -4   5    2.68    0.13
   1   4  -5    3.40    0.14
  -1  -4   4   18.85    0.22
  -1  -4   4   21.67    0.22
   1   4  -4   25.20    0.24
   1   4  -4   22.97    0.24
  -1  -4   3    4.45    0.12
  -1  -4   3    5.44    0.12
  -1  -4   3    5.93    0.13
   1   4  -3    6.26    0.13
   1   4  -3    5.09    0.12
  -1  -4   2   63.13    0.32
  -1  -4   2   68.77    0.33
  -1  -4   2   74.04    0.36
   1   4  -2   71.94    0.34
   1   4  -2   68.85    0.35
  -1  -4   1   85.88    0.35
  -1  -4   1   96.09    0.36
  -1  -4   1  100.40    0.39
   1   4  -1   99.30    0.36
   1   4  -1   96.90    0.35
   1   4  -1   95.77    0.39
  -1  -4   0    0.72    0.08
  -1  -4   0    1.03    0.07
  -1  -4   0    1.07    0.07
  -1  -4   0    0.80    0.06
   1   4   0    1.34    0.08
   1   4   0    0.81    0.07
  -1  -4  -1  106.82    0.36
  -1  -4  -1  117.96    0.37
  -1  -4  -1  109.40    0.38
  -1  -4  -1   98.60    0.36
   1   4   1  106.43    0.35
   1   4   1  112.90    0.35
  -1  -4  -2   60.33    0.27
  -1  -4  -2   67.05    0.28
  -1  -4  -2   45.11    0.23
  -1  -4  -2   60.66    0.28
   1   4   2   62.72    0.27
   1   4   2   66.29    0.27
   1   4   2   56.73    0.27
  -1  -4  -3  236.12    0.54
  -1  -4  -3  253.25    0.54
  -1  -4  -3    0.00    0.02
  -1  -4  -3  217.84    0.54
   1   4   3  227.88    0.52
   1   4   3  248.45    0.53
   1   4   3  204.18    0.53
  -1  -4  -4  178.07    0.49
  -1  -4  -4  179.99    0.49
  -1  -4  -4  194.49    0.50
  -1  -4  -4  153.29    0.44
  -1  -4  -4  165.58    0.49
   1   4   4  174.19    0.48
   1   4   4  185.50    0.48
   1   4   4  152.87    0.43
   1   4   4  169.19    0.50
  -1  -4  -5   70.16    0.32
  -1  -4  -5   60.57    0.30
  -1  -4  -5   65.79    0.34
   1   4   5   60.94    0.30
   1   4   5   66.26    0.31
   1   4   5   54.22    0.28
   1   4   5   62.23    0.33
  -1  -4  -6    5.05    0.11
  -1  -4  -6    5.19    0.12
  -1  -4  -7   16.07    0.20
  -1  -4  -7   15.60    0.19
  -1  -4  -7   14.02    0.19
  -1  -4  -7   15.33    0.20
   1   4   7   15.55    0.19
   1   4   7   16.26    0.21
   1   4   7   13.69    0.18
   1   4   7   15.86    0.21
  -1  -4  -8    0.99    0.12
   1   4   8    1.45    0.12
  -1  -4  -9   28.92    0.30
   1   4   9   29.59    0.30
  -1  -4 -10    0.48    0.14
   1   4  10    0.00    0.12
  -1  -4 -11    0.71    0.17
   1   4  11    1.41    0.17
  -1  -5   7    0.73    0.14
   1   5  -7    1.22    0.15
  -1  -5   6    1.82    0.16
   1   5  -6    1.89    0.15
  -1  -5   5   11.26    0.22
   1   5  -5   15.14    0.22
  -1  -5   4    0.15    0.10
   1   5  -4    0.45    0.11
  -1  -5   3   63.94    0.39
  -1  -5   3   73.59    0.40
   1   5  -3   80.30    0.40
   1   5  -3   75.10    0.44
  -1  -5   2   42.30    0.30
  -1  -5   2   48.09    0.31
  -1  -5   2   50.39    0.33
   1   5  -2   50.30    0.31
   1   5  -2   44.34    0.32
  -1  -5   1    0.28    0.08
  -1  -5   1    0.52    0.09
  -1  -5   1    0.19    0.07
  -1  -5   1    0.01    0.06
   1   5  -1    0.20    0.07
  -1  -5   0   47.93    0.29
  -1  -5   0   51.88    0.29
  -1  -5   0   55.78    0.32
  -1  -5   0   45.78    0.29
   1   5   0   55.46    0.29
  -1  -5  -1   87.17    0.44
  -1  -5  -1   97.56    0.38
  -1  -5  -1   94.40    0.40
  -1  -5  -1   78.94    0.36
   1   5   1   94.27    0.37
  -1  -5  -2   19.04    0.18
  -1  -5  -2   14.37    0.15
  -1  -5  -2   18.19    0.18
  -1  -5  -2   16.91    0.18
   1   5   2   18.02    0.17
   1   5   2   15.39    0.17
  -1  -5  -3   66.06    0.51
  -1  -5  -3   63.81    0.31
  -1  -5  -3   50.66    0.28
  -1  -5  -3   55.69    0.31
   1   5   3   57.29    0.29
   1   5   3   57.05    0.30
   1   5   3   48.28    0.29
  -1  -5  -4    0.37    0.08
  -1  -5  -4    0.26    0.07
  -1  -5  -4   -0.02    0.03
  -1  -5  -4    0.21    0.07
   1   5   4    0.07    0.08
   1   5   4    0.17    0.07
   1   5   4    0.12    0.07
  -1  -5  -5    0.88    0.10
  -1  -5  -5    0.77    0.09
  -1  -5  -5    0.69    0.09
  -1  -5  -5    0.28    0.06
  -1  -5  -5    0.58    0.08
   1   5   5    0.78    0.09
   1   5   5    0.69    0.08
   1   5   5    0.73    0.07
   1   5   5    0.22    0.07
  -1  -5  -6   75.68    0.39
  -1  -5  -6   81.02    0.39
  -1  -5  -6   63.54    0.35
  -1  -5  -6   72.46    0.40
   1   5   6   75.33    0.38
   1   5   6   58.52    0.32
   1   5   6   64.69    0.38
  -1  -5  -7   95.30    0.46
  -1  -5  -7  102.67    0.62
   1   5   7   93.42    0.44
   1   5   7   80.45    0.45
  -1  -5  -8    1.40    0.13
   1   5   8    1.26    0.12
  -1  -5  -9    1.65    0.16
   1   5   9    1.12    0.14
  -1  -5 -10    2.13    0.19
   1   5  10    2.34    0.16
  -1  -5 -11    2.12    0.22
   1   5  11    0.46    0.15
  -1  -6   6    9.62    0.25
   1   6  -6   12.55    0.29
  -1  -6   5    8.76    0.23
   1   6  -5   10.79    0.21
  -1  -6   4    9.73    0.21
   1   6  -4   10.45    0.20
  -1  -6   3   16.19    0.24
   1   6  -3   20.41    0.24
  -1  -6   2   51.31    0.37
   1   6  -2   58.66    0.36
  -1  -6   1  165.42    0.61
  -1  -6   1  190.04    0.63
   1   6  -1  195.59    0.61
  -1  -6   0   21.92    0.23
  -1  -6   0   24.07    0.23
  -1  -6   0   23.22    0.24
  -1  -6   0   20.60    0.22
   1   6   0   26.64    0.23
  -1  -6  -1   48.53    0.32
  -1  -6  -1   51.75    0.32
  -1  -6  -1   48.11    0.32
  -1  -6  -1   43.82    0.30
   1   6   1   54.31    0.31
  -1  -6  -2    7.42    0.15
  -1  -6  -2    8.25    0.15
  -1  -6  -2    5.85    0.12
  -1  -6  -2    6.90    0.14
  -1  -6  -2    6.65    0.14
   1   6   2    7.83    0.14
  -1  -6  -3   51.80    0.32
  -1  -6  -3   57.46    0.33
  -1  -6  -3   43.15    0.28
  -1  -6  -3   49.57    0.32
   1   6   3   52.53    0.31
   1   6   3   43.86    0.31
  -1  -6  -4    5.79    0.14
  -1  -6  -4    6.21    0.14
  -1  -6  -4    5.14    0.12
  -1  -6  -4    6.02    0.13
   1   6   4    6.09    0.14
   1   6   4    4.89    0.13
  -1  -6  -5    0.30    0.10
  -1  -6  -5    0.16    0.10
  -1  -6  -5    0.08    0.05
  -1  -6  -5    0.39    0.08
   1   6   5    0.47    0.10
   1   6   5    0.25    0.09
  -1  -6  -6   10.62    0.19
  -1  -6  -6   10.50    0.19
  -1  -6  -6   12.40    0.20
   1   6   6   10.67    0.18
   1   6   6    8.95    0.17
  -1  -6  -7   11.86    0.22
   1   6   7   12.33    0.20
  -1  -6  -8    0.61    0.14
   1   6   8    0.36    0.11
  -1  -6  -9    3.28    0.20
   1   6   9    3.47    0.16
  -1  -6 -10    0.62    0.17
   1   6  10    0.50    0.13
  -1  -6 -11    0.64    0.20
   1   6  11    0.02    0.13
  -1  -7   4    1.57    0.17
   1   7  -4    1.58    0.17
  -1  -7   3    0.99    0.16
   1   7  -3    1.30    0.14
  -1  -7   2   49.65    0.41
   1   7  -2   57.50    0.37
  -1  -7   1    8.24    0.21
   1   7  -1   10.64    0.19
  -1  -7   0    4.10    0.17
   1   7   0    5.02    0.15
  -1  -7  -1    1.82    0.15
  -1  -7  -1    1.37    0.11
   1   7   1    2.04    0.12
  -1  -7  -2    1.83    0.14
  -1  -7  -2    2.31    0.13
   1   7   2    1.65    0.12
  -1  -7  -3    1.91    0.13
   1   7   3    2.20    0.12
   1   7   3    1.71    0.11
  -1  -7  -4    6.51    0.17
  -1  -7  -4    7.03    0.17
   1   7   4    6.94    0.16
   1   7   4    4.72    0.15
  -1  -7  -5    3.67    0.16
   1   7   5    3.84    0.14
   1   7   5    3.80    0.14
  -1  -7  -6    6.39    0.18
   1   7   6    5.83    0.16
  -1  -7  -7    0.96    0.14
   1   7   7    1.06    0.13
  -1  -7  -8    0.66    0.15
   1   7   8    0.63    0.13
  -1  -7  -9   23.86    0.33
  -1  -7  -9   23.76    0.35
   1   7   9   20.19    0.27
  -1  -7 -10    0.32    0.19
   1   7  10    0.66    0.14
  -1  -8   3    1.61    0.20
  -1  -8   2    0.45    0.16
  -1  -8   1    0.00    0.15
   1   8  -1    0.30    0.12
  -1  -8   0    4.97    0.22
   1   8   0    5.37    0.16
  -1  -8  -1    2.91    0.21
   1   8   1    2.49    0.14
  -1  -8  -2    2.66    0.18
   1   8   2    3.62    0.16
  -1  -8  -3   90.72    0.51
   1   8   3   98.03    0.47
  -1  -8  -4    3.00    0.17
   1   8   4    2.59    0.14
  -1  -8  -5    0.24    0.14
   1   8   5    0.98    0.12
  -1  -8  -6    0.11    0.13
  -1  -8  -7    0.41    0.15
   1   8   7    0.36    0.12
  -1  -8  -8    8.12    0.24
   1   8   8    9.96    0.22
  -1  -8  -9    6.78    0.24
   1   8   9    6.96    0.22
  -1  -9   1    4.51    0.25
  -1  -9   0    7.17    0.28
  -1  -9  -1   19.79    0.34
  -1  -9  -2   17.89    0.33
   1   9   2   16.71    0.36
  -1  -9  -3    6.83    0.25
   1   9   3    7.73    0.19
  -1  -9  -4    1.92    0.20
   1   9   4    1.27    0.15
  -1  -9  -5    4.32    0.22
   1   9   5    3.76    0.16
  -1  -9  -6    4.13    0.23
   1   9   6    5.37    0.18
  -1  -9  -7    1.06    0.18
   1   9   7    1.66    0.15
  -1  -9  -8    0.96    0.18
   1   9   8    1.13    0.16
  -2   8   6    2.85    0.19
   2  -8  -6    2.26    0.22
  -2   8   5    1.38    0.17
   2  -8  -5    1.73    0.18
  -2   8   4    0.25    0.14
   2  -8  -4    0.47    0.15
  -2   8   3   -0.29    0.13
   2  -8  -3   -0.09    0.14
   2  -8  -2    3.07    0.18
   2  -8  -1    4.62    0.21
   2  -8   0    1.85    0.20
   2  -8   1    0.21    0.16
   2  -7  -7    1.23    0.21
  -2   7   6    0.66    0.13
   2  -7  -6    0.95    0.17
  -2   7   5    2.30    0.17
  -2   7   5    1.52    0.14
   2  -7  -5    1.06    0.15
   2  -7  -5    1.89    0.18
  -2   7   4    1.66    0.16
  -2   7   4    0.65    0.11
   2  -7  -4    0.47    0.13
   2  -7  -4    0.40    0.12
  -2   7   3   16.28    0.26
  -2   7   3   12.50    0.20
   2  -7  -3   17.41    0.25
   2  -7  -3   19.01    0.25
   2  -7  -2    8.66    0.20
   2  -7  -2    9.51    0.20
   2  -7  -1    1.70    0.16
   2  -7  -1    1.78    0.15
   2  -7   0    1.54    0.17
   2  -7   0    1.16    0.13
   2  -7   1    8.31    0.21
   2  -7   1    8.52    0.19
   2  -7   2   27.78    0.33
   2  -7   2   24.20    0.29
   2  -7   3    0.03    0.16
   2  -7   4    7.85    0.24
   2  -6  -8    0.76    0.20
   2  -6  -7    0.41    0.18
  -2   6   6    4.27    0.16
  -2   6   6    2.96    0.15
   2  -6  -6    4.77    0.21
  -2   6   5    1.92    0.16
  -2   6   5    1.75    0.12
   2  -6  -5    2.28    0.19
   2  -6  -5    2.44    0.16
  -2   6   4  170.69    0.64
   2  -6  -4  232.82    0.74
   2  -6  -4  220.14    0.69
  -2   6   3    8.54    0.20
  -2   6   3    7.63    0.17
   2  -6  -3    9.96    0.18
   2  -6  -3    7.10    0.19
   2  -6  -3    8.12    0.18
   2  -6  -3    8.14    0.16
  -2   6   2    0.82    0.10
   2  -6  -2    1.19    0.13
   2  -6  -2    1.26    0.13
   2  -6  -2    1.39    0.13
   2  -6  -1   14.01    0.20
   2  -6  -1   15.40    0.20
   2  -6   0    5.95    0.16
   2  -6   0    5.37    0.15
   2  -6   1   20.03    0.24
   2  -6   1   19.25    0.22
   2  -6   2    8.00    0.19
   2  -6   2    8.55    0.18
   2  -6   3    1.80    0.17
   2  -6   3    2.11    0.14
   2  -6   4    0.16    0.13
   2  -6   4    0.05    0.11
   2  -6   5    2.75    0.20
   2  -5  -9    1.17    0.19
   2  -5  -8    1.67    0.19
  -2   5   7    9.46    0.16
   2  -5  -7   11.09    0.23
  -2   5   6   18.17    0.19
  -2   5   6   15.68    0.22
   2  -5  -6   19.58    0.26
   2  -5  -6   18.25    0.28
  -2   5   5   19.03    0.22
  -2   5   5   15.24    0.21
   2  -5  -5   19.35    0.24
   2  -5  -5   19.20    0.23
   2  -5  -5   14.73    0.19
  -2   5   4   12.95    0.19
  -2   5   4   11.15    0.17
   2  -5  -4   14.27    0.21
   2  -5  -4   12.42    0.18
   2  -5  -4   11.04    0.16
  -2   5   3    6.92    0.16
  -2   5   3    6.29    0.14
   2  -5  -3    7.41    0.17
   2  -5  -3    8.45    0.15
   2  -5  -3    6.22    0.13
  -2   5   2   44.00    0.32
  -2   5   2   37.63    0.26
   2  -5  -2   46.11    0.29
   2  -5  -2   45.50    0.27
  -2   5   1    0.21    0.07
   2  -5  -1   -0.22    0.08
   2  -5   0    4.72    0.12
   2  -5   0    6.09    0.13
   2  -5   1   19.76    0.20
   2  -5   1   20.18    0.20
   2  -5   2   18.82    0.21
   2  -5   2   18.85    0.20
   2  -5   3    0.26    0.10
   2  -5   3    0.17    0.10
  -2   5  -4    2.22    0.12
   2  -5   4    1.85    0.15
   2  -5   4    2.07    0.12
  -2   5  -5    9.81    0.19
   2  -5   5    8.85    0.22
   2  -5   5    9.24    0.18
   2  -5   6    1.09    0.16
   2  -5   7    1.40    0.17
   2  -4 -10    0.93    0.19
  -2   4   9    5.82    0.16
   2  -4  -9    7.38    0.24
  -2   4   8   17.23    0.21
   2  -4  -8   18.60    0.28
  -2   4   7    0.09    0.07
  -2   4   7    0.11    0.09
   2  -4  -7    0.74    0.14
  -2   4   6   18.74    0.19
  -2   4   6   20.96    0.26
   2  -4  -6   22.54    0.25
   2  -4  -6   20.45    0.23
  -2   4   5    3.28    0.09
  -2   4   5    2.99    0.11
  -2   4   5    2.99    0.12
   2  -4  -5    3.38    0.14
   2  -4  -5    3.56    0.12
   2  -4  -5    3.79    0.11
  -2   4   4    4.08    0.12
  -2   4   4    3.09    0.11
   2  -4  -4    4.27    0.13
   2  -4  -4    4.05    0.13
   2  -4  -4    3.13    0.10
  -2   4   3   35.91    0.26
  -2   4   3   33.01    0.23
   2  -4  -3   31.13    0.21
  -2   4   2    0.47    0.08
  -2   4   2    0.42    0.07
   2  -4  -2    0.99    0.09
   2  -4  -2    0.62    0.08
   2  -4  -2    0.43    0.07
  -2   4   1    4.04    0.09
   2  -4  -1    4.61    0.11
   2  -4  -1    4.38    0.10
   2  -4   0   25.83    0.18
   2  -4   0   26.09    0.18
   2  -4   1   20.16    0.17
   2  -4   1   21.37    0.17
   2  -4   2    7.35    0.12
   2  -4   2    7.78    0.12
  -2   4  -3   22.28    0.21
   2  -4   3   21.90    0.20
   2  -4   3   22.86    0.20
  -2   4  -4   27.94    0.25
   2  -4   4   26.91    0.24
   2  -4   4   28.67    0.24
  -2   4  -5    7.95    0.16
   2  -4   5    7.18    0.17
   2  -4   5    6.81    0.15
  -2   4  -6    2.56    0.13
   2  -4   6    1.65    0.15
   2  -4   6    2.57    0.12
   2  -4   7    2.65    0.16
   2  -4   8    0.19    0.14
  -2   3  10    0.21    0.11
   2  -3 -10    0.31    0.17
  -2   3   9    0.65    0.12
   2  -3  -9    0.77    0.16
  -2   3   8    1.35    0.11
   2  -3  -8    1.50    0.16
  -2   3   7   14.48    0.18
  -2   3   7   12.92    0.21
   2  -3  -7   15.33    0.23
  -2   3   6    1.37    0.11
   2  -3  -6    1.79    0.12
   2  -3  -6    1.46    0.11
   2  -3  -6    1.09    0.09
  -2   3   5    7.73    0.12
  -2   3   5    7.06    0.15
   2  -3  -5    8.32    0.15
   2  -3  -5    7.60    0.14
   2  -3  -5    7.67    0.13
  -2   3   4   36.65    0.20
  -2   3   4   39.36    0.24
  -2   3   4   38.14    0.26
   2  -3  -4   36.68    0.29
   2  -3  -4   37.66    0.24
   2  -3  -4   35.07    0.23
  -2   3   3   76.18    0.33
  -2   3   3   71.42    0.31
   2  -3  -3   79.70    0.32
   2  -3  -3   74.62    0.30
   2  -3  -3   64.02    0.28
  -2   3   2   48.69    0.27
  -2   3   2   44.26    0.23
   2  -3  -2   51.67    0.23
   2  -3  -2   45.76    0.21
   2  -3  -2   40.15    0.20
  -2   3   1    1.44    0.08
  -2   3   1    1.57    0.06
   2  -3  -1    1.79    0.07
  -2   3   0   84.96    0.29
   2  -3   0  107.95    0.29
   2  -3   2   86.77    0.29
  -2   3  -3    1.66    0.08
   2  -3   3    1.12    0.08
   2  -3   3    1.37    0.08
  -2   3  -4    2.78    0.10
   2  -3   4    2.05    0.11
   2  -3   4    2.95    0.10
  -2   3  -5   14.04    0.18
   2  -3   5   11.81    0.17
   2  -3   5   13.53    0.17
  -2   3  -6   32.26    0.28
   2  -3   6   27.94    0.27
   2  -3   6   28.84    0.26
   2  -3   7   12.14    0.21
   2  -3   7   13.87    0.21
   2  -3   8    0.57    0.14
   2  -3   9    1.61    0.19
  -2   2  10    0.04    0.12
   2  -2 -10    0.30    0.17
  -2   2   9    0.98    0.13
   2  -2  -9    0.62    0.15
  -2   2   8    0.72    0.11
   2  -2  -8    0.64    0.14
  -2   2   7   10.12    0.17
  -2   2   7    9.84    0.19
   2  -2  -7    9.57    0.19
  -2   2   6   34.76    0.25
  -2   2   6   35.37    0.29
   2  -2  -6   38.21    0.30
   2  -2  -6   37.27    0.28
   2  -2  -6   33.86    0.27
  -2   2   5   10.66    0.14
  -2   2   5   11.96    0.17
   2  -2  -5   11.13    0.16
   2  -2  -5    9.91    0.14
   2  -2  -5   11.16    0.15
  -2   2   4    1.75    0.07
  -2   2   4    1.26    0.08
   2  -2  -4    1.50    0.09
   2  -2  -4    1.54    0.08
   2  -2  -4    1.56    0.08
  -2   2   3  183.93    0.46
  -2   2   3  188.31    0.48
   2  -2  -3  188.78    0.45
   2  -2  -3  173.79    0.42
   2  -2  -3  162.15    0.41
  -2   2   2   45.28    0.23
  -2   2   2   41.06    0.17
  -2   2   2   43.48    0.21
   2  -2  -2   44.89    0.20
   2  -2  -2   42.53    0.18
   2  -2  -2   36.64    0.17
  -2   2   1   65.75    0.28
  -2   2   1   60.01    0.22
  -2   2   1   62.88    0.21
   2  -2  -1   70.72    0.21
  -2   2   0  479.82    0.75
  -2   2   0  426.26    0.50
  -2   2  -2    2.48    0.06
  -2   2  -3    7.76    0.10
   2  -2   3    6.74    0.09
   2  -2   3    7.49    0.09
  -2   2  -4   12.16    0.14
   2  -2   4    9.58    0.12
   2  -2   4   12.98    0.16
  -2   2  -5    4.17    0.13
   2  -2   5    3.00    0.10
  -2   2  -6    0.77    0.11
   2  -2   6    0.74    0.10
   2  -2   6    0.32    0.09
  -2   2  -7    0.57    0.09
   2  -2   7    0.28    0.10
   2  -2   7    0.58    0.10
   2  -2   8    0.69    0.13
   2  -2   9    5.49    0.21
   2  -2  10    0.81    0.17
  -2   1  10    0.36    0.12
   2  -1 -10    0.80    0.17
  -2   1   9    1.03    0.14
   2  -1  -9    1.39    0.16
  -2   1   8   17.20    0.23
   2  -1  -8   18.31    0.26
  -2   1   7   36.16    0.29
  -2   1   7   35.54    0.35
   2  -1  -7   38.80    0.33
  -2   1   6   37.21    0.27
  -2   1   6   37.85    0.30
   2  -1  -6   42.48    0.31
   2  -1  -6   39.89    0.29
   2  -1  -6   38.20    0.29
   2  -1  -6   41.82    0.37
  -2   1   5    7.41    0.12
  -2   1   5    8.06    0.14
   2  -1  -5    8.50    0.15
   2  -1  -5    7.50    0.13
   2  -1  -5    7.93    0.13
   2  -1  -5    8.97    0.14
  -2   1   4   66.51    0.28
  -2   1   4   72.25    0.33
   2  -1  -4   73.57    0.32
   2  -1  -4   66.35    0.30
   2  -1  -4   66.15    0.30
   2  -1  -4   68.25    0.32
  -2   1   3  141.79    0.34
  -2   1   3  148.64    0.42
   2  -1  -3  149.61    0.40
   2  -1  -3  132.64    0.36
   2  -1  -3  132.55    0.37
  -2   1   2   13.67    0.12
   2  -1  -2   14.92    0.12
   2  -1  -2   12.22    0.10
   2  -1  -2   13.04    0.11
   2  -1  -2   13.90    0.12
  -2   1   1  309.38    0.53
  -2   1   1  300.96    0.44
  -2   1   1  322.27    0.43
   2  -1  -1  302.20    0.40
  -2   1   0  163.10    0.39
  -2   1   0  154.72    0.34
  -2   1  -1   16.97    0.14
  -2   1  -1   15.65    0.13
  -2   1  -3    0.25    0.04
   2  -1   3    0.28    0.05
   2  -1   3    0.25    0.05
  -2   1  -4    4.89    0.09
   2  -1   4    6.16    0.09
   2  -1   4    4.83    0.09
   2  -1   4    4.68    0.08
  -2   1  -5   42.09    0.25
   2  -1   5   37.28    0.22
   2  -1   5   41.32    0.23
   2  -1   5   41.16    0.23
  -2   1  -6    0.82    0.08
   2  -1   6    1.00    0.09
   2  -1   6    0.67    0.07
  -2   1  -7    1.14    0.09
   2  -1   7    0.59    0.10
   2  -1   7    0.56    0.09
   2  -1   8   25.61    0.27
   2  -1   8   24.36    0.25
   2  -1   9    6.20    0.19
   2  -1  10   18.15    0.29
  -2   0  10    3.64    0.19
   2   0 -10    4.36    0.21
  -2   0   9   12.17    0.23
   2   0  -9   13.90    0.27
  -2   0   8    3.36    0.14
   2   0  -8    3.67    0.16
  -2   0   7    8.60    0.17
   2   0  -7   10.19    0.20
  -2   0   6   33.70    0.27
  -2   0   6   35.57    0.30
   2   0  -6   36.89    0.30
   2   0  -6   35.14    0.28
  -2   0   5   15.32    0.17
  -2   0   5   18.78    0.20
   2   0  -5   18.78    0.20
   2   0  -5   16.78    0.18
   2   0  -5   17.30    0.18
   2   0  -5   16.92    0.19
  -2   0   4   23.38    0.18
  -2   0   4   22.14    0.17
  -2   0   4   25.48    0.21
   2   0  -4   26.70    0.22
   2   0  -4   22.37    0.18
   2   0  -4   24.50    0.19
   2   0  -4   25.49    0.20
  -2   0   3   10.44    0.11
  -2   0   3   10.00    0.11
  -2   0   3   12.07    0.13
   2   0  -3   11.04    0.12
  -2   0   2   40.59    0.17
  -2   0   2   38.48    0.16
  -2   0   2   41.47    0.20
   2   0  -2   45.39    0.20
   2   0  -2   41.40    0.18
   2   0  -2   40.47    0.19
  -2   0   1   37.11    0.15
   2   0  -1   35.10    0.13
   2   0  -1   33.82    0.13
   2   0  -1   35.05    0.13
   2   0  -1   37.21    0.15
  -2   0   0    6.97    0.09
  -2   0  -1  829.52    1.27
  -2   0  -1  793.56    1.43
  -2   0  -2 3331.00    3.89
  -2   0  -2 3199.00    4.13
  -2   0  -3   18.20    0.11
   2   0   3   14.08    0.09
   2   0   3   18.84    0.10
   2   0   3   17.58    0.11
  -2   0  -4    0.06    0.05
   2   0   4    0.10    0.05
   2   0   4    0.13    0.05
   2   0   4    0.05    0.04
   2   0   4    0.04    0.05
  -2   0  -5   14.36    0.12
  -2   0  -5   14.40    0.14
   2   0   5   14.21    0.14
   2   0   5   13.16    0.13
   2   0   5   14.23    0.13
   2   0   5   13.71    0.14
  -2   0  -6    1.12    0.07
  -2   0  -6    1.30    0.08
   2   0   6    1.32    0.08
   2   0   6    0.96    0.07
  -2   0  -7    9.77    0.13
  -2   0  -7    9.25    0.15
   2   0   7    8.62    0.15
   2   0   7    9.10    0.15
   2   0   7    9.18    0.15
  -2   0  -8   28.36    0.27
  -2   0  -8   27.36    0.26
   2   0   8   24.80    0.25
   2   0   8   25.30    0.25
  -2   0  -9    4.53    0.13
   2   0   9    4.04    0.16
  -2   0 -10    1.00    0.11
   2   0  10    0.62    0.14
   2   0  11    1.56    0.18
  -2  -1   9    1.07    0.16
   2   1  -9    1.15    0.18
  -2  -1   8    0.41    0.11
   2   1  -8    1.33    0.15
  -2  -1   7    2.54    0.13
   2   1  -7    3.09    0.15
  -2  -1   6  104.47    0.47
  -2  -1   6  113.61    0.53
   2   1  -6  127.14    0.54
  -2  -1   5   34.48    0.25
  -2  -1   5   36.96    0.25
  -2  -1   5   39.54    0.29
   2   1  -5   41.15    0.29
   2   1  -5   37.17    0.27
   2   1  -5   37.11    0.26
   2   1  -5   39.43    0.29
  -2  -1   4    7.67    0.12
  -2  -1   4    8.04    0.12
  -2  -1   4    8.91    0.14
   2   1  -4    8.74    0.13
   2   1  -4    2.28    0.07
   2   1  -4    8.23    0.13
  -2  -1   2    3.18    0.07
  -2  -1   2    3.20    0.07
  -2  -1   2    3.31    0.08
   2   1  -2    3.63    0.09
   2   1  -2    3.44    0.08
   2   1  -2    3.81    0.08
  -2  -1   1   12.46    0.10
  -2  -1   1    8.95    0.13
  -2  -1   1   13.22    0.09
  -2  -1   1   14.23    0.11
   2   1  -1   14.10    0.11
   2   1  -1   13.51    0.10
   2   1  -1   14.22    0.11
  -2  -1   0   92.71    0.22
   2   1   0   79.74    0.19
   2   1   0   93.06    0.20
   2   1   0   87.46    0.19
   2   1   0   96.68    0.22
  -2  -1  -1  211.88    0.28
  -2  -1  -2  324.56    0.48
  -2  -1  -2  314.36    0.36
   2   1   2  282.54    0.33
  -2  -1  -3   98.61    0.22
  -2  -1  -3   92.86    0.27
  -2  -1  -3   94.41    0.25
   2   1   3   88.50    0.22
   2   1   3   98.99    0.23
   2   1   3  101.41    0.23
   2   1   3   87.91    0.21
   2   1   3   93.80    0.24
  -2  -1  -4   55.53    0.19
  -2  -1  -4   58.34    0.18
  -2  -1  -4   52.68    0.23
  -2  -1  -4   57.61    0.23
   2   1   4   52.75    0.21
   2   1   4   57.33    0.21
   2   1   4   52.92    0.20
   2   1   4   56.65    0.23
  -2  -1  -5    7.45    0.10
  -2  -1  -5    8.14    0.12
   2   1   5    7.36    0.11
   2   1   5    8.05    0.11
   2   1   5    6.82    0.10
   2   1   5    7.19    0.11
  -2  -1  -6   92.72    0.33
  -2  -1  -6   91.76    0.38
   2   1   6   83.08    0.35
   2   1   6   91.28    0.35
   2   1   6   87.34    0.35
   2   1   6   94.16    0.38
  -2  -1  -7    7.11    0.12
  -2  -1  -7    7.68    0.14
   2   1   7    6.65    0.13
   2   1   7    6.23    0.13
   2   1   7    6.40    0.13
   2   1   7    7.38    0.14
  -2  -1  -8   15.76    0.18
  -2  -1  -8   15.98    0.21
   2   1   8   15.02    0.20
   2   1   8   15.30    0.25
   2   1   8   14.69    0.19
  -2  -1  -9    4.40    0.13
   2   1   9    3.44    0.14
  -2  -1 -10    0.01    0.10
   2   1  10   -0.31    0.11
  -2  -1 -11   -0.02    0.11
   2   1  11    0.46    0.15
  -2  -2   9    2.57    0.17
   2   2  -9    3.16    0.20
  -2  -2   8    1.31    0.15
   2   2  -8    1.41    0.16
  -2  -2   7    3.27    0.14
   2   2  -7    4.32    0.17
  -2  -2   6    6.59    0.16
   2   2  -6    7.78    0.18
  -2  -2   5   19.70    0.21
  -2  -2   5   20.27    0.21
  -2  -2   5   21.86    0.24
   2   2  -5   23.65    0.24
   2   2  -5   21.09    0.22
   2   2  -5   22.98    0.25
  -2  -2   4   94.98    0.40
  -2  -2   4  102.49    0.40
  -2  -2   4  110.14    0.46
   2   2  -4  113.89    0.45
   2   2  -4  100.97    0.41
   2   2  -4  110.41    0.46
  -2  -2   3    0.28    0.06
  -2  -2   3    0.10    0.05
  -2  -2   3   -0.03    0.05
   2   2  -3    0.40    0.07
   2   2  -3    0.34    0.06
   2   2  -3    0.11    0.06
  -2  -2   2  194.10    0.46
  -2  -2   2  203.36    0.46
  -2  -2   2  227.75    0.54
   2   2  -2  229.71    0.52
   2   2  -2  228.27    0.54
  -2  -2   1   74.52    0.26
  -2  -2   1   81.34    0.26
  -2  -2   1   85.28    0.30
   2   2  -1   92.62    0.30
   2   2  -1   85.68    0.28
   2   2  -1   93.77    0.31
  -2  -2   0  235.74    0.40
  -2  -2   0  264.67    0.41
  -2  -2   0  278.84    0.48
   2   2   0  278.94    0.45
   2   2   0  266.08    0.43
   2   2   0  286.86    0.48
  -2  -2  -1  245.86    0.37
  -2  -2  -1  269.35    0.37
  -2  -2  -1  246.51    0.35
  -2  -2  -1  288.01    0.45
  -2  -2  -1  222.62    0.39
   2   2   1  254.23    0.40
   2   2   1  291.75    0.42
   2   2   1  269.12    0.40
  -2  -2  -2  371.54    0.60
  -2  -2  -2  416.66    0.47
  -2  -2  -2  416.81    0.67
  -2  -2  -2  374.18    0.43
   2   2   2  379.65    0.48
   2   2   2  408.69    0.63
   2   2   2  390.74    0.69
   2   2   2  346.50    0.44
   2   2   2  356.54    0.49
  -2  -2  -3  148.49    0.31
  -2  -2  -3  168.39    0.31
  -2  -2  -3  141.42    0.28
  -2  -2  -3  156.47    0.33
  -2  -2  -3  155.73    0.35
   2   2   3  150.65    0.33
   2   2   3  158.16    0.33
   2   2   3  137.61    0.30
   2   2   3  143.13    0.34
  -2  -2  -4  371.68    0.54
  -2  -2  -4  361.92    0.53
  -2  -2  -4  406.69    0.55
  -2  -2  -4  342.46    0.50
  -2  -2  -4  363.73    0.53
  -2  -2  -4  375.97    0.61
   2   2   4  369.86    0.58
   2   2   4  395.65    0.58
   2   2   4  331.02    0.53
   2   2   4  377.53    0.61
  -2  -2  -5   14.38    0.13
  -2  -2  -5   14.95    0.13
  -2  -2  -5   14.28    0.15
   2   2   5   13.61    0.14
   2   2   5   14.02    0.14
   2   2   5   13.11    0.13
   2   2   5   14.23    0.15
  -2  -2  -6   19.56    0.17
  -2  -2  -6   26.26    0.24
  -2  -2  -6   19.41    0.19
   2   2   6   18.53    0.18
   2   2   6   20.32    0.18
   2   2   6   19.45    0.18
   2   2   6   19.34    0.18
  -2  -2  -7    4.36    0.11
  -2  -2  -7    4.36    0.12
   2   2   7    4.31    0.11
   2   2   7    3.99    0.11
   2   2   7    3.93    0.11
   2   2   7    4.12    0.12
  -2  -2  -8    6.98    0.14
  -2  -2  -8    5.16    0.13
   2   2   8    4.95    0.14
   2   2   8    5.68    0.14
   2   2   8    5.35    0.14
   2   2   8    5.15    0.14
  -2  -2  -9    0.28    0.10
  -2  -2 -10    0.74    0.12
   2   2  10    0.25    0.12
  -2  -2 -11    3.62    0.16
   2   2  11    2.72    0.18
  -2  -2 -12    0.06    0.13
   2   2  12    0.27    0.15
  -2  -3   8   12.79    0.25
   2   3  -8   15.31    0.27
  -2  -3   7   16.30    0.25
   2   3  -7   19.87    0.28
  -2  -3   6   14.44    0.22
   2   3  -6   17.54    0.24
  -2  -3   5    0.76    0.11
   2   3  -5    1.05    0.11
  -2  -3   4    7.67    0.14
  -2  -3   4    8.86    0.14
  -2  -3   4    9.24    0.16
   2   3  -4    8.85    0.16
   2   3  -4    9.88    0.15
   2   3  -4    9.05    0.16
  -2  -3   3    9.95    0.14
  -2  -3   3   10.52    0.14
  -2  -3   3   11.54    0.16
   2   3  -3   13.14    0.16
   2   3  -3   12.35    0.15
   2   3  -3   12.29    0.16
  -2  -3   2   74.56    0.32
  -2  -3   2   76.78    0.32
  -2  -3   2   87.88    0.37
   2   3  -2   89.95    0.36
   2   3  -2   85.90    0.34
   2   3  -2   84.66    0.37
  -2  -3   1  195.66    0.48
  -2  -3   1  215.84    0.49
  -2  -3   1  229.10    0.55
   2   3  -1  236.20    0.53
   2   3  -1  223.82    0.51
   2   3  -1  232.68    0.56
  -2  -3   0   92.82    0.31
  -2  -3   0  104.92    0.32
  -2  -3   0  106.13    0.35
   2   3   0  105.21    0.33
   2   3   0    0.02    0.02
   2   3   0  106.04    0.35
  -2  -3  -1  216.91    0.44
  -2  -3  -1  235.36    0.45
  -2  -3  -1  232.92    0.49
  -2  -3  -1  206.37    0.46
   2   3   1  220.15    0.45
   2   3   1  162.88    0.38
  -2  -3  -2   13.72    0.12
  -2  -3  -2   16.18    0.12
  -2  -3  -2   13.43    0.11
  -2  -3  -2   13.54    0.12
   2   3   2   15.46    0.13
   2   3   2   15.30    0.13
   2   3   2   13.12    0.12
  -2  -3  -3   37.13    0.19
  -2  -3  -3   36.96    0.18
  -2  -3  -3   40.37    0.19
   2   3   3   44.03    0.21
   2   3   3   36.70    0.19
   2   3   3   32.89    0.19
  -2  -3  -4   33.82    0.19
  -2  -3  -4   37.65    0.20
  -2  -3  -4   31.19    0.18
  -2  -3  -4   34.61    0.16
  -2  -3  -4   33.40    0.21
   2   3   4   33.76    0.20
   2   3   4   36.94    0.20
   2   3   4   30.62    0.19
   2   3   4   33.24    0.20
  -2  -3  -5    1.35    0.08
  -2  -3  -5    1.63    0.08
  -2  -3  -5    1.48    0.07
  -2  -3  -5    1.35    0.05
  -2  -3  -5    1.64    0.08
   2   3   5    1.51    0.08
   2   3   5    1.30    0.08
   2   3   5    1.34    0.07
   2   3   5    1.36    0.08
  -2  -3  -6    1.62    0.09
  -2  -3  -6    2.00    0.09
  -2  -3  -6    2.20    0.09
   2   3   6    2.27    0.09
   2   3   6    1.46    0.08
   2   3   6    1.82    0.09
  -2  -3  -7   17.82    0.19
  -2  -3  -7   19.76    0.19
  -2  -3  -7   17.13    0.20
   2   3   7   15.42    0.18
   2   3   7   16.38    0.18
   2   3   7   15.86    0.18
   2   3   7   16.87    0.20
  -2  -3  -8   20.73    0.22
  -2  -3  -8   19.72    0.23
   2   3   8   18.97    0.22
   2   3   8   16.06    0.20
   2   3   8   18.37    0.22
  -2  -3  -9    5.53    0.15
   2   3   9    5.10    0.16
  -2  -3 -10    3.92    0.16
   2   3  10    4.07    0.17
  -2  -3 -11   10.29    0.22
   2   3  11    9.19    0.23
  -2  -3 -12    0.55    0.15
   2   3  12    0.76    0.16
  -2  -4   7   -0.10    0.11
   2   4  -7    0.00    0.13
  -2  -4   6   -0.17    0.10
   2   4  -6    0.27    0.14
  -2  -4   5    0.66    0.11
   2   4  -5    1.17    0.13
  -2  -4   4    4.57    0.14
   2   4  -4    4.45    0.15
  -2  -4   3   50.61    0.32
  -2  -4   3   57.39    0.33
  -2  -4   3   59.52    0.37
   2   4  -3   63.62    0.36
   2   4  -3   65.97    0.37
   2   4  -3    0.51    0.05
  -2  -4   2   18.89    0.19
  -2  -4   2   22.53    0.20
  -2  -4   2   23.52    0.22
   2   4  -2   23.44    0.21
   2   4  -2   24.70    0.21
  -2  -4   1    2.14    0.08
  -2  -4   1    2.07    0.08
   2   4  -1    1.89    0.08
   2   4  -1    1.26    0.07
  -2  -4   0    1.63    0.08
  -2  -4   0    1.30    0.07
  -2  -4   0    1.41    0.07
   2   4   0    2.10    0.09
   2   4   0    1.72    0.08
   2   4   0    1.99    0.08
  -2  -4  -1    4.37    0.10
  -2  -4  -1    4.83    0.10
  -2  -4  -1    4.59    0.10
  -2  -4  -1    0.04    0.03
   2   4   1    4.89    0.10
   2   4   1    4.81    0.10
  -2  -4  -2   44.21    0.23
  -2  -4  -2   50.71    0.24
  -2  -4  -2   38.70    0.21
  -2  -4  -2    0.11    0.03
   2   4   2   44.49    0.24
   2   4   2   49.02    0.24
   2   4   2   39.35    0.23
  -2  -4  -3  153.46    0.43
  -2  -4  -3  164.92    0.43
  -2  -4  -3  128.24    0.38
  -2  -4  -3   78.10    0.32
   2   4   3  158.43    0.44
   2   4   3  161.15    0.43
   2   4   3  141.18    0.44
  -2  -4  -4    0.51    0.08
  -2  -4  -4    0.61    0.07
  -2  -4  -4    0.44    0.07
  -2  -4  -4    0.43    0.06
   2   4   4    0.17    0.07
   2   4   4    0.56    0.07
   2   4   4    0.33    0.06
   2   4   4    0.68    0.07
  -2  -4  -5   44.00    0.26
  -2  -4  -5   48.88    0.26
  -2  -4  -5   40.12    0.24
  -2  -4  -5   45.10    0.18
  -2  -4  -5   43.31    0.27
   2   4   5   44.32    0.27
   2   4   5   41.52    0.25
   2   4   5   38.04    0.24
   2   4   5   39.41    0.26
  -2  -4  -6  114.85    0.55
  -2  -4  -6  119.91    0.43
  -2  -4  -6   99.56    0.39
  -2  -4  -6  113.69    0.46
   2   4   6  104.70    0.42
   2   4   6  109.80    0.42
   2   4   6   93.72    0.39
   2   4   6  102.31    0.44
  -2  -4  -7   40.36    0.28
  -2  -4  -7   40.89    0.27
  -2  -4  -7   39.34    0.29
   2   4   7   37.92    0.28
   2   4   7   38.18    0.27
   2   4   7   34.02    0.26
   2   4   7   35.28    0.28
  -2  -4  -8    5.95    0.15
  -2  -4  -8    5.62    0.21
   2   4   8    6.16    0.15
   2   4   8    5.48    0.14
  -2  -4  -9    0.21    0.11
   2   4   9    0.15    0.11
  -2  -4 -10    4.38    0.18
   2   4  10    4.21    0.17
  -2  -4 -11   -0.09    0.14
   2   4  11    0.28    0.13
  -2  -4 -12    1.71    0.21
   2   4  12    0.82    0.16
  -2  -5   7    1.56    0.18
   2   5  -7    2.29    0.18
  -2  -5   6    1.45    0.15
   2   5  -6    2.27    0.19
  -2  -5   5    2.30    0.15
   2   5  -5    3.21    0.16
  -2  -5   4    1.19    0.12
   2   5  -4    1.17    0.14
  -2  -5   3   25.82    0.26
   2   5  -3   31.67    0.28
  -2  -5   2    1.47    0.11
  -2  -5   2    1.51    0.10
  -2  -5   2    1.64    0.10
   2   5  -2    1.86    0.12
   2   5  -2    1.92    0.10
  -2  -5   1   26.24    0.24
  -2  -5   1   28.37    0.23
  -2  -5   1   29.03    0.25
   2   5  -1   30.41    0.25
   2   5  -1   29.18    0.23
   2   5  -1   26.32    0.24
  -2  -5   0   65.37    0.34
  -2  -5   0   71.03    0.34
  -2  -5   0   70.71    0.37
  -2  -5   0   61.09    0.34
   2   5   0   73.81    0.35
   2   5   0   73.93    0.34
  -2  -5  -1    8.08    0.14
  -2  -5  -1    8.86    0.13
  -2  -5  -1    8.98    0.14
  -2  -5  -1    7.86    0.13
   2   5   1    9.71    0.14
  -2  -5  -2  193.92    0.53
  -2  -5  -2  159.90    0.48
  -2  -5  -2  196.58    0.57
  -2  -5  -2  169.76    0.53
   2   5   2  198.49    0.57
   2   5   2  203.19    0.54
  -2  -5  -3    1.16    0.09
  -2  -5  -3    1.47    0.08
   2   5   3    0.37    0.09
   2   5   3    1.79    0.09
   2   5   3    0.73    0.07
  -2  -5  -4    1.82    0.13
  -2  -5  -4    1.57    0.09
  -2  -5  -4    1.33    0.08
  -2  -5  -4    1.07    0.08
   2   5   4    1.21    0.10
   2   5   4    1.46    0.08
   2   5   4    1.25    0.09
  -2  -5  -5   65.40    0.34
  -2  -5  -5   71.82    0.34
  -2  -5  -5   57.44    0.30
  -2  -5  -5   62.14    0.34
   2   5   5   67.64    0.34
   2   5   5   68.85    0.34
   2   5   5   49.72    0.29
   2   5   5   56.36    0.33
  -2  -5  -6   86.40    0.40
  -2  -5  -6   91.36    0.40
  -2  -5  -6   76.99    0.37
  -2  -5  -6   49.80    0.32
   2   5   6   86.54    0.41
   2   5   6   84.40    0.39
   2   5   6   68.57    0.35
   2   5   6   73.35    0.39
  -2  -5  -7    8.32    0.17
  -2  -5  -7    8.04    0.16
  -2  -5  -7    8.15    0.15
  -2  -5  -7    1.39    0.07
   2   5   7    8.39    0.16
   2   5   7    6.00    0.14
   2   5   7    5.69    0.14
  -2  -5  -8    0.83    0.12
   2   5   8    1.02    0.12
  -2  -5  -9    1.82    0.16
   2   5   9    1.07    0.13
  -2  -5 -10    1.60    0.17
   2   5  10    2.03    0.16
  -2  -5 -11    1.83    0.20
   2   5  11    1.53    0.17
  -2  -5 -12    0.87    0.19
   2   5  12    0.62    0.16
  -2  -6   6   15.73    0.29
   2   6  -6   17.52    0.29
  -2  -6   5    2.65    0.17
   2   6  -5    2.98    0.18
  -2  -6   4    0.76    0.14
   2   6  -4    1.23    0.15
  -2  -6   3    8.89    0.20
   2   6  -3   10.47    0.21
  -2  -6   2   12.27    0.21
   2   6  -2   15.19    0.22
  -2  -6   1    1.29    0.13
   2   6  -1    1.17    0.12
  -2  -6   0  220.31    0.68
  -2  -6   0  245.54    0.70
  -2  -6   0  247.26    0.75
  -2  -6   0  155.08    0.74
   2   6   0  253.02    0.70
  -2  -6  -1    3.94    0.13
  -2  -6  -1    4.05    0.12
  -2  -6  -1    4.70    0.13
  -2  -6  -1    3.47    0.11
   2   6   1    4.41    0.13
  -2  -6  -2   11.09    0.17
  -2  -6  -2   11.25    0.16
  -2  -6  -2    9.07    0.14
  -2  -6  -2   10.33    0.16
  -2  -6  -2   10.24    0.16
   2   6   2   11.73    0.17
   2   6   2    9.69    0.16
  -2  -6  -3    8.63    0.15
  -2  -6  -3    8.98    0.15
  -2  -6  -3    7.48    0.13
  -2  -6  -3    7.48    0.14
   2   6   3    9.31    0.16
   2   6   3    8.64    0.14
   2   6   3    6.81    0.14
  -2  -6  -4   31.02    0.26
  -2  -6  -4   36.87    0.27
  -2  -6  -4   26.94    0.23
  -2  -6  -4   30.56    0.26
   2   6   4   33.30    0.26
   2   6   4   32.40    0.25
   2   6   4   26.30    0.25
  -2  -6  -5    7.50    0.16
  -2  -6  -5    7.84    0.15
  -2  -6  -5    6.06    0.13
  -2  -6  -5    6.57    0.14
   2   6   5    7.40    0.15
   2   6   5    8.39    0.15
   2   6   5    6.33    0.15
  -2  -6  -6   42.32    0.31
  -2  -6  -6   41.55    0.32
   2   6   6   39.29    0.30
   2   6   6   34.17    0.30
  -2  -6  -7   81.44    0.44
   2   6   7   73.37    0.42
  -2  -6  -8   38.64    0.33
  -2  -6  -8   38.55    0.34
   2   6   8   37.10    0.32
  -2  -6  -9    3.32    0.16
  -2  -6  -9    2.83    0.18
   2   6   9    2.67    0.15
  -2  -6 -10    1.45    0.18
   2   6  10    0.97    0.16
  -2  -6 -11    0.32    0.18
   2   6  11   -0.33    0.13
  -2  -7   4    7.88    0.22
   2   7  -4    8.15    0.22
  -2  -7   3   14.62    0.26
   2   7  -3   17.73    0.26
  -2  -7   2   23.30    0.30
   2   7  -2   25.95    0.29
  -2  -7   1    6.81    0.20
   2   7  -1    6.04    0.17
  -2  -7   0   42.00    0.35
   2   7   0   48.36    0.35
  -2  -7  -1   14.25    0.22
   2   7   1   16.33    0.22
  -2  -7  -2   14.48    0.22
   2   7   2   15.91    0.21
   2   7   3    4.70    0.14
  -2  -7  -4   27.96    0.27
   2   7   4   29.11    0.27
   2   7   4   20.42    0.24
  -2  -7  -5   12.30    0.20
   2   7   5   12.35    0.19
  -2  -7  -6    0.07    0.11
   2   7   6   -0.11    0.10
  -2  -7  -7    0.61    0.13
   2   7   7   -0.13    0.11
  -2  -7  -8    8.11    0.20
   2   7   8    8.43    0.20
  -2  -7  -9    3.84    0.18
   2   7   9    3.69    0.17
  -2  -7 -10    0.51    0.16
   2   7  10    0.16    0.13
  -2  -7 -11   -0.18    0.15
  -2  -7 -11    0.39    0.20
   2   7  11    0.25    0.15
  -2  -8   3    0.13    0.15
   2   8  -3    0.21    0.14
  -2  -8   2    0.72    0.15
   2   8  -2    1.18    0.16
  -2  -8   1    3.30    0.20
   2   8  -1    4.29    0.18
  -2  -8   0   -0.11    0.12
   2   8   0    0.16    0.12
  -2  -8  -1    2.34    0.18
   2   8   1    4.70    0.17
  -2  -8  -2   10.62    0.24
   2   8   2   11.77    0.21
  -2  -8  -3    3.13    0.17
   2   8   3    3.63    0.16
  -2  -8  -4    0.77    0.13
   2   8   4    0.34    0.11
  -2  -8  -5    5.85    0.18
   2   8   5    5.75    0.17
  -2  -8  -6    2.27    0.16
   2   8   6    2.64    0.16
  -2  -8  -7    3.04    0.18
   2   8   7    2.26    0.16
  -2  -8  -8   15.05    0.27
   2   8   8   14.43    0.26
  -2  -8  -9    2.83    0.19
   2   8   9    3.16    0.19
  -2  -8 -10    4.52    0.23
   2   8  10    5.81    0.23
  -2  -9   1    0.59    0.16
   2   9  -1    0.91    0.17
  -2  -9   0    2.78    0.23
   2   9   0    3.48    0.18
  -2  -9  -1    4.21    0.25
   2   9   1    4.26    0.18
  -2  -9  -2    1.88    0.23
   2   9   2    2.53    0.17
  -2  -9  -3    1.70    0.19
   2   9   3    1.70    0.18
  -2  -9  -4    5.15    0.22
   2   9   4    4.68    0.19
  -2  -9  -5    9.13    0.25
   2   9   5   10.36    0.23
  -2  -9  -6   22.48    0.32
   2   9   6   23.48    0.30
  -2  -9  -7    1.32    0.18
   2   9   7    0.82    0.15
  -2  -9  -8    2.19    0.21
   2   9   8    2.98    0.22
  -2  -9  -9    1.72    0.21
   2   9   9    2.07    0.22
  -2 -10  -3    8.59    0.31
   2  10   3    7.95    0.23
  -2 -10  -4   12.49    0.31
   2  10   4   11.89    0.25
  -2 -10  -5    5.90    0.26
   2  10   5    5.38    0.21
  -2 -10  -6    0.33    0.19
   2  10   6    0.53    0.15
  -3   7   6    1.89    0.17
   3  -7  -6    2.22    0.25
  -3   7   5    0.90    0.16
  -3   7   5    0.13    0.12
   3  -7  -5    0.26    0.14
  -3   7   4    1.80    0.18
  -3   7   4    1.07    0.13
   3  -7  -4    1.31    0.16
   3  -7  -4    1.43    0.17
   3  -7  -4    1.39    0.16
  -3   7   3    1.65    0.19
  -3   7   3    1.87    0.13
   3  -7  -3    1.95    0.16
   3  -7  -3    2.14    0.15
  -3   7   2    2.13    0.19
   3  -7  -2    2.30    0.16
   3  -7  -2    2.17    0.15
  -3   7   1    2.35    0.18
   3  -7  -1    1.90    0.17
   3  -7  -1    1.37    0.14
  -3   7   0    7.67    0.25
   3  -7   0    6.99    0.19
   3  -7   0    6.53    0.19
   3  -7   1    7.77    0.21
   3  -7   1    8.85    0.20
   3  -7   2    6.29    0.21
   3  -7   2    7.18    0.20
   3  -6  -7    5.56    0.24
  -3   6   6    2.00    0.15
  -3   6   6    0.63    0.14
   3  -6  -6    1.96    0.21
  -3   6   5    1.99    0.16
  -3   6   5    1.51    0.13
   3  -6  -5    1.72    0.20
   3  -6  -5    2.47    0.16
  -3   6   4    2.46    0.17
  -3   6   4    1.74    0.13
   3  -6  -4    2.82    0.19
   3  -6  -4    1.64    0.15
  -3   6   3   12.75    0.24
  -3   6   3    9.47    0.18
   3  -6  -3   13.87    0.22
   3  -6  -3   11.88    0.20
   3  -6  -3    9.81    0.18
  -3   6   2    2.59    0.17
  -3   6   2    1.87    0.11
   3  -6  -2    3.09    0.15
   3  -6  -2    2.69    0.14
   3  -6  -2    2.25    0.13
  -3   6   1   15.71    0.25
   3  -6  -1   15.91    0.21
   3  -6  -1   13.53    0.20
  -3   6   0    6.29    0.21
   3  -6   0    6.41    0.16
   3  -6   0    6.99    0.16
   3  -6   1    8.31    0.18
   3  -6   1    7.90    0.17
   3  -6   2    2.96    0.15
   3  -6   2    1.76    0.13
   3  -6   3    3.25    0.17
   3  -6   3    3.48    0.16
   3  -6   4   18.51    0.27
   3  -6   4   18.80    0.26
   3  -6   5    0.95    0.17
   3  -5  -8    4.34    0.23
   3  -5  -7   12.19    0.27
  -3   5   6    4.73    0.16
   3  -5  -6    6.27    0.21
   3  -5  -6    5.97    0.20
  -3   5   5    0.25    0.10
   3  -5  -5    0.70    0.14
   3  -5  -5    1.06    0.13
  -3   5   4   13.58    0.20
   3  -5  -4   17.50    0.24
   3  -5  -4   11.35    0.18
   3  -5  -4   12.08    0.18
  -3   5   3    5.12    0.20
  -3   5   3    5.80    0.14
   3  -5  -3    6.59    0.18
   3  -5  -3    5.85    0.15
   3  -5  -3    5.01    0.13
  -3   5   2   96.13    0.51
  -3   5   2   70.89    0.36
   3  -5  -2  101.21    0.43
   3  -5  -2   92.72    0.40
   3  -5  -2   75.60    0.36
  -3   5   1   30.69    0.30
  -3   5   1   23.31    0.21
   3  -5  -1   34.40    0.25
   3  -5  -1   34.49    0.26
   3  -5  -1   30.72    0.24
  -3   5   0    9.09    0.20
   3  -5   0   10.07    0.16
   3  -5   0    9.85    0.16
   3  -5   1    0.09    0.09
   3  -5   1    0.18    0.09
   3  -5   2    4.01    0.13
   3  -5   2    4.08    0.13
   3  -5   3    2.59    0.13
   3  -5   3    2.41    0.12
   3  -5   4    3.04    0.16
   3  -5   4    3.21    0.14
  -3   5  -5    0.36    0.12
   3  -5   5    0.74    0.13
   3  -5   5    0.37    0.12
   3  -5   6    0.55    0.14
   3  -4  -9   10.11    0.28
   3  -4  -8    8.59    0.25
   3  -4  -7    8.17    0.23
  -3   4   6   32.63    0.31
   3  -4  -6   39.59    0.34
   3  -4  -6   36.31    0.31
  -3   4   5    1.29    0.11
   3  -4  -5    1.06    0.14
   3  -4  -5    1.11    0.11
  -3   4   4    8.74    0.18
  -3   4   4    7.44    0.15
   3  -4  -4    8.67    0.17
   3  -4  -4    8.25    0.15
   3  -4  -4    7.01    0.14
  -3   4   3   14.08    0.20
  -3   4   3   13.41    0.17
   3  -4  -3   15.61    0.19
   3  -4  -3   14.97    0.17
   3  -4  -3   12.59    0.16
  -3   4   2   12.59    0.19
  -3   4   2   11.12    0.14
   3  -4  -2   16.25    0.24
   3  -4  -2   12.41    0.14
   3  -4  -2   11.36    0.14
  -3   4   1    0.76    0.10
  -3   4   1    0.76    0.07
   3  -4  -1    0.66    0.09
  -3   4   0    1.64    0.11
   3  -4   0    1.72    0.09
   3  -4   2   -0.07    0.06
   3  -4   3    0.16    0.08
   3  -4   3   -0.18    0.07
  -3   4  -4    2.11    0.11
   3  -4   4    2.38    0.12
   3  -4   4    1.92    0.11
  -3   4  -5    0.43    0.10
   3  -4   5    0.07    0.10
   3  -4   5    0.18    0.10
  -3   4  -6    8.40    0.18
   3  -4   6    8.07    0.19
   3  -4   6    8.84    0.18
   3  -4   7    9.09    0.21
   3  -4   7    8.88    0.26
   3  -4   8    1.54    0.19
   3  -3  -9    5.24    0.24
   3  -3  -8    2.55    0.19
  -3   3   7    1.41    0.09
   3  -3  -7    2.26    0.17
  -3   3   6   26.46    0.27
   3  -3  -6   30.59    0.30
   3  -3  -6   24.82    0.26
  -3   3   5    4.75    0.14
   3  -3  -5    5.68    0.16
   3  -3  -5    4.57    0.13
   3  -3  -5    4.56    0.12
  -3   3   4   15.36    0.18
   3  -3  -4   16.24    0.19
   3  -3  -4   15.27    0.17
   3  -3  -4   13.20    0.16
  -3   3   3    0.89    0.10
  -3   3   3    0.94    0.08
   3  -3  -3    0.96    0.11
   3  -3  -3    1.03    0.09
  -3   3   2   43.74    0.29
  -3   3   2   42.20    0.23
   3  -3  -2   44.79    0.23
   3  -3  -2   41.80    0.21
  -3   3   1   23.62    0.22
  -3   3   1   19.90    0.15
   3  -3  -1   24.37    0.16
  -3   3   0    9.54    0.15
  -3   3  -1   10.62    0.17
  -3   3  -3    0.18    0.06
  -3   3  -4    4.65    0.11
   3  -3   4    5.20    0.11
  -3   3  -5   12.19    0.17
   3  -3   5   10.93    0.17
   3  -3   5   11.87    0.16
  -3   3  -6   22.48    0.24
   3  -3   6   19.12    0.22
   3  -3   6   20.65    0.22
  -3   3  -7    6.95    0.17
   3  -3   7    6.65    0.18
   3  -3   7    6.20    0.16
   3  -3   8    0.16    0.13
   3  -3   9    2.79    0.20
  -3   2   9    0.27    0.11
   3  -2  -9    0.44    0.16
  -3   2   8    2.89    0.12
   3  -2  -8    3.04    0.18
  -3   2   7    0.14    0.08
   3  -2  -7   -0.22    0.11
  -3   2   6    6.36    0.16
   3  -2  -6    7.21    0.18
   3  -2  -6    6.38    0.15
  -3   2   5   11.54    0.14
  -3   2   5   11.34    0.19
   3  -2  -5   13.10    0.19
   3  -2  -5   12.86    0.17
   3  -2  -5   10.78    0.16
  -3   2   4    2.35    0.06
  -3   2   4    2.50    0.10
   3  -2  -4    2.01    0.11
   3  -2  -4    2.33    0.10
   3  -2  -4    2.28    0.09
  -3   2   3   39.65    0.20
  -3   2   3   39.35    0.24
   3  -2  -3   43.71    0.24
   3  -2  -3   40.80    0.23
  -3   2   2    3.23    0.10
  -3   2   2    2.46    0.07
  -3   2   2    2.44    0.08
   3  -2  -2    2.97    0.09
  -3   2   1  195.19    0.55
  -3   2   1  184.74    0.45
  -3   2   1  181.15    0.38
  -3   2   0  150.75    0.49
  -3   2   0  143.98    0.42
  -3   2  -1    2.49    0.10
  -3   2  -2   48.24    0.29
  -3   2  -3   70.63    0.25
  -3   2  -4    7.74    0.11
   3  -2   4    6.32    0.10
  -3   2  -5   51.80    0.28
   3  -2   5   44.13    0.36
   3  -2   5   46.88    0.25
  -3   2  -6    0.96    0.09
   3  -2   6    0.95    0.10
   3  -2   6    0.92    0.09
  -3   2  -7    2.21    0.12
   3  -2   7    2.59    0.13
   3  -2   7    2.16    0.12
  -3   2  -8    1.71    0.12
   3  -2   8    1.24    0.15
   3  -2   8    1.16    0.12
   3  -2   9    6.87    0.23
   3  -2  10    3.23    0.22
  -3   1   9    6.16    0.17
   3  -1  -9    7.29    0.24
  -3   1   8    0.96    0.11
   3  -1  -8    1.68    0.18
  -3   1   7   17.70    0.21
   3  -1  -7   22.73    0.28
  -3   1   6    1.92    0.10
  -3   1   6    2.01    0.12
   3  -1  -6    2.69    0.14
   3  -1  -6    1.81    0.11
  -3   1   5   11.60    0.15
  -3   1   5   11.74    0.18
   3  -1  -5   11.76    0.19
   3  -1  -5   10.72    0.16
   3  -1  -5   11.21    0.17
  -3   1   4   64.43    0.26
  -3   1   4   69.58    0.35
   3  -1  -4   73.94    0.35
   3  -1  -4   66.17    0.32
   3  -1  -4   67.11    0.32
  -3   1   3  180.29    0.49
   3  -1  -3  190.25    0.48
   3  -1  -3  166.73    0.44
   3  -1  -3  169.03    0.44
  -3   1   2    2.00    0.06
  -3   1   2    1.87    0.07
   3  -1  -2    2.62    0.08
   3  -1  -2    1.73    0.06
  -3   1   1   46.44    0.26
  -3   1   1   43.64    0.21
  -3   1   1   44.73    0.18
  -3   1   0    3.35    0.09
  -3   1   0    3.05    0.08
  -3   1  -1   23.87    0.19
  -3   1  -1   21.47    0.17
  -3   1  -2   70.24    0.31
  -3   1  -2   64.94    0.30
  -3   1  -3  334.39    0.68
  -3   1  -4   -0.08    0.04
  -3   1  -5    0.04    0.06
   3  -1   5    0.17    0.06
   3  -1   5    0.06    0.06
  -3   1  -6    0.21    0.07
   3  -1   6    0.17    0.07
   3  -1   6    0.29    0.07
  -3   1  -7    1.52    0.10
   3  -1   7    1.44    0.11
   3  -1   7    1.63    0.10
  -3   1  -8    2.28    0.11
   3  -1   8    2.58    0.14
   3  -1   8    2.49    0.12
   3  -1   9    0.27    0.13
   3  -1  10    3.16    0.19
  -3   0   9    4.81    0.18
   3   0  -9    4.05    0.23
  -3   0   8    1.19    0.13
   3   0  -8    1.13    0.16
  -3   0   7   13.22    0.20
   3   0  -7   13.90    0.23
  -3   0   6   19.81    0.21
  -3   0   6   19.14    0.24
   3   0  -6   21.01    0.25
   3   0  -6   20.52    0.27
  -3   0   5  406.99    0.94
   3   0  -5  435.32    0.94
   3   0  -5  374.07    0.84
   3   0  -5  383.02    0.85
  -3   0   4   50.00    0.26
  -3   0   4   52.58    0.31
   3   0  -4   55.43    0.31
   3   0  -4   48.09    0.28
   3   0  -4   53.72    0.30
  -3   0   3   27.51    0.17
  -3   0   3   28.10    0.21
   3   0  -3   31.05    0.21
   3   0  -3   28.69    0.20
  -3   0   2   47.11    0.23
   3   0  -2   47.27    0.21
  -3   0   1   85.31    0.26
  -3   0   0    5.96    0.09
  -3   0  -1   12.53    0.13
  -3   0  -1   12.53    0.12
  -3   0  -2   58.38    0.25
  -3   0  -2   56.97    0.26
  -3   0  -3    3.26    0.08
  -3   0  -3    3.14    0.08
  -3   0  -4    0.48    0.06
  -3   0  -4    0.19    0.05
  -3   0  -5    0.07    0.06
  -3   0  -5    0.15    0.06
   3   0   5    0.11    0.05
   3   0   6    1.15    0.08
   3   0   6    1.92    0.09
   3   0   6    1.32    0.07
  -3   0  -7    3.57    0.11
   3   0   7    3.35    0.12
   3   0   7    3.76    0.11
   3   0   7    2.89    0.10
  -3   0  -8   28.76    0.26
   3   0   8   27.11    0.26
   3   0   8   28.11    0.25
   3   0   8   28.49    0.25
   3   0   9    1.16    0.14
   3   0   9    1.66    0.12
   3   0  10    9.72    0.23
   3   0  11    0.74    0.16
  -3  -1   9    2.06    0.17
   3   1  -9    2.52    0.21
  -3  -1   8    2.93    0.15
   3   1  -8    4.05    0.19
  -3  -1   7    5.32    0.16
   3   1  -7    6.32    0.19
  -3  -1   6   52.49    0.34
   3   1  -6   61.48    0.41
  -3  -1   5    0.71    0.09
  -3  -1   5    0.33    0.09
   3   1  -5    1.09    0.12
   3   1  -5    0.56    0.10
  -3  -1   4   10.40    0.14
  -3  -1   4   11.66    0.17
   3   1  -4   11.73    0.17
   3   1  -4   10.60    0.15
   3   1  -4   11.52    0.16
  -3  -1   3    4.44    0.09
  -3  -1   3    4.87    0.11
   3   1  -3    5.30    0.10
   3   1  -3    4.84    0.10
  -3  -1   2    1.64    0.06
  -3  -1   2    1.44    0.07
   3   1  -2    1.77    0.08
   3   1  -2    1.74    0.07
   3   1  -2    1.60    0.07
  -3  -1   1    5.44    0.09
   3   1  -1    5.13    0.09
   3   1  -1    5.15    0.08
   3   1  -1    5.51    0.09
  -3  -1   0  191.84    0.36
   3   1   0  175.09    0.31
   3   1   0  210.02    0.36
  -3  -1  -1    7.39    0.07
  -3  -1  -2    2.88    0.07
  -3  -1  -3    5.52    0.09
  -3  -1  -3    5.51    0.09
  -3  -1  -3    5.86    0.07
  -3  -1  -4   63.15    0.24
  -3  -1  -4   66.21    0.29
  -3  -1  -4   62.49    0.23
  -3  -1  -5  247.45    0.47
  -3  -1  -5  242.46    0.51
   3   1   5  218.89    0.46
   3   1   5  254.12    0.48
   3   1   5  218.34    0.44
  -3  -1  -6    1.87    0.07
  -3  -1  -6    2.11    0.09
   3   1   6    1.88    0.08
   3   1   6    1.97    0.09
   3   1   6    1.62    0.08
  -3  -1  -7   23.09    0.16
  -3  -1  -7   24.31    0.22
   3   1   7   21.11    0.20
   3   1   7   23.46    0.21
   3   1   7   21.13    0.19
  -3  -1  -8    2.30    0.09
  -3  -1  -8    2.50    0.12
   3   1   8    2.46    0.12
   3   1   8    2.16    0.11
   3   1   8    2.07    0.12
  -3  -1  -9    1.55    0.10
  -3  -1  -9    1.25    0.13
   3   1   9    1.69    0.13
   3   1   9    1.80    0.16
   3   1  10    4.55    0.18
   3   1  11    1.56    0.19
  -3  -2   8    2.04    0.15
   3   2  -8    3.21    0.20
  -3  -2   7    0.25    0.11
   3   2  -7   -0.19    0.13
  -3  -2   6    0.57    0.10
   3   2  -6    0.27    0.13
  -3  -2   5    1.39    0.11
  -3  -2   5    1.73    0.11
   3   2  -5    2.24    0.13
  -3  -2   4    1.70    0.09
  -3  -2   4    2.11    0.10
   3   2  -4    1.91    0.11
   3   2  -4    1.84    0.09
   3   2  -4    2.05    0.10
  -3  -2   3   38.15    0.24
  -3  -2   3   47.43    0.39
  -3  -2   3   44.14    0.29
   3   2  -3   47.47    0.29
   3   2  -3   43.06    0.27
   3   2  -3   45.69    0.29
  -3  -2   2   28.36    0.19
  -3  -2   2   30.83    0.19
  -3  -2   2   32.12    0.22
   3   2  -2   34.04    0.22
   3   2  -2   32.17    0.21
   3   2  -2   33.05    0.22
  -3  -2   1  534.78    0.69
  -3  -2   1  551.18    0.68
  -3  -2   1  585.13    1.11
   3   2  -1  633.31    0.83
   3   2  -1  597.45    0.79
   3   2  -1  627.53    0.85
  -3  -2   0  286.90    0.44
  -3  -2   0  334.19    0.53
  -3  -2   0  319.46    0.55
   3   2   0  325.12    0.52
   3   2   0  294.61    0.49
   3   2   0  326.85    0.55
  -3  -2  -1    5.74    0.08
   3   2   1    5.84    0.08
   3   2   1    4.97    0.07
  -3  -2  -2    0.84    0.05
   3   2   2    0.91    0.05
   3   2   2    0.82    0.05
   3   2   2    0.78    0.05
  -3  -2  -3    8.10    0.10
  -3  -2  -3    8.90    0.10
   3   2   3    8.36    0.09
   3   2   3    8.27    0.09
   3   2   3    7.96    0.09
   3   2   3    7.05    0.08
   3   2   3    7.54    0.09
  -3  -2  -4  177.93    0.44
  -3  -2  -4  174.10    0.40
   3   2   4  163.53    0.37
   3   2   4  181.98    0.38
   3   2   4  155.23    0.34
   3   2   4  166.83    0.38
  -3  -2  -5   51.17    0.25
  -3  -2  -5   52.74    0.25
   3   2   5   46.55    0.23
   3   2   5   53.57    0.24
   3   2   5   48.81    0.23
   3   2   5   49.94    0.24
  -3  -2  -6    0.48    0.06
  -3  -2  -6    0.53    0.08
   3   2   6    0.50    0.07
   3   2   6    0.96    0.08
   3   2   6    0.65    0.08
   3   2   6    0.80    0.08
  -3  -2  -7    0.74    0.08
  -3  -2  -7    0.87    0.09
   3   2   7    0.64    0.09
   3   2   7    0.66    0.09
   3   2   7    0.74    0.09
  -3  -2  -8    1.29    0.09
  -3  -2  -8    1.55    0.10
   3   2   8    1.09    0.12
   3   2   8    1.44    0.10
   3   2   8    1.63    0.11
  -3  -2  -9   12.92    0.17
  -3  -2  -9   13.69    0.21
   3   2   9   12.82    0.21
   3   2   9   12.18    0.20
  -3  -2 -10    0.59    0.11
   3   2  10    0.56    0.13
   3   2  11    2.46    0.18
   3   2  12    0.50    0.17
  -3  -3   8    4.42    0.19
   3   3  -8    5.69    0.22
  -3  -3   7    4.73    0.17
   3   3  -7    5.03    0.20
  -3  -3   6    2.58    0.14
   3   3  -6    2.58    0.16
  -3  -3   5    1.00    0.11
   3   3  -5    1.63    0.15
  -3  -3   4   49.89    0.33
  -3  -3   4   57.00    0.38
   3   3  -4   61.10    0.38
  -3  -3   3  154.54    0.52
  -3  -3   3  158.96    0.51
  -3  -3   3  180.43    0.61
   3   3  -3  177.19    0.58
   3   3  -3    8.41    0.13
   3   3  -3  177.95    0.60
  -3  -3   2  110.20    0.40
  -3  -3   2  118.45    0.40
  -3  -3   2  126.90    0.47
   3   3  -2  126.77    0.45
   3   3  -2  119.28    0.43
   3   3  -2  134.93    0.48
  -3  -3   1   18.47    0.16
  -3  -3   1   19.03    0.15
  -3  -3   1   21.48    0.19
   3   3  -1   22.74    0.19
   3   3  -1   20.41    0.17
   3   3  -1   22.65    0.19
  -3  -3   0   76.40    0.28
  -3  -3   0   80.00    0.28
  -3  -3   0   86.92    0.33
   3   3   0   89.35    0.32
   3   3   0   84.09    0.31
   3   3   0   89.61    0.34
  -3  -3  -1  210.94    0.43
  -3  -3  -1  239.04    0.44
  -3  -3  -1  251.06    0.54
  -3  -3  -1  254.64    0.53
  -3  -3  -1  214.88    0.49
   3   3   1  246.94    0.50
   3   3   1  244.32    0.49
  -3  -3  -2   10.97    0.11
  -3  -3  -2   11.54    0.10
  -3  -3  -2   11.51    0.12
   3   3   2   12.22    0.12
   3   3   2   12.72    0.12
  -3  -3  -3   11.11    0.11
  -3  -3  -3   10.20    0.10
  -3  -3  -3    9.53    0.11
   3   3   3    9.69    0.11
   3   3   3   12.35    0.12
   3   3   3    7.13    0.10
   3   3   3    7.67    0.10
  -3  -3  -4   81.05    0.27
  -3  -3  -4   86.04    0.30
  -3  -3  -4   87.89    0.32
   3   3   4   86.44    0.30
   3   3   4   91.14    0.31
   3   3   4   74.30    0.27
   3   3   4   79.73    0.30
  -3  -3  -5   52.06    0.23
  -3  -3  -5   55.87    0.25
  -3  -3  -5   52.66    0.27
   3   3   5   54.52    0.26
   3   3   5   56.50    0.26
   3   3   5   48.81    0.24
   3   3   5   49.87    0.26
  -3  -3  -6   23.07    0.18
  -3  -3  -6   21.60    0.17
  -3  -3  -6   22.52    0.20
   3   3   6   24.62    0.20
   3   3   6   22.11    0.19
  -3  -3  -7   24.83    0.20
  -3  -3  -7   24.31    0.20
  -3  -3  -7   25.17    0.23
   3   3   7   23.38    0.21
   3   3   7   24.43    0.22
   3   3   7   22.17    0.20
   3   3   7   23.05    0.22
  -3  -3  -8    2.12    0.11
   3   3   8    1.59    0.11
   3   3   8    1.31    0.10
   3   3   8    1.66    0.11
   3   3   8    1.54    0.11
  -3  -3  -9    1.47    0.11
   3   3   9    1.02    0.13
   3   3   9    1.16    0.12
  -3  -3 -10    1.08    0.12
   3   3  10    1.18    0.14
  -3  -3 -11    1.90    0.14
   3   3  11    1.74    0.17
   3   3  12    0.84    0.17
  -3  -4   7    1.75    0.15
   3   4  -7    3.08    0.20
  -3  -4   6   26.28    0.31
   3   4  -6   35.08    0.36
  -3  -4   5   31.96    0.31
   3   4  -5   36.94    0.34
  -3  -4   4   30.51    0.28
   3   4  -4   40.50    0.33
  -3  -4   3   14.65    0.19
  -3  -4   3   17.57    0.22
   3   4  -3   17.42    0.22
  -3  -4   2    1.54    0.09
  -3  -4   2    1.93    0.08
  -3  -4   2    2.27    0.10
   3   4  -2    1.88    0.10
   3   4  -2    2.26    0.09
   3   4  -2    2.75    0.10
  -3  -4   1   35.79    0.23
  -3  -4   1   38.63    0.27
   3   4  -1   40.46    0.27
   3   4  -1   17.97    0.17
   3   4  -1   40.89    0.28
  -3  -4   0   34.11    0.22
  -3  -4   0   40.03    0.23
  -3  -4   0   39.76    0.26
   3   4   0   24.39    0.19
   3   4   0   37.87    0.25
  -3  -4  -1    2.07    0.09
  -3  -4  -1    2.37    0.08
  -3  -4  -1    1.93    0.07
  -3  -4  -1    2.27    0.08
  -3  -4  -1    2.10    0.08
   3   4   1    2.39    0.09
   3   4   1    2.22    0.08
  -3  -4  -2   27.03    0.19
  -3  -4  -2   28.89    0.18
  -3  -4  -2   25.34    0.17
  -3  -4  -2   30.34    0.21
  -3  -4  -2   27.02    0.20
   3   4   2   26.95    0.19
   3   4   2   29.09    0.20
  -3  -4  -3  137.86    0.40
  -3  -4  -3  153.65    0.40
  -3  -4  -3  129.81    0.37
  -3  -4  -3  132.62    0.43
   3   4   3  157.26    0.44
   3   4   3  157.62    0.44
   3   4   3  124.41    0.41
  -3  -4  -4   47.10    0.24
  -3  -4  -4   52.34    0.25
  -3  -4  -4   47.87    0.27
   3   4   4   47.28    0.25
   3   4   4   53.12    0.26
   3   4   4   41.70    0.23
   3   4   4   43.93    0.25
  -3  -4  -5   31.89    0.21
  -3  -4  -5   34.77    0.21
  -3  -4  -5   33.07    0.19
  -3  -4  -5   31.62    0.23
   3   4   5   33.60    0.24
   3   4   5   33.93    0.22
   3   4   5   28.44    0.21
   3   4   5   28.08    0.22
  -3  -4  -6   15.01    0.16
  -3  -4  -6   12.91    0.13
  -3  -4  -6   12.77    0.17
   3   4   6   13.64    0.17
   3   4   6   13.95    0.17
   3   4   6   11.03    0.15
   3   4   6   11.96    0.16
  -3  -4  -7    9.22    0.12
  -3  -4  -7    9.32    0.16
   3   4   7    9.32    0.16
   3   4   7    9.81    0.15
   3   4   7    8.81    0.15
   3   4   7    8.49    0.15
  -3  -4  -8    0.20    0.09
  -3  -4  -8    0.29    0.09
  -3  -4  -8    0.06    0.08
   3   4   8    0.11    0.09
   3   4   8    0.19    0.09
  -3  -4  -9    3.06    0.14
  -3  -4  -9    2.63    0.13
   3   4   9    2.68    0.14
  -3  -4 -10   -0.07    0.11
   3   4  10   -0.16    0.11
  -3  -4 -11    6.53    0.20
   3   4  11    6.54    0.21
  -3  -4 -12    1.04    0.16
   3   4  12    0.62    0.15
  -3  -5   6    7.33    0.21
   3   5  -6    9.73    0.25
  -3  -5   5   26.45    0.31
   3   5  -5   31.21    0.34
  -3  -5   4    2.20    0.13
   3   5  -4    3.29    0.16
  -3  -5   3    7.22    0.16
   3   5  -3    8.71    0.18
  -3  -5   2   31.00    0.27
  -3  -5   2   35.81    0.31
   3   5  -2   36.06    0.30
  -3  -5   1    2.68    0.11
  -3  -5   1    2.68    0.10
  -3  -5   1    3.07    0.11
   3   5  -1    3.04    0.13
   3   5  -1    3.86    0.12
   3   5  -1    3.59    0.12
  -3  -5   0    5.27    0.13
  -3  -5   0    5.53    0.12
  -3  -5   0    5.15    0.12
  -3  -5   0    4.14    0.11
   3   5   0    7.23    0.15
   3   5   0    5.73    0.12
  -3  -5  -1    0.32    0.08
  -3  -5  -1    0.70    0.08
  -3  -5  -1    0.65    0.08
  -3  -5  -1    0.63    0.07
   3   5   1    0.29    0.08
   3   5   1    0.66    0.08
  -3  -5  -2    7.24    0.14
  -3  -5  -2    8.51    0.13
  -3  -5  -2    7.26    0.12
  -3  -5  -2    7.80    0.13
  -3  -5  -2    6.42    0.12
   3   5   2    8.03    0.14
   3   5   2    6.44    0.12
  -3  -5  -3   21.46    0.19
  -3  -5  -3   24.09    0.19
  -3  -5  -3   20.31    0.18
  -3  -5  -3   21.41    0.20
   3   5   3   20.32    0.19
   3   5   3    2.72    0.07
   3   5   3   20.10    0.19
  -3  -5  -4    8.94    0.14
  -3  -5  -4    9.16    0.13
  -3  -5  -4    7.29    0.12
  -3  -5  -4    7.71    0.14
   3   5   4    9.31    0.14
   3   5   4    6.74    0.13
  -3  -5  -5   18.14    0.18
  -3  -5  -5   15.14    0.18
   3   5   5   17.49    0.19
   3   5   5   12.99    0.16
   3   5   5   13.97    0.18
  -3  -5  -6   13.65    0.18
  -3  -5  -6   14.24    0.17
  -3  -5  -6   13.90    0.13
  -3  -5  -6   13.00    0.18
   3   5   6   13.71    0.18
   3   5   6   12.16    0.16
   3   5   6   11.77    0.17
  -3  -5  -7   14.75    0.19
  -3  -5  -7   13.75    0.13
  -3  -5  -7   13.75    0.19
   3   5   7   14.31    0.20
   3   5   7   11.90    0.17
   3   5   7   12.30    0.19
  -3  -5  -8   74.37    0.40
   3   5   8   70.92    0.41
  -3  -5  -9   58.65    0.38
   3   5   9   56.06    0.39
  -3  -5 -10    4.43    0.17
  -3  -5 -10    4.27    0.18
   3   5  10    3.82    0.17
  -3  -5 -11    1.95    0.16
  -3  -5 -11    1.75    0.20
   3   5  11    3.03    0.18
  -3  -5 -12    0.42    0.15
  -3  -5 -12    0.95    0.18
   3   5  12    1.08    0.17
  -3  -6   5    2.96    0.18
   3   6  -5    3.17    0.20
  -3  -6   4    0.19    0.11
   3   6  -4   -0.08    0.13
  -3  -6   3    1.02    0.13
   3   6  -3    1.21    0.15
  -3  -6   2    2.40    0.13
   3   6  -2    3.03    0.15
  -3  -6   1    9.33    0.18
   3   6  -1   10.95    0.19
  -3  -6   0  202.92    0.66
  -3  -6   0  232.82    0.75
   3   6   0  239.41    0.72
  -3  -6  -1  146.30    0.54
  -3  -6  -1  154.30    0.54
  -3  -6  -1  161.98    0.60
  -3  -6  -1  142.08    0.56
   3   6   1  166.22    0.58
  -3  -6  -2   34.89    0.27
  -3  -6  -2   39.81    0.28
  -3  -6  -2   29.65    0.24
  -3  -6  -2   38.47    0.30
  -3  -6  -2    7.51    0.13
   3   6   2   36.39    0.28
   3   6   2   38.31    0.27
  -3  -6  -3  146.66    0.52
  -3  -6  -3  161.71    0.53
  -3  -6  -3  127.19    0.47
  -3  -6  -3  153.47    0.57
  -3  -6  -3    0.07    0.03
   3   6   3  147.83    0.53
  -3  -6  -4    9.03    0.16
  -3  -6  -4   10.48    0.16
  -3  -6  -4    9.29    0.14
  -3  -6  -4    1.79    0.08
   3   6   4    9.77    0.16
   3   6   4   11.25    0.16
   3   6   4    8.33    0.15
  -3  -6  -5   34.26    0.27
  -3  -6  -5   37.37    0.27
  -3  -6  -5   28.90    0.24
  -3  -6  -5   29.12    0.26
   3   6   5   32.61    0.27
   3   6   5   34.12    0.26
   3   6   5   29.04    0.26
  -3  -6  -6    2.90    0.15
  -3  -6  -6    2.25    0.11
   3   6   6    2.70    0.13
   3   6   6    2.30    0.11
   3   6   6    2.48    0.12
  -3  -6  -7   -0.14    0.10
  -3  -6  -7    0.20    0.06
   3   6   7    0.24    0.10
  -3  -6  -8   28.56    0.28
   3   6   8   27.32    0.29
  -3  -6  -9    1.98    0.14
   3   6   9    2.28    0.15
  -3  -6 -10    1.21    0.15
   3   6  10    1.28    0.16
  -3  -6 -11    0.36    0.13
   3   6  11    0.37    0.15
  -3  -6 -12    0.25    0.15
   3   6  12    0.26    0.16
  -3  -7   4   15.19    0.28
   3   7  -4   20.48    0.31
  -3  -7   3   21.98    0.30
   3   7  -3   26.39    0.32
  -3  -7   2    0.49    0.12
   3   7  -2    0.39    0.14
  -3  -7   1    2.45    0.16
   3   7  -1    3.06    0.15
  -3  -7   0   52.24    0.39
   3   7   0   59.49    0.40
  -3  -7  -1    4.33    0.16
   3   7   1    4.11    0.16
  -3  -7  -2   47.26    0.34
   3   7   2   53.55    0.36
  -3  -7  -3   13.77    0.21
   3   7   3   15.45    0.22
  -3  -7  -4    0.14    0.10
   3   7   4    0.45    0.10
  -3  -7  -5    3.87    0.14
   3   7   5    3.24    0.14
  -3  -7  -6    0.55    0.12
   3   7   6    0.04    0.11
  -3  -7  -7    1.51    0.14
   3   7   7    0.99    0.14
  -3  -7  -8    0.36    0.12
   3   7   8    0.12    0.12
  -3  -7  -9    3.20    0.16
   3   7   9    2.21    0.17
  -3  -7 -10    0.40    0.13
   3   7  10    1.51    0.18
  -3  -7 -11    3.41    0.18
   3   7  11    3.52    0.21
  -3  -8   3    5.82    0.23
  -3  -8   2    7.53    0.23
   3   8  -2    8.29    0.23
  -3  -8   1    8.17    0.22
   3   8  -1    8.99    0.23
  -3  -8   0    6.86    0.21
   3   8   0    8.90    0.21
  -3  -8  -1   22.65    0.29
   3   8   1   27.66    0.31
  -3  -8  -2    0.26    0.12
   3   8   2    1.04    0.14
  -3  -8  -3   -0.15    0.12
   3   8   3    0.28    0.12
  -3  -8  -4   11.04    0.22
   3   8   4   10.02    0.21
  -3  -8  -5   35.97    0.34
   3   8   5   34.41    0.33
  -3  -8  -6    3.26    0.17
   3   8   6    2.87    0.16
  -3  -8  -7    2.60    0.16
   3   8   7    2.63    0.17
  -3  -8  -8    0.10    0.13
   3   8   8    1.22    0.16
  -3  -8  -9    1.86    0.19
   3   8   9    2.28    0.20
  -3  -8 -10    2.18    0.18
   3   8  10    3.23    0.21
  -3  -9   1    1.83    0.20
  -3  -9   0    0.01    0.14
   3   9   0    0.37    0.14
  -3  -9  -1    7.37    0.24
   3   9   1    8.57    0.22
  -3  -9  -2    0.39    0.16
   3   9   2    0.57    0.15
  -3  -9  -3    8.97    0.26
   3   9   3    9.20    0.23
  -3  -9  -4    7.03    0.24
   3   9   4    6.70    0.20
  -3  -9  -5    6.57    0.22
   3   9   5    6.95    0.21
  -3  -9  -6    0.18    0.15
   3   9   6    0.58    0.14
  -3  -9  -7    2.11    0.20
   3   9   7    2.00    0.21
  -3  -9  -8    2.50    0.20
   3   9   8    2.80    0.22
  -3  -9  -9    0.81    0.17
   3   9   9    1.31    0.20
  -3 -10  -2    4.11    0.26
  -3 -10  -3    4.03    0.27
   3  10   3    5.29    0.23
  -3 -10  -4    8.67    0.31
   3  10   4    7.80    0.25
  -3 -10  -5    2.72    0.24
   3  10   5    2.14    0.19
  -3 -10  -6    2.75    0.23
   3  10   6    3.07    0.21
  -3 -10  -7    7.73    0.29
   3  10   7    7.92    0.24
  -4   7   3    0.82    0.18
  -4   7   3    1.23    0.13
   4  -7  -3    0.63    0.16
   4  -7  -3    0.82    0.14
  -4   7   2   10.43    0.29
   4  -7  -2    8.30    0.20
   4  -7  -2    8.27    0.20
  -4   7   1   -0.28    0.16
   4  -7  -1    0.40    0.13
   4  -7  -1    0.18    0.12
  -4   7   0    1.63    0.23
   4  -7   0    1.63    0.16
   4  -7   0    1.64    0.16
  -4   6   5    0.74    0.15
  -4   6   5    1.05    0.13
   4  -6  -5   -0.11    0.17
  -4   6   4    1.89    0.18
  -4   6   4    1.39    0.13
   4  -6  -4    1.60    0.20
   4  -6  -4    1.57    0.16
  -4   6   3    6.08    0.23
  -4   6   3    4.58    0.15
   4  -6  -3    6.53    0.22
   4  -6  -3    6.21    0.18
  -4   6   2   45.64    0.43
  -4   6   2   30.87    0.28
   4  -6  -2   42.06    0.32
   4  -6  -2   43.71    0.34
   4  -6  -2   40.68    0.31
   4  -6  -2   36.49    0.30
  -4   6   1    0.05    0.15
   4  -6  -1    0.10    0.13
   4  -6  -1    0.05    0.11
   4  -6  -1   -0.17    0.11
  -4   6   0    1.15    0.17
   4  -6   0    0.92    0.14
   4  -6   0    0.68    0.12
  -4   6  -1    1.37    0.17
   4  -6   1    1.22    0.13
   4  -6   1    0.72    0.12
  -4   6  -2    2.65    0.20
   4  -6   2    3.15    0.15
   4  -6   2    2.25    0.15
  -4   6  -3   12.48    0.33
   4  -6   3    8.50    0.20
   4  -6   3    8.30    0.19
   4  -6   4    5.81    0.21
   4  -6   4    6.12    0.19
   4  -5  -7    0.44    0.17
  -4   5   6    0.58    0.12
   4  -5  -6    0.10    0.16
  -4   5   5    2.35    0.14
   4  -5  -5    2.74    0.20
   4  -5  -5    2.04    0.15
  -4   5   4   12.40    0.24
  -4   5   4    8.58    0.18
   4  -5  -4   12.94    0.23
   4  -5  -4   11.75    0.20
   4  -5  -4    9.80    0.18
  -4   5   3   10.10    0.23
  -4   5   3    7.71    0.16
   4  -5  -3   10.37    0.21
   4  -5  -3    8.74    0.18
   4  -5  -3    7.53    0.16
  -4   5   2    9.24    0.22
  -4   5   2    6.89    0.14
   4  -5  -2    9.79    0.20
   4  -5  -2    8.60    0.17
   4  -5  -2    7.70    0.16
  -4   5   1   -0.19    0.12
  -4   5   1    0.21    0.08
   4  -5  -1    0.16    0.11
  -4   5   0   14.47    0.25
  -4   5  -1    3.29    0.17
   4  -5   1    3.16    0.12
  -4   5  -2   17.25    0.27
   4  -5   2   17.21    0.20
  -4   5  -3    0.07    0.15
   4  -5   4    5.29    0.17
   4  -5   4    5.16    0.17
   4  -5   5    0.40    0.13
   4  -5   5    0.44    0.13
  -4   5  -6    3.62    0.19
   4  -5   6    1.51    0.19
   4  -5   6    2.75    0.17
   4  -4  -7    2.48    0.22
  -4   4   6   19.37    0.26
   4  -4  -6   23.43    0.31
   4  -4  -6   18.39    0.32
  -4   4   5    3.78    0.14
   4  -4  -5    4.45    0.18
   4  -4  -5    4.24    0.15
  -4   4   4   16.57    0.25
  -4   4   4   14.84    0.20
   4  -4  -4   17.89    0.23
   4  -4  -4   16.62    0.20
   4  -4  -4   14.57    0.19
  -4   4   3   10.77    0.21
  -4   4   3    9.82    0.16
   4  -4  -3   12.63    0.19
   4  -4  -3   10.52    0.16
   4  -4  -3    8.99    0.15
  -4   4   2    4.07    0.17
  -4   4   2    3.58    0.11
   4  -4  -2    4.88    0.14
   4  -4  -2    3.75    0.11
  -4   4   1   33.49    0.32
  -4   4   1   26.67    0.20
  -4   4   0   62.76    0.42
  -4   4  -1   11.15    0.21
  -4   4  -2    6.40    0.17
  -4   4  -3   -0.02    0.12
   4  -4   4    0.35    0.10
   4  -4   4    0.31    0.10
  -4   4  -5    0.25    0.11
   4  -4   5    0.59    0.11
   4  -4   5    0.12    0.11
  -4   4  -6    0.01    0.10
   4  -4   6    0.04    0.11
   4  -4   6    0.24    0.12
  -4   4  -7    0.61    0.14
   4  -4   7    0.59    0.15
   4  -4   7    0.89    0.15
   4  -3  -8    5.07    0.25
   4  -3  -7    8.48    0.24
  -4   3   6   11.94    0.21
   4  -3  -6   15.86    0.26
   4  -3  -6   12.47    0.21
  -4   3   5   20.38    0.24
   4  -3  -5   21.13    0.25
   4  -3  -5   19.09    0.22
   4  -3  -5   18.76    0.22
  -4   3   4    0.21    0.09
   4  -3  -4    0.36    0.11
   4  -3  -4    0.15    0.08
   4  -3  -4    0.32    0.08
  -4   3   3   17.55    0.22
  -4   3   3   15.96    0.16
  -4   3   3   15.12    0.18
   4  -3  -3   17.07    0.19
   4  -3  -3   16.07    0.17
   4  -3  -3   13.47    0.16
  -4   3   2    0.58    0.11
  -4   3   2    0.30    0.07
   4  -3  -2    0.89    0.10
  -4   3   1    0.82    0.11
  -4   3   0    2.41    0.12
  -4   3  -1    0.36    0.09
  -4   3  -3   15.90    0.22
  -4   3  -4   12.22    0.22
  -4   3  -4   11.81    0.15
  -4   3  -5    6.67    0.14
   4  -3   5    5.61    0.13
  -4   3  -6    2.77    0.13
   4  -3   6    2.22    0.13
   4  -3   6    2.70    0.13
  -4   3  -7    6.04    0.17
   4  -3   7    5.86    0.17
   4  -3   7    5.45    0.17
  -4   3  -8    4.72    0.18
   4  -3   8    3.51    0.19
   4  -3   8    4.49    0.18
   4  -2  -8    4.32    0.23
   4  -2  -7   12.38    0.25
  -4   2   6    7.49    0.18
   4  -2  -6    8.27    0.20
   4  -2  -6    7.45    0.17
  -4   2   5    0.24    0.10
   4  -2  -5    0.28    0.12
   4  -2  -5    0.10    0.09
   4  -2  -5    0.04    0.11
  -4   2   4    0.76    0.07
  -4   2   4    0.68    0.11
   4  -2  -4    0.07    0.10
   4  -2  -4    0.54    0.09
   4  -2  -4    0.33    0.09
  -4   2   3    0.40    0.07
  -4   2   3    0.36    0.08
   4  -2  -3    0.88    0.11
   4  -2  -3    0.16    0.07
   4  -2  -3    0.41    0.07
  -4   2   2    6.16    0.14
  -4   2   2    6.43    0.11
  -4   2   2    5.94    0.11
  -4   2   1   54.92    0.34
  -4   2   1   51.88    0.28
  -4   2   0   19.08    0.21
  -4   2   0   19.12    0.19
  -4   2  -1    0.16    0.08
  -4   2  -2   47.00    0.32
  -4   2  -3   28.83    0.26
  -4   2  -4    9.02    0.17
  -4   2  -6    0.88    0.10
   4  -2   6    0.63    0.09
   4  -2   6    0.75    0.09
  -4   2  -7    2.83    0.13
   4  -2   7    1.98    0.12
   4  -2   7    2.62    0.13
  -4   2  -8    3.24    0.15
   4  -2   8    3.07    0.16
   4  -2   8    3.75    0.15
   4  -2   9    4.05    0.21
   4  -1  -8    1.61    0.20
   4  -1  -7    2.35    0.18
  -4   1   6    8.31    0.18
   4  -1  -6    8.47    0.20
  -4   1   5   21.40    0.24
   4  -1  -5   22.30    0.25
   4  -1  -5   19.67    0.22
   4  -1  -5   21.08    0.23
  -4   1   4    2.89    0.12
   4  -1  -4    2.91    0.13
   4  -1  -4    2.99    0.11
   4  -1  -4    3.12    0.12
  -4   1   3    5.40    0.11
  -4   1   3    5.77    0.12
   4  -1  -3    4.04    0.10
  -4   1   2   59.34    0.29
  -4   1   2   62.07    0.28
   4  -1  -2   65.38    0.27
  -4   1   1    7.69    0.12
  -4   1   0   17.40    0.19
  -4   1   0   16.65    0.16
  -4   1  -1  153.57    0.51
  -4   1  -1  140.61    0.46
  -4   1  -2  141.75    0.50
  -4   1  -2  131.17    0.47
  -4   1  -3   58.64    0.33
  -4   1  -4   48.75    0.31
  -4   1  -5   11.99    0.17
  -4   1  -5   12.82    0.13
  -4   1  -6    6.22    0.14
  -4   1  -6    4.87    0.11
  -4   1  -7    1.06    0.12
  -4   1  -7    0.87    0.10
   4  -1   7    0.89    0.11
   4  -1   7    0.93    0.11
   4  -1   7    0.49    0.10
  -4   1  -8    2.36    0.18
  -4   1  -8    1.65    0.11
   4  -1   8    1.67    0.14
   4  -1   8    1.41    0.12
  -4   1  -9    0.07    0.11
  -4   1  -9    0.21    0.10
   4  -1   9    0.01    0.12
   4  -1   9    0.03    0.11
   4  -1  10    5.13    0.21
   4   0  -8    2.89    0.21
  -4   0   7   15.38    0.20
   4   0  -7   17.61    0.28
  -4   0   6   13.91    0.18
  -4   0   6   19.50    0.35
   4   0  -6   17.47    0.25
  -4   0   5    9.06    0.14
  -4   0   5   10.22    0.18
   4   0  -5   10.92    0.20
   4   0  -5    8.74    0.16
  -4   0   4   66.84    0.37
   4   0  -4   72.04    0.38
   4   0  -4   67.18    0.35
  -4   0   3    2.77    0.10
   4   0  -3    3.13    0.11
   4   0  -3    3.00    0.10
  -4   0   2   63.55    0.29
   4   0  -2   69.14    0.29
   4   0  -2   63.68    0.27
  -4   0   1   15.08    0.13
  -4   0   0   69.15    0.31
  -4   0  -1   24.31    0.20
  -4   0  -1   25.52    0.20
  -4   0  -2   88.79    0.37
  -4   0  -2   84.50    0.36
  -4   0  -3  268.46    0.63
  -4   0  -3  236.76    0.62
  -4   0  -4  114.09    0.42
  -4   0  -4  106.34    0.44
  -4   0  -5    0.80    0.08
  -4   0  -5    0.96    0.06
  -4   0  -6    2.37    0.10
  -4   0  -6    2.36    0.09
   4   0   6    2.21    0.09
   4   0   6    2.45    0.10
  -4   0  -7    0.13    0.08
  -4   0  -7   -0.13    0.07
   4   0   7    0.27    0.09
   4   0   7    0.14    0.09
   4   0   7   -0.01    0.08
  -4   0  -8    1.11    0.10
  -4   0  -8    0.35    0.09
   4   0   8    1.11    0.12
   4   0   8    1.00    0.11
   4   0   8    1.12    0.11
  -4   0  -9    1.50    0.11
  -4   0  -9    0.81    0.11
   4   0   9    0.81    0.14
   4   0   9    0.39    0.12
   4   0  10    2.02    0.18
   4   0  11    0.50    0.17
  -4  -1   8   11.37    0.22
   4   1  -8   14.55    0.29
  -4  -1   7   11.89    0.20
   4   1  -7   13.10    0.25
  -4  -1   6   13.16    0.19
   4   1  -6   16.34    0.25
  -4  -1   5    0.29    0.08
  -4  -1   5    0.36    0.10
   4   1  -5    0.35    0.12
   4   1  -5    0.56    0.10
  -4  -1   4   85.76    0.35
  -4  -1   4   95.57    0.46
   4   1  -4   99.50    0.45
   4   1  -4   88.13    0.42
  -4  -1   3   68.80    0.28
  -4  -1   3   75.59    0.37
   4   1  -3   74.89    0.36
   4   1  -3   73.31    0.35
  -4  -1   2  115.77    0.41
   4   1  -2  116.88    0.40
   4   1  -2  111.03    0.38
  -4  -1   1   26.97    0.18
   4   1  -1   28.71    0.18
   4   1  -1   27.11    0.17
  -4  -1   0   47.26    0.21
  -4  -1  -2    5.98    0.11
  -4  -1  -3    0.44    0.06
  -4  -1  -3    0.78    0.07
  -4  -1  -4    5.07    0.10
  -4  -1  -4    4.76    0.10
  -4  -1  -5   13.45    0.14
  -4  -1  -5   12.12    0.16
  -4  -1  -5   14.41    0.13
  -4  -1  -6    1.45    0.08
  -4  -1  -6    1.33    0.08
   4   1   6    1.42    0.08
   4   1   6    1.05    0.09
   4   1   6    1.28    0.07
  -4  -1  -7    0.33    0.07
  -4  -1  -7    0.98    0.09
   4   1   7    0.34    0.09
   4   1   7    0.19    0.10
   4   1   7    0.31    0.08
  -4  -1  -8   20.70    0.18
  -4  -1  -8   19.92    0.22
   4   1   8   20.37    0.22
   4   1   8   19.22    0.28
   4   1   8   19.37    0.21
  -4  -1  -9    0.00    0.09
   4   1   9    0.20    0.11
   4   1   9    0.27    0.11
   4   1  10    2.23    0.17
   4   1  11    0.63    0.18
  -4  -2   7    2.64    0.15
   4   2  -7    2.23    0.19
  -4  -2   6    0.71    0.11
   4   2  -6    0.18    0.13
  -4  -2   5    0.51    0.09
   4   2  -5    0.31    0.11
  -4  -2   4    0.86    0.10
  -4  -2   4    0.94    0.11
   4   2  -4    0.96    0.12
  -4  -2   3   11.63    0.15
  -4  -2   3   12.86    0.18
   4   2  -3   14.19    0.19
   4   2  -3   12.43    0.16
  -4  -2   2    3.16    0.08
  -4  -2   2    3.54    0.10
   4   2  -2    3.87    0.11
   4   2  -2    3.42    0.10
  -4  -2   1    4.24    0.08
  -4  -2   1    4.59    0.10
   4   2  -1    4.45    0.10
   4   2  -1    4.33    0.09
  -4  -2   0   20.88    0.16
   4   2   0   23.16    0.16
   4   2   0   21.83    0.15
  -4  -2  -1    5.59    0.09
   4   2   1    5.61    0.09
  -4  -2  -2   20.23    0.13
  -4  -2  -2   17.88    0.13
  -4  -2  -3   81.12    0.34
  -4  -2  -3   75.59    0.24
  -4  -2  -4  160.57    0.49
  -4  -2  -4  159.07    0.38
   4   2   4  159.70    0.35
  -4  -2  -5   -0.16    0.06
   4   2   5    0.17    0.06
   4   2   5    0.34    0.06
  -4  -2  -6  130.61    0.47
   4   2   6  132.58    0.41
   4   2   6  153.11    0.43
   4   2   6  130.14    0.41
  -4  -2  -7   32.91    0.25
   4   2   7   31.77    0.24
   4   2   7   33.96    0.24
   4   2   7   31.26    0.23
  -4  -2  -8    0.82    0.10
   4   2   8    1.03    0.11
   4   2   8    0.89    0.11
   4   2   8    1.07    0.11
  -4  -2  -9    0.61    0.11
   4   2   9    0.61    0.13
   4   2   9    0.64    0.12
   4   2  10    1.80    0.17
   4   2  11    0.14    0.15
   4   2  12    0.58    0.18
  -4  -3   7    1.13    0.14
   4   3  -7    2.36    0.20
  -4  -3   6    1.41    0.14
   4   3  -6    1.31    0.16
  -4  -3   5    5.24    0.15
   4   3  -5    6.74    0.19
  -4  -3   4   14.80    0.19
  -4  -3   4   17.52    0.23
   4   3  -4   18.16    0.24
  -4  -3   2   15.11    0.16
  -4  -3   2   18.20    0.20
   4   3  -2   17.35    0.20
   4   3  -2   17.17    0.18
   4   3  -2   19.33    0.26
  -4  -3   1    0.16    0.06
  -4  -3   1    0.07    0.07
   4   3  -1   -0.14    0.06
   4   3  -1    0.08    0.06
  -4  -3   0   50.82    0.23
  -4  -3   0   56.39    0.29
   4   3   0   56.70    0.28
   4   3   0   52.48    0.26
   4   3   0   56.89    0.32
  -4  -3  -1  107.92    0.37
   4   3   1  111.31    0.35
   4   3   1  106.35    0.34
  -4  -3  -2  148.72    0.41
  -4  -3  -2  124.67    0.37
   4   3   2  142.73    0.38
   4   3   2  149.14    0.38
  -4  -3  -3   10.78    0.12
   4   3   3   12.36    0.12
   4   3   3   13.37    0.13
   4   3   3    9.77    0.11
  -4  -3  -4   10.94    0.14
  -4  -3  -4   11.10    0.13
   4   3   4   11.95    0.13
   4   3   4   10.84    0.12
   4   3   4    9.72    0.11
  -4  -3  -5    0.61    0.07
  -4  -3  -5    0.25    0.07
   4   3   5    0.50    0.07
   4   3   5    0.93    0.09
   4   3   5    0.15    0.06
  -4  -3  -6   15.80    0.17
  -4  -3  -6   16.69    0.18
   4   3   6   15.30    0.17
   4   3   6   16.58    0.17
   4   3   6   14.82    0.15
  -4  -3  -7   13.88    0.17
  -4  -3  -7   14.35    0.18
   4   3   7   14.81    0.18
   4   3   7   15.25    0.17
   4   3   7   13.63    0.17
  -4  -3  -8    1.19    0.10
   4   3   8    0.10    0.09
   4   3   8    1.30    0.11
   4   3   8    0.93    0.10
  -4  -3  -9    0.31    0.08
   4   3   9    0.28    0.12
   4   3   9   -0.09    0.11
  -4  -3 -10    0.63    0.11
   4   3  10    0.33    0.13
   4   3  11    3.70    0.19
   4   3  12    5.59    0.24
  -4  -4   6   18.41    0.27
   4   4  -6   20.61    0.31
  -4  -4   5    4.40    0.16
   4   4  -5    5.83    0.20
  -4  -4   4    0.31    0.09
   4   4  -4    0.22    0.12
  -4  -4   3    4.39    0.13
  -4  -4   3    4.65    0.15
  -4  -4   2    5.46    0.13
  -4  -4   2    4.20    0.13
   4   4  -2    5.28    0.14
  -4  -4   1  107.86    0.47
   4   4  -1  111.49    0.46
   4   4  -1  103.17    0.43
   4   4  -1  113.09    0.47
  -4  -4   0  207.08    0.53
  -4  -4   0  240.40    0.65
   4   4   0  240.43    0.63
   4   4   0  225.61    0.59
   4   4   0  224.95    0.62
  -4  -4  -1   41.30    0.23
  -4  -4  -1   48.17    0.28
  -4  -4  -1   40.97    0.26
   4   4   1   47.84    0.26
  -4  -4  -2    5.27    0.10
  -4  -4  -2    6.45    0.12
  -4  -4  -2    5.32    0.11
   4   4   2    5.69    0.11
   4   4   2    6.00    0.11
  -4  -4  -3    2.98    0.08
  -4  -4  -3    3.12    0.09
   4   4   3    3.98    0.10
   4   4   3    3.49    0.09
  -4  -4  -4   92.03    0.31
  -4  -4  -4   96.76    0.38
   4   4   4   98.97    0.37
   4   4   4  101.21    0.36
   4   4   4   81.50    0.32
   4   4   4   85.58    0.35
  -4  -4  -5    6.03    0.10
  -4  -4  -5    5.50    0.11
  -4  -4  -5    6.37    0.12
   4   4   5    6.21    0.15
   4   4   5    6.91    0.12
   4   4   5    5.51    0.11
   4   4   5    5.49    0.11
  -4  -4  -6   25.21    0.19
  -4  -4  -6   25.88    0.20
  -4  -4  -6   26.68    0.22
   4   4   6   27.89    0.22
   4   4   6   27.27    0.22
   4   4   6   23.42    0.20
  -4  -4  -7    9.30    0.14
  -4  -4  -7    8.98    0.14
  -4  -4  -7    9.77    0.16
   4   4   7    9.39    0.16
   4   4   7    9.67    0.16
   4   4   7    7.91    0.15
  -4  -4  -8    0.18    0.08
  -4  -4  -8    0.14    0.08
  -4  -4  -8    0.15    0.08
   4   4   8    0.14    0.10
   4   4   8    0.25    0.09
   4   4   8    0.25    0.09
  -4  -4  -9   12.67    0.17
  -4  -4  -9   11.76    0.21
   4   4   9   11.35    0.20
   4   4   9   10.90    0.19
  -4  -4 -10    1.09    0.11
   4   4  10    0.43    0.13
  -4  -4 -11    0.45    0.12
   4   4  11    0.63    0.15
   4   4  12    0.25    0.16
  -4  -5   6    7.79    0.21
   4   5  -6    8.94    0.26
  -4  -5   5    1.87    0.14
   4   5  -5    1.44    0.18
  -4  -5   4   16.01    0.24
   4   5  -4   19.02    0.28
  -4  -5   3   24.81    0.27
   4   5  -3   30.38    0.31
  -4  -5   2   34.91    0.29
   4   5  -2   39.76    0.33
  -4  -5   1    0.37    0.09
  -4  -5   1    0.41    0.09
   4   5  -1    0.47    0.11
  -4  -5   0    2.34    0.10
  -4  -5   0    2.92    0.12
   4   5   0    3.22    0.13
   4   5   0    3.08    0.10
  -4  -5  -1   26.95    0.24
  -4  -5  -1   22.33    0.22
   4   5   1   27.38    0.24
   4   5   1   27.95    0.23
  -4  -5  -2    5.82    0.12
  -4  -5  -2    6.46    0.13
  -4  -5  -2    5.45    0.12
   4   5   2    6.14    0.14
   4   5   2    6.56    0.13
  -4  -5  -3   26.53    0.20
  -4  -5  -3   31.24    0.24
  -4  -5  -3   26.09    0.23
   4   5   3   27.73    0.22
   4   5   3   30.65    0.23
  -4  -5  -4   14.11    0.16
  -4  -5  -4   13.83    0.17
   4   5   4   14.49    0.17
   4   5   4   15.16    0.17
   4   5   4   11.84    0.16
  -4  -5  -5   12.14    0.15
  -4  -5  -5   12.35    0.17
   4   5   5   13.54    0.17
   4   5   5   13.14    0.17
   4   5   5    9.78    0.15
   4   5   5   11.08    0.16
  -4  -5  -6    0.07    0.07
  -4  -5  -6   -0.12    0.07
   4   5   6    0.04    0.08
   4   5   6    0.21    0.08
   4   5   6   -0.01    0.08
   4   5   6    0.16    0.07
  -4  -5  -7    5.77    0.14
  -4  -5  -7    5.71    0.11
  -4  -5  -7    5.82    0.14
   4   5   7    5.10    0.14
   4   5   7    4.90    0.13
   4   5   7    4.88    0.13
   4   5   7    4.36    0.13
  -4  -5  -8   31.09    0.25
  -4  -5  -8   27.46    0.21
  -4  -5  -8   26.67    0.27
   4   5   8   27.63    0.27
   4   5   8   23.28    0.24
  -4  -5  -9    5.04    0.15
   4   5   9    4.69    0.17
   4   5  10    0.54    0.13
  -4  -5 -11    0.59    0.12
   4   5  11    1.16    0.17
   4   5  12    2.03    0.22
  -4  -6   5    5.79    0.20
   4   6  -5    7.81    0.25
  -4  -6   4    1.62    0.16
   4   6  -4    0.38    0.16
  -4  -6   3    0.40    0.11
   4   6  -3    0.84    0.15
  -4  -6   2    5.65    0.16
   4   6  -2    5.31    0.18
  -4  -6   1    2.24    0.12
   4   6  -1    2.03    0.14
  -4  -6   0   12.67    0.19
  -4  -6   0   16.39    0.23
   4   6   0   16.05    0.23
  -4  -6  -1   42.16    0.30
  -4  -6  -1   47.20    0.34
  -4  -6  -1   41.25    0.32
   4   6   1   48.84    0.34
  -4  -6  -2   93.80    0.42
  -4  -6  -2  103.19    0.44
  -4  -6  -2  103.07    0.48
  -4  -6  -2   91.47    0.46
   4   6   2   98.82    0.45
   4   6   2   44.08    0.40
  -4  -6  -3    6.60    0.14
  -4  -6  -3    7.82    0.19
  -4  -6  -3    6.56    0.14
  -4  -6  -3    5.98    0.14
   4   6   3    6.13    0.15
  -4  -6  -4    2.23    0.13
  -4  -6  -4    1.67    0.10
   4   6   4    1.29    0.10
   4   6   4    2.20    0.10
  -4  -6  -5    1.46    0.11
  -4  -6  -5    0.95    0.10
   4   6   5    1.15    0.11
   4   6   5    1.07    0.10
   4   6   5    1.06    0.09
  -4  -6  -6    6.48    0.15
  -4  -6  -6    7.03    0.15
   4   6   6    8.56    0.17
   4   6   6    5.02    0.13
   4   6   6    7.05    0.21
  -4  -6  -7    5.88    0.15
  -4  -6  -7    5.22    0.12
  -4  -6  -7    6.01    0.18
   4   6   7    4.97    0.16
   4   6   7    4.00    0.13
  -4  -6  -8   47.61    0.33
  -4  -6  -8   45.57    0.26
   4   6   8   43.43    0.35
  -4  -6  -9   12.24    0.20
  -4  -6  -9   11.43    0.19
   4   6   9   13.25    0.23
  -4  -6 -10    2.34    0.14
   4   6  10    2.03    0.19
  -4  -6 -11    0.67    0.13
   4   6  11    0.40    0.16
  -4  -6 -12    1.79    0.15
   4   6  12    1.76    0.20
  -4  -7   3    0.07    0.13
   4   7  -3    0.45    0.17
  -4  -7   2    1.00    0.14
   4   7  -2    1.15    0.16
  -4  -7   1    4.57    0.17
   4   7  -1    4.27    0.17
  -4  -7   0   14.66    0.23
   4   7   0   16.66    0.25
  -4  -7  -1   11.39    0.21
   4   7   1   12.23    0.22
  -4  -7  -2   61.91    0.39
   4   7   2   65.79    0.41
   4   7   3    4.16    0.16
  -4  -7  -4   40.77    0.32
  -4  -7  -4   40.47    0.37
   4   7   4   41.97    0.33
  -4  -7  -5    3.54    0.15
   4   7   5    2.93    0.14
  -4  -7  -6   72.16    0.42
   4   7   6   69.06    0.42
  -4  -7  -7    1.50    0.14
   4   7   7    1.56    0.15
  -4  -7  -8    1.07    0.14
  -4  -7  -8    0.78    0.09
   4   7   8    1.07    0.15
  -4  -7  -9    1.37    0.15
   4   7   9    0.44    0.14
  -4  -7 -10    0.29    0.13
   4   7  10    0.42    0.15
  -4  -7 -11    0.41    0.13
   4   7  11    0.27    0.16
  -4  -8   2   73.80    0.53
   4   8  -2   87.35    0.58
  -4  -8   1    4.89    0.20
   4   8  -1    5.13    0.21
  -4  -8   0    7.50    0.21
   4   8   0    8.17    0.22
  -4  -8  -1    1.86    0.16
   4   8   1    2.22    0.17
  -4  -8  -2    6.68    0.19
   4   8   2    8.72    0.21
  -4  -8  -3   17.49    0.26
   4   8   3   18.72    0.26
  -4  -8  -4    9.90    0.22
   4   8   4    8.87    0.21
  -4  -8  -5    5.01    0.18
   4   8   5    4.31    0.18
  -4  -8  -6    1.81    0.15
   4   8   6    1.48    0.15
  -4  -8  -7    1.83    0.16
   4   8   7    1.45    0.17
  -4  -8  -8    0.97    0.14
   4   8   8    0.05    0.14
  -4  -8  -9    0.09    0.12
   4   8   9    0.55    0.16
  -4  -8 -10    3.30    0.18
   4   8  10    4.34    0.24
  -4  -8 -11    2.47    0.18
   4   8  11    3.92    0.24
  -4  -9   0    1.55    0.19
   4   9   0    0.61    0.16
  -4  -9  -1    3.10    0.19
   4   9   1    2.35    0.18
  -4  -9  -2    1.97    0.19
   4   9   2    2.19    0.20
  -4  -9  -3    0.82    0.16
   4   9   3    1.54    0.18
  -4  -9  -4    3.81    0.21
   4   9   4    3.55    0.20
  -4  -9  -5    0.48    0.15
   4   9   5    2.03    0.19
  -4  -9  -6    0.58    0.15
   4   9   6    0.45    0.16
  -4  -9  -7    0.94    0.15
   4   9   7    0.26    0.16
  -4  -9  -8    6.92    0.24
   4   9   8    5.45    0.24
  -4  -9  -9    2.46    0.21
   4   9   9    2.42    0.24
  -4  -9 -10    1.87    0.21
  -4 -10  -3    6.11    0.26
   4  10   3    7.54    0.26
  -4 -10  -4    0.17    0.17
   4  10   4    0.44    0.17
  -4 -10  -5    0.56    0.19
   4  10   5    0.58    0.17
  -4 -10  -6    9.48    0.28
   4  10   6    9.14    0.26
  -4 -10  -7    6.98    0.25
   4  10   7    7.03    0.25
  -5   6   3    3.72    0.24
  -5   6   3    1.29    0.13
   5  -6  -3    2.77    0.16
  -5   6   2    1.58    0.20
  -5   6   2    0.59    0.11
   5  -6  -2    0.71    0.18
   5  -6  -2    0.41    0.13
   5  -6  -2    0.95    0.17
  -5   6   1    1.78    0.22
   5  -6  -1    1.87    0.14
   5  -6  -1    2.32    0.16
  -5   6   0    1.98    0.24
  -5   6  -1    0.17    0.20
  -5   5   5    0.10    0.11
   5  -5  -5    0.32    0.16
   5  -5  -5    0.41    0.15
  -5   5   4    3.39    0.14
   5  -5  -4    4.74    0.20
   5  -5  -4    4.03    0.17
  -5   5   3   -0.04    0.14
  -5   5   3    0.32    0.10
   5  -5  -3    0.50    0.14
   5  -5  -3    0.35    0.12
   5  -5  -3    0.16    0.11
  -5   5   2    1.69    0.20
  -5   5   2    1.81    0.11
   5  -5  -2    2.39    0.17
   5  -5  -2    1.31    0.14
   5  -5  -2    2.09    0.14
  -5   5   1    0.43    0.15
   5  -5  -1    0.66    0.12
  -5   5   0   16.83    0.30
  -5   5  -1   12.39    0.28
  -5   5  -2    0.35    0.15
  -5   5  -3    0.20    0.15
  -5   5  -4    1.89    0.23
  -5   4   6    1.13    0.15
   5  -4  -6    1.38    0.19
  -5   4   5   10.23    0.20
   5  -4  -5   13.82    0.26
   5  -4  -5   11.47    0.21
  -5   4   4    5.06    0.15
   5  -4  -4    5.83    0.19
   5  -4  -4    5.45    0.16
   5  -4  -4    5.64    0.16
  -5   4   3    2.85    0.18
  -5   4   3    1.55    0.11
   5  -4  -3    2.93    0.16
   5  -4  -3    2.26    0.13
   5  -4  -3    2.33    0.12
  -5   4   2    8.65    0.23
  -5   4   2    6.11    0.13
   5  -4  -2   10.17    0.18
  -5   4   1   15.63    0.27
  -5   4   0   17.68    0.28
  -5   4  -1    1.59    0.17
  -5   4  -2    3.49    0.18
  -5   4  -3   -0.15    0.12
  -5   4  -4    2.79    0.19
  -5   4  -5    2.29    0.21
  -5   4  -6    2.13    0.23
   5  -4   6    1.87    0.20
   5  -4   6    1.63    0.15
   5  -3  -7    9.31    0.27
  -5   3   6    2.59    0.16
   5  -3  -6    3.60    0.21
  -5   3   5    0.13    0.11
   5  -3  -5    0.41    0.14
   5  -3  -5    0.22    0.11
  -5   3   4   23.86    0.25
   5  -3  -4   26.03    0.27
   5  -3  -4   24.34    0.24
   5  -3  -4   21.18    0.23
  -5   3   3   27.51    0.23
  -5   3   3   26.21    0.23
   5  -3  -3   31.78    0.26
   5  -3  -3   28.58    0.24
   5  -3  -3   25.10    0.22
  -5   3   2    3.44    0.16
  -5   3   2    3.07    0.10
  -5   3   1    2.52    0.16
  -5   3   0   22.08    0.28
  -5   3  -1    0.76    0.12
  -5   3  -2   25.25    0.29
  -5   3  -3    6.10    0.18
  -5   3  -4    3.37    0.16
  -5   3  -5   -0.06    0.12
  -5   3  -6    0.06    0.13
   5  -3   6    0.29    0.10
  -5   3  -7    0.60    0.16
  -5   3  -7    1.67    0.14
   5  -3   7    0.46    0.12
   5  -3   7    0.79    0.14
  -5   3  -8    2.17    0.17
   5  -3   8    0.79    0.15
   5  -3   8    1.84    0.18
   5  -2  -7    2.12    0.21
  -5   2   6    1.76    0.15
   5  -2  -6    2.56    0.18
  -5   2   5   16.34    0.23
   5  -2  -5   20.45    0.26
   5  -2  -5   17.95    0.23
  -5   2   4   16.74    0.19
  -5   2   4   16.79    0.21
   5  -2  -4   18.56    0.23
   5  -2  -4   16.62    0.20
   5  -2  -4   16.34    0.20
  -5   2   3    1.57    0.10
  -5   2   3    1.43    0.11
   5  -2  -3    1.44    0.12
   5  -2  -3    1.31    0.10
   5  -2  -3    1.34    0.10
  -5   2   2    2.71    0.11
  -5   2   2    2.70    0.10
  -5   2   1    7.05    0.19
  -5   2   1    6.98    0.14
  -5   2  -1    8.56    0.16
  -5   2  -2    3.62    0.16
  -5   2  -3    1.23    0.13
  -5   2  -4    2.71    0.14
  -5   2  -5    3.15    0.16
  -5   2  -6    1.99    0.16
  -5   2  -7    7.52    0.22
  -5   2  -7    7.52    0.17
   5  -2   7    5.20    0.15
   5  -2   7    6.70    0.16
  -5   2  -8    0.18    0.14
  -5   2  -8    1.04    0.14
   5  -2   8    0.25    0.13
  -5   2  -9    1.80    0.20
  -5   2  -9    1.42    0.17
   5  -2   9    1.58    0.19
   5  -2   9    1.48    0.17
   5  -1  -7    2.16    0.20
   5  -1  -6    3.17    0.18
  -5   1   5    1.35    0.11
  -5   1   5    1.16    0.13
   5  -1  -5    1.13    0.14
   5  -1  -5    0.89    0.11
  -5   1   4    3.41    0.11
  -5   1   4    2.49    0.13
   5  -1  -4    2.44    0.14
   5  -1  -4    2.41    0.12
   5  -1  -4    2.03    0.12
  -5   1   3    0.40    0.09
  -5   1   3    0.00    0.08
   5  -1  -3   -0.04    0.11
   5  -1  -3    0.25    0.08
   5  -1  -3    0.09    0.09
  -5   1   2    0.66    0.08
  -5   1   2    0.87    0.09
   5  -1  -2    0.69    0.10
  -5   1   1   22.68    0.21
  -5   1   0   14.67    0.20
  -5   1   0   14.24    0.18
  -5   1  -1   11.70    0.18
  -5   1  -1   10.97    0.16
  -5   1  -2    1.37    0.11
  -5   1  -2    1.62    0.11
  -5   1  -3   30.26    0.27
  -5   1  -3   29.76    0.27
  -5   1  -4   27.38    0.27
  -5   1  -5   73.81    0.42
  -5   1  -7    1.14    0.13
  -5   1  -7    0.85    0.10
   5  -1   7    1.10    0.11
  -5   1  -8    1.24    0.15
  -5   1  -8    0.50    0.11
   5  -1   8    0.09    0.10
   5  -1   8    0.04    0.12
   5  -1   8    0.40    0.11
  -5   1  -9    0.58    0.13
  -5   1  -9    0.09    0.11
   5  -1   9    0.12    0.13
   5  -1   9    0.52    0.14
   5  -1  10    0.52    0.16
   5   0  -7    1.13    0.19
   5   0  -6    0.03    0.14
  -5   0   5    1.97    0.13
   5   0  -5    2.04    0.15
   5   0  -5    1.84    0.12
  -5   0   4   53.82    0.36
   5   0  -4   61.01    0.38
  -5   0   3  187.49    0.59
   5   0  -3  211.91    0.61
   5   0  -3  187.42    0.56
  -5   0   2   41.93    0.26
   5   0  -2   39.60    0.24
  -5   0   1   65.57    0.34
  -5   0   1   64.55    0.28
  -5   0   0    1.71    0.09
  -5   0  -1   12.49    0.16
  -5   0  -2    2.99    0.11
  -5   0  -2    2.38    0.10
  -5   0  -3   21.47    0.22
  -5   0  -4   66.76    0.37
  -5   0  -4   57.97    0.36
  -5   0  -5   17.88    0.21
  -5   0  -6    0.14    0.08
  -5   0  -7    4.89    0.14
  -5   0  -7    4.45    0.11
   5   0   7    4.85    0.13
   5   0   7    4.92    0.13
  -5   0  -8    0.21    0.10
  -5   0  -8    0.12    0.09
   5   0   8    0.33    0.11
   5   0   8    1.03    0.12
   5   0   8    0.33    0.10
  -5   0  -9    1.12    0.16
  -5   0  -9    1.62    0.12
   5   0   9    1.43    0.15
   5   0   9    1.44    0.15
  -5   0 -10    0.45    0.14
   5   0  10    1.19    0.17
   5   0  10    1.44    0.16
   5   1  -7    4.47    0.23
   5   1  -6    0.35    0.15
  -5  -1   5    2.10    0.13
   5   1  -5    2.90    0.16
  -5  -1   4   70.12    0.42
   5   1  -4   73.07    0.42
  -5  -1   3   30.77    0.26
   5   1  -3   33.83    0.28
   5   1  -3   31.33    0.25
  -5  -1   2   62.92    0.33
   5   1  -2   69.06    0.34
  -5  -1   1    1.53    0.08
   5   1  -1    1.63    0.10
   5   1  -1    1.04    0.08
  -5  -1   0   14.31    0.13
  -5  -1  -1   47.14    0.29
  -5  -1  -2   12.99    0.17
  -5  -1  -3    4.61    0.11
  -5  -1  -4    4.43    0.11
  -5  -1  -4    4.89    0.13
  -5  -1  -5    5.98    0.13
  -5  -1  -5    4.41    0.12
  -5  -1  -6    0.23    0.07
  -5  -1  -6    0.23    0.09
  -5  -1  -6    0.35    0.07
  -5  -1  -7    9.39    0.15
  -5  -1  -7    8.48    0.14
   5   1   7    7.76    0.15
   5   1   7    9.29    0.16
  -5  -1  -8    4.08    0.12
  -5  -1  -8    2.97    0.12
   5   1   8    3.39    0.13
   5   1   8    3.42    0.14
   5   1   8    3.30    0.13
  -5  -1  -9    2.88    0.13
   5   1   9    3.41    0.16
   5   1   9    3.41    0.14
   5   1   9    3.18    0.15
  -5  -1 -10    0.09    0.11
   5   1  10   -0.31    0.12
   5   1  10    0.56    0.14
   5   1  11    0.14    0.15
   5   2  -7    0.37    0.17
   5   2  -6   15.57    0.28
  -5  -2   5   11.80    0.17
   5   2  -5   14.01    0.24
  -5  -2   4   14.35    0.22
   5   2  -4   14.80    0.23
  -5  -2   3   54.46    0.36
   5   2  -3   59.00    0.37
   5   2  -3   52.30    0.33
  -5  -2   2    1.97    0.10
   5   2  -2    2.34    0.12
   5   2  -2    2.31    0.10
  -5  -2   1    2.84    0.10
   5   2  -1    3.17    0.12
   5   2  -1    3.42    0.10
  -5  -2   0   56.70    0.27
   5   2   0   60.34    0.27
   5   2   0   58.10    0.30
  -5  -2  -1   76.79    0.29
   5   2   1   80.61    0.28
  -5  -2  -2   23.61    0.15
  -5  -2  -2   19.67    0.14
  -5  -2  -3   10.07    0.15
  -5  -2  -4    0.49    0.09
  -5  -2  -4    0.37    0.06
  -5  -2  -5    0.88    0.08
  -5  -2  -5    1.10    0.07
  -5  -2  -6   13.29    0.18
  -5  -2  -6   13.49    0.15
   5   2   6   13.09    0.15
  -5  -2  -7    7.07    0.16
  -5  -2  -7    8.91    0.14
   5   2   7    8.10    0.14
   5   2   7    8.30    0.14
   5   2   7    7.54    0.13
  -5  -2  -8    1.97    0.11
   5   2   8    3.05    0.13
   5   2   8    3.02    0.13
   5   2   8    2.33    0.12
  -5  -2  -9    0.21    0.10
   5   2   9    0.64    0.13
   5   2   9    0.15    0.09
   5   2   9    0.12    0.11
  -5  -2 -10    0.58    0.12
   5   2  10    0.38    0.14
   5   2  10    0.81    0.14
   5   2  11    2.50    0.23
  -5  -3   6   39.09    0.34
   5   3  -6   45.89    0.43
  -5  -3   5    5.28    0.15
   5   3  -5    5.82    0.20
  -5  -3   4    3.14    0.12
   5   3  -4    4.47    0.18
  -5  -3   3   10.58    0.16
   5   3  -3   10.75    0.20
  -5  -3   2    2.75    0.09
   5   3  -2    3.88    0.14
   5   3  -2    2.91    0.11
   5   3  -1   41.07    0.28
   5   3  -1   40.58    0.27
   5   3   0   24.88    0.22
   5   3   0   24.27    0.20
  -5  -3  -1   18.00    0.19
   5   3   1   17.57    0.17
   5   3   1   17.21    0.15
  -5  -3  -2    2.59    0.08
   5   3   2    2.59    0.09
   5   3   2    2.92    0.08
  -5  -3  -3   60.43    0.27
  -5  -3  -3   54.43    0.30
   5   3   3   59.07    0.25
   5   3   3   48.23    0.22
  -5  -3  -4   21.01    0.20
  -5  -3  -4   21.75    0.17
   5   3   4   22.84    0.17
   5   3   4   26.20    0.25
   5   3   4   17.97    0.14
  -5  -3  -5    0.65    0.09
  -5  -3  -5    0.74    0.08
   5   3   5    0.30    0.07
   5   3   5    0.08    0.06
  -5  -3  -6   40.92    0.30
  -5  -3  -6   44.41    0.27
   5   3   6   43.60    0.26
   5   3   6   39.61    0.23
  -5  -3  -7    8.78    0.18
  -5  -3  -7    9.46    0.15
   5   3   7    9.46    0.16
   5   3   7    8.65    0.19
   5   3   7    9.58    0.15
  -5  -3  -8    3.74    0.13
  -5  -3  -8    3.65    0.13
   5   3   8    4.07    0.14
   5   3   8    3.58    0.15
   5   3   8    4.21    0.13
  -5  -3  -9   12.99    0.20
   5   3   9   12.11    0.21
   5   3   9   10.70    0.25
   5   3   9   11.67    0.19
   5   3  10    1.18    0.16
   5   3  10    0.60    0.13
   5   3  11    0.73    0.18
   5   3  12    0.45    0.18
  -5  -4   6    0.07    0.11
   5   4  -6   -0.03    0.15
  -5  -4   5    0.10    0.10
   5   4  -5   -0.03    0.14
  -5  -4   4    5.88    0.16
   5   4  -4    6.31    0.21
  -5  -4   3   12.52    0.18
   5   4  -3   13.81    0.23
  -5  -4   2   28.10    0.24
  -5  -4   2   32.28    0.30
   5   4  -2   32.62    0.30
  -5  -4   1   16.32    0.17
  -5  -4   1   17.19    0.21
   5   4  -1   20.01    0.23
   5   4  -1   17.77    0.20
  -5  -4   0   15.89    0.16
  -5  -4   0   18.35    0.20
   5   4   0   19.75    0.21
   5   4   0   18.01    0.19
  -5  -4  -1   12.53    0.13
  -5  -4  -1   15.92    0.18
   5   4   1   16.01    0.18
   5   4   1   14.60    0.16
  -5  -4  -2   70.37    0.34
  -5  -4  -2   58.85    0.31
   5   4   2   68.50    0.32
  -5  -4  -3   70.59    0.39
  -5  -4  -3   64.31    0.32
   5   4   3   71.51    0.33
   5   4   3   76.26    0.32
  -5  -4  -4   14.18    0.16
   5   4   4   16.51    0.17
   5   4   4   17.09    0.17
   5   4   4   12.14    0.15
  -5  -4  -5   49.34    0.31
  -5  -4  -5   51.89    0.31
   5   4   5   57.65    0.29
  -5  -4  -6    2.14    0.10
   5   4   6    1.88    0.11
   5   4   6    2.73    0.11
   5   4   6    1.56    0.12
  -5  -4  -7    3.34    0.13
  -5  -4  -7    3.34    0.13
   5   4   7    3.27    0.13
   5   4   7    3.70    0.12
   5   4   7    2.84    0.12
  -5  -4  -8    3.59    0.13
   5   4   8    4.23    0.13
   5   4   8    3.38    0.13
  -5  -4  -9    1.64    0.12
   5   4   9    1.69    0.14
   5   4   9    1.35    0.12
   5   4  10    0.95    0.15
   5   4  11    0.12    0.15
   5   4  12    1.01    0.19
  -5  -5   5    5.77    0.18
   5   5  -5    6.91    0.24
  -5  -5   4    8.61    0.19
   5   5  -4   10.76    0.25
  -5  -5   3   67.75    0.42
   5   5  -3   84.35    0.52
  -5  -5   2    1.75    0.11
   5   5  -2    1.92    0.15
  -5  -5   1   20.90    0.22
  -5  -5   1   24.24    0.27
   5   5  -1   26.06    0.28
  -5  -5   0   25.86    0.23
  -5  -5   0   29.54    0.27
   5   5   0   31.43    0.29
  -5  -5  -1   29.23    0.22
  -5  -5  -1   33.42    0.28
  -5  -5  -1   27.31    0.25
   5   5   1   34.65    0.28
   5   5   1   33.47    0.26
  -5  -5  -2   23.99    0.19
  -5  -5  -2   26.96    0.24
  -5  -5  -2   22.34    0.22
   5   5   2   27.72    0.24
   5   5   2   28.24    0.23
  -5  -5  -3   26.95    0.20
  -5  -5  -3   29.00    0.24
  -5  -5  -3   28.45    0.24
   5   5   3   30.00    0.24
   5   5   3   29.59    0.23
  -5  -5  -4    0.81    0.08
  -5  -5  -4    0.80    0.09
   5   5   4    0.65    0.09
   5   5   4    0.98    0.09
  -5  -5  -5    0.90    0.08
  -5  -5  -5    0.92    0.10
   5   5   5    1.07    0.10
   5   5   5    1.15    0.10
   5   5   5    1.02    0.10
  -5  -5  -6    1.15    0.09
  -5  -5  -6    1.11    0.09
  -5  -5  -6    1.30    0.10
   5   5   6    1.13    0.11
   5   5   6    1.33    0.10
   5   5   6    1.01    0.11
  -5  -5  -7    0.06    0.07
  -5  -5  -7    0.27    0.09
  -5  -5  -7    0.05    0.09
   5   5   7   -0.19    0.09
   5   5   7    0.03    0.09
   5   5   7    0.06    0.09
  -5  -5  -8    3.90    0.12
  -5  -5  -8    3.13    0.14
  -5  -5  -8    3.28    0.14
   5   5   8    3.28    0.14
   5   5   8    2.54    0.13
  -5  -5  -9   31.02    0.38
  -5  -5  -9   29.10    0.30
   5   5   9   29.44    0.30
   5   5   9   26.15    0.31
   5   5  10   29.27    0.32
   5   5  11    6.57    0.23
   5   5  12    1.57    0.22
  -5  -6   4   19.07    0.28
   5   6  -4   22.96    0.34
  -5  -6   3    0.89    0.13
   5   6  -3    0.96    0.17
  -5  -6   2    5.84    0.16
   5   6  -2    7.84    0.21
  -5  -6   1   10.18    0.19
   5   6  -1   10.72    0.22
  -5  -6   0    5.89    0.15
   5   6   0    6.81    0.19
  -5  -6  -1   20.26    0.22
  -5  -6  -1   22.49    0.26
  -5  -6  -1   16.98    0.27
   5   6   1   22.44    0.26
  -5  -6  -2  110.61    0.45
  -5  -6  -2  125.89    0.55
  -5  -6  -2  105.03    0.50
   5   6   2  120.89    0.52
  -5  -6  -3   55.59    0.32
  -5  -6  -3   59.60    0.38
  -5  -6  -3   52.83    0.35
   5   6   3   61.91    0.37
   5   6   3   67.60    0.42
  -5  -6  -4    0.35    0.09
  -5  -6  -4    0.78    0.11
   5   6   4    0.91    0.11
   5   6   4    0.66    0.10
  -5  -6  -5   30.17    0.26
  -5  -6  -5   29.31    0.27
   5   6   5   36.49    0.29
   5   6   5   36.10    0.28
  -5  -6  -6    4.44    0.13
  -5  -6  -6    5.08    0.14
   5   6   6    4.59    0.15
   5   6   6    2.65    0.12
  -5  -6  -7    1.36    0.11
  -5  -6  -7    1.75    0.12
  -5  -6  -7    1.15    0.11
   5   6   7    1.29    0.13
   5   6   7    1.40    0.13
  -5  -6  -8    0.95    0.12
  -5  -6  -8    0.89    0.11
   5   6   8    1.60    0.14
  -5  -6  -9    0.69    0.11
  -5  -6  -9    1.00    0.14
   5   6   9    1.10    0.15
  -5  -6 -10    7.40    0.17
   5   6  10    6.08    0.21
   5   6  11    2.36    0.19
   5   6  12    0.73    0.18
  -5  -7   3    0.36    0.13
   5   7  -3    0.10    0.17
  -5  -7   2    0.30    0.12
   5   7  -2    0.48    0.16
  -5  -7   1    0.68    0.13
   5   7  -1    0.54    0.14
  -5  -7   0    0.43    0.12
   5   7   0    0.14    0.13
  -5  -7  -1    4.98    0.16
   5   7   1    4.85    0.18
  -5  -7  -2    8.24    0.18
   5   7   2    9.66    0.20
  -5  -7  -3    2.87    0.13
   5   7   3    3.38    0.16
  -5  -7  -4   18.51    0.22
  -5  -7  -4   18.47    0.24
   5   7   4   18.29    0.25
  -5  -7  -5   13.48    0.20
  -5  -7  -5   13.59    0.21
   5   7   5   12.99    0.21
  -5  -7  -7    4.03    0.15
   5   7   7    2.73    0.17
  -5  -7  -8    0.31    0.11
  -5  -7  -9    1.80    0.14
  -5  -7  -9    1.04    0.11
   5   7   9    1.58    0.18
  -5  -7 -10    1.39    0.14
   5   7  10    0.47    0.17
  -5  -7 -11    2.83    0.17
   5   7  11    3.42    0.23
  -5  -8   1   16.50    0.28
   5   8  -1   20.46    0.32
  -5  -8   0    2.29    0.16
   5   8   0    2.02    0.18
  -5  -8  -1    3.89    0.17
   5   8   1    5.15    0.21
  -5  -8  -2    2.20    0.16
   5   8   2    3.41    0.19
  -5  -8  -3   34.89    0.33
   5   8   3   39.75    0.37
  -5  -8  -4   17.04    0.25
   5   8   4   17.83    0.27
  -5  -8  -5    1.23    0.14
   5   8   5    1.82    0.17
  -5  -8  -6   19.00    0.26
   5   8   6   20.29    0.28
  -5  -8  -7    2.02    0.15
   5   8   7    1.95    0.19
  -5  -8  -8    0.43    0.12
  -5  -8  -8    0.47    0.10
   5   8   8   -0.08    0.14
  -5  -8  -9    5.89    0.21
   5   8   9    6.15    0.24
  -5  -8 -10    0.73    0.14
   5   8  10    1.12    0.20
  -5  -8 -11    2.20    0.18
   5   8  11    0.92    0.20
  -5  -9   0   17.51    0.30
  -5  -9  -1   23.75    0.32
   5   9   1   29.90    0.37
  -5  -9  -2    3.64    0.19
   5   9   2    5.08    0.22
  -5  -9  -3    1.76    0.17
   5   9   3    2.40    0.19
  -5  -9  -4    0.49    0.15
   5   9   4    0.99    0.16
  -5  -9  -5    1.73    0.18
   5   9   5    2.14    0.20
  -5  -9  -6    0.35    0.15
   5   9   6    1.08    0.18
  -5  -9  -7    0.47    0.14
   5   9   7    0.82    0.17
  -5  -9  -8    0.46    0.14
   5   9   8   -0.01    0.16
  -5  -9  -9    0.92    0.15
   5   9   9    1.08    0.22
  -5  -9 -10    3.03    0.22
  -5 -10  -3    0.14    0.15
  -5 -10  -4    0.56    0.17
   5  10   4    0.55    0.16
  -5 -10  -5    0.14    0.16
   5  10   5    0.94    0.18
  -5 -10  -6    2.13    0.22
   5  10   6    2.77    0.24
  -5 -10  -7    2.77    0.24
   5  10   7    1.52    0.20
  -6   5   2    0.87    0.21
  -6   5   1   -0.37    0.16
  -6   5   0    0.57    0.19
  -6   5  -1   -0.11    0.18
  -6   5  -2    0.87    0.22
  -6   4   4    1.23    0.13
   6  -4  -4    1.08    0.17
   6  -4  -4    1.98    0.15
   6  -4  -3    0.24    0.14
   6  -4  -3    0.55    0.12
   6  -4  -3    0.93    0.13
  -6   4   2    4.04    0.22
  -6   4   1    3.02    0.21
  -6   4   0    1.88    0.20
  -6   4  -1    2.47    0.21
  -6   4  -2   16.88    0.32
  -6   4  -3    9.15    0.29
  -6   4  -4    0.43    0.19
  -6   4  -5    0.14    0.20
  -6   3   5    1.56    0.15
   6  -3  -5    2.74    0.20
   6  -3  -5    1.32    0.15
  -6   3   4    3.04    0.15
   6  -3  -4    4.20    0.18
   6  -3  -4    3.86    0.16
  -6   3   3   11.95    0.18
   6  -3  -3   14.52    0.22
   6  -3  -3   12.24    0.19
   6  -3  -3   11.53    0.19
  -6   3   1    3.20    0.18
  -6   3   0    3.06    0.19
  -6   3  -1    6.98    0.22
  -6   3  -2   11.84    0.25
  -6   3  -3    3.49    0.20
  -6   3  -4    1.62    0.19
  -6   3  -5   -0.04    0.16
  -6   3  -6    0.38    0.19
  -6   2   5   15.40    0.24
   6  -2  -5   17.62    0.27
   6  -2  -5   15.86    0.24
  -6   2   4   13.90    0.21
   6  -2  -4   14.84    0.23
   6  -2  -4   13.41    0.21
  -6   2   3    0.96    0.11
  -6   2   3    1.15    0.11
   6  -2  -3    0.59    0.12
   6  -2  -3    0.87    0.12
   6  -2  -3    1.38    0.12
  -6   2   2    6.53    0.16
  -6   2   2    6.13    0.13
  -6   2   1    6.00    0.16
  -6   2   0   18.32    0.26
  -6   2   0   18.03    0.24
  -6   2  -1    0.21    0.13
  -6   2  -1    1.12    0.14
  -6   2  -2   15.57    0.25
  -6   2  -3    0.19    0.12
  -6   2  -4    4.41    0.19
  -6   2  -5    2.17    0.19
  -6   2  -6    2.00    0.19
  -6   2  -7    0.12    0.16
  -6   2  -8   -0.32    0.16
   6  -1  -6    8.58    0.24
  -6   1   5   -0.01    0.10
   6  -1  -5    0.42    0.14
   6  -1  -5   -0.41    0.15
  -6   1   4    0.78    0.11
  -6   1   4    0.77    0.12
   6  -1  -4    0.90    0.14
   6  -1  -4    0.31    0.11
  -6   1   3    3.73    0.13
  -6   1   3    3.62    0.13
   6  -1  -3    3.84    0.14
   6  -1  -3    2.91    0.13
   6  -1  -3    4.38    0.14
  -6   1   2   20.33    0.23
  -6   1   2   19.93    0.20
   6  -1  -2   21.93    0.21
  -6   1   1    4.18    0.14
  -6   1   0    6.69    0.16
  -6   1  -1   -0.02    0.10
  -6   1  -1    0.25    0.11
  -6   1  -2    2.64    0.14
  -6   1  -2    2.90    0.14
  -6   1  -3   11.53    0.21
  -6   1  -3   11.13    0.20
  -6   1  -4   10.05    0.21
  -6   1  -5   14.75    0.24
  -6   1  -6    2.72    0.16
  -6   1  -7    1.29    0.16
  -6   1  -8    1.57    0.17
  -6   1  -8    2.19    0.14
   6  -1   8    2.07    0.14
  -6   1  -9    0.08    0.13
  -6   1  -9    0.48    0.14
   6  -1   9    0.08    0.14
   6  -1   9    0.03    0.15
  -6   0   5    4.25    0.16
   6   0  -5    5.10    0.19
  -6   0   4    6.14    0.16
   6   0  -4    5.79    0.18
   6   0  -4    4.93    0.15
  -6   0   3    2.67    0.13
  -6   0   3    2.44    0.12
   6   0  -3    2.67    0.14
   6   0  -3    2.48    0.13
  -6   0   2    4.73    0.14
  -6   0   2    4.15    0.12
   6   0  -2    3.68    0.14
   6   0  -2    4.26    0.12
  -6   0   1    0.00    0.09
  -6   0   1    0.02    0.07
  -6   0   0    3.86    0.13
  -6   0  -1    2.79    0.12
  -6   0  -2   12.04    0.19
  -6   0  -3   16.06    0.21
  -6   0  -4   31.19    0.30
  -6   0  -5   26.89    0.29
  -6   0  -6    3.61    0.15
  -6   0  -7    3.85    0.16
  -6   0  -8    4.39    0.17
  -6   0  -8    3.80    0.13
   6   0   8    4.01    0.15
  -6   0  -9    0.01    0.11
  -6   0  -9    1.03    0.12
   6   0   9    0.03    0.12
   6   0   9    0.13    0.13
   6   0   9    0.03    0.14
  -6   0 -10    1.03    0.14
   6   0  10    0.42    0.14
   6   0  10    1.43    0.18
   6   1  -6    2.33    0.23
   6   1  -5    6.59    0.21
  -6  -1   4   13.84    0.22
   6   1  -4   14.79    0.24
  -6  -1   3    0.73    0.11
   6   1  -3    0.77    0.13
   6   1  -3    0.58    0.11
  -6  -1   2   33.55    0.26
   6   1  -2   37.57    0.28
   6   1  -2   35.00    0.26
  -6  -1   1   13.35    0.16
   6   1  -1   14.52    0.18
   6   1  -1   13.04    0.16
  -6  -1   0   81.09    0.43
  -6  -1   0   83.37    0.32
  -6  -1  -1   15.12    0.20
  -6  -1  -2   58.36    0.37
  -6  -1  -3    0.75    0.10
  -6  -1  -4    0.96    0.10
  -6  -1  -5    4.82    0.15
  -6  -1  -5    4.46    0.14
  -6  -1  -6    7.51    0.17
  -6  -1  -6    7.49    0.17
  -6  -1  -7    1.47    0.12
  -6  -1  -8    0.53    0.10
  -6  -1  -8    0.96    0.11
   6   1   8    0.99    0.12
   6   1   8    0.72    0.12
   6   1   8    0.13    0.10
  -6  -1  -9    2.00    0.13
  -6  -1  -9    1.53    0.12
   6   1   9    2.49    0.15
   6   1   9    2.20    0.15
   6   1   9    1.25    0.15
  -6  -1 -10    1.89    0.14
   6   1  10    2.26    0.19
   6   1  10    2.20    0.17
   6   2  -5    0.76    0.17
  -6  -2   4    0.05    0.10
   6   2  -4   -0.17    0.13
  -6  -2   3    3.21    0.14
   6   2  -3    2.37    0.15
  -6  -2   2   -0.16    0.08
   6   2  -2    0.08    0.11
   6   2  -2    0.22    0.09
  -6  -2   1   40.74    0.28
   6   2  -1   44.84    0.29
   6   2  -1   41.21    0.27
  -6  -2   0   38.79    0.25
   6   2   0   39.72    0.24
  -6  -2  -1    5.05    0.10
  -6  -2  -3    0.74    0.11
  -6  -2  -4    1.34    0.10
  -6  -2  -5    0.77    0.11
  -6  -2  -6    6.67    0.15
  -6  -2  -7    0.98    0.13
  -6  -2  -7    0.80    0.10
  -6  -2  -8    8.89    0.16
   6   2   8    9.78    0.18
   6   2   8   10.22    0.19
   6   2   8   10.19    0.18
  -6  -2  -9    5.35    0.15
   6   2   9    5.45    0.18
   6   2   9    5.33    0.17
   6   2   9    5.94    0.18
  -6  -2 -10   -0.21    0.11
   6   2  10    0.72    0.16
   6   2  10    0.64    0.15
   6   2  11    0.37    0.17
   6   3  -5    0.85    0.17
   6   3  -4    5.67    0.21
  -6  -3   3    6.55    0.17
   6   3  -3    5.94    0.19
  -6  -3   2    0.09    0.08
   6   3  -2    0.08    0.12
  -6  -3   1   10.88    0.18
   6   3  -1   13.56    0.20
  -6  -3   0   45.45    0.30
   6   3   0   55.48    0.32
   6   3   0   47.33    0.29
  -6  -3  -1    0.44    0.08
   6   3   1    0.27    0.09
   6   3   1    0.46    0.08
  -6  -3  -2    2.13    0.09
  -6  -3  -2    2.39    0.09
   6   3   2    2.36    0.10
   6   3   2    2.58    0.09
  -6  -3  -3    0.56    0.09
  -6  -3  -3    0.60    0.07
  -6  -3  -3    0.79    0.08
   6   3   3    0.59    0.08
  -6  -3  -4   16.97    0.21
  -6  -3  -4   17.68    0.16
  -6  -3  -4   17.29    0.16
   6   3   4   17.35    0.16
  -6  -3  -5    1.41    0.11
  -6  -3  -5    1.73    0.09
   6   3   5    1.42    0.09
  -6  -3  -6    3.28    0.12
  -6  -3  -6    3.04    0.11
   6   3   6    3.33    0.13
  -6  -3  -7    0.30    0.10
  -6  -3  -7    0.41    0.10
   6   3   7   -0.19    0.09
   6   3   7    0.22    0.09
  -6  -3  -8    5.41    0.16
  -6  -3  -8    5.36    0.15
   6   3   8    6.39    0.16
   6   3   8    6.76    0.15
   6   3   8    6.05    0.16
  -6  -3  -9    5.40    0.16
   6   3   9    5.96    0.18
   6   3   9    5.93    0.17
   6   3   9    5.30    0.17
  -6  -3 -10    0.37    0.11
   6   3  10    0.25    0.14
   6   3  10    0.60    0.14
   6   3  11   -0.25    0.15
   6   4  -5    1.84    0.20
   6   4  -4    0.08    0.16
   6   4  -3    1.02    0.16
  -6  -4   2    1.13    0.12
   6   4  -2    1.12    0.15
  -6  -4   1    5.90    0.16
   6   4  -1    5.98    0.18
  -6  -4   0    1.92    0.11
   6   4   0    2.87    0.15
   6   4   0    1.49    0.10
  -6  -4  -1   11.94    0.17
   6   4   1   12.09    0.18
   6   4   1   11.69    0.16
  -6  -4  -2   61.29    0.33
  -6  -4  -2   49.60    0.30
   6   4   2   61.77    0.33
  -6  -4  -3   27.62    0.22
  -6  -4  -3   24.68    0.21
   6   4   3   30.06    0.23
   6   4   3   27.73    0.23
  -6  -4  -4    0.30    0.08
  -6  -4  -4    0.09    0.08
   6   4   4    0.60    0.10
   6   4   4    0.71    0.10
   6   4   4    0.43    0.08
  -6  -4  -5    0.05    0.09
   6   4   5    0.18    0.09
   6   4   5    0.25    0.08
   6   4   5   -0.04    0.08
  -6  -4  -6   22.75    0.25
  -6  -4  -6   23.92    0.22
   6   4   6   23.82    0.22
   6   4   6   25.25    0.22
   6   4   6   19.31    0.19
  -6  -4  -7    0.16    0.10
  -6  -4  -7   -0.10    0.09
   6   4   7    0.19    0.10
   6   4   7    0.13    0.10
   6   4   7    0.26    0.10
  -6  -4  -8   15.61    0.22
  -6  -4  -8   16.76    0.22
   6   4   8   16.60    0.22
   6   4   8   17.00    0.21
   6   4   8   13.97    0.20
  -6  -4  -9    2.30    0.14
  -6  -4  -9    2.67    0.14
   6   4   9    2.51    0.16
   6   4   9    2.19    0.14
  -6  -4 -10    5.54    0.24
   6   4  10    7.00    0.22
   6   4  10    6.17    0.18
   6   4  11    2.03    0.21
   6   5  -4    6.44    0.24
  -6  -5   3   -0.20    0.08
   6   5  -3    0.14    0.15
  -6  -5   2    5.83    0.14
   6   5  -2    6.09    0.21
  -6  -5   1   14.18    0.18
  -6  -5   1   14.35    0.23
   6   5  -1   15.80    0.25
  -6  -5   0   34.86    0.31
  -6  -5   0   35.63    0.31
   6   5   0   38.13    0.33
  -6  -5  -1    6.35    0.12
  -6  -5  -1    5.88    0.15
  -6  -5  -1    5.14    0.16
   6   5   1    7.25    0.17
   6   5   1    6.63    0.15
  -6  -5  -2    0.24    0.10
  -6  -5  -2    0.65    0.10
   6   5   2    0.65    0.11
   6   5   2    0.80    0.11
  -6  -5  -3   54.72    0.34
  -6  -5  -3   52.26    0.33
   6   5   3   57.95    0.34
   6   5   3   58.51    0.34
  -6  -5  -4   20.27    0.21
  -6  -5  -4   19.72    0.21
   6   5   4   22.23    0.23
   6   5   4   22.19    0.21
  -6  -5  -5   26.29    0.24
   6   5   5   27.58    0.25
   6   5   5   28.13    0.24
   6   5   5   22.40    0.21
  -6  -5  -6    5.90    0.15
  -6  -5  -6    6.17    0.15
   6   5   6    5.67    0.15
   6   5   6    6.42    0.15
   6   5   6    5.39    0.14
  -6  -5  -7    1.67    0.12
  -6  -5  -7    1.51    0.11
   6   5   7    1.71    0.13
   6   5   7    2.09    0.16
   6   5   7    2.12    0.12
  -6  -5  -9    0.51    0.12
  -6  -5  -9    0.46    0.10
   6   5   9    0.20    0.12
   6   5   9   -0.24    0.11
  -6  -5 -10    2.48    0.15
   6   5  10    2.61    0.18
   6   5  11    0.22    0.16
  -6  -6   3    5.49    0.17
   6   6  -3    5.68    0.22
  -6  -6   2   21.43    0.26
   6   6  -2   27.63    0.35
  -6  -6   1    7.56    0.16
   6   6  -1    8.86    0.23
  -6  -6   0   17.99    0.21
   6   6   0   21.10    0.28
  -6  -6  -1    2.47    0.11
   6   6   1    2.88    0.16
  -6  -6  -2   28.71    0.25
  -6  -6  -2   31.91    0.35
  -6  -6  -2   29.10    0.29
   6   6   2   34.95    0.31
  -6  -6  -3   58.46    0.32
  -6  -6  -3   63.95    0.40
  -6  -6  -3   57.02    0.38
   6   6   3   66.38    0.40
  -6  -6  -4    0.24    0.07
  -6  -6  -4    0.24    0.10
  -6  -6  -4    0.20    0.10
   6   6   4    0.67    0.11
  -6  -6  -5    2.98    0.10
  -6  -6  -5    2.34    0.12
   6   6   5    3.25    0.15
   6   6   5    3.23    0.17
  -6  -6  -6    1.00    0.12
   6   6   6    1.77    0.15
   6   6   6    0.91    0.23
  -6  -6  -7    0.01    0.10
  -6  -6  -7   -0.14    0.08
   6   6   7    0.49    0.12
   6   6   7   -0.20    0.09
  -6  -6  -8    0.10    0.11
   6   6   8    0.14    0.13
   6   6   8    0.04    0.12
  -6  -6  -9    0.61    0.12
   6   6   9    0.67    0.15
  -6  -6 -10    9.03    0.19
   6   6  10    8.97    0.25
   6   6  11    2.15    0.21
  -6  -7   2    6.44    0.18
   6   7  -2    7.01    0.25
  -6  -7   1    2.36    0.14
   6   7  -1    2.78    0.20
  -6  -7   0    0.83    0.12
   6   7   0    0.80    0.16
  -6  -7  -1    1.03    0.12
   6   7   1    1.20    0.17
  -6  -7  -2    0.55    0.10
   6   7   2    0.23    0.13
  -6  -7  -3    1.03    0.11
   6   7   3    1.48    0.15
  -6  -7  -4    4.39    0.13
  -6  -7  -4    5.83    0.21
   6   7   4    5.71    0.19
  -6  -7  -5    1.85    0.11
   6   7   5    2.03    0.15
  -6  -7  -6   14.97    0.19
   6   7   6   17.40    0.26
  -6  -7  -7    2.14    0.11
   6   7   7    2.45    0.18
  -6  -7  -8   21.34    0.23
  -6  -7  -8   21.31    0.25
   6   7   8   23.10    0.31
  -6  -7  -9    0.15    0.10
   6   7   9   -0.27    0.14
   6   7  10    1.17    0.20
   6   7  11    1.10    0.20
  -6  -8   1    4.46    0.18
  -6  -8   0   34.38    0.34
   6   8   0   43.80    0.43
  -6  -8  -1    0.38    0.12
   6   8   1    0.31    0.15
  -6  -8  -2    1.91    0.14
   6   8   2    1.78    0.18
  -6  -8  -3    2.28    0.15
   6   8   3    3.16    0.19
  -6  -8  -4    9.27    0.19
   6   8   4   10.54    0.24
  -6  -8  -5    1.60    0.13
   6   8   5    1.82    0.19
  -6  -8  -6   10.09    0.19
   6   8   6   12.21    0.25
  -6  -8  -7    7.49    0.17
   6   8   7    7.39    0.24
  -6  -8  -8    1.58    0.15
  -6  -8  -8    0.35    0.12
   6   8   8    0.31    0.16
  -6  -8  -9    0.41    0.12
  -6  -8  -9    0.68    0.13
   6   8   9    0.35    0.18
   6   8  10    0.24    0.20
  -6  -9  -1    8.90    0.23
  -6  -9  -2    0.53    0.13
   6   9   2    2.02    0.21
  -6  -9  -3    2.88    0.18
   6   9   3    2.67    0.20
  -6  -9  -4    1.84    0.16
   6   9   4    1.51    0.20
  -6  -9  -5    2.47    0.17
   6   9   5    2.26    0.22
  -6  -9  -6   11.42    0.23
   6   9   6   12.33    0.29
  -6  -9  -7    1.35    0.16
   6   9   7    2.62    0.22
  -6  -9  -8    0.82    0.14
   6   9   8    0.20    0.17
  -6  -9  -9    2.25    0.18
   6   9   9    1.69    0.24
  -6 -10  -5    2.25    0.18
  -6 -10  -6    6.41    0.23
  -7   3   0    6.08    0.25
  -7   3  -1    0.04    0.17
  -7   3  -2    9.23    0.29
  -7   3  -3    0.89    0.20
  -7   3  -4    6.58    0.28
  -7   3  -5    5.05    0.29
  -7   2   3    4.25    0.14
   7  -2  -3    5.43    0.18
   7  -2  -3    5.17    0.17
   7  -2  -3    4.55    0.17
  -7   2   2   12.80    0.23
  -7   2   1   11.49    0.22
  -7   2   0   -0.06    0.13
  -7   2  -1    1.92    0.19
  -7   2  -1    1.75    0.18
  -7   2  -2    1.52    0.18
  -7   2  -3   -0.18    0.14
  -7   2  -4    4.60    0.24
  -7   2  -5    2.41    0.23
  -7   2  -6    0.68    0.20
  -7   1   4    6.83    0.18
   7  -1  -4    7.40    0.21
   7  -1  -4    6.47    0.18
  -7   1   3   14.00    0.23
  -7   1   3   13.04    0.20
   7  -1  -3   14.54    0.22
   7  -1  -3   12.93    0.21
   7  -1  -3   13.74    0.22
  -7   1   2   17.50    0.25
  -7   1   2   15.84    0.19
  -7   1   1    1.51    0.14
  -7   1   0    2.50    0.15
  -7   1  -1    0.75    0.14
  -7   1  -2    0.04    0.12
  -7   1  -2    0.25    0.13
  -7   1  -3    0.10    0.12
  -7   1  -3   -0.25    0.12
  -7   1  -4    0.53    0.14
  -7   1  -5   15.80    0.28
  -7   1  -6   17.61    0.31
  -7   1  -7    5.68    0.24
  -7   1  -8    2.57    0.22
  -7   0   4    3.23    0.23
  -7   0   4    3.54    0.15
   7   0  -4    4.26    0.18
   7   0  -4    2.67    0.15
  -7   0   3    9.25    0.20
  -7   0   3    8.32    0.17
   7   0  -3    9.52    0.20
  -7   0   2   21.90    0.26
  -7   0   2   20.85    0.22
   7   0  -2   23.37    0.25
   7   0  -2   21.85    0.25
  -7   0   1   27.23    0.29
  -7   0   1   25.15    0.21
  -7   0   0    0.68    0.13
  -7   0  -1    2.66    0.14
  -7   0  -2    0.88    0.13
  -7   0  -3    1.88    0.17
  -7   0  -4    0.59    0.13
  -7   0  -4    0.80    0.14
  -7   0  -5    3.46    0.18
  -7   0  -5    2.79    0.16
  -7   0  -6    9.00    0.23
  -7   0  -7    3.94    0.20
  -7   0  -8    0.06    0.13
  -7   0  -9    2.01    0.19
  -7  -1   4    0.17    0.11
   7   1  -4    0.60    0.16
  -7  -1   3    0.22    0.10
   7   1  -3    0.08    0.13
  -7  -1   2   14.18    0.23
  -7  -1   2   13.21    0.19
   7   1  -2   17.04    0.23
   7   1  -2   15.80    0.22
  -7  -1   1    4.95    0.17
  -7  -1   1    4.68    0.13
   7   1  -1    5.58    0.15
   7   1  -1    5.60    0.16
  -7  -1   0   12.95    0.21
  -7  -1  -1    1.96    0.13
  -7  -1  -2    2.47    0.14
  -7  -1  -3   13.69    0.22
  -7  -1  -4    0.05    0.11
  -7  -1  -5    4.47    0.16
  -7  -1  -6    3.82    0.17
  -7  -1  -7    0.86    0.14
  -7  -1  -8    0.42    0.13
  -7  -1  -9    0.44    0.14
  -7  -1  -9    0.57    0.11
   7   1   9    0.18    0.13
   7   1   9    0.63    0.16
  -7  -1 -10    2.18    0.15
   7   1  10    3.21    0.20
   7   1  10    2.73    0.20
   7   2  -4    2.02    0.20
  -7  -2   3    6.24    0.17
   7   2  -3    7.51    0.22
  -7  -2   2    9.25    0.18
   7   2  -2   10.57    0.21
  -7  -2   1   46.84    0.32
   7   2  -1   51.33    0.34
   7   2  -1   47.10    0.31
  -7  -2   0   18.30    0.20
   7   2   0   20.10    0.21
   7   2   0   18.66    0.20
  -7  -2  -1    2.56    0.13
  -7  -2  -1    1.90    0.10
  -7  -2  -2   58.47    0.41
  -7  -2  -3    0.15    0.11
  -7  -2  -4    3.89    0.14
  -7  -2  -5    7.90    0.18
  -7  -2  -6    1.92    0.13
  -7  -2  -7    0.78    0.14
  -7  -2  -8    0.44    0.16
   7   2   8    0.24    0.12
  -7  -2  -9    1.18    0.14
   7   2   9    0.30    0.13
   7   2   9    0.25    0.14
   7   2   9    0.60    0.14
  -7  -2 -10    0.26    0.13
   7   2  10    0.35    0.15
   7   3  -4   44.74    0.43
   7   3  -3   34.25    0.36
  -7  -3   2    1.36    0.13
   7   3  -2    1.76    0.17
  -7  -3   1    3.33    0.14
   7   3  -1    3.92    0.16
   7   3  -1    3.01    0.13
  -7  -3   0    0.34    0.10
   7   3   0    0.15    0.11
   7   3   0    0.15    0.09
  -7  -3  -1    0.30    0.09
   7   3   1    0.56    0.10
   7   3   1    0.02    0.08
  -7  -3  -2    6.78    0.13
  -7  -3  -2    6.30    0.13
   7   3   2    8.18    0.14
   7   3   2    7.80    0.13
  -7  -3  -3    0.25    0.10
  -7  -3  -3    0.79    0.09
  -7  -3  -3    0.61    0.09
  -7  -3  -4    0.38    0.11
  -7  -3  -4    0.13    0.08
  -7  -3  -5    0.84    0.14
  -7  -3  -6    5.95    0.16
  -7  -3  -6    6.22    0.14
  -7  -3  -7    1.95    0.14
  -7  -3  -7    1.81    0.12
   7   3   7    1.90    0.12
  -7  -3  -8    4.32    0.18
  -7  -3  -8    4.75    0.15
   7   3   8    5.29    0.17
   7   3   8    4.78    0.17
  -7  -3  -9   -0.06    0.15
  -7  -3  -9    0.30    0.12
   7   3   9    0.68    0.14
   7   3   9    0.50    0.12
   7   3   9    0.45    0.13
  -7  -3 -10    0.71    0.13
   7   3  10    1.84    0.19
   7   3  10    1.92    0.18
   7   3  11    2.04    0.23
   7   4  -3    1.66    0.20
   7   4  -2    0.21    0.15
  -7  -4   1    1.12    0.14
   7   4  -1    1.02    0.15
  -7  -4   0    3.16    0.14
   7   4   0    4.18    0.17
  -7  -4  -1    1.61    0.12
   7   4   1    1.89    0.14
   7   4   1    1.83    0.11
  -7  -4  -2    0.29    0.09
  -7  -4  -2    0.35    0.09
   7   4   2    0.39    0.10
   7   4   2    0.63    0.09
  -7  -4  -3   -0.14    0.08
  -7  -4  -3    0.47    0.09
   7   4   3   -0.08    0.09
   7   4   3    0.02    0.09
  -7  -4  -4    6.32    0.16
  -7  -4  -4    6.21    0.13
  -7  -4  -4    6.40    0.14
   7   4   4    6.36    0.14
   7   4   4    6.93    0.14
  -7  -4  -5   18.55    0.25
  -7  -4  -5   17.56    0.19
  -7  -4  -5   18.32    0.20
   7   4   5   18.54    0.20
   7   4   5   19.69    0.20
   7   4   5   14.22    0.17
  -7  -4  -6    2.51    0.15
  -7  -4  -6    2.33    0.12
   7   4   6    2.37    0.12
   7   4   6    2.45    0.12
   7   4   6    2.33    0.12
  -7  -4  -7    5.48    0.17
  -7  -4  -7    5.48    0.16
   7   4   7    6.17    0.16
   7   4   7    6.73    0.16
   7   4   7    5.55    0.15
  -7  -4  -8    1.00    0.14
  -7  -4  -8    1.69    0.14
   7   4   8    2.26    0.15
   7   4   8    1.35    0.13
   7   4   8    1.52    0.14
  -7  -4  -9    1.14    0.16
  -7  -4  -9    1.96    0.14
   7   4   9    1.00    0.15
   7   4   9    1.59    0.17
   7   4   9    1.26    0.16
  -7  -4 -10    1.65    0.15
   7   4  10    1.78    0.19
   7   4  10    1.48    0.17
   7   4  11    2.00    0.22
   7   5  -3    0.69    0.18
   7   5  -2    3.53    0.22
   7   5  -1   16.06    0.28
  -7  -5   0    1.23    0.13
   7   5   0    2.39    0.17
  -7  -5  -1   16.08    0.22
  -7  -5  -1   15.08    0.22
   7   5   1   18.06    0.25
  -7  -5  -2    1.01    0.12
  -7  -5  -2    1.55    0.12
   7   5   2    1.53    0.15
   7   5   2    1.39    0.13
  -7  -5  -3   25.20    0.25
  -7  -5  -3   22.49    0.24
   7   5   3   27.38    0.27
   7   5   3   25.97    0.25
  -7  -5  -4   11.28    0.18
  -7  -5  -4   10.52    0.17
   7   5   4   11.81    0.19
   7   5   4   12.16    0.18
  -7  -5  -5   14.48    0.23
  -7  -5  -5   14.97    0.20
  -7  -5  -5   15.06    0.20
   7   5   5   15.38    0.21
   7   5   5   16.61    0.20
   7   5   5   11.94    0.18
  -7  -5  -6    0.89    0.13
  -7  -5  -6    1.47    0.13
   7   5   6    1.77    0.14
   7   5   6    1.10    0.11
   7   5   6    1.25    0.12
  -7  -5  -7    1.91    0.15
  -7  -5  -7    2.28    0.14
   7   5   7    1.81    0.15
   7   5   7    2.04    0.13
   7   5   7    2.01    0.14
  -7  -5  -8    0.24    0.13
  -7  -5  -8    0.17    0.11
   7   5   8    0.38    0.14
   7   5   8    0.42    0.13
  -7  -5  -9    0.52    0.14
  -7  -5  -9    0.81    0.13
   7   5   9    0.09    0.13
   7   5   9    0.19    0.12
  -7  -5 -10    1.44    0.17
   7   5  10    1.62    0.18
   7   5  11   17.09    0.31
   7   6  -2   19.48    0.33
   7   6  -1    4.79    0.22
   7   6   0    1.97    0.19
   7   6   1    7.84    0.22
  -7  -6  -2    3.38    0.14
   7   6   2    3.74    0.18
  -7  -6  -3   50.22    0.37
  -7  -6  -3   46.25    0.36
   7   6   3   52.56    0.38
  -7  -6  -4   13.80    0.21
  -7  -6  -4   12.86    0.21
   7   6   4   15.63    0.24
  -7  -6  -5   20.17    0.24
  -7  -6  -5   19.28    0.23
   7   6   5   21.34    0.26
  -7  -6  -6    0.65    0.13
  -7  -6  -6    0.55    0.12
  -7  -6  -6    1.27    0.12
   7   6   6    0.98    0.14
   7   6   6    0.54    0.11
  -7  -6  -7    0.41    0.13
  -7  -6  -7    0.17    0.11
   7   6   7    0.01    0.13
   7   6   7   -0.02    0.11
  -7  -6  -8   -0.16    0.12
  -7  -6  -8    0.32    0.11
   7   6   8   -0.08    0.13
   7   6   8    0.08    0.12
  -7  -6  -9    0.55    0.14
   7   6   9    1.23    0.17
  -7  -6 -10    0.61    0.15
   7   6  10   -0.07    0.15
  -7  -6 -11    0.73    0.16
   7   6  11    1.07    0.20
   7   7  -1    0.15    0.17
   7   7   0    5.22    0.23
   7   7   1   18.24    0.30
   7   7   2    4.76    0.20
  -7  -7  -4    1.57    0.19
   7   7   4    1.70    0.18
  -7  -7  -5    0.06    0.10
   7   7   5    0.25    0.14
  -7  -7  -6    0.33    0.11
   7   7   6    0.53    0.15
  -7  -7  -7    0.48    0.14
   7   7   7    0.37    0.15
  -7  -7  -8   -0.15    0.11
   7   7   8    0.56    0.17
  -7  -7  -9    0.69    0.15
   7   7   9    1.70    0.20
  -7  -7 -10   -0.33    0.12
   7   7  10    0.46    0.19
   7   8   1    2.33    0.21
   7   8   2    0.31    0.16
   7   8   3    0.80    0.16
   7   8   5    6.40    0.24
   7   8   6    9.51    0.26
   7   8   7    0.99    0.18
  -7  -8  -8    7.60    0.21
   7   8   8    7.20    0.27
  -7  -8  -9    0.40    0.15
   7   8   9    0.97    0.20
   7   8  10    0.09    0.21
   7   9   3   12.87    0.29
   7   9   4    3.59    0.22
   7   9   5    0.50    0.18
   7   9   7    0.80    0.20
  -7  -9  -8    1.40    0.17
   7   9   8    2.33    0.26
  -8   2   0    0.68    0.18
  -8   2  -3    1.04    0.22
  -8   2  -4    6.23    0.30
  -8   1   2    2.21    0.17
  -8   1   1    4.05    0.20
  -8   1   0   13.72    0.27
  -8   1  -1    7.70    0.24
  -8   1  -2    0.81    0.18
  -8   1  -3    0.11    0.17
  -8   1  -4   -0.07    0.16
  -8   1  -5    0.75    0.18
  -8   0   2    1.52    0.16
  -8   0   2    1.20    0.12
   8   0  -2    1.09    0.17
   8   0  -2    2.80    0.19
  -8   0   1   13.95    0.26
  -8   0   0    5.31    0.20
  -8   0  -1    3.37    0.18
  -8   0  -2   -0.03    0.13
  -8   0  -3    0.18    0.14
  -8   0  -5    1.83    0.20
  -8   0  -6    3.21    0.23
  -8   0  -7    6.39    0.26
  -8  -1   2    0.34    0.15
  -8  -1   2    1.06    0.13
   8   1  -2    0.70    0.15
  -8  -1   1    1.80    0.16
  -8  -1   1    1.51    0.11
   8   1  -1    1.61    0.16
   8   1  -1    3.63    0.17
  -8  -1   0    1.65    0.16
  -8  -1  -1    1.47    0.15
  -8  -1  -2    9.65    0.22
  -8  -1  -3    0.31    0.14
  -8  -1  -4   10.53    0.23
  -8  -1  -5    0.83    0.17
  -8  -1  -6    0.43    0.17
  -8  -2   2    0.51    0.11
   8   2  -2   -0.12    0.15
  -8  -2   1    2.94    0.18
  -8  -2   1    2.01    0.12
   8   2  -1    2.35    0.17
   8   2  -1    2.27    0.15
  -8  -2   0   -0.02    0.14
  -8  -2   0    0.07    0.09
   8   2   0    0.30    0.12
   8   2   0    0.36    0.12
  -8  -2  -1    7.88    0.21
  -8  -2  -2   17.13    0.27
  -8  -2  -3    3.09    0.17
  -8  -2  -4    0.12    0.12
  -8  -2  -5    1.68    0.15
  -8  -2  -6    0.70    0.16
  -8  -2  -7    1.78    0.19
  -8  -2  -8   -0.13    0.16
  -8  -3   2    1.77    0.14
   8   3  -2    1.93    0.20
  -8  -3   1    4.13    0.16
   8   3  -1    5.51    0.21
  -8  -3   0    1.03    0.12
   8   3   0    1.61    0.16
   8   3   0    1.47    0.13
  -8  -3  -1   13.62    0.25
  -8  -3  -1   13.54    0.19
   8   3   1   17.55    0.22
   8   3   1   14.59    0.20
  -8  -3  -2   26.88    0.32
  -8  -3  -2   27.69    0.23
  -8  -3  -2   25.36    0.23
  -8  -3  -3    0.91    0.15
  -8  -3  -4    6.70    0.20
  -8  -3  -5    3.00    0.16
  -8  -3  -6    0.16    0.12
  -8  -3  -7    0.33    0.15
  -8  -3  -8    2.09    0.19
  -8  -3  -9    0.04    0.18
  -8  -3  -9    0.47    0.12
   8   3   9    0.31    0.13
   8   3   9    0.50    0.16
  -8  -3 -10    0.43    0.13
   8   3  10    0.44    0.17
   8   3  10    0.86    0.19
   8   4  -2   18.87    0.33
  -8  -4   1    2.18    0.15
   8   4  -1    3.81    0.21
  -8  -4   0    6.55    0.17
   8   4   0    9.25    0.23
  -8  -4  -1    1.14    0.13
  -8  -4  -1    1.30    0.13
   8   4   1    1.44    0.16
   8   4   1    1.15    0.12
  -8  -4  -2    2.87    0.13
  -8  -4  -2    2.35    0.13
   8   4   2    3.09    0.15
   8   4   2    2.65    0.13
  -8  -4  -3   -0.01    0.11
  -8  -4  -3    0.14    0.09
  -8  -4  -3    1.06    0.12
   8   4   3   -0.05    0.10
  -8  -4  -4   -0.04    0.12
  -8  -4  -4   -0.01    0.09
   8   4   4    0.46    0.10
   8   4   4    0.24    0.11
  -8  -4  -5    1.64    0.15
  -8  -4  -5    1.29    0.10
  -8  -4  -5    2.27    0.14
   8   4   5    1.21    0.12
  -8  -4  -6   -0.31    0.12
  -8  -4  -6    0.17    0.09
   8   4   6    0.17    0.10
  -8  -4  -7    0.27    0.12
   8   4   7   -0.10    0.10
   8   4   7    0.14    0.12
   8   4   7    0.00    0.12
  -8  -4  -8    2.23    0.18
  -8  -4  -8    1.93    0.15
   8   4   8    2.39    0.15
   8   4   8    2.83    0.16
   8   4   8    2.20    0.17
  -8  -4  -9    0.48    0.13
   8   4   9    0.03    0.13
   8   4   9    0.25    0.14
   8   4   9    0.68    0.17
  -8  -4 -10    1.62    0.22
  -8  -4 -10    1.30    0.17
   8   4  10    1.24    0.17
   8   4  10    2.30    0.20
   8   5  -1    2.76    0.22
  -8  -5   0    0.19    0.12
   8   5   0    0.70    0.17
  -8  -5  -1    1.24    0.14
  -8  -5  -1    1.21    0.13
   8   5   1    1.69    0.18
  -8  -5  -2    4.45    0.16
  -8  -5  -2    3.93    0.16
   8   5   2    4.99    0.19
  -8  -5  -3    3.26    0.14
  -8  -5  -3    2.70    0.14
   8   5   3    3.32    0.17
   8   5   3    3.24    0.15
  -8  -5  -4   10.32    0.18
  -8  -5  -4   10.20    0.18
   8   5   4   10.25    0.21
   8   5   4   11.14    0.20
  -8  -5  -5   20.51    0.29
  -8  -5  -5   23.39    0.24
  -8  -5  -5   21.74    0.24
   8   5   5   25.18    0.27
   8   5   5   25.84    0.26
  -8  -5  -6    4.33    0.19
  -8  -5  -6    3.22    0.13
  -8  -5  -6    3.98    0.16
   8   5   6    3.90    0.16
   8   5   6    4.82    0.16
   8   5   6    2.50    0.14
  -8  -5  -7    3.29    0.19
  -8  -5  -7    3.15    0.16
   8   5   7    3.78    0.17
   8   5   7    3.40    0.16
   8   5   7    2.92    0.16
  -8  -5  -8    3.16    0.18
  -8  -5  -8    3.70    0.18
   8   5   8    3.28    0.17
   8   5   8    2.46    0.17
  -8  -5  -9   -0.40    0.15
  -8  -5  -9    0.27    0.14
   8   5   9    0.37    0.15
   8   5   9    0.48    0.15
  -8  -5 -10   -0.48    0.17
  -8  -5 -10    0.79    0.16
   8   5  10    0.26    0.15
   8   5  10    0.78    0.17
   8   6   0    9.46    0.27
   8   6   1    2.62    0.20
  -8  -6  -2    7.58    0.19
   8   6   2    7.59    0.22
  -8  -6  -3    0.81    0.13
  -8  -6  -3    0.72    0.13
   8   6   3    0.44    0.15
  -8  -6  -4   18.96    0.25
  -8  -6  -4   17.08    0.24
   8   6   4   20.42    0.28
  -8  -6  -5   15.55    0.23
  -8  -6  -5   14.78    0.22
   8   6   5   19.23    0.27
  -8  -6  -6    1.95    0.18
  -8  -6  -6    1.81    0.14
  -8  -6  -6    3.39    0.17
   8   6   6    1.85    0.18
  -8  -6  -7    5.49    0.20
  -8  -6  -7    3.97    0.15
  -8  -6  -7    4.85    0.17
   8   6   7    4.47    0.20
   8   6   7    4.10    0.16
  -8  -6  -8    0.27    0.16
  -8  -6  -8    0.59    0.13
   8   6   8    0.60    0.16
   8   6   8    0.12    0.12
  -8  -6  -9    0.37    0.17
   8   6   9   -0.17    0.15
  -8  -6 -10    0.01    0.17
   8   6  10   -0.22    0.16
   8   7   1    5.10    0.24
   8   7   2    0.14    0.15
   8   7   3    1.18    0.17
   8   7   4    0.63    0.16
  -8  -7  -5    0.98    0.14
   8   7   5    0.98    0.17
  -8  -7  -6    1.14    0.15
   8   7   6    1.07    0.17
  -8  -7  -7    0.52    0.12
   8   7   7    0.03    0.16
  -8  -7  -8    7.62    0.24
   8   7   8    6.56    0.25
  -8  -7  -9    5.06    0.21
   8   7   9    5.18    0.26
   8   8   3    2.09    0.21
   8   8   4    0.18    0.17
   8   8   5    4.94    0.24
   8   8   6    1.46    0.20
  -8  -8  -7    0.64    0.18
   8   8   7    0.64    0.19
  -8  -8  -8    1.56    0.21
   8   8   8    2.08    0.24
  -9   0  -1    4.90    0.24
  -9   0  -2    2.44    0.23
  -9   0  -3    3.14    0.23
  -9   0  -4    0.05    0.20
  -9  -1   0    2.43    0.20
  -9  -1  -1    0.38    0.17
  -9  -1  -2    0.32    0.19
  -9  -1  -3    0.97    0.20
  -9  -1  -4    1.26    0.22
  -9  -1  -5    0.92    0.21
  -9  -1  -6   -0.38    0.17
  -9  -2   0    0.03    0.16
  -9  -2   0    0.42    0.10
   9   2   0    0.73    0.16
  -9  -2  -1    4.77    0.22
  -9  -2  -2    3.70    0.21
  -9  -2  -3   -0.07    0.16
  -9  -2  -4   10.61    0.27
  -9  -2  -5    0.17    0.18
  -9  -2  -6    0.99    0.21
  -9  -2  -7    0.50    0.21
  -9  -3   0    3.16    0.21
  -9  -3   0    2.81    0.14
   9   3   0    3.39    0.19
  -9  -3  -1    1.12    0.19
  -9  -3  -1    0.90    0.12
  -9  -3  -1    0.96    0.12
   9   3   1    1.27    0.16
   9   3   1    1.33    0.16
  -9  -3  -2   -0.30    0.15
  -9  -3  -3    0.79    0.17
  -9  -3  -4    5.59    0.23
  -9  -3  -5    2.42    0.19
  -9  -3  -6    0.60    0.18
  -9  -3  -7    0.56    0.19
  -9  -3  -8    2.11    0.25
  -9  -4   0    0.53    0.13
   9   4   0   -0.15    0.15
  -9  -4  -1    2.34    0.15
  -9  -4  -1    2.87    0.15
   9   4   1    3.21    0.19
  -9  -4  -2    0.14    0.16
  -9  -4  -2    1.52    0.14
  -9  -4  -2    0.47    0.12
   9   4   2    0.62    0.14
   9   4   2    0.20    0.14
  -9  -4  -3    7.90    0.25
  -9  -4  -3    6.41    0.16
  -9  -4  -3    6.20    0.16
   9   4   3    7.56    0.18
   9   4   3    8.10    0.19
  -9  -4  -4    6.38    0.23
   9   4   4    7.13    0.18
  -9  -4  -5    1.86    0.21
  -9  -4  -6    0.23    0.17
  -9  -4  -7    1.00    0.21
  -9  -4  -8    1.51    0.22
  -9  -4  -9    1.17    0.15
  -9  -5  -1    0.94    0.15
   9   5   1    0.80    0.18
  -9  -5  -2    2.89    0.16
  -9  -5  -3    1.78    0.14
  -9  -5  -3    1.78    0.15
   9   5   3    1.42    0.17
  -9  -5  -4   -0.23    0.15
  -9  -5  -4   -0.08    0.11
  -9  -5  -4    0.49    0.12
   9   5   4   -0.13    0.13
  -9  -5  -5    5.41    0.23
  -9  -5  -5    6.16    0.16
  -9  -5  -5    6.10    0.18
   9   5   5    8.00    0.20
   9   5   5    7.50    0.21
  -9  -5  -6   -0.24    0.17
  -9  -5  -6    0.50    0.11
  -9  -5  -6    1.49    0.16
   9   5   6    0.44    0.13
   9   5   6    0.43    0.14
  -9  -5  -7    1.18    0.20
  -9  -5  -7    0.67    0.12
  -9  -5  -7    1.64    0.16
   9   5   7    1.76    0.17
   9   5   7    2.18    0.19
   9   5   7    1.81    0.15
  -9  -5  -8    1.26    0.23
  -9  -5  -8    0.16    0.11
  -9  -5  -8    1.40    0.17
   9   5   8    0.73    0.15
   9   5   8    0.20    0.15
  -9  -5  -9    1.42    0.17
   9   5   9   -0.10    0.15
   9   5   9    1.53    0.19
   9   6   2    1.34    0.19
  -9  -6  -3    0.91    0.14
   9   6   3    0.71    0.17
  -9  -6  -4    0.35    0.12
  -9  -6  -4    0.65    0.13
   9   6   4    0.67    0.16
  -9  -6  -5   12.02    0.29
  -9  -6  -5   11.62    0.22
  -9  -6  -5   11.57    0.22
   9   6   5   15.40    0.27
  -9  -6  -6    2.46    0.21
  -9  -6  -6    2.23    0.15
  -9  -6  -6    2.68    0.18
   9   6   6    3.04    0.19
  -9  -6  -7    3.62    0.23
  -9  -6  -7    2.89    0.15
  -9  -6  -7    2.73    0.18
   9   6   7    3.68    0.20
  -9  -6  -8    1.03    0.20
  -9  -6  -8    1.28    0.14
  -9  -6  -8    1.43    0.17
   9   6   8    1.08    0.17
   9   6   8    1.10    0.16
   9   7   4    3.12    0.22
   9   7   5    2.48    0.21
  -9  -7  -6    0.76    0.21
  -9  -7  -6    0.84    0.15
   9   7   6    0.73    0.18
  -9  -7  -7   -0.11    0.19
  -9  -7  -7    0.12    0.13
   9   7   7    0.26    0.17
  -9  -7  -8    0.66    0.14
   0   0   0    0.00    0.00
;
_shelx_hkl_checksum              46399
loop_
_space_group_symop_operation_xyz
'x, y, z'
'-x, -y, -z'
loop_
_atom_site_label
_atom_site_type_symbol
_atom_site_fract_x
_atom_site_fract_y
_atom_site_fract_z
_atom_site_U_iso_or_equiv
_atom_site_adp_type
_atom_site_occupancy
_atom_site_site_symmetry_order
_atom_site_calc_flag
S1 S 0.73424(14) 0.51969(14) 0.06476(12) 0.0480(3) Uani 1 1 d
S2 S 0.52660(16) 0.75282(13) 0.12180(13) 0.0552(3) Uani 1 1 d
F2 F 0.4270(3) 0.1097(3) 0.2744(3) 0.0499(6) Uani 1 1 d
F3 F 0.2102(3) -0.1053(3) 0.5013(3) 0.0498(6) Uani 1 1 d
F6 F 0.2217(4) 0.5150(3) 0.5788(3) 0.0538(6) Uani 1 1 d
F5 F 0.0087(4) 0.2950(4) 0.8046(3) 0.0571(7) Uani 1 1 d
N1 N 0.6178(4) 0.3680(4) 0.2017(4) 0.0408(7) Uani 1 1 d
N2 N 0.3827(5) 0.6308(4) 0.2639(4) 0.0456(8) Uani 1 1 d
C1 C 0.3323(4) 0.3237(4) 0.4157(4) 0.0293(7) Uani 1 1 d
C0 C 0.4506(5) 0.4471(4) 0.2876(4) 0.0301(7) Uani 1 1 d
C3 C 0.2143(5) 0.0465(4) 0.5207(4) 0.0325(7) Uani 1 1 d
C2 C 0.3256(5) 0.1602(5) 0.4032(4) 0.0320(7) Uani 1 1 d
C4 C 0.1029(5) 0.0889(5) 0.6592(4) 0.0344(7) Uani 1 1 d
C6 C 0.2212(5) 0.3642(5) 0.5548(4) 0.0343(7) Uani 1 1 d
N3 N -0.1143(5) -0.1198(5) 0.8710(4) 0.0591(10) Uani 1 1 d
C5 C 0.1102(5) 0.2503(5) 0.6732(4) 0.0359(7) Uani 1 1 d
C7 C -0.0171(5) -0.0273(5) 0.7784(4) 0.0417(8) Uani 1 1 d
loop_
_atom_site_aniso_label
_atom_site_aniso_U_11
_atom_site_aniso_U_22
_atom_site_aniso_U_33
_atom_site_aniso_U_23
_atom_site_aniso_U_13
_atom_site_aniso_U_12
S1 0.0400(5) 0.0384(5) 0.0480(6) -0.0105(4) 0.0102(4) -0.0170(4)
S2 0.0528(6) 0.0276(5) 0.0559(6) -0.0024(4) 0.0100(5) -0.0157(4)
F2 0.0634(14) 0.0487(13) 0.0413(12) -0.0254(10) 0.0087(10) -0.0285(11)
F3 0.0605(14) 0.0338(11) 0.0596(14) -0.0158(10) -0.0075(11) -0.0238(10)
F6 0.0768(17) 0.0442(13) 0.0476(13) -0.0234(11) 0.0046(11) -0.0344(12)
F5 0.0656(15) 0.0682(16) 0.0373(12) -0.0248(12) 0.0113(11) -0.0329(13)
N1 0.0362(15) 0.0304(15) 0.0459(18) -0.0119(13) 0.0046(13) -0.0138(12)
N2 0.0403(17) 0.0288(15) 0.0465(18) -0.0079(13) 0.0078(14) -0.0105(13)
C1 0.0276(15) 0.0289(15) 0.0312(16) -0.0072(13) -0.0068(13) -0.0104(12)
C0 0.0302(16) 0.0278(15) 0.0299(16) -0.0055(13) -0.0061(13) -0.0107(13)
C3 0.0353(17) 0.0248(15) 0.0388(18) -0.0072(13) -0.0110(14) -0.0113(13)
C2 0.0323(16) 0.0305(16) 0.0314(17) -0.0108(13) -0.0041(13) -0.0094(13)
C4 0.0296(16) 0.0336(17) 0.0324(17) -0.0022(14) -0.0046(13) -0.0126(14)
C6 0.0393(18) 0.0296(16) 0.0335(17) -0.0092(13) -0.0034(14) -0.0153(14)
N3 0.048(2) 0.049(2) 0.058(2) 0.0052(17) -0.0029(17) -0.0245(17)
C5 0.0341(17) 0.0399(18) 0.0315(17) -0.0121(14) -0.0036(14) -0.0115(14)
C7 0.0361(18) 0.0380(19) 0.043(2) -0.0038(16) -0.0079(16) -0.0131(15)
loop_
_atom_type_symbol
_atom_type_description
_atom_type_scat_dispersion_real
_atom_type_scat_dispersion_imag
_atom_type_scat_source
C C 0.0033 0.0016 'International Tables Vol C Tables 4.2.6.8 and 6.1.1.4'
N N 0.0061 0.0033 'International Tables Vol C Tables 4.2.6.8 and 6.1.1.4'
F F 0.0171 0.0103 'International Tables Vol C Tables 4.2.6.8 and 6.1.1.4'
S S 0.1246 0.1234 'International Tables Vol C Tables 4.2.6.8 and 6.1.1.4'
loop_
_geom_angle_atom_site_label_1
_geom_angle_atom_site_label_2
_geom_angle_atom_site_label_3
_geom_angle
N1 S1 S2 94.72(11)
N2 S2 S1 94.36(12)
C0 N1 S1 113.5(2)
C0 N2 S2 114.0(2)
C6 C1 C2 116.2(3)
C6 C1 C0 122.0(3)
C2 C1 C0 121.8(3)
N2 C0 N1 123.3(3)
N2 C0 C1 118.2(3)
N1 C0 C1 118.5(3)
F3 C3 C2 119.6(3)
F3 C3 C4 119.2(3)
C2 C3 C4 121.2(3)
F2 C2 C3 117.3(3)
F2 C2 C1 120.6(3)
C3 C2 C1 122.1(3)
C5 C4 C3 117.1(3)
C5 C4 C7 122.3(3)
C3 C4 C7 120.6(3)
F6 C6 C5 117.5(3)
F6 C6 C1 120.5(3)
C5 C6 C1 122.0(3)
F5 C5 C6 119.3(3)
F5 C5 C4 119.2(3)
C6 C5 C4 121.5(3)
N3 C7 C4 178.5(5)
loop_
_geom_bond_atom_site_label_1
_geom_bond_atom_site_label_2
_geom_bond_distance
S1 N1 1.641(3)
S1 S2 2.0750(14)
S2 N2 1.638(3)
F2 C2 1.334(4)
F3 C3 1.330(4)
F6 C6 1.335(4)
F5 C5 1.333(4)
N1 C0 1.327(4)
N2 C0 1.325(4)
C1 C6 1.393(5)
C1 C2 1.399(5)
C1 C0 1.486(4)
C3 C2 1.377(5)
C3 C4 1.395(5)
C4 C5 1.392(5)
C4 C7 1.433(5)
C6 C5 1.379(5)
N3 C7 1.141(5)
