#------------------------------------------------------------------------------
#$Date: 2017-01-05 03:58:03 +0200 (Thu, 05 Jan 2017) $
#$Revision: 189857 $
#$URL: file:///home/coder/svn-repositories/cod/cif/4/12/53/4125398.cif $
#------------------------------------------------------------------------------
#
# This file is available in the Crystallography Open Database (COD),
# http://www.crystallography.net/
#
# All data on this site have been placed in the public domain by the
# contributors.
#
data_4125398
loop_
_publ_author_name
'Beldjoudi, Yassine'
'Arauzo, Ana'
'Palacio, Fernando'
'Pilkington, Melanie'
'Rawson, Jeremy M.'
_publ_section_title
;
 Studies on a &quot;Disappearing Polymorph&quot;: Thermal and Magnetic
 Characterization of \a-p-NCC6F4CNSSN(&#x2022;).
;
_journal_issue                   51
_journal_name_full               'Journal of the American Chemical Society'
_journal_page_first              16779
_journal_page_last               16786
_journal_paper_doi               10.1021/jacs.6b10707
_journal_volume                  138
_journal_year                    2016
_chemical_formula_moiety         'C8 F4 N3 S2'
_chemical_formula_sum            'C8 F4 N3 S2'
_chemical_formula_weight         278.23
_chemical_name_systematic
;
 ?
;
_space_group_crystal_system      triclinic
_space_group_IT_number           2
_space_group_name_Hall           '-P 1'
_space_group_name_H-M_alt        'P -1'
_symmetry_space_group_name_Hall  '-P 1'
_symmetry_space_group_name_H-M   'P -1'
_atom_sites_solution_primary     direct
_audit_creation_method           SHELXL-2013
_cell_angle_alpha                65.799(3)
_cell_angle_beta                 69.047(4)
_cell_angle_gamma                67.515(3)
_cell_formula_units_Z            2
_cell_length_a                   7.5808(7)
_cell_length_b                   8.0566(7)
_cell_length_c                   9.5091(9)
_cell_measurement_reflns_used    9932
_cell_measurement_temperature    173(2)
_cell_measurement_theta_max      30.59
_cell_measurement_theta_min      2.99
_cell_volume                     475.36(8)
_computing_cell_refinement       'Bruker SAINT'
_computing_data_collection       'Bruker APEX2'
_computing_data_reduction        'Bruker SAINT'
_computing_molecular_graphics    'Bruker SHELXTL'
_computing_publication_material  'Bruker SHELXTL'
_computing_structure_refinement  'SHELXL-2013 (Sheldrick 2013)'
_computing_structure_solution    'SHELXS-97 (Sheldrick 2008)'
_diffrn_ambient_temperature      173(2)
_diffrn_measured_fraction_theta_full 0.991
_diffrn_measured_fraction_theta_max 0.992
_diffrn_measurement_device_type  'Bruker APEX-II CCD'
_diffrn_measurement_method       'phi and omega scans'
_diffrn_radiation_type           MoK\a
_diffrn_radiation_wavelength     0.71073
_diffrn_reflns_av_R_equivalents  0.0387
_diffrn_reflns_av_unetI/netI     0.0225
_diffrn_reflns_Laue_measured_fraction_full 0.991
_diffrn_reflns_Laue_measured_fraction_max 0.992
_diffrn_reflns_limit_h_max       9
_diffrn_reflns_limit_h_min       -9
_diffrn_reflns_limit_k_max       10
_diffrn_reflns_limit_k_min       -10
_diffrn_reflns_limit_l_max       12
_diffrn_reflns_limit_l_min       -12
_diffrn_reflns_number            15325
_diffrn_reflns_point_group_measured_fraction_full 0.991
_diffrn_reflns_point_group_measured_fraction_max 0.992
_diffrn_reflns_theta_full        25.242
_diffrn_reflns_theta_max         27.499
_diffrn_reflns_theta_min         2.994
_diffrn_source                   'fine-focus sealed tube'
_exptl_absorpt_coefficient_mu    0.598
_exptl_absorpt_correction_T_max  0.7461
_exptl_absorpt_correction_T_min  0.6724
_exptl_absorpt_correction_type   multi-scan
_exptl_absorpt_process_details   sadabs
_exptl_crystal_colour            black
_exptl_crystal_density_diffrn    1.944
_exptl_crystal_description       block
_exptl_crystal_F_000             274
_exptl_crystal_size_max          0.350
_exptl_crystal_size_mid          0.250
_exptl_crystal_size_min          0.120
_refine_diff_density_max         1.138
_refine_diff_density_min         -0.655
_refine_diff_density_rms         0.149
_refine_ls_extinction_method     none
_refine_ls_goodness_of_fit_ref   1.207
_refine_ls_hydrogen_treatment    undef
_refine_ls_matrix_type           full
_refine_ls_number_parameters     154
_refine_ls_number_reflns         2176
_refine_ls_number_restraints     0
_refine_ls_restrained_S_all      1.207
_refine_ls_R_factor_all          0.0671
_refine_ls_R_factor_gt           0.0628
_refine_ls_shift/su_max          0.000
_refine_ls_shift/su_mean         0.000
_refine_ls_structure_factor_coef Fsqd
_refine_ls_weighting_details
'w=1/[\s^2^(Fo^2^)+5.3156P] where P=(Fo^2^+2Fc^2^)/3'
_refine_ls_weighting_scheme      calc
_refine_ls_wR_factor_gt          0.1833
_refine_ls_wR_factor_ref         0.1865
_reflns_Friedel_coverage         0.000
_reflns_number_gt                1987
_reflns_number_total             2176
_reflns_threshold_expression     'I > 2\s(I)'
_cod_data_source_file            ja6b10707_si_001.cif
_cod_data_source_block           YBalpha_minus100C
_cod_database_code               4125398
_shelx_space_group_comment
;
The symmetry employed for this shelxl refinement is uniquely defined
by the following loop, which should always be used as a source of
symmetry information in preference to the above space-group names.
They are only intended as comments.
;
_shelx_estimated_absorpt_t_min   0.818
_shelx_estimated_absorpt_t_max   0.932
_shelxl_version_number           2013-3
_shelx_res_file
;
TITL mo_YB143_0m in P-1
CELL 0.71073   7.58080   8.05660   9.50910  65.7990  69.0473  67.5147
ZERR    2.00   0.00070   0.00070   0.00090   0.0034   0.0036   0.0033
LATT  1
SFAC C N F S
UNIT 16 6 8 4
TEMP -100.040
OMIT -3 55
SIZE 0.35 0.25 0.12
L.S. 4
ACTA
LIST
BOND
FMAP 2
PLAN 10
WGHT    0.000000    5.315600
FVAR       0.21834
C0    1    0.951370    0.949100    1.787298    11.00000    0.01418    0.01371 =
         0.01883   -0.00294   -0.00240   -0.00676
S1    4    1.236186    1.020584    1.562431    11.00000    0.01843    0.01877 =
         0.02337   -0.00610    0.00434   -0.00754
C1    1    0.832351    0.825874    1.916740    11.00000    0.01530    0.01585 =
         0.01491   -0.00354   -0.00268   -0.00646
N1    2    1.118304    0.869357    1.699619    11.00000    0.02023    0.01888 =
         0.02158   -0.00481    0.00102   -0.00979
S2    4    1.029208    1.255610    1.622958    11.00000    0.02529    0.01450 =
         0.02692   -0.00237    0.00416   -0.00762
F2    3    0.717919    1.018990    2.079945    11.00000    0.03159    0.01890 =
         0.02400   -0.01253    0.00226   -0.01415
N2    2    0.884816    1.134012    1.765440    11.00000    0.02116    0.01514 =
         0.02247   -0.00447    0.00379   -0.00716
C2    1    0.720033    0.866737    2.055336    11.00000    0.01999    0.01419 =
         0.01938   -0.00574   -0.00289   -0.00618
F3    3    0.505051    0.798169    2.305939    11.00000    0.02882    0.03389 =
         0.01878   -0.01328    0.00524   -0.01365
C3    1    0.608631    0.751759    2.175173    11.00000    0.01764    0.01931 =
         0.01761   -0.00706   -0.00196   -0.00589
C4    1    0.602060    0.589920    2.160233    11.00000    0.01366    0.01591 =
         0.01863   -0.00343   -0.00217   -0.00426
F5    3    0.711703    0.394051    2.000643    11.00000    0.02977    0.01653 =
         0.02828   -0.00800   -0.00368   -0.01091
C5    1    0.713492    0.547192    2.020246    11.00000    0.01646    0.01116 =
         0.01641   -0.00339   -0.00313   -0.00553
F6    3    0.929726    0.608547    1.773612    11.00000    0.02836    0.02526 =
         0.01924   -0.01277    0.00473   -0.01291
C6    1    0.826449    0.660541    1.903187    11.00000    0.01748    0.01581 =
         0.01507   -0.00594   -0.00223   -0.00427
C7    1    0.480895    0.474059    2.279143    11.00000    0.02151    0.01728 =
         0.01904   -0.00054   -0.00586   -0.00599
N3    2    0.382388    0.380699    2.371377    11.00000    0.02316    0.02445 =
         0.02644    0.00028   -0.00296   -0.01020

HKLF 4

REM  mo_YB143_0m in P-1
REM R1 =  0.0628 for    1987 Fo > 4sig(Fo)  and  0.0671 for all    2176 data
REM    154 parameters refined using      0 restraints

END

WGHT      0.0000      5.3205

REM Highest difference peak  1.138,  deepest hole -0.655,  1-sigma level  0.149
Q1    1   0.8040  0.9147  1.8104  11.00000  0.05    1.14
Q2    1   0.8459  0.8663  2.2000  11.00000  0.05    0.81
Q3    1   0.3487  0.9045  2.3229  11.00000  0.05    0.68
Q4    1   1.2404  0.5076  1.6269  11.00000  0.05    0.67
Q5    1   0.9231  0.8111  2.0018  11.00000  0.05    0.63
Q6    1   1.0238  0.7112  1.7309  11.00000  0.05    0.63
Q7    1   0.7328  0.5217  2.2446  11.00000  0.05    0.56
Q8    1   0.7430  0.9973  2.1916  11.00000  0.05    0.54
Q9    1   1.3930  0.8439  1.5683  11.00000  0.05    0.53
Q10   1   0.6749  1.0750  1.8172  11.00000  0.05    0.52
;
_shelx_res_checksum              16203
_shelx_hkl_file
;
  -1   0   0   16.36    0.81
  -1   0   0   17.08    0.80
  -2   0   0    1.53    0.10
  -2   0   0    1.68    0.10
   2   0   0    1.52    0.10
   2   0   0    1.41    0.09
  -3   0   0    3.49    0.27
  -3   0   0    3.37    0.20
  -3   0   0    3.75    0.20
  -3   0   0    3.50    0.20
  -3   0   0    3.57    0.20
   3   0   0    3.48    0.19
   3   0   0    4.17    0.20
   3   0   0    3.44    0.20
   3   0   0    3.68    0.19
  -4   0   0   29.20    2.08
  -4   0   0   30.96    1.57
  -4   0   0   32.33    1.57
  -4   0   0   32.34    1.59
  -4   0   0   33.16    1.59
   4   0   0   35.16    1.59
   4   0   0   34.43    1.57
   4   0   0   30.17    1.59
   4   0   0   34.23    1.57
  -5   0   0    2.71    0.18
  -5   0   0    2.40    0.18
  -5   0   0    2.54    0.24
  -5   0   0    2.43    0.17
  -5   0   0    2.58    0.17
   5   0   0    2.71    0.17
   5   0   0    2.69    0.17
   5   0   0    2.50    0.17
   5   0   0    2.83    0.17
  -6   0   0    3.22    0.21
  -6   0   0    2.70    0.28
  -6   0   0    3.03    0.20
  -6   0   0    3.31    0.21
  -6   0   0    2.96    0.21
   6   0   0    2.86    0.20
   6   0   0    3.10    0.20
   6   0   0    2.56    0.19
   6   0   0    3.11    0.22
   6   0   0    3.18    0.20
  -7   0   0    0.04    0.07
  -7   0   0    0.09    0.08
   7   0   0   -0.08    0.07
   7   0   0   -0.05    0.07
   7   0   0    0.12    0.08
  -8   0   0    4.15    0.30
  -8   0   0    3.94    0.45
  -8   0   0    4.15    0.31
   8   0   0    4.83    0.29
   8   0   0    4.61    0.31
   8   0   0    4.69    0.28
   8   0   0    4.24    0.33
   8   0   0    4.41    0.30
  -9   0   0    5.40    0.38
  -9   0   0    5.28    0.37
   9   0   0    5.35    0.35
   9   0   0    5.60    0.35
   9   0   0    5.66    0.42
   8  -1   0   15.31    0.78
   8  -1   0   15.29    0.76
   8  -1   0   15.34    0.76
   8  -1   0   14.64    0.77
   8  -1   0   15.36    0.89
  -8   1   0   14.53    0.80
   7  -1   0    2.16    0.18
   7  -1   0    2.27    0.18
   7  -1   0    2.24    0.19
   7  -1   0    1.98    0.17
   7  -1   0    2.04    0.17
  -7   1   0    1.89    0.19
  -7   1   0    2.38    0.20
  -7   1   0    2.12    0.20
  -7   1   0    2.03    0.29
  -7   1   0    2.28    0.20
   6  -1   0    5.39    0.34
   6  -1   0    6.14    0.39
   6  -1   0    5.98    0.33
   6  -1   0    6.49    0.33
   6  -1   0    6.86    0.34
  -6   1   0    6.44    0.36
  -6   1   0    6.45    0.35
  -6   1   0    5.84    0.48
  -6   1   0    6.56    0.35
  -6   1   0    6.14    0.35
   5  -1   0    7.09    0.34
   5  -1   0    5.85    0.33
   5  -1   0    6.62    0.38
   5  -1   0    6.45    0.33
   5  -1   0    5.89    0.33
  -5   1   0    6.03    0.34
  -5   1   0    6.11    0.34
  -5   1   0    6.55    0.34
  -5   1   0    6.21    0.47
  -5   1   0    6.05    0.34
   4  -1   0   10.60    0.58
   4  -1   0    9.39    0.49
   4  -1   0    9.83    0.50
   4  -1   0   11.02    0.50
   4  -1   0    9.29    0.50
  -4   1   0    9.68    0.51
  -4   1   0   10.28    0.51
  -4   1   0   10.05    0.50
  -4   1   0    9.30    0.50
   3  -1   0    1.86    0.13
   3  -1   0    1.84    0.11
   3  -1   0    1.62    0.11
   3  -1   0    1.84    0.11
   3  -1   0    1.80    0.11
  -3   1   0    2.00    0.12
  -3   1   0    1.84    0.12
  -3   1   0    1.76    0.12
  -3   1   0    1.80    0.12
  -3   1   0    2.12    0.18
   2  -1   0   50.94    2.41
   2  -1   0   47.37    2.41
   2  -1   0   50.24    2.38
   2  -1   0   51.26    3.15
   2  -1   0   49.64    2.38
  -2   1   0   47.57    3.15
  -2   1   0   47.76    2.38
  -2   1   0   48.81    2.41
  -2   1   0   51.23    2.38
  -2   1   0   51.91    2.41
   1  -1   0  166.08    7.99
   1  -1   0  182.56    8.10
   1  -1   0  164.08    8.10
   1  -1   0  166.09    7.99
  -1   1   0  168.77    7.99
  -1   1   0  168.91   10.60
  -1   1   0  157.09    9.36
  -1   1   0  175.03    8.11
  -1   1   0  159.48    8.10
  -1   1   0  159.28    8.00
  -1  -1   0   -0.08    0.03
  -1  -1   0   -0.05    0.03
   1   1   0   -0.03    0.03
   1   1   0   -0.01    0.03
  -2  -1   0   30.80    1.54
  -2  -1   0   31.61    1.52
  -2  -1   0   32.33    1.54
  -2  -1   0   32.63    1.52
   2   1   0   31.42    1.52
   2   1   0   30.94    1.54
   2   1   0   31.91    1.52
   2   1   0   30.39    1.54
  -3  -1   0   67.37    3.31
  -3  -1   0   66.35    3.26
   3   1   0   65.18    3.26
   3   1   0   67.30    3.31
   3   1   0   74.27    3.31
   3   1   0   67.57    3.26
  -4  -1   0   15.99    0.71
  -4  -1   0   12.93    0.70
   4   1   0   13.43    0.71
   4   1   0   14.01    0.71
   4   1   0   14.18    0.70
   4   1   0   14.42    0.70
  -5  -1   0    9.38    0.50
  -5  -1   0    9.85    0.49
   5   1   0    9.94    0.50
   5   1   0    9.95    0.50
   5   1   0    9.83    0.49
   5   1   0    8.44    0.49
  -6  -1   0   42.94    2.29
  -6  -1   0   43.36    2.32
   6   1   0   48.49    2.32
   6   1   0   48.47    2.32
   6   1   0   52.63    2.29
   6   1   0   47.52    2.29
  -7  -1   0    7.60    0.58
  -7  -1   0    7.80    0.44
  -7  -1   0    7.53    0.43
  -7  -1   0    7.89    0.43
  -7  -1   0    7.88    0.43
   7   1   0    7.94    0.43
   7   1   0    7.96    0.43
   7   1   0    7.90    0.42
   7   1   0    8.14    0.44
  -8  -1   0    1.35    0.16
  -8  -1   0    1.09    0.14
  -8  -1   0    1.39    0.16
  -8  -1   0    1.37    0.16
  -8  -1   0    0.97    0.21
   8   1   0    0.80    0.14
   8   1   0    1.19    0.16
   8   1   0    1.18    0.16
   8   1   0    1.08    0.15
   8   1   0    0.88    0.14
  -9  -1   0    1.38    0.19
  -9  -1   0    1.32    0.18
   9   1   0    1.20    0.18
   9   1   0    0.82    0.13
   9   1   0    1.31    0.20
   8  -2   0    0.64    0.17
   8  -2   0    0.51    0.16
  -8   2   0    0.52    0.14
  -8   2   0    0.54    0.14
   7  -2   0    0.08    0.12
   7  -2   0    0.07    0.05
   7  -2   0    0.03    0.06
   7  -2   0    0.07    0.11
   7  -2   0    0.06    0.06
   7  -2   0    0.01    0.05
   7  -2   0    0.01    0.07
  -7   2   0    0.12    0.10
  -7   2   0    0.04    0.14
  -7   2   0   -0.13    0.09
  -7   2   0    0.01    0.10
  -7   2   0   -0.11    0.09
   6  -2   0   15.67    0.96
   6  -2   0   15.63    0.79
   6  -2   0   16.93    0.94
   6  -2   0   16.07    0.81
   6  -2   0   15.62    0.81
   6  -2   0   16.73    0.80
  -6   2   0   16.61    0.83
  -6   2   0   15.90    0.83
  -6   2   0   16.85    0.82
  -6   2   0   16.30    0.82
   5  -2   0    0.43    0.05
   5  -2   0    0.51    0.07
   5  -2   0    0.48    0.06
   5  -2   0    0.38    0.06
   5  -2   0    0.33    0.05
  -5   2   0    0.41    0.08
  -5   2   0    0.40    0.08
  -5   2   0    0.41    0.11
   4  -2   0    7.25    0.36
   4  -2   0    7.70    0.37
   4  -2   0    7.19    0.36
   4  -2   0    7.12    0.42
   4  -2   0    7.31    0.37
  -4   2   0    7.38    0.38
  -4   2   0    6.93    0.38
  -4   2   0    7.12    0.52
  -4   2   0    6.77    0.37
  -4   2   0    7.78    0.38
   3  -2   0   53.04    3.59
   3  -2   0   56.25    2.70
   3  -2   0   59.18    2.70
   3  -2   0   57.89    2.73
   3  -2   0   58.21    2.73
  -3   2   0   57.02    2.70
  -3   2   0   55.06    2.74
  -3   2   0   52.56    3.59
  -3   2   0   58.06    2.70
  -3   2   0   55.76    2.74
   2  -2   0  162.02   10.45
   2  -2   0  165.33    8.02
   2  -2   0  162.13    7.91
  -2   2   0  164.36    9.29
  -2   2   0  171.70    8.04
  -2   2   0  174.28    8.04
  -2   2   0  171.21    7.93
  -2   2   0  168.84    7.93
  -2   2   0  147.62   10.44
   1  -2   0   30.21    1.85
   1  -2   0   27.01    1.41
   1  -2   0   28.90    1.39
   1  -2   0   29.03    1.41
  -1   2   0   30.53    1.39
  -1   2   0   30.27    1.80
  -1   2   0   27.08    1.41
   0  -2   0    9.73    0.60
   0  -2   0    9.09    0.58
   0  -2   0    9.39    0.45
   0  -2   0    9.90    0.45
   0   2   0    8.81    0.45
   0   2   0    8.50    0.45
   0   2   0    9.03    0.58
  -1  -2   0    6.39    0.33
  -1  -2   0    6.71    0.33
  -1  -2   0    6.62    0.33
  -1  -2   0    6.70    0.42
  -1  -2   0    6.33    0.33
   1   2   0    6.54    0.42
  -2  -2   0   89.63    4.27
  -2  -2   0   87.02    4.27
  -2  -2   0   83.65    4.21
  -2  -2   0   87.31    4.21
   2   2   0   92.13    4.27
   2   2   0   89.53    4.27
   2   2   0   89.63    4.21
   2   2   0   84.29    4.21
  -3  -2   0  113.14    5.55
  -3  -2   0  118.71    5.48
  -3  -2   0  116.69    5.48
  -3  -2   0  110.93    5.55
   3   2   0  109.22    5.55
   3   2   0  117.88    5.48
  -4  -2   0   11.80    0.54
  -4  -2   0   10.56    0.53
  -4  -2   0   10.36    0.54
  -4  -2   0   10.93    0.54
   4   2   0   10.86    0.54
   4   2   0    9.18    0.53
   4   2   0   10.28    0.54
   4   2   0   10.26    0.53
  -5  -2   0   23.58    1.18
  -5  -2   0   22.21    1.16
   5   2   0   23.50    1.16
   5   2   0   23.90    1.16
   5   2   0   25.84    1.18
   5   2   0   22.71    1.17
  -6  -2   0   17.06    0.90
  -6  -2   0   16.53    0.91
  -6  -2   0   19.34    0.91
  -6  -2   0   18.83    0.92
   6   2   0   18.81    0.90
   6   2   0   19.68    0.92
   6   2   0   17.58    0.90
   6   2   0   16.45    0.91
  -7  -2   0    5.79    0.35
  -7  -2   0    5.91    0.35
  -7  -2   0    6.06    0.35
  -7  -2   0    6.09    0.48
  -7  -2   0    6.73    0.36
   7   2   0    6.00    0.35
   7   2   0    5.74    0.36
   7   2   0    6.13    0.35
   7   2   0    6.18    0.35
  -8  -2   0    0.16    0.07
  -8  -2   0    0.01    0.07
  -8  -2   0    0.09    0.07
  -8  -2   0    0.07    0.08
  -9  -2   0    0.04    0.09
  -9  -2   0    0.14    0.10
  -9  -2   0    0.15    0.23
   9   2   0    0.13    0.17
   9   2   0    0.18    0.11
   9   2   0    0.18    0.11
   9   2   0    0.14    0.17
 -10  -2   0    0.37    0.12
 -10  -2   0    0.37    0.13
  10   2   0    0.32    0.21
  10   2   0    0.12    0.15
  10   2   0    0.11    0.14
   8  -3   0    1.35    0.25
   8  -3   0    0.95    0.20
  -8   3   0    1.25    0.18
  -8   3   0    1.38    0.19
   7  -3   0    4.83    0.35
   7  -3   0    4.73    0.39
  -7   3   0    3.90    0.31
  -7   3   0    4.42    0.33
   6  -3   0    3.19    0.28
   6  -3   0    3.81    0.32
  -6   3   0    4.17    0.25
  -6   3   0    3.59    0.33
  -6   3   0    3.92    0.25
  -6   3   0    3.32    0.24
  -6   3   0    3.33    0.25
   5  -3   0    9.04    0.64
   5  -3   0   10.87    0.73
  -5   3   0   10.90    0.55
  -5   3   0   10.92    0.55
  -5   3   0   10.84    0.55
  -5   3   0   10.89    0.55
   4  -3   0    0.68    0.12
   4  -3   0    0.88    0.11
   4  -3   0    0.89    0.17
  -4   3   0    0.62    0.13
  -4   3   0    0.66    0.10
  -4   3   0    0.62    0.10
  -4   3   0    0.68    0.10
  -4   3   0    0.69    0.10
   3  -3   0    7.95    0.55
   3  -3   0    8.14    0.53
  -3   3   0    8.47    0.39
  -3   3   0    7.60    0.39
  -3   3   0    7.09    0.40
  -3   3   0    7.12    0.54
  -3   3   0    7.58    0.40
   2  -3   0   36.37    2.64
  -2   3   0   40.63    2.01
  -2   3   0   44.64    2.01
  -2   3   0   40.20    1.98
  -2   3   0   43.13    1.98
  -2   3   0   41.68    2.32
  -2   3   0   42.24    2.64
   1  -3   0    5.28    0.36
   1  -3   0    5.10    0.25
   1  -3   0    4.93    0.25
  -1   3   0    5.03    0.36
  -1   3   0    4.91    0.26
  -1   3   0    5.09    0.36
  -1   3   0    4.90    0.26
  -1   3   0    5.13    0.26
  -1   3   0    4.99    0.26
   0  -3   0   10.03    0.47
   0  -3   0    9.27    0.46
   0  -3   0    8.91    0.61
   0  -3   0    9.69    0.46
   0  -3   0    9.95    0.47
   0   3   0    9.34    0.47
   0   3   0    9.50    0.47
   0   3   0    9.54    0.47
   0   3   0    9.47    0.47
   0   3   0    9.53    0.61
   1   3   0    9.72    0.63
  -2  -3   0   46.75    2.18
  -2  -3   0   44.16    2.18
  -2  -3   0   43.50    2.15
  -2  -3   0   47.16    2.15
  -2  -3   0   42.69    2.76
   2   3   0   45.94    2.18
   2   3   0   45.45    2.15
   2   3   0   42.73    2.15
   2   3   0   44.29    2.18
  -3  -3   0   42.60    2.04
  -3  -3   0   40.06    2.04
  -3  -3   0   40.48    2.06
  -3  -3   0   42.66    2.07
   3   3   0   41.29    2.07
   3   3   0   43.94    2.04
   3   3   0   42.20    2.07
   3   3   0   44.69    2.04
  -4  -3   0   26.14    1.31
  -4  -3   0   26.00    1.29
  -4  -3   0   26.09    1.31
  -4  -3   0   27.23    1.29
   4   3   0   26.97    1.29
   4   3   0   26.12    1.31
  -5  -3   0   10.86    0.55
  -5  -3   0   10.11    0.54
  -5  -3   0   10.66    0.55
  -5  -3   0   10.43    0.55
   5   3   0   11.57    0.55
   5   3   0    9.94    0.54
  -6  -3   0   25.81    1.35
  -6  -3   0   25.27    1.33
   6   3   0   26.56    1.33
   6   3   0   27.16    1.33
   6   3   0   30.45    1.35
   6   3   0   26.99    1.35
  -7  -3   0    0.95    0.14
  -7  -3   0    1.22    0.15
   7   3   0    1.07    0.14
   7   3   0    0.97    0.14
  -8  -3   0    1.74    0.16
  -8  -3   0    1.60    0.16
  -8  -3   0    1.20    0.16
  -8  -3   0    1.78    0.16
  -8  -3   0    1.52    0.29
   8   3   0    1.22    0.16
   8   3   0    1.59    0.16
   8   3   0    1.32    0.16
   8   3   0    1.41    0.16
  -9  -3   0    1.66    0.19
  -9  -3   0    2.25    0.44
  -9  -3   0    1.57    0.19
   9   3   0    2.08    0.31
   9   3   0    1.83    0.21
   9   3   0    1.30    0.21
   9   3   0    1.73    0.20
 -10  -3   0    0.16    0.11
 -10  -3   0   -0.16    0.11
  10   3   0    0.17    0.15
  10   3   0    0.02    0.14
   7  -4   0    1.51    0.23
   7  -4   0    1.01    0.18
  -7   4   0    1.11    0.17
  -7   4   0    1.48    0.23
   6  -4   0    1.16    0.22
   6  -4   0    1.53    0.20
  -6   4   0    1.77    0.19
  -6   4   0    1.48    0.20
  -6   4   0    1.51    0.19
   5  -4   0    9.61    0.63
  -5   4   0    9.82    0.54
  -5   4   0   10.61    0.54
  -5   4   0   10.48    0.53
  -5   4   0    9.98    0.53
   4  -4   0   37.55    2.19
   4  -4   0   35.00    2.46
   4  -4   0   38.84    2.49
  -4   4   0   40.35    1.89
  -4   4   0   38.73    1.89
  -4   4   0   39.69    1.86
  -4   4   0   38.30    1.87
   3  -4   0    0.24    0.11
   3  -4   0    0.33    0.09
   3  -4   0    0.58    0.10
  -3   4   0    0.40    0.12
  -3   4   0    0.44    0.12
  -3   4   0    0.40    0.06
  -3   4   0    0.41    0.06
  -3   4   0    0.34    0.06
  -3   4   0    0.38    0.06
  -3   4   0    0.43    0.06
   2  -4   0    9.48    0.58
   2  -4   0    9.46    0.65
  -2   4   0   10.20    0.57
  -2   4   0    9.84    0.49
  -2   4   0   10.04    0.49
  -2   4   0    9.51    0.49
  -2   4   0    9.49    0.49
   1  -4   0    0.02    0.08
   1  -4   0    0.00    0.06
   1  -4   0    0.06    0.05
   1  -4   0    0.05    0.02
  -1   4   0    0.00    0.03
  -1   4   0    0.03    0.04
  -1   4   0   -0.01    0.08
  -1   4   0    0.04    0.08
  -1   4   0    0.00    0.04
  -1   4   0    0.00    0.03
   0  -4   0    2.02    0.12
   0  -4   0    2.27    0.12
   0  -4   0    2.02    0.12
   0  -4   0    2.52    0.20
   0  -4   0    2.38    0.12
   0   4   0    2.06    0.13
   0   4   0    2.10    0.20
   0   4   0    2.08    0.13
   0   4   0    2.14    0.13
   0   4   0    1.95    0.13
   1   4   0    0.80    0.08
   1   4   0    0.72    0.08
  -2  -4   0    2.10    0.13
  -2  -4   0    2.04    0.13
  -2  -4   0    2.10    0.18
  -2  -4   0    2.06    0.13
  -2  -4   0    2.13    0.13
   2   4   0    1.70    0.13
   2   4   0    1.77    0.13
   2   4   0    1.74    0.13
   2   4   0    1.64    0.13
  -3  -4   0   15.25    0.77
  -3  -4   0   14.68    0.77
  -3  -4   0   15.39    0.76
  -3  -4   0   17.11    0.99
  -3  -4   0   14.85    0.76
   3   4   0   14.90    0.78
   3   4   0   16.09    0.77
   3   4   0   14.41    0.77
   3   4   0   15.81    0.78
  -4  -4   0   91.48    4.61
  -4  -4   0   92.48    4.55
  -4  -4   0   99.12    4.61
  -4  -4   0   91.58    4.55
   4   4   0   95.07    4.55
   4   4   0   94.11    4.61
   4   4   0   99.95    4.61
   4   4   0   94.09    4.55
  -5  -4   0    6.32    0.33
  -5  -4   0    5.92    0.33
  -5  -4   0    5.70    0.33
  -5  -4   0    5.82    0.33
   5   4   0    5.84    0.33
   5   4   0    5.66    0.33
   5   4   0    5.56    0.33
  -6  -4   0    1.88    0.18
  -6  -4   0    1.57    0.16
  -6  -4   0    2.12    0.18
  -6  -4   0    1.95    0.17
   6   4   0    2.38    0.18
   6   4   0    2.26    0.17
   6   4   0    2.23    0.17
   6   4   0    2.01    0.16
  -7  -4   0    1.11    0.16
  -8  -4   0    4.11    0.27
  -8  -4   0    3.92    0.27
   8   4   0    3.89    0.30
   8   4   0    4.27    0.27
   8   4   0    3.86    0.30
   8   4   0    3.76    0.26
  -9  -4   0    0.00    0.09
  -9  -4   0    0.04    0.09
  -9  -4   0    0.16    0.24
   9   4   0    0.06    0.11
   9   4   0    0.05    0.10
  10   4   0    7.32    0.48
  10   4   0    7.78    0.48
   7  -5   0    0.84    0.18
   7  -5   0    1.00    0.21
  -7   5   0    0.93    0.18
  -7   5   0    1.02    0.19
   6  -5   0    0.14    0.14
   6  -5   0   -0.01    0.13
  -6   5   0   -0.11    0.15
  -6   5   0   -0.09    0.15
   5  -5   0   11.82    0.77
   5  -5   0   10.41    0.68
  -5   5   0   11.20    0.58
  -5   5   0   10.62    0.58
  -5   5   0    9.82    0.58
  -5   5   0   11.39    0.58
   4  -5   0    9.66    0.63
   4  -5   0   10.19    0.73
   4  -5   0    9.96    0.71
  -4   5   0    9.73    0.53
  -4   5   0   10.41    0.53
  -4   5   0   10.71    0.54
  -4   5   0   10.37    0.54
   3  -5   0    4.08    0.35
   3  -5   0    4.23    0.30
  -3   5   0    4.10    0.26
  -3   5   0    4.50    0.25
  -3   5   0    4.51    0.28
  -3   5   0    4.42    0.25
  -3   5   0    4.54    0.26
   2  -5   0    2.40    0.19
  -2   5   0    2.12    0.15
  -2   5   0    2.19    0.15
  -2   5   0    2.21    0.17
  -2   5   0    2.16    0.15
  -2   5   0    2.17    0.23
  -2   5   0    2.07    0.15
  -2   5   0    2.10    0.25
   1  -5   0   -0.01    0.07
   1  -5   0   -0.01    0.08
   1  -5   0    0.16    0.07
  -1   5   0    0.03    0.05
  -1   5   0    0.07    0.05
  -1   5   0   -0.01    0.05
  -1   5   0    0.10    0.09
  -1   5   0    0.02    0.05
   0  -5   0   54.94    2.65
   0  -5   0   55.35    3.52
   0  -5   0   57.35    3.43
   0  -5   0   60.08    3.53
   0  -5   0   55.00    2.68
   0  -5   0   56.55    2.68
   0  -5   0   54.93    2.65
   0   5   0   49.46    3.42
   0   5   0   54.47    2.69
   0   5   0   55.20    2.66
   0   5   0   55.33    2.69
   0   5   0   54.59    2.66
  -1  -5   0   22.67    1.13
  -1  -5   0   22.55    1.15
  -1  -5   0   24.14    1.48
  -1  -5   0   24.26    1.52
  -1  -5   0   22.24    1.15
  -1  -5   0   22.87    1.13
   1   5   0   22.58    1.48
   1   5   0   23.86    1.14
   1   5   0   24.79    1.16
   1   5   0   22.86    1.16
   1   5   0   24.63    1.14
  -2  -5   0   28.69    1.37
  -2  -5   0   27.82    1.35
  -2  -5   0   28.49    1.35
  -2  -5   0   28.20    1.37
  -2  -5   0   27.12    1.74
   2   5   0   27.40    1.35
   2   5   0   27.65    1.37
   2   5   0   27.52    1.37
   2   5   0   27.09    1.35
  -3  -5   0    4.31    0.23
  -3  -5   0    4.22    0.23
  -3  -5   0    3.89    0.23
  -3  -5   0    4.21    0.31
  -3  -5   0    4.00    0.22
   3   5   0    3.95    0.23
   3   5   0    3.82    0.23
   3   5   0    3.17    0.23
   3   5   0    3.19    0.23
  -4  -5   0    1.68    0.15
  -4  -5   0    1.56    0.14
  -4  -5   0    1.50    0.19
   4   5   0    1.53    0.14
   4   5   0    1.42    0.14
   4   5   0    1.55    0.14
   4   5   0    1.52    0.14
  -5  -5   0   22.09    1.12
  -5  -5   0   20.44    1.42
  -5  -5   0   22.30    1.10
  -5  -5   0   22.28    1.11
  -5  -5   0   22.45    1.10
   5   5   0   22.58    1.12
   5   5   0   23.10    1.11
  -6  -5   0   20.66    1.03
  -6  -5   0   20.09    1.02
   6   5   0   20.34    1.03
   6   5   0   20.28    1.02
  -7  -5   0    1.10    0.15
  -7  -5   0    0.87    0.14
  -7  -5   0    1.07    0.14
  -7  -5   0    1.04    0.14
   7   5   0    1.20    0.15
   7   5   0    1.48    0.15
   7   5   0    1.08    0.14
   7   5   0    0.93    0.14
  -8  -5   0    0.17    0.08
  -8  -5   0    0.10    0.08
   8   5   0    0.20    0.08
   8   5   0    0.22    0.08
  -9  -5   0   11.83    0.68
  -9  -5   0   12.57    0.69
   9   5   0   13.12    0.68
   9   5   0   12.89    0.67
   6  -6   0    1.83    0.25
   6  -6   0    1.49    0.27
  -6   6   0    1.91    0.28
  -6   6   0    1.92    0.28
   5  -6   0    0.67    0.18
   5  -6   0    1.12    0.21
  -5   6   0    1.64    0.25
  -5   6   0    1.04    0.15
  -5   6   0    1.36    0.18
  -5   6   0    0.99    0.15
   4  -6   0    0.36    0.13
   4  -6   0    0.54    0.13
  -4   6   0    0.48    0.11
  -4   6   0    0.44    0.11
  -4   6   0    0.34    0.10
  -4   6   0    0.49    0.10
   3  -6   0    3.82    0.35
   3  -6   0    4.21    0.36
  -3   6   0    3.58    0.25
  -3   6   0    4.05    0.26
  -3   6   0    4.40    0.27
  -3   6   0    3.77    0.26
  -3   6   0    4.23    0.25
   2  -6   0    3.26    0.27
   2  -6   0    3.28    0.30
   2  -6   0    3.41    0.33
  -2   6   0    3.74    0.25
  -2   6   0    3.54    0.22
  -2   6   0    3.73    0.22
   1  -6   0    0.11    0.10
   1  -6   0    0.21    0.10
   1  -6   0    0.23    0.09
  -1   6   0    0.20    0.06
  -1   6   0    0.28    0.11
  -1   6   0    0.18    0.07
  -1   6   0    0.21    0.06
  -1   6   0    0.21    0.07
   0  -6   0    0.35    0.06
   0  -6   0    0.35    0.05
   0  -6   0    0.44    0.11
   0  -6   0    0.25    0.09
   0  -6   0    0.31    0.05
   0  -6   0    0.29    0.04
   0  -6   0    0.35    0.11
   0   6   0    0.28    0.07
   0   6   0    0.37    0.07
   0   6   0    0.34    0.12
   0   6   0    0.35    0.07
   0   6   0    0.31    0.07
  -1  -6   0    9.38    0.67
  -1  -6   0    9.22    0.66
  -1  -6   0    9.32    0.49
  -1  -6   0    9.98    0.49
  -1  -6   0   10.03    0.49
  -1  -6   0    9.93    0.49
   1   6   0   10.01    0.51
   1   6   0    9.74    0.50
   1   6   0    9.98    0.66
   1   6   0    9.55    0.51
   1   6   0    9.91    0.50
  -2  -6   0   86.78    4.21
  -2  -6   0   85.13    5.43
  -2  -6   0   87.37    5.59
  -2  -6   0   87.76    4.27
   2   6   0   90.13    4.23
   2   6   0   88.05    4.23
   2   6   0   89.18    4.28
   2   6   0   88.64    4.28
  -3  -6   0   94.48    4.45
  -3  -6   0   91.54    4.45
  -3  -6   0   87.27    5.65
  -3  -6   0   93.84    4.39
  -3  -6   0   93.95    4.39
   3   6   0   90.39    4.40
   3   6   0   90.42    4.46
   3   6   0   90.69    4.40
   3   6   0   90.40    4.46
  -4  -6   0    7.38    0.40
  -4  -6   0    7.49    0.40
  -4  -6   0    7.21    0.53
  -4  -6   0    7.24    0.40
  -4  -6   0    7.18    0.40
   4   6   0    7.39    0.40
   4   6   0    7.61    0.40
   4   6   0    7.22    0.41
   4   6   0    7.12    0.41
  -5  -6   0    5.12    0.41
  -5  -6   0    5.02    0.31
  -5  -6   0    5.66    0.31
  -5  -6   0    5.36    0.31
  -5  -6   0    5.30    0.31
   5   6   0    5.21    0.31
   5   6   0    4.98    0.31
   6   6   0   10.61    0.55
   6   6   0    9.59    0.55
  -7  -6   0    2.52    0.20
  -7  -6   0    2.59    0.20
  -7  -6   0    2.23    0.26
  -7  -6   0    2.33    0.20
  -7  -6   0    2.65    0.20
   7   6   0    2.28    0.21
   7   6   0    2.71    0.19
   7   6   0    2.03    0.18
   7   6   0    2.40    0.21
  -8  -6   0   10.88    0.65
  -8  -6   0   10.82    0.65
   8   6   0   13.18    0.65
   8   6   0   14.02    0.66
  -9  -6   0    0.24    0.09
  -9  -6   0   -0.02    0.09
   9   6   0    0.14    0.09
   5  -7   0    0.21    0.16
   5  -7   0    0.41    0.18
  -5   7   0    0.37    0.16
  -5   7   0    0.08    0.16
   4  -7   0    0.68    0.19
   4  -7   0    1.02    0.18
   4  -7   0    0.56    0.14
  -4   7   0    0.84    0.17
  -4   7   0    0.70    0.17
  -4   7   0    0.62    0.13
  -4   7   0    0.70    0.13
   3  -7   0    4.76    0.41
   3  -7   0    5.41    0.43
   3  -7   0    5.37    0.37
  -3   7   0    4.91    0.33
  -3   7   0    4.81    0.31
  -3   7   0    4.82    0.33
  -3   7   0    4.89    0.33
  -3   7   0    4.79    0.31
   2  -7   0    1.00    0.21
   2  -7   0    0.66    0.16
   2  -7   0    0.90    0.16
  -2   7   0    1.12    0.18
  -2   7   0    1.17    0.14
  -2   7   0    1.13    0.14
  -2   7   0    1.03    0.12
  -2   7   0    0.95    0.12
  -2   7   0    0.83    0.17
   1  -7   0    9.97    0.61
  -1   7   0    9.54    0.68
  -1   7   0    9.44    0.51
  -1   7   0    9.70    0.51
  -1   7   0    9.90    0.51
  -1   7   0    9.61    0.52
   0  -7   0    8.63    0.63
   0   7   0    8.57    0.46
   0   7   0    8.42    0.46
   0   7   0    8.54    0.45
   0   7   0    8.75    0.46
  -1  -7   0    0.31    0.05
  -1  -7   0    0.27    0.05
  -1  -7   0    0.30    0.05
  -1  -7   0    0.33    0.12
  -1  -7   0    0.14    0.10
  -1  -7   0    0.30    0.05
   1   7   0    0.29    0.08
   1   7   0    0.27    0.08
   1   7   0    0.33    0.08
   1   7   0    0.23    0.08
  -2  -7   0   19.91    0.97
  -2  -7   0   19.59    0.97
  -2  -7   0   20.05    1.31
  -2  -7   0   19.47    1.27
  -2  -7   0   19.93    0.98
  -2  -7   0   19.82    0.98
   2   7   0   19.99    1.00
   2   7   0   19.74    1.00
   2   7   0   18.98    0.98
   2   7   0   19.18    0.98
  -3  -7   0   32.23    1.62
  -3  -7   0   33.13    1.60
  -3  -7   0   32.48    2.13
  -3  -7   0   32.20    1.60
  -3  -7   0   33.14    1.62
  -3  -7   0   33.21    2.08
   3   7   0   32.56    1.63
   3   7   0   33.99    1.61
   3   7   0   32.96    1.63
   3   7   0   32.42    1.61
  -4  -7   0   10.36    0.53
  -4  -7   0   10.45    0.71
  -4  -7   0   10.01    0.54
  -4  -7   0   10.57    0.54
  -4  -7   0    9.90    0.54
   4   7   0    9.71    0.54
   4   7   0   10.05    0.54
   4   7   0   10.13    0.55
   4   7   0   10.29    0.55
  -5  -7   0    0.04    0.08
  -5  -7   0    0.09    0.07
  -5  -7   0    0.06    0.08
  -5  -7   0    0.04    0.07
   5   7   0   -0.02    0.07
   5   7   0    0.00    0.07
  -6  -7   0    0.66    0.12
  -6  -7   0    0.63    0.10
  -6  -7   0    0.70    0.14
  -6  -7   0    0.67    0.12
  -6  -7   0    0.62    0.11
   6   7   0    0.80    0.12
   6   7   0    0.91    0.13
  -7  -7   0    5.07    0.32
  -7  -7   0    5.16    0.32
  -7  -7   0    4.64    0.42
   7   7   0    5.44    0.31
   7   7   0    4.74    0.31
  -8  -7   0   11.46    0.62
  -8  -7   0   10.77    0.81
  -8  -7   0   10.72    0.61
   8   7   0   11.93    0.62
   8   7   0   11.71    0.62
  -9  -7   0    0.64    0.13
  -9  -7   0    0.67    0.21
  -9  -7   0    0.86    0.13
   4  -8   0   -0.13    0.16
   4  -8   0   -0.10    0.16
  -4   8   0    0.08    0.16
  -4   8   0    0.12    0.16
   3  -8   0    3.18    0.28
   3  -8   0    2.44    0.31
   3  -8   0    2.61    0.32
  -3   8   0    2.96    0.33
  -3   8   0    2.53    0.33
   2  -8   0    0.66    0.15
   2  -8   0    0.65    0.16
   2  -8   0    0.46    0.16
  -2   8   0    0.42    0.15
  -2   8   0    0.43    0.15
  -2   8   0    0.43    0.15
  -2   8   0    0.62    0.12
  -2   8   0    0.52    0.12
   1  -8   0    6.10    0.45
   1  -8   0    5.59    0.44
   1  -8   0    4.57    0.37
  -1   8   0    4.67    0.34
  -1   8   0    4.65    0.34
  -1   8   0    5.11    0.31
  -1   8   0    4.95    0.32
   0  -8   0   23.79    1.45
   0   8   0   20.79    1.08
   0   8   0   21.40    1.07
   0   8   0   19.99    1.39
   0   8   0   21.17    1.09
   0   8   0   21.19    1.07
   1   8   0    1.60    0.24
   1   8   0    2.27    0.20
   1   8   0    2.09    0.20
   1   8   0    2.44    0.19
   1   8   0    2.37    0.19
  -2  -8   0    0.31    0.12
  -2  -8   0    0.26    0.08
  -2  -8   0    0.23    0.07
  -2  -8   0    0.22    0.07
  -2  -8   0    0.16    0.12
  -2  -8   0    0.30    0.07
   2   8   0    0.19    0.10
   2   8   0    0.30    0.09
   2   8   0    0.26    0.09
   2   8   0    0.20    0.10
  -3  -8   0    3.75    0.24
  -3  -8   0    4.20    0.36
  -3  -8   0    4.04    0.34
  -3  -8   0    4.23    0.26
  -3  -8   0    3.96    0.26
  -3  -8   0    3.76    0.24
   3   8   0    3.32    0.27
   3   8   0    3.87    0.27
   3   8   0    4.03    0.27
   3   8   0    3.95    0.27
  -4  -8   0    2.26    0.24
  -4  -8   0    2.09    0.28
  -4  -8   0    2.05    0.21
  -4  -8   0    1.96    0.21
  -4  -8   0    1.95    0.18
  -4  -8   0    1.93    0.18
   4   8   0    2.10    0.20
   4   8   0    1.99    0.19
   4   8   0    1.93    0.18
   4   8   0    1.99    0.19
  -5  -8   0    2.01    0.24
   5   8   0    2.18    0.19
   5   8   0    1.98    0.18
  -6  -8   0   32.50    2.08
  -6  -8   0   32.80    1.61
  -6  -8   0   32.42    1.63
  -6  -8   0   31.29    1.61
  -6  -8   0   32.55    1.63
   6   8   0   32.36    1.61
   6   8   0   32.70    1.63
  -7  -8   0    4.97    0.34
  -7  -8   0    5.20    0.46
  -7  -8   0    4.97    0.34
   7   8   0    5.44    0.33
   7   8   0    5.44    0.33
  -8  -8   0    6.08    0.39
  -8  -8   0    5.40    0.50
  -8  -8   0    5.99    0.39
   8   8   0    6.34    0.37
   8   8   0    6.08    0.37
   2  -9   0    4.84    0.44
  -2   9   0    3.53    0.33
  -2   9   0    3.71    0.33
   1  -9   0    0.33    0.17
  -1   9   0    0.38    0.14
  -1   9   0    0.26    0.19
  -1   9   0    0.41    0.14
  -1   9   0    0.20    0.19
   0  -9   0    0.34    0.17
   0   9   0    0.21    0.16
   0   9   0    0.41    0.16
  -1  -9   0    6.21    0.51
   1   9   0    5.99    0.39
   1   9   0    5.27    0.39
   1   9   0    5.51    0.40
   1   9   0    6.15    0.37
  -2  -9   0    1.77    0.25
  -2  -9   0    2.27    0.30
   2   9   0    2.64    0.23
   2   9   0    2.49    0.22
   2   9   0    2.21    0.25
   2   9   0    2.40    0.25
  -3  -9   0    0.04    0.08
  -3  -9   0   -0.12    0.11
  -3  -9   0   -0.02    0.12
  -3  -9   0   -0.06    0.08
  -3  -9   0   -0.05    0.11
  -3  -9   0    0.00    0.15
   3   9   0    0.03    0.10
   3   9   0    0.19    0.10
  -4  -9   0   -0.23    0.12
  -4  -9   0    0.08    0.15
  -4  -9   0   -0.23    0.12
  -4  -9   0   -0.02    0.12
  -4  -9   0   -0.04    0.10
  -4  -9   0   -0.08    0.10
   4   9   0   -0.07    0.10
   4   9   0    0.30    0.10
  -5  -9   0   14.45    1.09
  -5  -9   0   15.50    0.81
  -5  -9   0   16.29    1.07
  -5  -9   0   15.88    0.82
   5   9   0   15.28    0.82
   5   9   0   16.55    0.83
  -6  -9   0    6.59    0.52
  -6  -9   0    6.40    0.51
  -6  -9   0    7.69    0.46
  -6  -9   0    7.21    0.45
  -6  -9   0    8.34    0.63
  -6  -9   0    7.60    0.58
   6   9   0    7.44    0.43
   6   9   0    7.15    0.43
  -7  -9   0    0.33    0.17
  -7  -9   0    0.32    0.15
  -7  -9   0    0.10    0.14
   7   9   0    0.14    0.10
   7   9   0    0.30    0.10
   0 -10   0    2.91    0.42
   0  10   0    2.19    0.31
   0  10   0    2.14    0.31
  -1 -10   0    6.81    0.59
   1  10   0    5.93    0.43
   1  10   0    6.11    0.43
  -2 -10   0    0.30    0.22
   2  10   0    0.25    0.15
   2  10   0    0.22    0.15
  -3 -10   0    1.87    0.38
  -3 -10   0    1.30    0.23
   3  10   0    2.23    0.26
   3  10   0    1.99    0.25
  -4 -10   0    0.62    0.22
  -4 -10   0    0.66    0.18
   4  10   0    0.62    0.14
   4  10   0    0.53    0.15
  -5 -10   0    4.02    0.34
  -5 -10   0    3.75    0.35
  -5 -10   0    3.59    0.51
  -5 -10   0    4.43    0.44
   5  10   0    4.63    0.35
   5  10   0    5.17    0.34
   4  10  -1    0.89    0.16
   4  10  -1    0.58    0.16
  -4 -10   1    0.30    0.20
  -4 -10   1    0.25    0.25
   3  10  -1    0.77    0.17
   3  10  -1    0.90    0.17
  -3 -10   1    0.75    0.21
  -3 -10   1    1.05    0.27
   2  10  -1    4.10    0.34
   2  10  -1    3.58    0.35
  -2 -10   1    3.77    0.49
   1  10  -1    4.91    0.40
  -1 -10   1    4.58    0.52
   6   9  -1    7.78    0.43
   6   9  -1    7.14    0.43
  -6  -9   1    6.78    0.46
  -6  -9   1    7.56    0.59
  -6  -9   1    6.41    0.46
   5   9  -1   -0.19    0.10
   5   9  -1   -0.03    0.09
  -5  -9   1   -0.14    0.20
  -5  -9   1   -0.05    0.12
  -5  -9   1   -0.16    0.12
  -5  -9   1   -0.14    0.20
  -5  -9   1    0.00    0.21
  -5  -9   1    0.11    0.16
   4   9  -1    2.47    0.24
   4   9  -1    2.81    0.23
  -4  -9   1    2.38    0.24
  -4  -9   1    2.49    0.36
  -4  -9   1    2.60    0.33
  -4  -9   1    2.43    0.25
   3   9  -1    1.96    0.21
   3   9  -1    1.60    0.20
  -3  -9   1    1.45    0.20
  -3  -9   1    0.93    0.17
  -3  -9   1    1.85    0.26
  -3  -9   1    1.36    0.20
  -3  -9   1    1.32    0.23
   2   9  -1    0.99    0.15
   2   9  -1    0.92    0.14
  -2  -9   1    0.84    0.19
  -2  -9   1    0.92    0.19
  -2  -9   1    0.95    0.12
  -2  -9   1    0.92    0.12
   1   9  -1    2.05    0.23
   1   9  -1    2.04    0.24
  -1  -9   1    2.11    0.32
   0   9  -1    0.96    0.15
   0   9  -1    0.94    0.15
   0  -9   1    0.83    0.20
  -1   9  -1    4.38    0.33
  -1   9  -1    4.35    0.33
   1  -9   1    3.53    0.40
  -2   9  -1    0.36    0.16
  -2   9  -1    0.41    0.17
   2  -9   1    0.32    0.17
   7   8  -1    0.97    0.16
   7   8  -1    0.91    0.12
  -7  -8   1    1.25    0.17
  -7  -8   1    1.00    0.16
  -7  -8   1    1.05    0.23
   6   8  -1    2.57    0.20
   6   8  -1    2.90    0.20
  -6  -8   1    2.30    0.24
  -6  -8   1    2.27    0.23
  -6  -8   1    2.38    0.32
   5   8  -1    8.28    0.46
   5   8  -1    8.05    0.46
  -5  -8   1    7.91    0.46
  -5  -8   1    8.06    0.49
  -5  -8   1    7.31    0.48
  -5  -8   1    8.61    0.61
  -5  -8   1    7.80    0.46
   4   8  -1    1.52    0.17
   4   8  -1    1.72    0.16
  -4  -8   1    1.24    0.18
  -4  -8   1    1.41    0.22
   3   8  -1    5.43    0.33
   3   8  -1    4.81    0.33
   3   8  -1    5.18    0.33
   3   8  -1    5.37    0.33
  -3  -8   1    5.06    0.32
  -3  -8   1    5.30    0.33
  -3  -8   1    5.11    0.32
  -3  -8   1    5.29    0.33
  -3  -8   1    6.08    0.44
   2   8  -1    1.25    0.18
   2   8  -1    1.51    0.19
  -2  -8   1    1.21    0.24
  -2  -8   1    1.35    0.16
  -2  -8   1    1.29    0.17
  -2  -8   1    1.47    0.21
  -2  -8   1    1.44    0.15
  -2  -8   1    1.32    0.18
   1   8  -1   -0.18    0.13
   1   8  -1   -0.02    0.10
   1   8  -1    0.00    0.09
  -1  -8   1    0.03    0.12
  -1  -8   1   -0.07    0.07
  -1  -8   1    0.06    0.07
  -1  -8   1   -0.05    0.07
  -1  -8   1    0.02    0.07
   0   8  -1    7.15    0.42
   0   8  -1    6.86    0.40
   0   8  -1    6.95    0.41
   0   8  -1    6.97    0.41
   0  -8   1    6.30    0.54
  -1   8  -1    7.66    0.45
  -1   8  -1    7.23    0.46
   1  -8   1    7.47    0.59
  -2   8  -1    0.16    0.16
  -2   8  -1    0.16    0.13
  -2   8  -1    0.10    0.15
   2  -8   1    0.27    0.12
  -3   8  -1    2.73    0.29
  -3   8  -1    3.19    0.29
   3  -8   1    2.54    0.28
   8   7  -1   13.63    0.72
   8   7  -1   12.30    0.71
  -8  -7   1   13.58    0.72
  -8  -7   1   13.70    0.73
  -8  -7   1   13.64    0.95
   7   7  -1    0.03    0.08
  -7  -7   1    0.00    0.14
  -7  -7   1    0.23    0.10
  -7  -7   1    0.51    0.10
   6   7  -1    0.48    0.09
   6   7  -1    0.48    0.09
  -6  -7   1    0.69    0.11
  -6  -7   1    0.34    0.14
  -6  -7   1    0.68    0.11
  -6  -7   1    0.51    0.12
  -6  -7   1    0.41    0.12
   5   7  -1   -0.06    0.09
   5   7  -1    0.12    0.08
   5   7  -1    0.08    0.07
   5   7  -1    0.11    0.10
  -5  -7   1    0.06    0.10
  -5  -7   1    0.03    0.08
  -5  -7   1    0.20    0.09
  -5  -7   1    0.06    0.10
  -5  -7   1   -0.05    0.10
   4   7  -1    3.49    0.24
   4   7  -1    3.44    0.25
  -4  -7   1    3.46    0.25
  -4  -7   1    3.78    0.24
  -4  -7   1    3.54    0.24
  -4  -7   1    3.54    0.25
   3   7  -1    0.32    0.08
   3   7  -1    0.26    0.08
   3   7  -1    0.29    0.08
  -3  -7   1    0.25    0.13
  -3  -7   1    0.21    0.08
  -3  -7   1    0.22    0.09
  -3  -7   1    0.22    0.08
  -3  -7   1    0.20    0.09
  -3  -7   1    0.46    0.13
   2   7  -1    1.39    0.15
   2   7  -1    1.21    0.15
   2   7  -1    1.31    0.16
   2   7  -1    1.30    0.16
  -2  -7   1    1.39    0.14
  -2  -7   1    1.35    0.15
  -2  -7   1    1.14    0.22
  -2  -7   1    1.38    0.14
  -2  -7   1    1.66    0.21
  -2  -7   1    1.53    0.16
   1   7  -1    4.53    0.28
   1   7  -1    4.76    0.29
   1   7  -1    4.53    0.28
   1   7  -1    4.59    0.29
  -1  -7   1    4.31    0.27
  -1  -7   1    4.79    0.37
  -1  -7   1    4.66    0.27
  -1  -7   1    4.04    0.38
  -1  -7   1    4.80    0.26
  -1  -7   1    4.87    0.27
   0   7  -1    2.89    0.20
   0   7  -1    2.76    0.21
   0   7  -1    2.80    0.21
   0   7  -1    2.73    0.28
   0   7  -1    2.82    0.21
   0  -7   1    2.93    0.29
   0  -7   1    2.52    0.18
   0  -7   1    2.53    0.17
   0  -7   1    2.87    0.17
   0  -7   1    2.71    0.17
  -1   7  -1    0.85    0.17
  -1   7  -1    0.49    0.09
  -1   7  -1    0.55    0.11
  -1   7  -1    0.57    0.10
  -1   7  -1    0.68    0.11
   1  -7   1    0.42    0.13
  -2   7  -1    3.77    0.30
  -2   7  -1    4.17    0.29
  -2   7  -1    4.18    0.27
  -2   7  -1    4.50    0.27
  -2   7  -1    4.26    0.28
  -2   7  -1    3.67    0.34
   2  -7   1    3.99    0.36
   2  -7   1    3.89    0.32
  -3   7  -1    6.42    0.39
  -3   7  -1    6.66    0.39
  -3   7  -1    6.18    0.41
  -3   7  -1    6.39    0.40
  -3   7  -1    6.51    0.41
   3  -7   1    6.83    0.52
   3  -7   1    6.88    0.46
  -4   7  -1    1.28    0.20
  -4   7  -1    1.03    0.20
  -4   7  -1    1.07    0.16
  -4   7  -1    1.17    0.16
   4  -7   1    1.17    0.24
   4  -7   1    0.88    0.17
   4  -7   1    0.76    0.17
  -5   7  -1   -0.01    0.16
  -5   7  -1    0.04    0.16
   5  -7   1    0.04    0.16
   5  -7   1   -0.23    0.14
   5  -7   1    0.04    0.16
   9   6  -1    1.29    0.18
   9   6  -1    0.89    0.14
   8   6  -1    0.39    0.09
   8   6  -1    0.12    0.08
  -8  -6   1    0.17    0.08
  -8  -6   1    0.16    0.08
  -8  -6   1   -0.09    0.15
   7   6  -1    2.00    0.18
   7   6  -1    2.16    0.18
  -7  -6   1    1.66    0.25
  -7  -6   1    1.74    0.17
  -7  -6   1    1.99    0.18
   6   6  -1    2.88    0.21
   6   6  -1    2.63    0.21
  -6  -6   1    2.50    0.28
  -6  -6   1    3.16    0.22
  -6  -6   1    2.79    0.22
  -6  -6   1    2.96    0.21
  -6  -6   1    2.79    0.21
  -5  -6   1    5.47    0.42
  -5  -6   1    5.22    0.31
  -5  -6   1    5.18    0.31
   4   6  -1    1.09    0.14
   4   6  -1    1.16    0.14
  -4  -6   1    1.44    0.15
  -4  -6   1    1.15    0.19
  -4  -6   1    1.21    0.15
  -4  -6   1    1.07    0.15
  -4  -6   1    1.33    0.14
   3   6  -1    4.72    0.27
   3   6  -1    4.60    0.28
   3   6  -1    4.53    0.27
   3   6  -1    4.37    0.28
  -3  -6   1    4.72    0.27
  -3  -6   1    4.37    0.28
  -3  -6   1    4.52    0.27
  -3  -6   1    4.17    0.36
  -3  -6   1    4.76    0.27
   2   6  -1    0.34    0.08
   2   6  -1    0.35    0.08
   2   6  -1    0.49    0.09
   2   6  -1    0.36    0.08
  -2  -6   1    0.45    0.08
  -2  -6   1    0.41    0.12
  -2  -6   1    0.39    0.12
  -2  -6   1    0.46    0.08
  -2  -6   1    0.46    0.08
  -2  -6   1    0.48    0.08
   1   6  -1  103.15    4.89
   1   6  -1  100.66    4.83
   1   6  -1  100.75    6.20
   1   6  -1   99.62    4.89
   1   6  -1  101.66    4.83
  -1  -6   1  102.87    6.20
  -1  -6   1   99.63    4.88
  -1  -6   1   98.24    6.39
  -1  -6   1   96.93    4.82
  -1  -6   1  101.70    4.88
  -1  -6   1  100.36    4.82
   0   6  -1    1.45    0.20
   0   6  -1    1.66    0.15
   0   6  -1    1.63    0.15
   0   6  -1    1.61    0.15
   0   6  -1    1.51    0.14
   0  -6   1    1.77    0.12
   0  -6   1    1.74    0.21
   0  -6   1    1.60    0.12
   0  -6   1    1.71    0.13
   0  -6   1    1.48    0.13
  -1   6  -1    0.68    0.09
  -1   6  -1    0.74    0.10
  -1   6  -1    0.79    0.10
  -1   6  -1    0.71    0.09
  -1   6  -1    0.59    0.12
   1  -6   1    0.75    0.08
   1  -6   1    0.70    0.13
   1  -6   1    0.85    0.08
   1  -6   1    0.63    0.14
   1  -6   1    0.66    0.08
   1  -6   1    0.77    0.08
  -2   6  -1   11.05    0.66
  -2   6  -1   11.18    0.58
  -2   6  -1   11.74    0.58
  -2   6  -1   11.41    0.59
  -2   6  -1   11.18    0.59
   2  -6   1   10.55    0.79
   2  -6   1   11.76    0.70
  -3   6  -1    9.99    0.50
  -3   6  -1   10.34    0.50
  -3   6  -1    8.26    0.64
  -3   6  -1    9.56    0.51
  -3   6  -1    9.28    0.54
  -3   6  -1    9.50    0.50
   3  -6   1    7.99    0.65
  -4   6  -1    1.85    0.21
  -4   6  -1    1.27    0.18
  -4   6  -1    1.73    0.21
  -4   6  -1    1.35    0.18
   4  -6   1    1.35    0.20
   4  -6   1    1.54    0.23
   4  -6   1    1.66    0.22
  -5   6  -1    0.07    0.16
  -5   6  -1    0.07    0.16
   5  -6   1   -0.05    0.12
   5  -6   1   -0.08    0.15
   5  -6   1    0.05    0.13
  -6   6  -1    1.80    0.29
  -6   6  -1    2.42    0.29
   6  -6   1    1.95    0.29
   6  -6   1    1.94    0.25
   9   5  -1    0.08    0.11
   9   5  -1   -0.02    0.10
  -9  -5   1   -0.07    0.09
  -9  -5   1    0.09    0.09
   8   5  -1    1.31    0.16
   8   5  -1    1.48    0.16
  -8  -5   1    1.35    0.17
  -8  -5   1    1.58    0.17
   7   5  -1   13.27    0.67
   7   5  -1   13.16    0.66
   7   5  -1   12.40    0.67
   7   5  -1   12.09    0.67
  -7  -5   1   12.91    0.67
  -7  -5   1   11.34    0.66
  -7  -5   1   13.31    0.68
  -7  -5   1   12.47    0.66
   6   5  -1    9.39    0.51
  -6  -5   1    9.35    0.51
  -6  -5   1    9.34    0.50
   5   5  -1    6.21    0.37
   5   5  -1    6.38    0.37
  -5  -5   1    6.44    0.36
  -5  -5   1    6.97    0.37
  -5  -5   1    6.50    0.48
  -5  -5   1    6.74    0.37
  -5  -5   1    6.53    0.37
   4   5  -1    0.64    0.09
   4   5  -1    0.80    0.13
   4   5  -1    0.80    0.10
   4   5  -1    0.76    0.10
  -4  -5   1    0.74    0.11
  -4  -5   1    0.72    0.15
  -4  -5   1    0.97    0.12
  -4  -5   1    0.85    0.12
  -4  -5   1    0.80    0.11
   3   5  -1    2.37    0.17
   3   5  -1    2.24    0.18
   3   5  -1    2.27    0.16
   3   5  -1    2.24    0.17
  -3  -5   1    2.25    0.17
  -3  -5   1    2.18    0.16
  -3  -5   1    2.22    0.16
  -3  -5   1    2.20    0.22
  -3  -5   1    2.41    0.17
   2   5  -1   15.20    0.77
   2   5  -1   14.98    0.76
  -2  -5   1   15.90    0.76
  -2  -5   1   15.14    0.98
  -2  -5   1   14.62    0.76
  -2  -5   1   16.02    0.77
  -2  -5   1   14.82    0.77
   1   5  -1    0.84    0.10
   1   5  -1    0.73    0.10
   1   5  -1    0.65    0.10
   1   5  -1    0.78    0.10
   1   5  -1    0.87    0.14
  -1  -5   1    0.69    0.09
  -1  -5   1    0.73    0.10
  -1  -5   1    0.89    0.14
  -1  -5   1    0.76    0.09
  -1  -5   1    0.92    0.15
  -1  -5   1    0.80    0.09
   0   5  -1    7.28    0.38
   0   5  -1    7.09    0.37
   0   5  -1    7.72    0.38
   0   5  -1    7.15    0.37
   0  -5   1    6.94    0.37
   0  -5   1    7.05    0.36
   0  -5   1    6.72    0.37
   0  -5   1    7.11    0.36
   0  -5   1    6.99    0.51
   0  -5   1    6.97    0.49
  -1   5  -1    7.65    0.54
  -1   5  -1    7.91    0.41
  -1   5  -1    7.85    0.41
  -1   5  -1    7.70    0.41
  -1   5  -1    7.95    0.41
   1  -5   1    7.96    0.54
   1  -5   1    7.21    0.40
   1  -5   1    7.74    0.56
   1  -5   1    7.33    0.39
   1  -5   1    8.56    0.49
   1  -5   1    7.28    0.39
   1  -5   1    8.27    0.39
  -2   5  -1   10.52    0.58
  -2   5  -1   11.62    0.58
  -2   5  -1   11.77    0.76
  -2   5  -1   11.45    0.57
  -2   5  -1   10.40    0.59
   2  -5   1   12.35    0.79
   2  -5   1   11.71    0.56
   2  -5   1   11.70    0.77
   2  -5   1   10.43    0.55
   2  -5   1   11.01    0.55
   2  -5   1   11.18    0.56
  -3   5  -1   -0.11    0.06
  -3   5  -1   -0.06    0.06
  -3   5  -1    0.00    0.04
  -3   5  -1   -0.05    0.07
  -3   5  -1   -0.05    0.07
   3  -5   1   -0.12    0.10
   3  -5   1    0.02    0.09
   3  -5   1   -0.05    0.10
  -4   5  -1    3.37    0.31
  -4   5  -1    3.18    0.23
  -4   5  -1    3.44    0.22
  -4   5  -1    3.20    0.22
  -4   5  -1    3.14    0.22
   4  -5   1    3.70    0.30
   4  -5   1    2.49    0.30
   4  -5   1    2.71    0.25
  -5   5  -1   14.97    0.76
  -5   5  -1   14.98    0.77
  -5   5  -1   14.88    0.76
  -5   5  -1   14.01    0.77
   5  -5   1   15.33    1.03
   5  -5   1   14.42    0.89
  -6   5  -1    0.29    0.16
  -6   5  -1    0.14    0.12
  -6   5  -1    0.30    0.12
  -6   5  -1    0.24    0.15
   6  -5   1    0.09    0.13
   6  -5   1    0.01    0.15
  -7   5  -1    0.41    0.17
  -7   5  -1    0.21    0.18
   7  -5   1    0.19    0.18
   7  -5   1    0.23    0.16
   9   4  -1    2.40    0.25
   9   4  -1    2.73    0.25
  -9  -4   1    3.16    0.22
  -9  -4   1    2.85    0.22
   8   4  -1    2.31    0.20
   8   4  -1    2.19    0.26
   8   4  -1    2.01    0.27
   8   4  -1    2.29    0.20
  -8  -4   1    2.56    0.20
  -8  -4   1    2.54    0.19
   7   4  -1    0.51    0.09
   7   4  -1    0.72    0.12
   7   4  -1    0.54    0.09
   7   4  -1    0.59    0.12
  -7  -4   1    0.33    0.09
  -7  -4   1    0.56    0.10
  -7  -4   1    0.47    0.10
  -7  -4   1    0.48    0.10
   6   4  -1    1.63    0.16
   6   4  -1    1.94    0.17
  -6  -4   1    2.12    0.17
  -6  -4   1    2.02    0.17
   5   4  -1    8.01    0.44
   5   4  -1    7.96    0.44
  -5  -4   1    7.90    0.44
  -5  -4   1    8.45    0.44
  -5  -4   1    8.36    0.45
  -5  -4   1    8.14    0.44
   4   4  -1   46.11    2.20
   4   4  -1   43.43    2.22
   4   4  -1   48.14    2.20
   4   4  -1   43.04    2.22
  -4  -4   1   46.69    2.19
  -4  -4   1   45.25    2.22
  -4  -4   1   42.37    2.22
  -4  -4   1   47.01    2.20
   3   4  -1   17.57    0.89
   3   4  -1   17.65    0.88
   3   4  -1   17.20    0.88
   3   4  -1   17.19    0.87
  -3  -4   1   17.57    0.87
  -3  -4   1   17.72    1.12
  -3  -4   1   18.40    0.87
  -3  -4   1   16.70    0.88
  -3  -4   1   18.57    0.89
   2   4  -1    0.60    0.09
   2   4  -1    0.55    0.08
   2   4  -1    0.53    0.10
   2   4  -1    0.63    0.09
  -2  -4   1    0.54    0.08
  -2  -4   1    0.61    0.12
  -2  -4   1    0.58    0.08
  -2  -4   1    0.50    0.09
  -2  -4   1    0.58    0.09
   1   4  -1   34.89    2.10
   1   4  -1   33.71    1.66
   1   4  -1   32.94    1.66
   1   4  -1   34.74    1.64
   1   4  -1   33.34    1.64
  -1  -4   1   34.29    1.63
  -1  -4   1   33.94    1.65
  -1  -4   1   31.68    2.10
  -1  -4   1   34.93    1.63
  -1  -4   1   33.49    1.65
   0   4  -1   22.90    1.11
   0   4  -1   22.49    1.11
   0   4  -1   22.85    1.41
   0   4  -1   22.14    1.09
   0   4  -1   22.37    1.09
   0  -4   1   22.82    1.41
   0  -4   1   22.64    1.10
   0  -4   1   22.20    1.09
   0  -4   1   20.66    1.45
   0  -4   1   22.63    1.10
   0  -4   1   22.94    1.09
  -1   4  -1   10.69    0.56
  -1   4  -1   10.93    0.55
  -1   4  -1   10.79    0.73
  -1   4  -1   10.69    0.55
  -1   4  -1   10.75    0.56
   1  -4   1   11.70    0.55
   1  -4   1   11.27    0.55
   1  -4   1   10.37    0.74
   1  -4   1   12.04    0.55
   1  -4   1   11.17    0.56
   1  -4   1   10.96    0.66
   1  -4   1   12.01    0.75
  -2   4  -1    8.64    0.46
  -2   4  -1    9.15    0.46
  -2   4  -1    8.75    0.46
  -2   4  -1    9.32    0.45
   2  -4   1    8.86    0.45
   2  -4   1    8.63    0.44
   2  -4   1    9.08    0.62
   2  -4   1    8.65    0.44
   2  -4   1    9.13    0.45
   2  -4   1    9.04    0.61
   2  -4   1    8.95    0.54
  -3   4  -1    4.02    0.33
  -3   4  -1    3.67    0.24
  -3   4  -1    4.41    0.24
  -3   4  -1    3.56    0.24
  -3   4  -1    4.16    0.35
  -3   4  -1    3.88    0.24
  -3   4  -1    4.07    0.24
   3  -4   1    4.57    0.35
   3  -4   1    4.36    0.29
   3  -4   1    4.30    0.21
   3  -4   1    4.12    0.22
   3  -4   1    4.09    0.21
   3  -4   1    4.25    0.22
  -4   4  -1    5.89    0.32
  -4   4  -1    5.61    0.33
  -4   4  -1    5.94    0.33
  -4   4  -1    5.80    0.33
   4  -4   1    5.81    0.38
  -5   4  -1    0.47    0.09
  -5   4  -1    0.52    0.09
  -5   4  -1    0.43    0.13
  -5   4  -1    0.63    0.10
  -5   4  -1    0.51    0.09
   5  -4   1    0.66    0.13
   5  -4   1    0.67    0.14
   5  -4   1    0.44    0.13
  -6   4  -1    3.47    0.26
  -6   4  -1    3.44    0.26
  -6   4  -1    3.10    0.27
  -6   4  -1    3.47    0.27
   6  -4   1    4.09    0.34
   6  -4   1    3.39    0.30
  -7   4  -1    0.85    0.15
  -7   4  -1    0.75    0.15
   7  -4   1    0.86    0.19
   7  -4   1    0.62    0.17
   9   3  -1    9.62    0.53
   9   3  -1    9.35    0.52
  -9  -3   1    9.15    0.52
  -9  -3   1    8.49    0.51
   8   3  -1    4.22    0.33
   8   3  -1    3.63    0.33
   8   3  -1    4.50    0.29
   8   3  -1    4.64    0.29
  -8  -3   1    4.32    0.29
  -8  -3   1    4.68    0.29
   7   3  -1    2.82    0.20
   7   3  -1    2.64    0.20
  -7  -3   1    2.73    0.21
  -7  -3   1    2.39    0.20
  -7  -3   1    2.69    0.21
  -7  -3   1    3.01    0.21
   6   3  -1    4.06    0.28
   6   3  -1    5.00    0.29
   6   3  -1    4.59    0.28
   6   3  -1    5.01    0.28
  -6  -3   1    4.52    0.29
  -6  -3   1    4.71    0.29
   5   3  -1   20.83    1.00
   5   3  -1   19.21    0.98
   5   3  -1   19.85    0.98
   5   3  -1   19.91    1.00
  -5  -3   1   20.50    1.00
  -5  -3   1   18.17    1.00
  -5  -3   1   19.82    0.98
  -5  -3   1   20.04    0.99
   4   3  -1    0.14    0.06
   4   3  -1    0.05    0.05
  -4  -3   1    0.06    0.06
  -4  -3   1    0.08    0.06
  -4  -3   1    0.05    0.06
  -4  -3   1    0.09    0.06
   3   3  -1    3.19    0.19
   3   3  -1    3.17    0.20
   3   3  -1    2.89    0.19
   3   3  -1    3.14    0.20
  -3  -3   1    3.10    0.19
  -3  -3   1    3.16    0.19
  -3  -3   1    3.10    0.19
  -3  -3   1    3.04    0.19
   2   3  -1   66.14    3.20
   2   3  -1   63.65    3.16
   2   3  -1   64.64    3.16
   2   3  -1   64.13    3.20
  -2  -3   1   68.09    4.06
  -2  -3   1   67.19    3.16
  -2  -3   1   67.58    3.20
  -2  -3   1   65.54    3.20
  -2  -3   1   65.42    3.16
   1   3  -1   11.43    0.57
   1   3  -1   11.24    0.56
   1   3  -1   11.09    0.56
   1   3  -1   10.64    0.72
   1   3  -1   11.52    0.56
  -1  -3   1   11.44    0.56
  -1  -3   1   10.05    0.71
  -1  -3   1   11.23    0.56
  -1  -3   1   11.66    0.56
  -1  -3   1   11.74    0.56
   0   3  -1   37.94    1.88
   0   3  -1   39.06    1.88
   0   3  -1   36.07    2.38
   0   3  -1   37.65    1.85
   0   3  -1   38.27    1.85
   0  -3   1   37.94    1.85
   0  -3   1   42.28    2.46
   0  -3   1   37.55    1.87
   0  -3   1   36.64    1.87
   0  -3   1   38.40    1.85
   0  -3   1   40.87    2.38
  -1   3  -1    1.12    0.09
  -1   3  -1    1.16    0.14
  -1   3  -1    1.22    0.09
  -1   3  -1    1.14    0.09
  -1   3  -1    1.15    0.09
   1  -3   1    1.36    0.14
   1  -3   1    1.06    0.08
   1  -3   1    1.19    0.09
   1  -3   1    1.17    0.08
   1  -3   1    1.06    0.08
  -2   3  -1   97.93    4.76
  -2   3  -1   93.36    6.11
  -2   3  -1  101.71    4.82
  -2   3  -1   93.96    4.82
  -2   3  -1   98.36    4.76
   2  -3   1  104.17    6.30
   2  -3   1  103.84    4.83
   2  -3   1   99.94    4.76
   2  -3   1  102.58    4.75
   2  -3   1   97.73    4.81
  -3   3  -1    4.91    0.28
  -3   3  -1    5.37    0.28
  -3   3  -1    5.27    0.28
  -3   3  -1    5.00    0.27
  -3   3  -1    5.16    0.39
   3  -3   1    4.85    0.26
   3  -3   1    5.24    0.27
   3  -3   1    4.65    0.26
   3  -3   1    5.40    0.26
  -4   3  -1    0.23    0.06
  -4   3  -1    0.26    0.06
  -4   3  -1    0.22    0.07
  -4   3  -1    0.33    0.11
  -4   3  -1    0.21    0.07
   4  -3   1    0.29    0.05
   4  -3   1    0.41    0.09
   4  -3   1    0.36    0.10
   4  -3   1    0.17    0.10
   4  -3   1    0.22    0.05
   4  -3   1    0.22    0.05
   4  -3   1    0.26    0.05
  -5   3  -1   -0.05    0.06
  -5   3  -1   -0.11    0.07
  -5   3  -1    0.00    0.07
  -5   3  -1   -0.04    0.07
   5  -3   1    0.01    0.04
   5  -3   1    0.04    0.05
   5  -3   1   -0.04    0.05
   5  -3   1   -0.06    0.04
   5  -3   1    0.07    0.10
   5  -3   1   -0.11    0.10
   5  -3   1    0.15    0.09
  -6   3  -1    6.52    0.35
  -6   3  -1    6.11    0.35
  -6   3  -1    5.97    0.47
  -6   3  -1    5.62    0.35
  -6   3  -1    6.40    0.35
   6  -3   1    6.15    0.31
   6  -3   1    5.91    0.31
   6  -3   1    5.45    0.31
   6  -3   1    6.18    0.31
   6  -3   1    5.45    0.40
  -7   3  -1    0.85    0.14
  -7   3  -1    0.91    0.15
  -8   3  -1    0.56    0.15
  -8   3  -1    0.51    0.16
   8  -3   1    0.71    0.19
   8  -3   1    0.29    0.15
   9   2  -1    0.35    0.20
   9   2  -1    0.48    0.13
   9   2  -1    0.52    0.13
   9   2  -1    0.11    0.20
   9   2  -1    0.41    0.17
  -9  -2   1    0.58    0.12
  -9  -2   1    0.50    0.13
  -8  -2   1    2.14    0.37
  -8  -2   1    2.72    0.22
  -8  -2   1    2.42    0.21
   7   2  -1   30.35    1.66
   7   2  -1   34.66    1.67
   7   2  -1   33.22    1.65
   7   2  -1   37.57    1.65
  -7  -2   1   34.58    1.67
  -7  -2   1   30.72    1.65
   6   2  -1   28.31    1.29
   6   2  -1   26.06    1.27
   6   2  -1   25.25    1.26
   6   2  -1   25.77    1.28
  -6  -2   1   25.21    1.28
  -6  -2   1   24.39    1.29
  -6  -2   1   24.77    1.27
  -6  -2   1   25.31    1.27
   5   2  -1    2.03    0.17
   5   2  -1    2.02    0.17
   5   2  -1    2.07    0.16
   5   2  -1    2.20    0.16
  -5  -2   1    2.27    0.17
  -5  -2   1    2.76    0.18
  -5  -2   1    2.39    0.17
  -5  -2   1    2.63    0.17
   4   2  -1    1.40    0.11
   4   2  -1    1.37    0.11
   4   2  -1    1.40    0.12
   4   2  -1    1.25    0.12
  -4  -2   1    1.28    0.12
  -4  -2   1    1.28    0.12
  -4  -2   1    1.39    0.12
  -4  -2   1    1.42    0.12
   3   2  -1  177.03    8.87
   3   2  -1  186.43    8.77
   3   2  -1  180.17    8.77
   3   2  -1  176.29    8.87
  -3  -2   1  175.62    8.87
  -3  -2   1  188.61    8.75
  -3  -2   1  191.19    8.79
  -3  -2   1  188.47    8.86
   2   2  -1   23.95    1.22
   2   2  -1   22.95    1.22
   2   2  -1   25.47    1.21
   2   2  -1   25.60    1.21
  -2  -2   1   25.42    1.21
  -2  -2   1   25.18    1.20
  -2  -2   1   23.86    1.22
  -2  -2   1   26.35    1.22
   1   2  -1    3.84    0.22
   1   2  -1    3.91    0.22
   1   2  -1    4.17    0.22
   1   2  -1    4.09    0.22
  -1  -2   1    4.06    0.22
  -1  -2   1    4.26    0.22
  -1  -2   1    4.15    0.22
  -1  -2   1    4.57    0.28
  -1  -2   1    4.35    0.22
   0   2  -1    4.54    0.24
   0   2  -1    4.71    0.25
   0   2  -1    4.65    0.31
   0   2  -1    4.61    0.24
   0   2  -1    4.77    0.25
   0  -2   1    4.87    0.25
   0  -2   1    4.63    0.24
   0  -2   1    4.44    0.24
   0  -2   1    4.77    0.24
   0  -2   1    5.03    0.31
  -1   2  -1   37.31    2.27
  -1   2  -1   37.49    1.79
  -1   2  -1   35.89    1.77
  -1   2  -1   37.61    1.77
  -1   2  -1   37.53    1.79
   1  -2   1   34.97    1.79
   1  -2   1   36.39    1.76
   1  -2   1   36.00    1.79
   1  -2   1   37.63    1.76
  -2   2  -1    1.22    0.09
  -2   2  -1    1.19    0.15
  -2   2  -1    1.11    0.08
  -2   2  -1    1.15    0.09
  -2   2  -1    1.20    0.09
  -2   2  -1    1.18    0.09
   2  -2   1    1.30    0.09
   2  -2   1    1.25    0.09
   2  -2   1    1.12    0.08
   2  -2   1    1.09    0.15
   2  -2   1    1.16    0.08
  -3   2  -1    0.44    0.10
  -3   2  -1    0.77    0.08
  -3   2  -1    0.74    0.08
  -3   2  -1    0.72    0.09
  -3   2  -1    0.57    0.08
   3  -2   1    0.69    0.07
   3  -2   1    0.65    0.07
   3  -2   1    0.77    0.07
   3  -2   1    0.76    0.07
   3  -2   1    0.55    0.11
  -4   2  -1    0.05    0.05
  -4   2  -1    0.04    0.05
  -4   2  -1    0.05    0.08
  -4   2  -1    0.00    0.04
  -4   2  -1    0.04    0.05
   4  -2   1    0.04    0.07
   4  -2   1    0.10    0.08
   4  -2   1    0.02    0.08
   4  -2   1    0.06    0.04
   4  -2   1    0.01    0.04
   4  -2   1    0.06    0.04
   4  -2   1    0.06    0.04
  -5   2  -1    5.17    0.30
  -5   2  -1    5.26    0.30
  -5   2  -1    5.34    0.31
  -5   2  -1    5.37    0.41
  -5   2  -1    5.35    0.31
   5  -2   1    5.67    0.29
   5  -2   1    5.46    0.29
   5  -2   1    5.56    0.29
   5  -2   1    4.84    0.35
   5  -2   1    6.34    0.29
   5  -2   1    5.16    0.39
  -6   2  -1    0.34    0.08
  -6   2  -1    0.46    0.09
  -6   2  -1    0.26    0.08
  -6   2  -1    0.47    0.09
   6  -2   1    0.40    0.07
   6  -2   1    0.42    0.12
   6  -2   1    0.40    0.07
   6  -2   1    0.31    0.11
  -7   2  -1    1.39    0.18
  -7   2  -1    1.54    0.27
  -7   2  -1    1.60    0.19
  -7   2  -1    1.76    0.19
  -7   2  -1    1.68    0.18
   7  -2   1    1.29    0.19
   7  -2   1    1.55    0.22
   7  -2   1    1.39    0.14
   7  -2   1    1.29    0.14
   7  -2   1    1.52    0.16
   7  -2   1    1.66    0.16
  -8   2  -1    1.42    0.22
  -8   2  -1    1.78    0.22
   8  -2   1    1.13    0.14
   8  -2   1    1.20    0.14
   8  -2   1    1.23    0.22
   8  -2   1    1.28    0.24
  -9   2  -1    2.50    0.29
  -9   2  -1    2.77    0.31
   9  -2   1    2.04    0.28
   9  -2   1    1.66    0.30
   9   1  -1    0.41    0.13
   9   1  -1    0.53    0.13
   9   1  -1    0.59    0.17
  -9  -1   1    0.61    0.13
  -9  -1   1    0.49    0.13
   8   1  -1    1.50    0.23
   8   1  -1    1.20    0.17
   8   1  -1    1.23    0.22
   8   1  -1    1.23    0.17
   8   1  -1    1.41    0.23
  -8  -1   1    1.74    0.18
  -8  -1   1    1.31    0.24
  -8  -1   1    1.59    0.18
   7   1  -1    3.62    0.25
   7   1  -1    3.82    0.24
   7   1  -1    3.40    0.25
   7   1  -1    3.64    0.29
   7   1  -1    3.76    0.24
  -7  -1   1    3.56    0.25
  -7  -1   1    4.37    0.26
  -7  -1   1    3.83    0.24
  -7  -1   1    3.30    0.23
   6   1  -1    8.67    0.46
   6   1  -1    8.15    0.47
   6   1  -1    8.37    0.45
   6   1  -1    8.04    0.46
  -6  -1   1    8.45    0.46
  -6  -1   1    8.74    0.46
  -6  -1   1    9.44    0.47
  -6  -1   1    9.07    0.47
   5   1  -1    0.09    0.06
   5   1  -1    0.09    0.06
   5   1  -1    0.03    0.06
   5   1  -1    0.00    0.05
  -5  -1   1   -0.01    0.06
  -5  -1   1    0.06    0.06
   4   1  -1    9.54    0.54
   4   1  -1   11.00    0.55
   4   1  -1   10.73    0.55
   4   1  -1   11.12    0.54
  -4  -1   1   10.95    0.55
  -4  -1   1   10.21    0.55
  -4  -1   1   10.78    0.54
  -4  -1   1   12.05    0.55
   3   1  -1    2.39    0.15
   3   1  -1    2.42    0.15
   3   1  -1    2.61    0.15
   3   1  -1    2.58    0.16
  -3  -1   1    2.34    0.15
  -3  -1   1    2.18    0.15
  -3  -1   1    2.59    0.15
  -3  -1   1    2.68    0.15
   2   1  -1    3.06    0.17
   2   1  -1    3.07    0.17
   2   1  -1    3.05    0.16
   2   1  -1    2.89    0.16
  -2  -1   1    2.80    0.16
  -2  -1   1    2.83    0.17
  -2  -1   1    2.81    0.17
  -2  -1   1    3.23    0.17
   1   1  -1   10.93    0.54
   1   1  -1   10.27    0.54
   1   1  -1   10.69    0.55
   1   1  -1   10.33    0.55
  -1  -1   1   11.82    0.54
  -1  -1   1   11.30    0.54
  -1  -1   1   11.14    0.55
  -1  -1   1   11.40    0.55
   0   1  -1   98.84    4.82
   0   1  -1   98.50    4.89
   0   1  -1  103.41    4.89
   0   1  -1   93.68    4.81
   0   1  -1  103.24    6.18
   0  -1   1  101.31    4.82
   0  -1   1  104.27    4.89
   0  -1   1   97.93    4.88
   0  -1   1  101.52    4.82
  -1   1  -1   74.35    3.49
  -1   1  -1   74.55    3.54
  -1   1  -1   68.77    3.54
  -1   1  -1   76.64    3.49
  -1   1  -1   72.51    4.62
   1  -1   1   70.63    3.54
   1  -1   1   72.33    3.49
   1  -1   1   75.07    4.62
   1  -1   1   71.30    3.55
   1  -1   1   73.86    3.49
  -2   1  -1    3.16    0.16
  -2   1  -1    2.96    0.16
  -2   1  -1    2.63    0.16
  -2   1  -1    3.24    0.23
  -2   1  -1    2.90    0.16
   2  -1   1    2.93    0.16
   2  -1   1    2.96    0.16
   2  -1   1    2.77    0.16
   2  -1   1    3.01    0.16
   2  -1   1    2.59    0.22
  -3   1  -1    4.71    0.25
  -3   1  -1    4.69    0.25
  -3   1  -1    4.59    0.34
  -3   1  -1    4.40    0.25
  -3   1  -1    4.85    0.25
   3  -1   1    4.69    0.25
   3  -1   1    4.21    0.24
   3  -1   1    5.06    0.25
   3  -1   1    4.65    0.27
   3  -1   1    4.55    0.24
   3  -1   1    4.52    0.34
  -4   1  -1   72.39    3.47
  -4   1  -1   71.83    3.43
  -4   1  -1   68.39    3.42
  -4   1  -1   76.29    4.54
  -4   1  -1   67.69    3.47
   4  -1   1   67.45    3.42
   4  -1   1   67.71    3.46
   4  -1   1   72.79    3.47
   4  -1   1   79.23    4.54
   4  -1   1   76.41    3.42
   4  -1   1   64.18    4.00
  -5   1  -1    4.49    0.27
  -5   1  -1    4.11    0.26
   5  -1   1    4.90    0.28
   5  -1   1    4.76    0.25
   5  -1   1    4.87    0.26
   5  -1   1    4.00    0.25
   5  -1   1    4.87    0.26
  -6   1  -1    0.33    0.08
  -6   1  -1    0.31    0.11
  -6   1  -1    0.35    0.08
  -6   1  -1    0.17    0.07
  -6   1  -1    0.32    0.07
   6  -1   1    0.26    0.07
   6  -1   1    0.38    0.07
   6  -1   1    0.24    0.07
   6  -1   1    0.31    0.07
   6  -1   1    0.39    0.06
  -7   1  -1    0.51    0.10
  -7   1  -1    0.49    0.10
  -7   1  -1    0.58    0.10
  -7   1  -1    0.33    0.09
   7  -1   1    0.58    0.10
   7  -1   1    0.68    0.09
   7  -1   1    0.65    0.09
   7  -1   1    0.54    0.08
   7  -1   1    0.54    0.10
  -8   1  -1    9.71    0.52
  -8   1  -1    9.85    0.52
   8  -1   1    9.20    0.49
   8  -1   1    8.13    0.54
   8  -1   1    8.69    0.49
   8  -1   1    9.59    0.58
   8  -1   1    8.83    0.66
  -9   1  -1    1.95    0.25
  -9   1  -1    2.52    0.26
   9  -1   1    1.96    0.22
   9  -1   1    1.95    0.25
   9  -1   1    1.96    0.22
   9  -1   1    1.42    0.28
   9   0  -1   11.59    0.61
   9   0  -1   10.56    0.61
  -9   0   1   12.59    0.66
  -9   0   1   11.13    0.64
   8   0  -1   18.61    0.92
   8   0  -1   17.52    1.08
   8   0  -1   18.19    0.91
  -8   0   1   17.56    0.94
  -8   0   1   16.29    0.93
  -8   0   1   20.84    1.28
   7   0  -1   19.65    1.00
   7   0  -1   20.69    1.01
   7   0  -1   19.45    0.99
   7   0  -1   19.06    1.17
   7   0  -1   18.48    0.99
  -7   0   1   21.58    1.02
  -7   0   1   19.18    1.02
  -7   0   1   21.10    1.01
  -7   0   1   20.38    1.00
   6   0  -1   -0.08    0.06
   6   0  -1    0.01    0.07
   6   0  -1    0.04    0.07
   6   0  -1   -0.01    0.06
   6   0  -1    0.00    0.06
  -6   0   1    0.06    0.07
  -6   0   1    0.06    0.10
  -6   0   1    0.03    0.06
   5   0  -1   34.27    1.64
   5   0  -1   33.77    1.92
   5   0  -1   34.65    1.64
   5   0  -1   33.42    1.66
   5   0  -1   32.56    1.66
   4   0  -1    5.88    0.35
   4   0  -1    6.59    0.35
   4   0  -1    6.89    0.35
  -4   0   1    7.45    0.35
  -4   0   1    7.04    0.36
   3   0  -1   33.06    1.49
   3   0  -1   32.18    1.47
   3   0  -1   28.67    1.47
   3   0  -1   30.69    1.49
  -3   0   1   26.43    1.49
  -3   0   1   32.08    1.48
   2   0  -1   12.51    0.62
   2   0  -1   11.63    0.61
   2   0  -1   12.37    0.62
   2   0  -1   12.32    0.61
  -2   0   1   12.00    0.61
  -2   0   1   14.19    0.62
  -1   0   1   36.10    1.74
  -1   0   1   36.38    1.76
  -1   0  -1   -0.29    0.11
  -1   0  -1    0.01    0.08
  -1   0  -1    0.02    0.08
   1   0   1    0.03    0.09
   1   0   1   -0.10    0.10
   1   0   1    0.02    0.09
  -2   0  -1  227.06   10.72
  -2   0  -1  209.26   10.73
  -2   0  -1  240.16   10.60
  -2   0  -1  215.54   13.99
  -2   0  -1  215.76   10.58
   2   0   1  207.54   10.57
   2   0   1  224.99   10.74
   2   0   1  236.00   10.60
   2   0   1  207.86   10.72
   2   0   1  223.98   14.00
  -3   0  -1    3.72    0.21
  -3   0  -1    3.76    0.21
  -3   0  -1    3.87    0.21
  -3   0  -1    3.91    0.28
  -3   0  -1    3.70    0.21
   3   0   1    4.03    0.21
   3   0   1    3.66    0.21
   3   0   1    4.43    0.21
   3   0   1    4.05    0.21
  -4   0  -1    7.01    0.40
  -4   0  -1    7.59    0.52
  -4   0  -1    8.57    0.40
  -4   0  -1    8.06    0.40
  -4   0  -1    7.92    0.40
   4   0   1    8.01    0.39
   4   0   1    7.78    0.40
   4   0   1    6.64    0.39
   4   0   1    7.67    0.39
  -5   0  -1    5.96    0.32
  -5   0  -1    5.54    0.42
  -5   0  -1    5.69    0.31
  -5   0  -1    6.36    0.32
  -5   0  -1    6.06    0.32
   5   0   1    5.15    0.31
   5   0   1    6.14    0.31
   5   0   1    5.96    0.32
   5   0   1    5.78    0.32
  -6   0  -1    1.32    0.13
  -6   0  -1    1.44    0.21
  -6   0  -1    0.95    0.12
  -6   0  -1    1.47    0.15
  -6   0  -1    1.61    0.15
   6   0   1    1.38    0.13
   6   0   1    1.39    0.13
   6   0   1    1.18    0.13
   6   0   1    1.20    0.13
  -7   0  -1    4.08    0.27
  -7   0  -1    4.41    0.28
  -7   0  -1    4.73    0.28
  -7   0  -1    4.57    0.27
  -7   0  -1    3.99    0.38
   7   0   1    4.85    0.27
   7   0   1    4.93    0.30
   7   0   1    4.42    0.29
   7   0   1    4.52    0.29
   7   0   1    4.21    0.27
  -8   0  -1    1.83    0.18
  -8   0  -1    1.15    0.17
  -8   0  -1    1.29    0.22
   8   0   1    1.51    0.17
   8   0   1    1.19    0.17
   8   0   1    1.37    0.20
   8   0   1    1.26    0.16
   8   0   1    1.49    0.21
   9   0   1    3.35    0.28
   9   0   1    3.73    0.36
   9   0   1    3.65    0.30
   9   0   1    3.67    0.30
   9   0   1    3.86    0.36
  -9   1   1    4.81    0.40
  -9   1   1    5.75    0.40
   8  -1  -1    1.57    0.16
   8  -1  -1    1.94    0.16
   8  -1  -1    1.69    0.24
   7  -1  -1    1.19    0.14
   7  -1  -1    1.11    0.14
   7  -1  -1    1.13    0.12
   7  -1  -1    1.06    0.12
   7  -1  -1    1.03    0.16
  -7   1   1    0.83    0.13
  -7   1   1    1.02    0.16
  -7   1   1    0.85    0.17
   6  -1  -1    3.13    0.19
   6  -1  -1    2.94    0.19
   6  -1  -1    3.55    0.24
   6  -1  -1    3.32    0.19
   6  -1  -1    3.10    0.20
  -6   1   1    2.75    0.22
  -6   1   1    2.93    0.22
  -6   1   1    3.18    0.21
  -6   1   1    3.17    0.22
  -6   1   1    3.04    0.29
   5  -1  -1   13.77    0.77
   5  -1  -1   13.54    0.66
   5  -1  -1   11.59    0.64
   5  -1  -1   13.23    0.66
   5  -1  -1   13.52    0.65
  -5   1   1   13.43    0.67
  -5   1   1   12.55    0.89
  -5   1   1   12.16    0.66
  -5   1   1   12.81    0.67
  -5   1   1   14.26    0.66
   4  -1  -1    7.17    0.37
   4  -1  -1    7.14    0.36
   4  -1  -1    6.80    0.37
   4  -1  -1    6.76    0.36
   4  -1  -1    6.61    0.43
  -4   1   1    7.30    0.38
  -4   1   1    7.64    0.51
  -4   1   1    7.57    0.37
  -4   1   1    7.60    0.38
  -4   1   1    7.89    0.38
   3  -1  -1   15.92    0.90
   3  -1  -1   16.18    0.76
   3  -1  -1   15.94    0.77
   3  -1  -1   12.97    0.77
   3  -1  -1   16.74    0.76
  -3   1   1   15.87    0.77
  -3   1   1   16.21    0.78
  -3   1   1   15.65    1.03
   2  -1  -1  100.09    5.66
   2  -1  -1   95.71    4.89
   2  -1  -1  100.65    4.82
  -2   1   1  106.46    6.37
  -2   1   1  102.02    4.81
  -2   1   1   97.56    4.82
  -2   1   1  100.63    4.88
  -2   1   1  101.55    4.87
   1  -1  -1   57.23    3.02
  -1   1   1   53.29    2.61
  -1   1   1   53.74    2.62
  -1   1   1   53.55    3.02
  -1   1   1   51.60    2.58
  -1   1   1   53.77    2.59
   0  -1  -1    1.53    0.11
  -1  -1  -1    0.27    0.05
  -1  -1  -1    0.37    0.04
  -1  -1  -1    0.38    0.05
   1   1   1    0.37    0.05
   1   1   1    0.31    0.04
   1   1   1    0.35    0.04
  -2  -1  -1   75.96    3.69
  -2  -1  -1   74.92    3.74
  -2  -1  -1   76.67    3.75
  -2  -1  -1   79.66    3.70
   2   1   1   74.77    3.74
   2   1   1   80.01    3.70
   2   1   1   75.47    3.69
   2   1   1   80.17    3.75
  -3  -1  -1    2.24    0.14
  -3  -1  -1    2.26    0.14
  -3  -1  -1    2.53    0.17
  -3  -1  -1    2.01    0.14
  -3  -1  -1    2.22    0.14
   3   1   1    2.28    0.14
   3   1   1    2.11    0.14
   3   1   1    2.40    0.14
   3   1   1    2.35    0.14
  -4  -1  -1   19.19    1.19
  -4  -1  -1   18.90    0.90
  -4  -1  -1   17.35    0.91
  -4  -1  -1   18.05    0.90
  -4  -1  -1   18.23    0.91
   4   1   1   18.59    0.90
   4   1   1   18.13    0.90
   4   1   1   18.29    0.91
   4   1   1   18.04    0.91
  -5  -1  -1   22.08    1.09
  -5  -1  -1   22.17    1.07
  -5  -1  -1   20.76    1.41
  -5  -1  -1   20.98    1.07
  -5  -1  -1   22.00    1.09
   5   1   1   20.87    1.08
   5   1   1   24.30    1.09
   5   1   1   21.89    1.07
   5   1   1   21.52    1.07
  -6  -1  -1   11.17    0.57
  -6  -1  -1   10.57    0.57
  -6  -1  -1   10.89    0.75
  -6  -1  -1   12.00    0.57
  -6  -1  -1   10.02    0.56
   6   1   1   10.68    0.57
   6   1   1   10.98    0.56
   6   1   1   10.74    0.57
   6   1   1   11.17    0.56
  -7  -1  -1    1.39    0.23
  -7  -1  -1    1.15    0.14
  -7  -1  -1    1.39    0.13
   7   1   1    1.56    0.16
   7   1   1    1.20    0.14
   7   1   1    1.39    0.16
   7   1   1    1.49    0.14
  -8  -1  -1    0.13    0.07
  -8  -1  -1    0.42    0.08
   8   1   1    0.29    0.11
   8   1   1    0.31    0.11
   8   1   1    0.23    0.08
   8   1   1    0.25    0.09
  -9  -1  -1    0.36    0.10
  -9  -1  -1    0.58    0.26
  -9  -1  -1    0.43    0.10
   9   1   1    0.26    0.11
   9   1   1    0.29    0.11
   9   1   1    0.33    0.13
 -10  -1  -1    2.41    0.26
 -10  -1  -1    3.28    0.27
  10   1   1    2.47    0.29
  10   1   1    2.80    0.30
   8  -2  -1    0.73    0.15
   7  -2  -1   11.76    0.69
  -7   2   1   12.39    0.62
  -7   2   1   10.88    0.83
  -7   2   1   11.53    0.63
  -7   2   1   10.11    0.61
  -7   2   1   12.23    0.62
   6  -2  -1    6.18    0.32
   6  -2  -1    6.55    0.40
   6  -2  -1    5.85    0.31
   6  -2  -1    6.75    0.32
   6  -2  -1    6.23    0.31
  -6   2   1    6.65    0.36
  -6   2   1    5.65    0.36
  -6   2   1    6.60    0.36
  -6   2   1    6.23    0.36
   5  -2  -1    7.17    0.34
   5  -2  -1    6.71    0.34
   5  -2  -1    6.67    0.34
   5  -2  -1    6.71    0.42
   5  -2  -1    6.55    0.34
  -5   2   1    6.79    0.51
  -5   2   1    6.84    0.37
  -5   2   1    6.89    0.37
   4  -2  -1   25.58    1.48
   4  -2  -1   25.92    1.27
   4  -2  -1   25.64    1.25
   4  -2  -1   25.71    1.27
   4  -2  -1   26.55    1.25
  -4   2   1   26.67    1.29
  -4   2   1   26.11    1.27
  -4   2   1   25.61    1.27
  -4   2   1   27.03    1.29
   3  -2  -1   79.07    4.55
  -3   2   1   77.77    3.94
  -3   2   1   89.31    3.89
  -3   2   1   87.24    3.94
  -3   2   1   72.22    3.88
   2  -2  -1   25.41    1.45
  -2   2   1   24.39    1.45
  -2   2   1   25.53    1.25
  -2   2   1   25.36    1.23
  -2   2   1   27.07    1.25
  -2   2   1   28.61    1.65
  -2   2   1   23.14    1.23
   1  -2  -1    1.89    0.15
  -1   2   1    1.80    0.09
  -1   2   1    1.70    0.12
  -1   2   1    1.65    0.15
  -1   2   1    1.63    0.09
  -1   2   1    1.79    0.09
  -1   2   1    1.79    0.09
   0  -2  -1   62.91    4.27
   0  -2  -1   71.73    4.40
   0   2   1   74.18    4.40
   0   2   1   69.77    4.27
  -1  -2  -1    0.49    0.09
  -1  -2  -1    0.61    0.05
  -1  -2  -1    0.53    0.05
  -1  -2  -1    0.40    0.07
   1   2   1    0.66    0.10
   1   2   1    0.42    0.06
   1   2   1    0.45    0.06
  -2  -2  -1   79.62    3.94
  -2  -2  -1   75.77    3.89
  -2  -2  -1   82.42    3.95
  -2  -2  -1   80.39    3.90
   2   2   1   85.58    3.89
   2   2   1   83.75    3.94
  -3  -2  -1    2.36    0.15
  -3  -2  -1    2.45    0.15
  -3  -2  -1    2.35    0.15
  -3  -2  -1    2.46    0.15
   3   2   1    2.46    0.15
   3   2   1    2.27    0.15
   3   2   1    2.44    0.15
   3   2   1    2.49    0.15
  -4  -2  -1    2.39    0.15
  -4  -2  -1    2.12    0.15
   4   2   1    2.06    0.15
   4   2   1    2.10    0.15
   4   2   1    2.16    0.14
   4   2   1    2.24    0.15
  -5  -2  -1   39.60    1.95
  -5  -2  -1   41.38    1.98
   5   2   1   41.79    1.98
   5   2   1   40.37    1.95
   5   2   1   39.43    1.98
   5   2   1   39.40    1.95
  -6  -2  -1    1.13    0.12
  -6  -2  -1    0.93    0.17
  -6  -2  -1    1.12    0.13
   6   2   1    1.01    0.13
   6   2   1    0.93    0.13
   6   2   1    1.12    0.12
   6   2   1    1.15    0.12
  -7  -2  -1    3.45    0.23
  -7  -2  -1    3.16    0.23
  -7  -2  -1    3.02    0.30
   7   2   1    2.97    0.21
   7   2   1    2.99    0.22
   7   2   1    3.46    0.22
   7   2   1    2.89    0.22
  -8  -2  -1    6.92    0.42
  -8  -2  -1    7.45    0.44
  -8  -2  -1    8.55    0.44
  -8  -2  -1    6.98    0.59
  -8  -2  -1    7.25    0.44
   8   2   1    8.37    0.44
   8   2   1    8.52    0.44
  -9  -2  -1    7.36    0.42
  -9  -2  -1    6.94    0.62
  -9  -2  -1    6.74    0.41
   9   2   1    6.85    0.46
   9   2   1    6.68    0.42
   9   2   1    7.49    0.41
   9   2   1    6.54    0.47
 -10  -2  -1    2.58    0.23
 -10  -2  -1    2.13    0.23
  10   2   1    1.80    0.33
  10   2   1    2.00    0.27
   8  -3  -1    0.21    0.17
   8  -3  -1    0.51    0.16
  -8   3   1    0.83    0.18
  -8   3   1    0.60    0.17
   7  -3  -1    8.51    0.53
  -7   3   1    7.08    0.47
  -6   3   1    3.35    0.23
  -6   3   1    3.40    0.24
  -6   3   1    3.32    0.24
  -6   3   1    3.43    0.24
  -6   3   1    3.37    0.32
   5  -3  -1    2.93    0.25
  -5   3   1    2.95    0.21
  -5   3   1    3.16    0.21
  -5   3   1    3.63    0.22
  -5   3   1    3.94    0.22
  -4   3   1    0.16    0.10
  -4   3   1    0.14    0.06
  -4   3   1    0.15    0.05
  -4   3   1    0.16    0.06
  -4   3   1    0.20    0.06
   3  -3  -1   11.46    0.64
   3  -3  -1   12.04    0.72
  -3   3   1   10.24    0.53
  -3   3   1   10.97    0.54
  -3   3   1   10.32    0.54
  -3   3   1    9.49    0.62
  -3   3   1   11.13    0.53
  -3   3   1   10.00    0.73
   2  -3  -1    0.41    0.10
   2  -3  -1    0.48    0.09
   2  -3  -1    0.52    0.09
  -2   3   1    0.47    0.08
  -2   3   1    0.48    0.06
  -2   3   1    0.52    0.06
  -2   3   1    0.35    0.10
  -2   3   1    0.57    0.06
  -2   3   1    0.55    0.06
   1  -3  -1   56.54    3.26
  -1   3   1   51.47    2.48
  -1   3   1   46.67    3.15
  -1   3   1   48.53    2.44
  -1   3   1   52.39    2.88
   0  -3  -1  121.54    7.94
   0  -3  -1  123.57    7.71
   0   3   1  126.18    6.03
   0   3   1  128.88    6.11
   0   3   1  124.96    6.03
   0   3   1  143.86    7.72
   0   3   1  121.43    7.94
   0   3   1  115.44    6.11
  -1  -3  -1    0.26    0.04
  -1  -3  -1    0.21    0.05
  -1  -3  -1    0.20    0.06
  -1  -3  -1    0.24    0.04
  -1  -3  -1    0.22    0.04
  -1  -3  -1    0.28    0.04
   1   3   1    0.23    0.03
   1   3   1    0.22    0.03
   1   3   1    0.28    0.04
   1   3   1    0.21    0.06
   1   3   1    0.30    0.04
  -2  -3  -1   70.50    3.46
  -2  -3  -1   75.35    4.45
  -2  -3  -1   71.62    3.51
  -2  -3  -1   72.60    3.51
  -2  -3  -1   73.79    3.46
   2   3   1   74.47    3.46
   2   3   1   72.87    3.51
   2   3   1   68.01    3.51
   2   3   1   71.02    3.46
  -3  -3  -1   91.70    4.34
  -3  -3  -1   90.69    4.40
  -3  -3  -1   93.01    4.34
  -3  -3  -1   89.92    4.39
   3   3   1   93.10    4.40
   3   3   1   84.75    4.34
  -4  -3  -1   42.58    1.98
  -4  -3  -1   40.47    2.01
  -4  -3  -1   41.10    2.01
  -4  -3  -1   38.57    1.98
   4   3   1   41.01    1.98
   4   3   1   41.34    2.01
   4   3   1   42.29    2.01
   4   3   1   40.47    1.98
  -5  -3  -1    6.50    0.37
  -5  -3  -1    6.64    0.37
  -5  -3  -1    7.01    0.37
  -5  -3  -1    7.02    0.38
   5   3   1    6.89    0.38
   5   3   1    7.21    0.37
   5   3   1    7.05    0.38
   5   3   1    7.20    0.38
  -6  -3  -1    0.68    0.10
  -6  -3  -1    0.99    0.13
  -6  -3  -1    0.67    0.10
  -6  -3  -1    0.75    0.10
   6   3   1    0.81    0.12
   6   3   1    0.80    0.10
   6   3   1    0.92    0.12
   6   3   1    0.81    0.10
  -7  -3  -1    0.22    0.08
  -7  -3  -1    0.21    0.08
  -7  -3  -1    0.07    0.11
   7   3   1    0.15    0.08
   7   3   1    0.19    0.08
   7   3   1    0.10    0.07
   7   3   1    0.15    0.07
  -8  -3  -1   10.76    0.56
  -8  -3  -1   10.98    0.54
  -8  -3  -1    9.95    0.72
  -8  -3  -1    9.66    0.54
  -8  -3  -1    8.87    0.54
   8   3   1    9.70    0.55
   8   3   1   11.07    0.55
   8   3   1    9.23    0.54
   8   3   1    9.57    0.53
  -9  -3  -1    0.49    0.10
  -9  -3  -1    0.32    0.09
   9   3   1    0.32    0.11
   9   3   1    0.35    0.16
   9   3   1    0.51    0.11
   9   3   1    0.31    0.16
 -10  -3  -1    0.18    0.10
  10   3   1    0.38    0.14
  10   3   1    0.21    0.14
   7  -4  -1    0.19    0.15
   7  -4  -1    0.30    0.14
  -7   4   1    0.38    0.14
  -7   4   1    0.33    0.19
  -7   4   1    0.18    0.14
  -7   4   1    0.24    0.18
   6  -4  -1    3.74    0.28
  -6   4   1    2.94    0.24
  -6   4   1    2.78    0.24
  -6   4   1    3.02    0.24
  -6   4   1    3.00    0.26
   5  -4  -1    9.65    0.71
   5  -4  -1   10.03    0.65
  -5   4   1    9.89    0.54
  -5   4   1   11.24    0.54
  -5   4   1   10.71    0.54
  -5   4   1    9.98    0.53
   4  -4  -1   30.29    1.73
   4  -4  -1   34.00    1.95
  -4   4   1   29.17    1.48
  -4   4   1   29.39    1.48
  -4   4   1   28.81    1.46
  -4   4   1   28.65    1.46
   3  -4  -1   -0.03    0.09
   3  -4  -1    0.12    0.08
   3  -4  -1    0.04    0.08
  -3   4   1   -0.03    0.09
  -3   4   1    0.11    0.06
  -3   4   1    0.15    0.05
  -3   4   1    0.15    0.05
  -3   4   1    0.05    0.05
  -3   4   1    0.05    0.10
  -3   4   1    0.05    0.05
   2  -4  -1    3.16    0.24
   2  -4  -1    3.14    0.27
   2  -4  -1    3.30    0.22
  -2   4   1    3.51    0.27
  -2   4   1    3.21    0.27
  -2   4   1    3.12    0.17
  -2   4   1    3.22    0.17
  -2   4   1    2.97    0.17
  -2   4   1    2.95    0.17
  -2   4   1    2.95    0.21
   1  -4  -1   64.92    4.83
   1  -4  -1   71.63    4.82
   1  -4  -1   81.73    4.29
  -1   4   1   74.12    3.64
  -1   4   1   78.91    3.69
  -1   4   1   74.98    4.28
  -1   4   1   75.88    3.64
  -1   4   1   70.99    3.69
  -1   4   1   84.80    4.70
  -1   4   1   83.71    4.84
   0  -4  -1   77.08    4.69
   0  -4  -1   72.85    4.82
   0   4   1   73.35    3.64
   0   4   1   75.74    3.69
   0   4   1   73.70    4.69
   0   4   1   77.05    3.64
   0   4   1   76.82    3.69
   0   4   1   82.00    4.83
  -1  -4  -1   45.79    2.13
  -1  -4  -1   45.71    2.16
  -1  -4  -1   44.73    2.13
  -1  -4  -1   42.10    2.82
  -1  -4  -1   45.08    2.16
  -1  -4  -1   45.70    2.75
   1   4   1   41.59    2.16
   1   4   1   44.33    2.75
   1   4   1   44.45    2.13
   1   4   1   46.35    2.16
   1   4   1   42.79    2.13
  -2  -4  -1    1.82    0.18
  -2  -4  -1    2.17    0.13
  -2  -4  -1    2.07    0.13
  -2  -4  -1    2.12    0.13
  -2  -4  -1    2.22    0.13
   2   4   1    2.10    0.13
   2   4   1    1.97    0.13
   2   4   1    2.08    0.13
   2   4   1    2.14    0.14
  -3  -4  -1    0.20    0.08
  -3  -4  -1    0.16    0.05
  -3  -4  -1    0.10    0.05
  -3  -4  -1    0.09    0.04
  -3  -4  -1    0.07    0.04
   3   4   1    0.19    0.06
   3   4   1    0.12    0.05
   3   4   1    0.09    0.05
   3   4   1    0.19    0.05
  -4  -4  -1   13.49    0.63
  -4  -4  -1   12.92    0.62
  -4  -4  -1   11.38    0.63
  -4  -4  -1   11.77    0.62
   4   4   1   12.28    0.62
   4   4   1   12.26    0.63
  -5  -4  -1   12.69    0.62
  -5  -4  -1   11.85    0.62
   5   4   1   11.94    0.62
   5   4   1   12.25    0.62
   5   4   1   11.92    0.62
   5   4   1   11.84    0.63
  -6  -4  -1    7.83    0.43
  -6  -4  -1    7.35    0.43
  -6  -4  -1    7.93    0.43
  -6  -4  -1    7.89    0.42
   6   4   1    8.03    0.43
   6   4   1    8.06    0.43
   6   4   1    7.58    0.42
   6   4   1    7.77    0.43
  -7  -4  -1    0.76    0.11
  -7  -4  -1    0.75    0.11
   7   4   1    0.72    0.10
   7   4   1    0.70    0.10
  -8  -4  -1    0.77    0.16
  -8  -4  -1    0.82    0.11
  -8  -4  -1    0.95    0.12
  -8  -4  -1    0.92    0.12
  -8  -4  -1    0.94    0.15
   8   4   1    0.73    0.10
   8   4   1    0.67    0.12
   8   4   1    0.72    0.12
   8   4   1    0.57    0.10
  -9  -4  -1    2.54    0.20
  -9  -4  -1    2.57    0.20
   9   4   1    2.08    0.20
   9   4   1    2.05    0.20
 -10  -4  -1    0.90    0.13
 -10  -4  -1    1.22    0.18
  10   4   1    1.42    0.22
  10   4   1    0.60    0.14
   7  -5  -1    1.16    0.23
   7  -5  -1    1.08    0.20
  -7   5   1    1.00    0.19
  -7   5   1    1.25    0.20
   6  -5  -1   -0.10    0.13
   6  -5  -1    0.01    0.13
  -6   5   1    0.15    0.12
  -6   5   1   -0.01    0.13
  -6   5   1    0.22    0.12
  -6   5   1   -0.09    0.14
   5  -5  -1    0.31    0.14
   5  -5  -1    0.32    0.12
  -5   5   1    0.16    0.09
  -5   5   1    0.18    0.09
  -5   5   1    0.07    0.10
  -5   5   1    0.31    0.09
  -4   5   1   -0.02    0.07
  -4   5   1    0.26    0.12
  -4   5   1   -0.07    0.07
   3  -5  -1   29.57    1.78
   3  -5  -1   25.92    1.56
   3  -5  -1   23.41    1.75
  -3   5   1   26.93    1.31
  -3   5   1   28.24    1.33
  -3   5   1   24.96    1.53
  -3   5   1   29.32    1.32
  -3   5   1   27.71    1.33
   2  -5  -1    0.29    0.10
  -2   5   1    0.18    0.05
  -2   5   1    0.04    0.06
  -2   5   1   -0.02    0.10
  -2   5   1    0.23    0.05
  -2   5   1   -0.02    0.10
   1  -5  -1    6.65    0.40
   1  -5  -1    6.57    0.46
   1  -5  -1    7.06    0.45
  -1   5   1    6.37    0.33
  -1   5   1    5.79    0.32
  -1   5   1    5.89    0.32
  -1   5   1    6.30    0.32
  -1   5   1    5.57    0.44
   0  -5  -1   19.09    1.03
   0  -5  -1   17.37    1.15
   0  -5  -1   16.96    1.12
   0   5   1   17.49    0.86
   0   5   1   16.83    1.12
   0   5   1   17.41    0.86
   0   5   1   17.58    0.87
   0   5   1   18.16    0.87
  -1  -5  -1   38.25    2.27
  -1  -5  -1   41.47    2.55
  -1  -5  -1   38.70    1.94
  -1  -5  -1   39.92    1.91
  -1  -5  -1   37.34    2.55
  -1  -5  -1   43.50    1.92
  -1  -5  -1   42.28    2.49
  -1  -5  -1   39.43    1.94
   1   5   1   39.37    1.95
   1   5   1   40.64    1.95
   1   5   1   38.36    1.92
   1   5   1   40.41    1.93
   1   5   1   39.83    2.49
  -2  -5  -1    3.21    0.18
  -2  -5  -1    3.46    0.18
  -2  -5  -1    3.14    0.18
  -2  -5  -1    3.51    0.26
  -2  -5  -1    3.13    0.25
  -2  -5  -1    3.28    0.18
   2   5   1    3.33    0.19
   2   5   1    3.17    0.19
   2   5   1    3.08    0.19
   2   5   1    3.39    0.27
   2   5   1    3.27    0.19
  -3  -5  -1    0.14    0.05
  -3  -5  -1    0.29    0.10
  -3  -5  -1    0.16    0.05
  -3  -5  -1    0.14    0.05
  -3  -5  -1    0.16    0.05
   3   5   1    0.12    0.06
   3   5   1    0.20    0.06
   3   5   1    0.19    0.06
   3   5   1    0.10    0.05
  -4  -5  -1    9.76    0.53
  -4  -5  -1   11.18    0.70
  -4  -5  -1   10.02    0.53
  -4  -5  -1   10.58    0.53
  -4  -5  -1   10.44    0.54
   4   5   1   10.35    0.54
   4   5   1   10.44    0.53
  -5  -5  -1   16.57    0.86
  -5  -5  -1   16.59    0.84
  -5  -5  -1   17.34    0.86
  -5  -5  -1   17.59    0.85
   5   5   1   16.20    0.85
   5   5   1   17.04    0.86
  -6  -5  -1    2.49    0.19
  -6  -5  -1    2.50    0.18
  -6  -5  -1    2.27    0.18
  -6  -5  -1    2.63    0.19
   6   5   1    2.55    0.19
   6   5   1    2.43    0.19
  -7  -5  -1    8.70    0.50
  -7  -5  -1    9.46    0.52
   7   5   1    9.66    0.52
   7   5   1   10.02    0.52
  -8  -5  -1    0.36    0.09
  -8  -5  -1    0.47    0.10
  -8  -5  -1    0.37    0.10
  -8  -5  -1    0.53    0.10
   8   5   1    0.33    0.08
   8   5   1    0.39    0.10
   8   5   1    0.46    0.09
   8   5   1    0.57    0.11
  -9  -5  -1    0.54    0.10
  -9  -5  -1    0.44    0.10
  -9  -5  -1    0.43    0.22
   9   5   1    0.47    0.10
   9   5   1    0.34    0.09
 -10  -5  -1    3.16    0.29
 -10  -5  -1    4.25    0.29
  10   5   1    4.63    0.31
  10   5   1    3.67    0.30
   6  -6  -1   11.82    0.76
   6  -6  -1   11.75    0.85
   5  -6  -1    2.21    0.25
   5  -6  -1    1.50    0.22
  -5   6   1    1.84    0.21
  -5   6   1    1.61    0.25
  -5   6   1    1.53    0.24
  -5   6   1    1.39    0.21
   4  -6  -1    0.19    0.14
   4  -6  -1    0.19    0.12
  -4   6   1    0.09    0.09
  -4   6   1    0.40    0.10
  -4   6   1    0.11    0.09
  -4   6   1    0.26    0.10
   3  -6  -1   11.06    0.77
   3  -6  -1    9.24    0.74
  -3   6   1   10.83    0.55
  -3   6   1   10.59    0.76
  -3   6   1   11.15    0.64
  -3   6   1   11.25    0.56
   2  -6  -1   10.82    0.69
   2  -6  -1   10.63    0.61
   2  -6  -1    8.52    0.69
  -2   6   1    9.42    0.59
  -2   6   1   10.43    0.70
  -2   6   1    9.42    0.50
  -2   6   1    9.48    0.50
  -2   6   1    9.33    0.50
  -2   6   1    9.63    0.49
   1  -6  -1   15.52    1.02
   1  -6  -1   13.86    1.02
  -1   6   1   15.91    0.76
  -1   6   1   15.26    0.75
  -1   6   1   15.52    0.75
  -1   6   1   15.28    0.76
   0  -6  -1    3.43    0.26
   0  -6  -1    2.89    0.22
   0   6   1    2.72    0.18
   0   6   1    2.88    0.17
   0   6   1    2.68    0.17
   0   6   1    2.69    0.17
   0   6   1    2.66    0.27
  -1  -6  -1   22.61    1.51
  -1  -6  -1   22.78    1.47
  -1  -6  -1   24.30    1.51
  -1  -6  -1   23.25    1.34
   1   6   1   22.36    1.13
   1   6   1   22.99    1.15
   1   6   1   23.89    1.48
   1   6   1   23.36    1.13
   1   6   1   22.97    1.15
  -2  -6  -1    0.99    0.16
  -2  -6  -1    0.96    0.15
  -2  -6  -1    1.04    0.09
  -2  -6  -1    0.88    0.09
  -2  -6  -1    0.99    0.09
  -2  -6  -1    0.88    0.09
   2   6   1    0.97    0.11
   2   6   1    0.90    0.11
   2   6   1    0.92    0.11
   2   6   1    1.27    0.19
   2   6   1    0.94    0.11
  -3  -6  -1   86.18    4.19
  -3  -6  -1   88.53    4.19
  -3  -6  -1   88.00    4.14
  -3  -6  -1   77.56    5.47
  -3  -6  -1   88.25    4.14
  -3  -6  -1   87.37    5.33
   3   6   1   87.78    4.20
   3   6   1   86.36    4.15
  -4  -6  -1   13.73    0.71
  -4  -6  -1   13.97    0.93
  -4  -6  -1   14.21    0.72
  -4  -6  -1   14.47    0.72
  -4  -6  -1   14.69    0.71
   4   6   1   13.78    0.73
   4   6   1   13.86    0.72
   4   6   1   14.29    0.73
   4   6   1   14.16    0.72
  -5  -6  -1    8.10    0.45
  -5  -6  -1    8.28    0.44
  -5  -6  -1    8.70    0.59
  -5  -6  -1    8.28    0.44
  -5  -6  -1    8.12    0.45
   5   6   1    8.10    0.45
   5   6   1    8.01    0.45
   5   6   1    8.05    0.45
  -6  -6  -1    0.49    0.09
  -6  -6  -1    0.84    0.15
  -6  -6  -1    0.71    0.11
  -6  -6  -1    0.48    0.09
  -6  -6  -1    0.93    0.12
   6   6   1    0.57    0.10
   6   6   1    0.56    0.09
  -7  -6  -1    6.79    0.38
  -7  -6  -1    6.61    0.37
  -7  -6  -1    6.44    0.38
  -7  -6  -1    6.61    0.39
   7   6   1    6.60    0.38
   7   6   1    6.63    0.38
   7   6   1    5.84    0.38
   7   6   1    6.22    0.38
  -8  -6  -1    1.00    0.14
  -8  -6  -1    1.23    0.15
   8   6   1    1.32    0.16
   8   6   1    1.50    0.16
  -9  -6  -1    0.17    0.09
  -9  -6  -1    0.22    0.09
   9   6   1   -0.06    0.08
   9   6   1    0.22    0.09
   5  -7  -1    6.37    0.57
   5  -7  -1    7.09    0.51
  -5   7   1    8.06    0.48
   4  -7  -1   -0.02    0.13
   4  -7  -1   -0.03    0.15
  -4   7   1   -0.07    0.11
  -4   7   1    0.04    0.11
  -4   7   1    0.17    0.14
  -4   7   1    0.04    0.13
   3  -7  -1    0.73    0.17
   3  -7  -1    0.56    0.15
   3  -7  -1    1.17    0.20
  -3   7   1    1.06    0.15
  -3   7   1    0.70    0.11
  -3   7   1    0.68    0.13
  -3   7   1    0.78    0.12
   2  -7  -1    1.28    0.21
   2  -7  -1    1.03    0.17
  -2   7   1    1.03    0.18
  -2   7   1    1.03    0.13
  -2   7   1    0.89    0.19
  -2   7   1    1.08    0.15
  -2   7   1    1.22    0.13
  -2   7   1    1.14    0.15
   1  -7  -1   18.16    1.06
   1  -7  -1   15.27    1.06
   1  -7  -1   15.71    0.94
  -1   7   1   15.24    0.79
  -1   7   1   13.94    0.92
  -1   7   1   15.22    0.77
   0  -7  -1    4.40    0.35
   0   7   1    3.97    0.26
   0   7   1    3.97    0.24
   0   7   1    3.93    0.26
   0   7   1    4.32    0.24
  -1  -7  -1    0.31    0.12
  -1  -7  -1    0.27    0.12
   1   7   1    0.54    0.08
   1   7   1    0.44    0.08
  -2  -7  -1    7.19    0.38
  -2  -7  -1    7.30    0.38
  -2  -7  -1    8.04    0.54
  -2  -7  -1    7.92    0.54
  -2  -7  -1    7.46    0.38
  -2  -7  -1    7.28    0.38
   2   7   1    7.56    0.41
   2   7   1    7.27    0.41
   2   7   1    7.48    0.40
   2   7   1    7.04    0.40
  -3  -7  -1    5.23    0.43
  -3  -7  -1    5.55    0.32
  -3  -7  -1    5.44    0.31
  -3  -7  -1    5.19    0.31
  -3  -7  -1    5.48    0.43
  -3  -7  -1    5.57    0.31
   3   7   1    6.22    0.34
   3   7   1    6.51    0.33
   3   7   1    6.44    0.34
   3   7   1    6.17    0.33
  -4  -7  -1    5.39    0.43
  -4  -7  -1    5.62    0.32
  -4  -7  -1    5.75    0.32
  -4  -7  -1    5.73    0.33
  -4  -7  -1    5.52    0.32
   4   7   1    5.79    0.33
   4   7   1    5.68    0.33
   4   7   1    5.69    0.34
   4   7   1    5.99    0.33
  -5  -7  -1    2.30    0.17
  -5  -7  -1    2.22    0.17
  -5  -7  -1    2.20    0.27
  -5  -7  -1    1.92    0.17
  -5  -7  -1    1.71    0.18
   5   7   1    1.95    0.17
   5   7   1    1.68    0.17
   5   7   1    1.95    0.17
   5   7   1    2.19    0.18
  -6  -7  -1    0.17    0.08
  -6  -7  -1    0.29    0.09
  -6  -7  -1    0.15    0.11
   6   7   1    0.19    0.08
   6   7   1    0.23    0.08
  -7  -7  -1   12.64    0.88
  -7  -7  -1   13.13    0.69
  -7  -7  -1   13.17    0.68
  -7  -7  -1   13.41    0.69
  -7  -7  -1   11.82    0.69
   7   7   1   12.96    0.69
   7   7   1   13.35    0.68
  -8  -7  -1    2.77    0.21
  -8  -7  -1    2.94    0.22
  -8  -7  -1    2.31    0.29
   8   7   1    2.74    0.22
   8   7   1    3.03    0.22
  -9  -7  -1    0.01    0.10
  -9  -7  -1    0.06    0.09
   9   7   1   -0.03    0.09
   9   7   1    0.16    0.09
   4  -8  -1    1.14    0.21
   4  -8  -1    1.03    0.23
   3  -8  -1    1.12    0.20
   3  -8  -1    0.92    0.21
   3  -8  -1    1.19    0.25
  -3   8   1    1.00    0.18
  -3   8   1    1.07    0.14
  -3   8   1    0.94    0.14
  -3   8   1    1.31    0.18
   2  -8  -1    3.00    0.32
   2  -8  -1    2.92    0.29
   2  -8  -1    3.60    0.34
  -2   8   1    3.38    0.27
  -2   8   1    3.22    0.24
  -2   8   1    3.28    0.27
  -2   8   1    3.37    0.24
   1  -8  -1   34.82    2.05
   1  -8  -1   27.31    1.80
   1  -8  -1   34.29    2.04
  -1   8   1   27.39    1.78
  -1   8   1   31.73    1.54
  -1   8   1   30.78    1.53
  -1   8   1   30.92    1.52
  -1   8   1   30.38    1.51
   0  -8  -1    1.79    0.21
   0  -8  -1    1.88    0.24
   0   8   1    1.96    0.17
   0   8   1    1.96    0.19
   0   8   1    1.92    0.17
   0   8   1    1.91    0.19
   0   8   1    1.67    0.24
  -1  -8  -1    6.12    0.46
  -1  -8  -1    6.07    0.48
   1   8   1    6.16    0.35
   1   8   1    6.01    0.34
   1   8   1    5.72    0.47
   1   8   1    5.97    0.35
   1   8   1    5.83    0.35
  -2  -8  -1    1.35    0.20
  -2  -8  -1    1.88    0.24
   2   8   1    1.40    0.17
   2   8   1    1.48    0.16
   2   8   1    1.57    0.17
   2   8   1    1.18    0.23
   2   8   1    1.69    0.16
  -3  -8  -1   17.26    0.85
  -3  -8  -1   15.35    0.84
  -3  -8  -1   16.29    1.12
  -3  -8  -1   16.74    1.14
  -3  -8  -1   17.09    0.85
  -3  -8  -1   16.96    0.84
   3   8   1   17.63    0.87
   3   8   1   17.69    0.88
   3   8   1   17.75    0.88
   3   8   1   17.43    0.86
  -4  -8  -1    1.26    0.15
  -4  -8  -1    1.19    0.22
  -4  -8  -1    1.28    0.15
   4   8   1    1.27    0.16
   4   8   1    1.15    0.17
   4   8   1    1.68    0.16
   4   8   1    1.46    0.16
  -5  -8  -1    4.46    0.30
  -5  -8  -1    4.18    0.30
  -5  -8  -1    4.48    0.28
  -5  -8  -1    4.41    0.28
  -5  -8  -1    4.64    0.38
  -5  -8  -1    3.99    0.38
   5   8   1    4.56    0.28
   5   8   1    4.43    0.29
   5   8   1    4.71    0.28
   5   8   1    4.51    0.29
  -6  -8  -1    0.37    0.10
  -6  -8  -1    0.65    0.14
  -6  -8  -1    0.40    0.11
   6   8   1    0.46    0.10
   6   8   1    0.36    0.09
  -7  -8  -1    1.20    0.19
  -7  -8  -1    1.16    0.18
  -7  -8  -1    1.53    0.18
  -7  -8  -1    1.60    0.20
   7   8   1    1.88    0.17
   7   8   1    1.48    0.17
  -8  -8  -1    5.59    0.48
  -8  -8  -1    5.56    0.37
  -8  -8  -1    6.15    0.38
   8   8   1    6.34    0.36
   8   8   1    5.62    0.35
   2  -9  -1    0.20    0.15
   2  -9  -1    0.25    0.18
   2  -9  -1    0.17    0.16
  -2   9   1    0.18    0.13
  -2   9   1    0.16    0.13
   1  -9  -1    0.00    0.13
   1  -9  -1    0.30    0.16
   1  -9  -1    0.22    0.16
  -1   9   1    0.12    0.16
  -1   9   1   -0.02    0.10
  -1   9   1    0.00    0.10
  -1   9   1    0.06    0.19
  -1   9   1    0.00    0.15
   0  -9  -1    0.56    0.16
   0   9   1    0.45    0.11
   0   9   1    0.85    0.16
   0   9   1    0.46    0.11
   0   9   1    0.87    0.15
  -1  -9  -1   21.03    1.45
   1   9   1   21.74    1.08
   1   9   1   20.97    1.08
   1   9   1   21.96    1.09
   1   9   1   21.77    1.10
  -2  -9  -1    2.28    0.32
  -2  -9  -1    2.45    0.27
   2   9   1    2.64    0.22
   2   9   1    2.21    0.24
   2   9   1    2.21    0.24
   2   9   1    2.64    0.23
  -3  -9  -1    5.16    0.30
  -3  -9  -1    5.29    0.29
  -3  -9  -1    5.07    0.29
  -3  -9  -1    5.43    0.46
  -3  -9  -1    5.16    0.42
  -3  -9  -1    5.45    0.29
   3   9   1    5.47    0.35
   3   9   1    5.63    0.36
  -4  -9  -1    1.58    0.27
  -4  -9  -1    1.42    0.19
  -4  -9  -1    1.53    0.23
  -4  -9  -1    1.24    0.20
   4   9   1    1.65    0.23
   4   9   1    1.43    0.18
   4   9   1    1.57    0.19
   4   9   1    1.64    0.22
  -5  -9  -1   20.28    1.34
  -5  -9  -1   19.02    1.01
  -5  -9  -1   20.00    1.32
   5   9   1   20.25    1.02
   5   9   1   20.11    1.03
  -6  -9  -1    4.53    0.39
  -6  -9  -1    4.56    0.32
  -6  -9  -1    4.68    0.32
  -6  -9  -1    4.16    0.37
  -6  -9  -1    4.37    0.37
  -6  -9  -1    4.52    0.43
   6   9   1    4.39    0.30
   6   9   1    4.52    0.30
  -7  -9  -1    0.16    0.20
  -7  -9  -1    0.23    0.15
  -7  -9  -1    0.27    0.14
  -7  -9  -1    0.12    0.14
   7   9   1    0.23    0.09
   7   9   1    0.34    0.10
  -8  -9  -1   -0.01    0.16
  -8  -9  -1    0.16    0.15
   0 -10  -1    2.84    0.40
   0  10   1    1.97    0.28
   0  10   1    1.85    0.27
  -1 -10  -1    2.29    0.37
   1  10   1    3.09    0.28
   1  10   1    2.87    0.28
  -2 -10  -1    2.60    0.38
   2  10   1    2.43    0.26
   2  10   1    2.82    0.27
  -3 -10  -1    2.52    0.40
  -3 -10  -1    2.39    0.32
   3  10   1    3.49    0.28
   3  10   1    2.84    0.28
  -4 -10  -1    2.92    0.33
  -4 -10  -1    3.41    0.41
   4  10   1    2.81    0.29
   4  10   1    3.35    0.28
  -5 -10  -1    0.10    0.12
  -5 -10  -1    0.04    0.11
  -5 -10  -1    0.23    0.19
  -5 -10  -1    0.47    0.15
   5  10   1    0.24    0.14
   5  10   1    0.45    0.13
  -6 -10  -1    1.38    0.26
  -6 -10  -1    0.76    0.24
   6  10   1    1.38    0.22
   6  10   1    0.89    0.16
   5   9  -2    0.48    0.12
   5   9  -2    0.32    0.11
  -5  -9   2    0.54    0.16
  -5  -9   2    0.65    0.22
  -5  -9   2    0.44    0.26
  -5  -9   2    0.27    0.15
   4   9  -2    2.13    0.22
   4   9  -2    1.90    0.22
  -4  -9   2    2.22    0.35
  -4  -9   2    1.58    0.30
   3   9  -2    8.33    0.48
   3   9  -2    8.02    0.48
  -3  -9   2    7.87    0.47
  -3  -9   2    6.96    0.64
  -3  -9   2    7.83    0.63
  -3  -9   2    8.37    0.47
   2   9  -2    1.09    0.16
   2   9  -2    1.04    0.15
  -2  -9   2    0.83    0.16
  -2  -9   2    0.85    0.22
  -2  -9   2    1.08    0.16
   1   9  -2    0.47    0.15
   1   9  -2    0.50    0.14
  -1  -9   2    0.69    0.18
   0   9  -2    5.59    0.38
   0   9  -2    5.50    0.38
   0  -9   2    4.82    0.50
  -1   9  -2    9.57    0.57
  -1   9  -2    9.47    0.57
   1  -9   2    9.06    0.74
  -7  -8   2    0.55    0.14
  -7  -8   2    0.54    0.15
  -7  -8   2    0.65    0.23
   6   8  -2    0.05    0.09
  -6  -8   2   -0.20    0.11
  -6  -8   2   -0.03    0.18
  -6  -8   2   -0.09    0.12
   5   8  -2    3.84    0.27
   5   8  -2    4.20    0.27
  -5  -8   2    3.18    0.28
  -5  -8   2    3.55    0.40
  -5  -8   2    3.79    0.29
   4   8  -2   60.06    2.92
   4   8  -2   61.53    2.89
  -4  -8   2   63.17    3.71
  -4  -8   2   59.66    2.88
  -4  -8   2   59.67    2.91
  -4  -8   2   54.34    2.91
  -4  -8   2   55.28    2.88
   3   8  -2    5.53    0.33
   3   8  -2    5.28    0.33
  -3  -8   2    4.78    0.45
  -3  -8   2    5.09    0.44
   2   8  -2    0.35    0.10
   2   8  -2    0.25    0.10
  -2  -8   2    0.31    0.11
  -2  -8   2    0.15    0.14
  -2  -8   2    0.26    0.13
  -2  -8   2    0.26    0.13
  -2  -8   2    0.24    0.15
  -2  -8   2    0.40    0.11
   1   8  -2    0.14    0.10
   1   8  -2    0.12    0.10
  -1  -8   2    0.10    0.13
  -1  -8   2    0.10    0.09
  -1  -8   2    0.17    0.10
   0   8  -2    1.52    0.19
   0   8  -2    1.72    0.20
   0  -8   2    1.59    0.16
   0  -8   2    1.28    0.18
   0  -8   2    1.20    0.17
   0  -8   2    1.66    0.16
  -1   8  -2    0.38    0.12
  -1   8  -2    0.35    0.12
   1  -8   2    0.35    0.14
  -2   8  -2    2.72    0.27
  -2   8  -2    3.28    0.28
   2  -8   2    3.27    0.34
  -3   8  -2    0.09    0.15
  -3   8  -2   -0.02    0.15
   3  -8   2    0.17    0.15
   7   7  -2    0.55    0.10
   7   7  -2    0.65    0.10
  -7  -7   2    0.74    0.12
  -7  -7   2    0.76    0.12
  -7  -7   2    0.63    0.21
   6   7  -2    2.44    0.20
   6   7  -2    2.46    0.21
  -6  -7   2    2.56    0.33
  -6  -7   2    2.32    0.22
  -6  -7   2    2.48    0.22
   5   7  -2    0.05    0.07
  -5  -7   2   -0.14    0.11
  -5  -7   2   -0.05    0.12
  -5  -7   2    0.10    0.12
  -5  -7   2    0.12    0.09
  -5  -7   2   -0.02    0.08
   4   7  -2    1.86    0.16
   4   7  -2    1.87    0.17
   4   7  -2    1.68    0.16
   4   7  -2    2.16    0.19
  -4  -7   2    1.41    0.20
  -4  -7   2    1.22    0.16
  -4  -7   2    1.70    0.23
  -4  -7   2    1.27    0.21
  -4  -7   2    1.36    0.16
   3   7  -2    0.05    0.07
   3   7  -2    0.12    0.07
   3   7  -2    0.24    0.08
  -3  -7   2    0.06    0.10
  -3  -7   2    0.07    0.10
  -3  -7   2    0.05    0.07
  -3  -7   2    0.23    0.08
   2   7  -2   14.83    0.81
   2   7  -2   15.19    0.80
  -2  -7   2   16.27    1.04
  -2  -7   2   15.48    0.80
  -2  -7   2   15.30    0.79
  -2  -7   2   15.90    0.80
  -2  -7   2   16.00    0.79
   1   7  -2   30.68    1.61
   1   7  -2   33.24    1.62
   1   7  -2   31.40    1.64
   1   7  -2   33.69    2.09
   1   7  -2   33.13    1.64
  -1  -7   2   33.71    1.62
  -1  -7   2   33.85    1.60
   0   7  -2    8.71    0.49
   0   7  -2    8.54    0.49
   0   7  -2    8.79    0.49
   0   7  -2    9.16    0.49
   0   7  -2    9.19    0.64
   0  -7   2    9.01    0.47
   0  -7   2    8.83    0.47
   0  -7   2    8.16    0.47
   0  -7   2    9.18    0.47
   0  -7   2    9.44    0.66
  -1   7  -2    1.32    0.17
  -1   7  -2    1.14    0.20
  -1   7  -2    1.45    0.17
  -1   7  -2    1.15    0.18
  -1   7  -2    1.31    0.19
   1  -7   2    1.19    0.14
   1  -7   2    1.74    0.23
   1  -7   2    1.39    0.13
   1  -7   2    1.43    0.13
   1  -7   2    1.08    0.14
  -2   7  -2   18.63    0.99
  -2   7  -2   19.45    1.00
   2  -7   2   20.09    1.32
  -3   7  -2    5.68    0.37
  -3   7  -2    6.18    0.40
  -3   7  -2    5.94    0.40
  -3   7  -2    5.75    0.37
   3  -7   2    5.19    0.46
  -4   7  -2    0.53    0.14
  -4   7  -2    0.43    0.14
   4  -7   2    0.50    0.15
   8   6  -2    0.51    0.11
   8   6  -2    0.68    0.12
  -8  -6   2    0.43    0.10
  -8  -6   2    0.64    0.11
  -8  -6   2    0.56    0.22
   7   6  -2   11.85    0.63
   7   6  -2   11.49    0.63
  -7  -6   2   12.14    0.64
  -7  -6   2   11.86    0.83
  -7  -6   2   11.34    0.63
   6   6  -2   17.80    0.90
   6   6  -2   18.39    0.91
  -6  -6   2   17.14    0.90
  -6  -6   2   18.81    0.92
  -6  -6   2   16.84    0.92
  -6  -6   2   17.57    0.90
  -6  -6   2   16.56    1.16
   5   6  -2    4.96    0.32
   5   6  -2    5.04    0.31
   5   6  -2    5.05    0.31
   5   6  -2    4.83    0.32
  -5  -6   2    4.96    0.31
  -5  -6   2    5.48    0.31
  -5  -6   2    5.03    0.32
  -5  -6   2    5.47    0.31
  -5  -6   2    5.26    0.41
  -4  -6   2    2.85    0.28
  -4  -6   2    3.03    0.21
  -4  -6   2    3.07    0.21
   3   6  -2    1.78    0.16
   3   6  -2    1.48    0.15
   3   6  -2    1.27    0.15
   3   6  -2    1.57    0.16
  -3  -6   2    1.28    0.15
  -3  -6   2    1.59    0.15
  -3  -6   2    1.52    0.15
  -3  -6   2    1.24    0.15
  -3  -6   2    1.68    0.21
   2   6  -2    8.81    0.47
   2   6  -2    7.76    0.45
   2   6  -2    8.54    0.46
   2   6  -2    8.79    0.46
  -2  -6   2    8.28    0.45
  -2  -6   2    8.36    0.46
  -2  -6   2    8.13    0.59
  -2  -6   2    8.93    0.46
  -2  -6   2    8.58    0.45
   1   6  -2   29.21    1.76
   1   6  -2   27.65    1.36
   1   6  -2   27.63    1.38
   1   6  -2   28.34    1.37
   1   6  -2   26.64    1.38
  -1  -6   2   28.41    1.76
  -1  -6   2   29.08    1.38
  -1  -6   2   27.36    1.35
  -1  -6   2   27.49    1.35
  -1  -6   2   26.89    1.37
  -1  -6   2   25.73    1.81
   0   6  -2   19.11    0.96
   0   6  -2   19.51    0.97
   0   6  -2   19.01    0.96
   0   6  -2   19.30    0.97
   0   6  -2   18.90    1.24
   0  -6   2   19.43    0.96
   0  -6   2   19.66    1.29
   0  -6   2   18.69    0.96
   0  -6   2   19.01    0.95
   0  -6   2   19.47    0.95
  -1   6  -2    5.56    0.33
  -1   6  -2    5.64    0.33
  -1   6  -2    5.94    0.34
  -1   6  -2    5.77    0.33
   1  -6   2    5.47    0.31
   1  -6   2    5.06    0.31
   1  -6   2    5.87    0.32
   1  -6   2    6.06    0.46
   1  -6   2    5.81    0.31
  -2   6  -2    6.03    0.34
  -2   6  -2    5.67    0.45
  -2   6  -2    5.76    0.34
  -2   6  -2    5.86    0.35
  -2   6  -2    5.91    0.34
   2  -6   2    6.35    0.31
   2  -6   2    5.59    0.32
   2  -6   2    5.71    0.31
   2  -6   2    5.59    0.47
   2  -6   2    6.31    0.31
  -3   6  -2    1.68    0.20
  -3   6  -2    1.68    0.18
  -3   6  -2    1.75    0.13
  -3   6  -2    1.66    0.24
  -3   6  -2    1.91    0.19
  -3   6  -2    1.77    0.18
   3  -6   2    1.29    0.21
   3  -6   2    1.78    0.23
   3  -6   2    1.69    0.21
  -4   6  -2    3.64    0.29
  -4   6  -2    3.58    0.29
   4  -6   2    3.23    0.32
   4  -6   2    3.55    0.29
   4  -6   2    2.85    0.32
  -5   6  -2    1.39    0.17
  -5   6  -2    1.27    0.17
   5  -6   2    1.13    0.23
   5  -6   2    1.29    0.24
  -6   6  -2   -0.13    0.16
  -6   6  -2    0.01    0.17
   6  -6   2    0.01    0.15
   6  -6   2   -0.18    0.16
   6  -6   2   -0.09    0.15
   9   5  -2    6.34    0.42
   9   5  -2    6.36    0.42
   8   5  -2    1.71    0.18
   8   5  -2    1.41    0.18
  -8  -5   2    1.44    0.17
  -8  -5   2    1.40    0.17
   7   5  -2    2.11    0.18
   7   5  -2    1.95    0.17
  -7  -5   2    2.03    0.18
  -7  -5   2    1.83    0.18
   6   5  -2    4.85    0.30
   6   5  -2    4.37    0.29
  -6  -5   2    4.84    0.30
  -6  -5   2    4.76    0.30
  -6  -5   2    5.48    0.30
  -6  -5   2    4.56    0.29
   5   5  -2    0.06    0.07
   5   5  -2    0.18    0.07
  -5  -5   2    0.04    0.11
  -5  -5   2    0.31    0.08
  -5  -5   2    0.08    0.07
   4   5  -2   14.56    0.75
   4   5  -2   14.30    0.76
  -4  -5   2   15.53    0.75
  -4  -5   2   14.48    0.96
  -4  -5   2   15.12    0.76
  -4  -5   2   14.71    0.75
  -4  -5   2   14.33    0.76
   3   5  -2   16.87    0.84
   3   5  -2   16.35    0.83
  -3  -5   2   16.15    1.06
  -3  -5   2   15.83    0.83
  -3  -5   2   16.93    0.83
  -3  -5   2   16.16    0.82
  -3  -5   2   16.47    0.84
   2   5  -2    0.01    0.06
   2   5  -2    0.06    0.07
   2   5  -2   -0.03    0.06
   2   5  -2    0.08    0.06
  -2  -5   2   -0.04    0.06
  -2  -5   2    0.05    0.09
  -2  -5   2   -0.06    0.06
   1   5  -2   15.28    0.79
   1   5  -2   16.15    0.79
   1   5  -2   15.17    0.78
   1   5  -2   15.60    0.78
  -1  -5   2   15.37    0.78
  -1  -5   2   15.93    0.78
  -1  -5   2   14.97    1.00
  -1  -5   2   15.71    0.77
  -1  -5   2   14.90    0.77
   0   5  -2   45.20    2.13
   0   5  -2   44.88    2.16
   0   5  -2   44.33    2.73
   0   5  -2   44.24    2.13
   0   5  -2   45.42    2.16
   0  -5   2   42.91    2.82
   0  -5   2   41.48    2.15
   0  -5   2   44.42    2.15
   0  -5   2   42.66    2.12
   0  -5   2   43.09    2.12
  -1   5  -2    8.18    0.45
  -1   5  -2    8.62    0.58
  -1   5  -2    8.50    0.45
  -1   5  -2    7.93    0.44
  -1   5  -2    8.37    0.44
   1  -5   2    8.17    0.43
   1  -5   2    8.76    0.44
   1  -5   2    9.08    0.61
   1  -5   2    8.32    0.44
   1  -5   2    8.61    0.43
  -2   5  -2   14.61    0.73
  -2   5  -2   14.28    0.95
  -2   5  -2   14.46    0.74
  -2   5  -2   14.90    0.73
  -2   5  -2   14.78    0.74
   2  -5   2   15.24    0.72
   2  -5   2   13.47    0.86
   2  -5   2   12.56    0.98
   2  -5   2   14.87    0.73
   2  -5   2   15.39    0.73
   2  -5   2   15.19    0.72
  -3   5  -2    4.30    0.26
  -3   5  -2    4.42    0.26
  -3   5  -2    4.45    0.27
  -3   5  -2    4.32    0.24
  -3   5  -2    4.60    0.26
   3  -5   2    3.81    0.30
   3  -5   2    3.63    0.23
   3  -5   2    4.09    0.23
   3  -5   2    4.23    0.23
   3  -5   2    3.78    0.23
   3  -5   2    3.63    0.35
  -4   5  -2   16.14    1.02
  -4   5  -2   17.00    0.79
  -4   5  -2   15.75    0.78
  -4   5  -2   16.19    0.80
  -4   5  -2   16.83    0.80
   4  -5   2   13.88    0.75
   4  -5   2   13.78    0.75
   4  -5   2   14.80    1.06
   4  -5   2   14.42    0.76
   4  -5   2   15.19    0.76
  -5   5  -2    0.05    0.10
  -5   5  -2    0.20    0.10
   5  -5   2   -0.08    0.13
   5  -5   2    0.12    0.11
   5  -5   2    0.00    0.11
  -6   5  -2   -0.07    0.12
  -6   5  -2    0.26    0.12
   6  -5   2    0.21    0.14
   6  -5   2    0.20    0.16
   6  -5   2    0.12    0.12
  -7   5  -2   -0.25    0.17
  -7   5  -2   -0.02    0.18
   7  -5   2   -0.07    0.17
   7  -5   2   -0.20    0.15
   9   4  -2   11.20    0.65
   9   4  -2   11.22    0.64
  -9  -4   2   11.73    0.63
  -9  -4   2   11.58    0.64
   8   4  -2   11.19    0.61
   8   4  -2   10.36    0.60
  -8  -4   2   11.41    0.61
  -8  -4   2   11.88    0.62
   7   4  -2    0.04    0.07
   7   4  -2    0.26    0.12
   7   4  -2    0.27    0.11
   7   4  -2    0.05    0.07
  -7  -4   2    0.17    0.08
  -7  -4   2    0.19    0.08
  -6  -4   2    0.51    0.10
  -6  -4   2    0.50    0.10
   5   4  -2   13.64    0.69
   5   4  -2   13.31    0.69
  -5  -4   2   13.59    0.69
  -5  -4   2   12.66    0.69
   4   4  -2    2.82    0.19
   4   4  -2    2.56    0.19
   4   4  -2    2.99    0.20
   4   4  -2    2.86    0.20
  -4  -4   2    2.67    0.25
  -4  -4   2    2.85    0.20
  -4  -4   2    2.83    0.20
  -4  -4   2    2.69    0.20
  -4  -4   2    2.92    0.20
   3   4  -2    2.15    0.17
   3   4  -2    2.40    0.17
   3   4  -2    2.23    0.17
   3   4  -2    2.21    0.17
  -3  -4   2    2.27    0.22
  -3  -4   2    2.23    0.17
  -3  -4   2    2.23    0.17
   2   4  -2    8.02    0.42
   2   4  -2    7.39    0.41
   2   4  -2    7.68    0.42
   2   4  -2    8.19    0.42
  -2  -4   2    7.37    0.53
  -2  -4   2    8.04    0.42
  -2  -4   2    8.12    0.42
  -2  -4   2    7.86    0.41
  -2  -4   2    7.99    0.41
   1   4  -2   27.99    1.38
   1   4  -2   27.01    1.77
   1   4  -2   28.08    1.40
   1   4  -2   29.66    1.38
   1   4  -2   29.25    1.40
  -1  -4   2   28.13    1.40
  -1  -4   2   28.12    1.40
  -1  -4   2   26.19    1.77
  -1  -4   2   29.12    1.38
  -1  -4   2   29.38    1.38
   0   4  -2   25.41    1.73
   0   4  -2   28.21    1.35
   0   4  -2   27.39    1.37
   0   4  -2   27.99    1.37
   0   4  -2   27.66    1.35
   0  -4   2   27.94    1.35
   0  -4   2   27.90    1.74
   0  -4   2   28.21    1.35
   0  -4   2   27.58    1.37
   0  -4   2   28.53    1.37
   0  -4   2   28.61    1.80
  -1   4  -2   12.56    0.65
  -1   4  -2   13.23    0.64
  -1   4  -2   12.82    0.64
  -1   4  -2   12.39    0.83
  -1   4  -2   12.62    0.65
   1  -4   2   13.37    0.64
   1  -4   2   13.02    0.65
   1  -4   2   12.80    0.87
   1  -4   2   12.85    0.65
   1  -4   2   12.60    0.64
  -2   4  -2    4.20    0.24
  -2   4  -2    4.27    0.24
  -2   4  -2    4.32    0.24
  -2   4  -2    4.12    0.34
  -2   4  -2    4.09    0.24
   2  -4   2    4.14    0.23
   2  -4   2    4.53    0.35
   2  -4   2    3.96    0.23
   2  -4   2    4.33    0.28
   2  -4   2    4.41    0.23
   2  -4   2    4.16    0.23
   2  -4   2    3.83    0.32
  -3   4  -2    0.36    0.07
  -3   4  -2    0.27    0.07
  -3   4  -2    0.31    0.07
  -3   4  -2    0.18    0.11
  -3   4  -2    0.42    0.07
   3  -4   2    0.36    0.06
   3  -4   2    0.28    0.06
   3  -4   2    0.18    0.09
   3  -4   2    0.22    0.05
   3  -4   2    0.41    0.09
   3  -4   2    0.18    0.10
   3  -4   2    0.32    0.06
  -4   4  -2    5.17    0.30
  -4   4  -2    5.34    0.31
  -4   4  -2    5.50    0.31
  -4   4  -2    5.06    0.31
   4  -4   2    5.18    0.42
   4  -4   2    5.23    0.28
   4  -4   2    5.19    0.28
   4  -4   2    5.23    0.28
  -5   4  -2    1.71    0.18
  -5   4  -2    1.50    0.20
  -5   4  -2    1.09    0.21
  -5   4  -2    1.33    0.17
  -5   4  -2    1.33    0.17
  -5   4  -2    1.72    0.17
   5  -4   2    1.56    0.13
   5  -4   2    1.46    0.13
   5  -4   2    1.55    0.22
   5  -4   2    1.42    0.12
   5  -4   2    1.30    0.20
   5  -4   2    1.57    0.12
  -6   4  -2   18.92    0.98
  -6   4  -2   19.03    0.96
   6  -4   2   19.62    1.29
   6  -4   2   18.05    0.93
  -7   4  -2    1.37    0.22
   7  -4   2    0.98    0.18
   7  -4   2    0.63    0.18
   9   3  -2    3.53    0.40
   9   3  -2    3.74    0.31
   9   3  -2    3.85    0.32
  -9  -3   2    3.77    0.27
  -9  -3   2    4.55    0.28
   8   3  -2    1.52    0.18
   8   3  -2    1.64    0.19
   8   3  -2    1.36    0.20
   8   3  -2    1.22    0.20
  -8  -3   2    1.54    0.18
  -8  -3   2    1.78    0.18
   7   3  -2   -0.05    0.07
   7   3  -2    0.06    0.08
  -7  -3   2    0.02    0.08
  -7  -3   2    0.00    0.07
  -7  -3   2   -0.03    0.07
  -7  -3   2    0.08    0.07
   6   3  -2   -0.02    0.06
   6   3  -2   -0.03    0.08
   6   3  -2   -0.04    0.06
   6   3  -2   -0.10    0.08
  -6  -3   2   -0.08    0.07
  -6  -3   2   -0.07    0.07
   5   3  -2    1.31    0.14
   5   3  -2    1.25    0.14
   5   3  -2    1.54    0.14
   5   3  -2    1.18    0.14
  -5  -3   2    1.44    0.14
  -5  -3   2    1.41    0.14
   4   3  -2    8.60    0.47
   4   3  -2    9.49    0.48
   4   3  -2    8.66    0.46
   4   3  -2    8.90    0.47
  -4  -3   2    8.79    0.47
  -4  -3   2    8.58    0.47
  -4  -3   2    9.15    0.47
  -4  -3   2    8.99    0.48
   3   3  -2   39.96    1.86
   3   3  -2   39.22    1.84
   3   3  -2   34.47    1.86
   3   3  -2   37.48    1.84
  -3  -3   2   38.21    1.86
  -3  -3   2   35.26    1.84
  -3  -3   2   39.39    1.86
  -3  -3   2   39.21    1.84
   2   3  -2   30.25    1.42
   2   3  -2   28.74    1.44
   2   3  -2   29.48    1.42
   2   3  -2   28.78    1.44
  -2  -3   2   27.60    1.42
  -2  -3   2   27.68    1.42
  -2  -3   2   30.26    1.82
  -2  -3   2   29.90    1.44
  -2  -3   2   29.98    1.44
   1   3  -2    6.57    0.38
   1   3  -2    7.69    0.38
   1   3  -2    6.76    0.38
   1   3  -2    7.44    0.48
   1   3  -2    7.55    0.39
  -1  -3   2    7.62    0.49
  -1  -3   2    8.03    0.39
  -1  -3   2    7.42    0.38
  -1  -3   2    7.31    0.38
  -1  -3   2    7.43    0.38
   0   3  -2    0.61    0.08
   0   3  -2    0.61    0.08
   0   3  -2    0.68    0.09
   0   3  -2    0.57    0.09
   0   3  -2    0.57    0.11
   0  -3   2    0.61    0.08
   0  -3   2    0.57    0.10
   0  -3   2    0.57    0.08
   0  -3   2    0.60    0.08
  -1   3  -2   17.28    1.07
  -1   3  -2   16.77    0.83
  -1   3  -2   17.07    0.84
  -1   3  -2   17.33    0.83
  -1   3  -2   16.61    0.84
   1  -3   2   16.93    0.83
   1  -3   2   17.82    0.83
   1  -3   2   15.19    1.11
   1  -3   2   17.78    0.84
   1  -3   2   16.73    0.84
  -2   3  -2   51.35    3.24
  -2   3  -2   49.87    2.52
  -2   3  -2   53.06    2.52
  -2   3  -2   50.56    2.56
  -2   3  -2   54.59    2.56
   2  -3   2   52.54    2.55
   2  -3   2   58.61    2.55
   2  -3   2   54.14    2.52
   2  -3   2   46.89    3.34
   2  -3   2   52.28    2.52
  -3   3  -2   19.59    0.93
  -3   3  -2   19.49    0.94
  -3   3  -2   19.24    0.94
  -3   3  -2   18.64    0.93
   3  -3   2   20.10    0.92
   3  -3   2   19.95    0.93
   3  -3   2   18.31    0.93
   3  -3   2   19.27    1.24
   3  -3   2   16.25    1.08
   3  -3   2   17.54    1.22
   3  -3   2   18.50    0.92
  -4   3  -2    0.18    0.06
  -4   3  -2    0.24    0.11
  -4   3  -2    0.12    0.07
  -4   3  -2    0.14    0.07
  -4   3  -2    0.12    0.06
   4  -3   2    0.11    0.06
   4  -3   2    0.14    0.05
   4  -3   2    0.07    0.10
   4  -3   2    0.09    0.09
   4  -3   2    0.12    0.09
   4  -3   2    0.12    0.05
   4  -3   2    0.13    0.05
  -5   3  -2   18.94    0.97
  -5   3  -2   18.94    0.96
  -5   3  -2   18.89    0.97
  -5   3  -2   19.27    0.96
   5  -3   2   18.11    1.28
   5  -3   2   18.64    0.94
   5  -3   2   19.68    0.96
   5  -3   2   21.54    0.94
   5  -3   2   18.84    0.95
  -6   3  -2    9.31    0.73
  -6   3  -2    9.66    0.55
  -6   3  -2    9.52    0.54
  -6   3  -2   11.51    0.55
  -6   3  -2   11.53    0.55
   6  -3   2   10.82    0.71
   6  -3   2    9.31    0.51
   6  -3   2   10.15    0.52
   6  -3   2   10.53    0.52
   6  -3   2    9.10    0.52
  -7   3  -2    5.78    0.40
  -7   3  -2    6.62    0.40
  -7   3  -2    6.95    0.39
  -7   3  -2    6.39    0.40
   7  -3   2    5.43    0.43
   7  -3   2    7.54    0.50
   7  -3   2    6.51    0.35
   7  -3   2    5.89    0.35
   7  -3   2    6.10    0.35
   7  -3   2    6.78    0.35
  -8   3  -2    1.20    0.18
  -8   3  -2    1.06    0.17
   8  -3   2    1.37    0.22
   8  -3   2    0.87    0.20
   9   2  -2    0.33    0.14
   9   2  -2    0.41    0.14
   9   2  -2    0.28    0.17
  -9  -2   2    0.21    0.12
  -9  -2   2    0.25    0.12
   8   2  -2   -0.11    0.12
   8   2  -2   -0.13    0.09
   8   2  -2   -0.08    0.09
  -8  -2   2   -0.02    0.08
  -8  -2   2   -0.02    0.09
   7   2  -2    6.51    0.37
   7   2  -2    6.66    0.40
   7   2  -2    6.85    0.38
   7   2  -2    6.15    0.39
  -7  -2   2    6.67    0.38
  -7  -2   2    6.65    0.37
  -7  -2   2    6.71    0.39
  -7  -2   2    6.83    0.39
   6   2  -2    0.13    0.08
   6   2  -2    0.06    0.07
   6   2  -2    0.08    0.06
   6   2  -2    0.08    0.08
  -6  -2   2    0.14    0.06
  -6  -2   2    0.10    0.06
  -6  -2   2    0.20    0.08
  -6  -2   2    0.15    0.08
   5   2  -2   -0.05    0.06
   5   2  -2   -0.01    0.06
  -5  -2   2   -0.01    0.07
  -5  -2   2    0.01    0.07
  -5  -2   2   -0.05    0.07
  -5  -2   2    0.10    0.07
   4   2  -2    2.13    0.15
   4   2  -2    2.04    0.15
  -4  -2   2    2.06    0.16
  -4  -2   2    2.15    0.16
  -4  -2   2    1.92    0.15
   3   2  -2   12.48    0.58
   3   2  -2   11.11    0.58
   3   2  -2   11.38    0.58
   3   2  -2   11.69    0.57
  -3  -2   2   11.84    0.58
  -3  -2   2   11.28    0.57
  -3  -2   2   10.74    0.58
  -3  -2   2   10.67    0.57
   2   2  -2   83.98    3.83
   2   2  -2   79.87    3.88
   2   2  -2   80.47    3.88
   2   2  -2   81.15    3.83
  -2  -2   2   76.78    3.83
  -2  -2   2   78.86    3.83
  -2  -2   2   75.76    3.88
  -2  -2   2   82.00    3.88
   1   2  -2  221.70   10.96
   1   2  -2  213.15   10.80
   1   2  -2  219.13   10.95
   1   2  -2  226.26   10.82
  -1  -2   2  232.21   10.95
  -1  -2   2  221.90   10.79
  -1  -2   2  226.60   13.86
  -1  -2   2  242.65   10.92
  -1  -2   2  223.60   10.82
   0   2  -2   51.23    3.31
   0   2  -2   55.60    2.59
   0   2  -2   54.62    2.62
   0   2  -2   53.31    2.59
   0   2  -2   50.91    2.62
   0  -2   2   53.88    2.62
   0  -2   2   54.65    2.59
   0  -2   2   53.60    3.31
   0  -2   2   53.42    2.59
   0  -2   2   57.57    2.62
  -1   2  -2   -0.01    0.06
  -2   2  -2    4.43    0.24
  -2   2  -2    4.29    0.23
  -2   2  -2    4.20    0.24
  -2   2  -2    4.26    0.24
   2  -2   2    4.37    0.32
   2  -2   2    4.43    0.23
   2  -2   2    4.13    0.23
   2  -2   2    4.25    0.23
   2  -2   2    4.44    0.23
  -3   2  -2   21.96    1.03
  -3   2  -2   20.94    1.04
  -3   2  -2   20.07    1.03
  -3   2  -2   23.90    1.37
  -3   2  -2   17.71    1.04
   3  -2   2   20.66    1.02
   3  -2   2   21.90    1.37
   3  -2   2   22.21    1.03
   3  -2   2   20.88    1.04
   3  -2   2   20.51    1.04
  -4   2  -2   41.89    1.88
  -4   2  -2   37.96    1.86
  -4   2  -2   37.56    1.88
  -4   2  -2   40.14    1.86
   4  -2   2   35.03    2.46
   4  -2   2   37.98    1.87
   4  -2   2   36.07    1.87
   4  -2   2   40.23    1.85
   4  -2   2   37.80    1.85
  -5   2  -2    2.74    0.19
  -5   2  -2    2.52    0.18
  -5   2  -2    2.80    0.19
  -5   2  -2    2.68    0.18
  -5   2  -2    3.08    0.27
   5  -2   2    2.65    0.18
   5  -2   2    3.01    0.18
   5  -2   2    2.29    0.26
   5  -2   2    2.74    0.18
   5  -2   2    2.79    0.18
   5  -2   2    2.70    0.24
  -6   2  -2   10.85    0.56
  -6   2  -2   10.15    0.55
  -6   2  -2   10.82    0.55
  -6   2  -2   10.11    0.55
   6  -2   2   10.47    0.54
   6  -2   2   10.43    0.54
   6  -2   2   10.20    0.53
   6  -2   2    9.98    0.63
   6  -2   2   10.67    0.53
  -7   2  -2    0.90    0.18
  -7   2  -2    0.82    0.13
  -7   2  -2    0.92    0.13
   7  -2   2    1.09    0.16
   7  -2   2    1.17    0.18
   7  -2   2    1.25    0.15
   7  -2   2    1.21    0.15
   7  -2   2    1.45    0.21
   7  -2   2    1.11    0.16
  -8   2  -2   11.71    0.61
  -8   2  -2   11.57    0.60
   8  -2   2   10.47    0.59
   8  -2   2   11.25    0.68
   8  -2   2   10.53    0.59
   8  -2   2   10.60    0.76
   8  -2   2   10.27    0.56
   8  -2   2   10.48    0.57
  -9   2  -2    0.21    0.16
  -9   2  -2    0.14    0.15
   9  -2   2    0.00    0.17
   9  -2   2   -0.01    0.18
   9   1  -2    0.29    0.19
  -9  -1   2    0.37    0.15
  -9  -1   2    0.42    0.14
   8   1  -2    0.49    0.11
   8   1  -2    0.52    0.14
   8   1  -2    0.42    0.11
   8   1  -2    0.45    0.15
   8   1  -2    0.50    0.15
  -8  -1   2    0.54    0.11
  -8  -1   2    0.44    0.11
   7   1  -2   10.52    0.56
   7   1  -2   10.92    0.57
   7   1  -2   11.06    0.58
   7   1  -2    9.90    0.55
   7   1  -2   11.17    0.67
  -7  -1   2   10.41    0.57
  -7  -1   2   10.65    0.57
   6   1  -2   15.95    0.80
   6   1  -2   16.18    0.79
  -6  -1   2   16.48    0.82
  -6  -1   2   15.65    0.81
  -6  -1   2   15.90    0.80
  -6  -1   2   14.76    0.80
   5   1  -2   24.31    1.16
   5   1  -2   22.22    1.16
   5   1  -2   25.34    1.15
  -5  -1   2   21.61    1.17
  -5  -1   2   22.84    1.15
  -5  -1   2   23.91    1.16
  -5  -1   2   23.33    1.17
   4   1  -2   44.38    2.18
   4   1  -2   46.33    2.16
   4   1  -2   45.70    2.16
   4   1  -2   44.40    2.18
  -4  -1   2   46.48    2.19
  -4  -1   2   40.24    2.19
  -4  -1   2   45.87    2.16
  -4  -1   2   43.74    2.16
   3   1  -2    0.80    0.08
   3   1  -2    0.72    0.08
  -3  -1   2    0.61    0.08
  -3  -1   2    0.74    0.09
  -3  -1   2    0.51    0.08
  -3  -1   2    0.51    0.08
   2   1  -2    0.70    0.09
   2   1  -2    0.59    0.09
   2   1  -2    0.73    0.07
   2   1  -2    0.80    0.08
  -2  -1   2    0.64    0.09
  -2  -1   2    0.74    0.09
  -2  -1   2    0.79    0.09
  -2  -1   2    0.78    0.08
   1   1  -2   56.25    2.73
   1   1  -2   57.82    2.70
   1   1  -2   53.46    2.69
   1   1  -2   54.35    2.73
  -1  -1   2   57.51    2.70
  -1  -1   2   56.19    2.73
  -1  -1   2   57.83    2.73
  -1  -1   2   55.77    2.70
   0   1  -2   48.30    2.37
   0   1  -2   50.56    2.99
   0   1  -2   46.34    2.33
   0   1  -2   49.23    2.37
   0   1  -2   48.62    2.33
   0  -1   2   46.55    2.33
   0  -1   2   49.86    2.34
   0  -1   2   47.70    2.37
   0  -1   2   50.49    2.37
  -1   1  -2   10.42    0.50
  -1   1  -2   10.24    0.51
  -1   1  -2   10.11    0.51
  -1   1  -2   10.09    0.50
   1  -1   2    9.78    0.51
   1  -1   2    9.49    0.50
   1  -1   2   10.57    0.51
   1  -1   2   10.46    0.50
  -2   1  -2   57.40    2.53
  -2   1  -2   48.58    2.56
  -2   1  -2   49.37    2.53
  -2   1  -2   58.49    2.56
   2  -1   2   54.45    2.53
   2  -1   2   46.23    2.56
   2  -1   2   53.76    2.56
   2  -1   2   57.38    3.35
   2  -1   2   48.46    2.53
  -3   1  -2   22.83    1.03
  -3   1  -2   18.37    1.34
  -3   1  -2   19.40    1.01
  -3   1  -2   21.28    1.01
  -3   1  -2   20.04    1.02
   3  -1   2   21.37    1.01
   3  -1   2   21.39    1.02
   3  -1   2   20.57    1.01
   3  -1   2   19.82    1.34
   3  -1   2   22.05    1.02
  -4   1  -2   82.81    3.65
  -4   1  -2   77.31    3.70
  -4   1  -2   79.12    3.65
  -4   1  -2   69.18    4.83
  -4   1  -2   78.17    3.70
   4  -1   2   72.29    4.83
   4  -1   2   74.74    3.65
   4  -1   2   78.59    3.70
   4  -1   2   78.56    3.65
   4  -1   2   69.42    3.69
  -5   1  -2    0.74    0.09
  -5   1  -2    0.67    0.10
  -5   1  -2    0.82    0.09
   5  -1   2    0.87    0.10
   5  -1   2    0.60    0.12
   5  -1   2    0.71    0.10
   5  -1   2    0.73    0.10
   5  -1   2    0.86    0.10
  -6   1  -2    3.74    0.24
  -6   1  -2    3.24    0.24
  -6   1  -2    3.99    0.25
  -6   1  -2    3.44    0.23
   6  -1   2    3.72    0.31
   6  -1   2    3.88    0.23
   6  -1   2    4.12    0.24
   6  -1   2    4.26    0.24
   6  -1   2    4.14    0.24
  -7   1  -2    0.35    0.08
  -7   1  -2    0.17    0.07
  -7   1  -2    0.51    0.09
   7  -1   2    0.40    0.12
  -8   1  -2    0.50    0.11
  -8   1  -2    0.26    0.19
   8  -1   2    0.39    0.14
   8  -1   2    0.23    0.10
   8  -1   2    0.40    0.16
   8  -1   2    0.51    0.10
  -9   1  -2    0.35    0.14
  -9   1  -2    0.18    0.12
   9  -1   2   -0.05    0.12
   9  -1   2   -0.09    0.12
   9   0  -2    3.74    0.40
  -9   0   2    3.52    0.33
  -9   0   2    3.80    0.34
   8   0  -2    0.20    0.09
   8   0  -2    0.29    0.09
  -8   0   2    0.33    0.12
  -8   0   2    0.37    0.12
   7   0  -2   16.99    1.01
   7   0  -2   18.98    1.01
   7   0  -2   20.30    1.01
   7   0  -2   22.08    1.00
   7   0  -2   21.67    1.20
  -7   0   2   20.44    1.37
  -7   0   2   21.13    1.02
  -7   0   2   20.30    1.04
   6   0  -2    2.71    0.20
   6   0  -2    3.11    0.24
   6   0  -2    2.68    0.20
   6   0  -2    2.99    0.19
   6   0  -2    2.96    0.19
  -6   0   2    3.36    0.21
  -6   0   2    2.58    0.20
  -6   0   2    2.81    0.21
  -6   0   2    2.84    0.20
  -6   0   2    2.26    0.27
   5   0  -2   17.79    1.02
   5   0  -2   18.05    0.87
   5   0  -2   17.23    0.86
   5   0  -2   17.68    0.87
   5   0  -2   17.59    0.86
  -5   0   2   17.85    0.87
  -5   0   2   16.58    0.87
  -5   0   2   17.28    0.88
  -5   0   2   17.19    0.88
   4   0  -2   31.63    1.46
   4   0  -2   27.29    1.47
   4   0  -2   30.01    1.48
   4   0  -2   29.28    1.72
  -4   0   2   32.63    1.47
  -4   0   2   30.20    1.48
  -4   0   2   28.82    1.46
  -4   0   2   30.95    1.48
   3   0  -2   20.45    0.95
   3   0  -2   17.51    0.95
   3   0  -2   20.88    0.96
   3   0  -2   19.69    1.12
   3   0  -2   20.19    0.96
  -3   0   2   20.08    0.95
  -3   0   2   20.65    0.95
  -3   0   2   18.89    0.96
  -3   0   2   17.18    0.96
   2   0  -2   13.38    0.69
   2   0  -2   13.71    0.70
   2   0  -2   15.24    0.70
   2   0  -2   13.93    0.69
  -2   0   2   13.81    0.69
  -2   0   2   15.15    0.70
  -2   0   2   13.88    0.70
  -2   0   2   14.31    0.71
   1   0  -2    0.21    0.04
   1   0  -2    0.17    0.03
   1   0  -2    0.15    0.03
   1   0  -2    0.20    0.04
   1   0  -2    0.15    0.03
  -1   0   2    0.19    0.03
  -1   0   2    0.18    0.04
  -1   0   2    0.18    0.03
  -1   0   2    0.09    0.03
   0   0  -2    2.46    0.14
   0   0  -2    2.34    0.14
   0   0  -2    2.43    0.14
   0   0  -2    2.33    0.14
   0   0  -2    2.65    0.17
   0   0   2    2.37    0.14
   0   0   2    2.24    0.15
   0   0   2    2.31    0.14
   0   0   2    2.47    0.14
   0   0   2    2.52    0.14
  -1   0  -2   16.95    0.80
  -1   0  -2   16.72    0.81
  -1   0  -2   14.97    0.81
  -1   0  -2   15.42    0.80
   1   0   2   17.31    0.80
   1   0   2   17.45    0.81
   1   0   2   16.89    0.81
   1   0   2   16.80    0.80
  -2   0  -2  949.21   46.08
  -2   0  -2  948.03   46.08
  -2   0  -2  996.50   46.70
  -2   0  -2  907.44   46.69
   2   0   2  993.57   46.70
   2   0   2  971.60   60.88
   2   0   2  999.37   46.71
   2   0   2 1000.00   46.09
   2   0   2  913.75   46.08
  -3   0  -2   17.56    0.82
  -3   0  -2   16.89    0.81
  -3   0  -2   16.66    0.82
  -3   0  -2   16.77    0.81
   3   0   2   16.44    0.82
   3   0   2   15.98    0.80
   3   0   2   17.08    0.82
   3   0   2   14.73    1.06
   3   0   2   15.81    0.80
  -4   0  -2   33.13    1.61
  -4   0  -2   32.91    1.63
  -4   0  -2   33.39    1.63
  -4   0  -2   31.72    2.12
  -4   0  -2   34.78    1.61
   4   0   2   33.01    1.63
   4   0   2   32.42    1.60
   4   0   2   33.45    1.63
   4   0   2   32.87    2.12
   4   0   2   33.87    1.60
  -5   0  -2    4.14    0.23
  -5   0  -2    3.94    0.31
  -5   0  -2    3.93    0.23
  -5   0  -2    3.95    0.23
  -5   0  -2    3.80    0.23
   5   0   2    4.01    0.23
   5   0   2    3.79    0.23
   5   0   2    3.76    0.22
   5   0   2    3.70    0.23
  -6   0  -2   11.12    0.62
  -6   0  -2   11.94    0.63
  -6   0  -2   13.17    0.64
  -6   0  -2   12.83    0.63
   6   0   2   12.21    0.63
   6   0   2   12.07    0.62
   6   0   2   12.13    0.63
   6   0   2   12.38    0.62
  -7   0  -2    1.19    0.14
  -7   0  -2    1.15    0.14
   7   0   2    1.07    0.14
   7   0   2    0.94    0.15
  -8   0  -2    0.10    0.08
  -8   0  -2    0.24    0.10
  -8   0  -2   -0.01    0.07
  -8   0  -2   -0.13    0.15
  -8   0  -2    0.12    0.09
   8   0   2    0.03    0.11
   8   0   2   -0.07    0.12
   8   0   2   -0.02    0.11
   8   0   2    0.17    0.09
   8   0   2   -0.03    0.07
   8   0   2    0.06    0.09
  -9   0  -2    2.72    0.24
  -9   0  -2    2.73    0.23
   9   0   2    3.08    0.32
   9   0   2    2.56    0.28
   8  -1  -2    0.37    0.15
  -8   1   2    0.43    0.13
  -8   1   2    0.54    0.13
   7  -1  -2   11.82    0.61
   7  -1  -2   12.77    0.60
   7  -1  -2   12.38    0.62
   7  -1  -2   12.40    0.61
   7  -1  -2   12.58    0.74
  -7   1   2   12.19    0.64
  -7   1   2   13.66    0.66
  -7   1   2   10.64    0.64
  -7   1   2   11.18    0.65
  -7   1   2   11.23    0.87
   6  -1  -2   12.21    0.63
   6  -1  -2   12.21    0.62
   6  -1  -2   13.03    0.76
   6  -1  -2   12.75    0.63
   6  -1  -2   13.00    0.63
  -6   1   2   11.95    0.65
  -6   1   2   12.76    0.65
   5  -1  -2    0.07    0.07
   5  -1  -2    0.04    0.05
   5  -1  -2    0.06    0.04
   5  -1  -2    0.11    0.05
   5  -1  -2    0.09    0.04
  -5   1   2   -0.01    0.09
   4  -1  -2   28.42    1.46
   4  -1  -2   28.83    1.46
   4  -1  -2   33.68    1.44
   4  -1  -2   30.88    1.71
   4  -1  -2   30.28    1.44
  -4   1   2   29.52    1.47
  -4   1   2   27.73    1.45
  -4   1   2   30.21    1.95
   3  -1  -2    0.07    0.03
   3  -1  -2    0.09    0.03
   3  -1  -2    0.16    0.05
   3  -1  -2    0.10    0.03
   3  -1  -2    0.15    0.03
  -3   1   2    0.10    0.04
  -3   1   2    0.11    0.04
   2  -1  -2    4.22    0.22
   2  -1  -2    4.46    0.27
   2  -1  -2    4.37    0.22
  -2   1   2    4.29    0.23
  -2   1   2    4.37    0.22
   1  -1  -2   25.59    1.40
   1  -1  -2   24.79    1.20
   1  -1  -2   24.23    1.18
  -1   1   2   24.89    1.40
  -1   1   2   24.82    1.20
  -1   1   2   24.23    1.19
   0  -1  -2   12.81    0.63
   0  -1  -2   12.51    0.75
   0  -1  -2   11.02    0.63
   0  -1  -2   11.95    0.64
   0  -1  -2   13.84    0.64
   0   1   2   13.13    0.75
   0   1   2   14.40    0.64
   0   1   2   11.85    0.64
   0   1   2   14.33    0.63
   0   1   2   14.30    0.81
   0   1   2   13.73    0.63
  -1  -1  -2  254.82   12.05
  -1  -1  -2  254.47   12.21
   1   1   2  243.65   12.05
   1   1   2  261.10   14.15
   1   1   2  243.75   12.21
  -2  -1  -2   93.39    5.00
  -2  -1  -2   96.77    4.95
  -2  -1  -2   99.48    5.01
  -2  -1  -2  105.05    4.94
   2   1   2  112.98    6.55
   2   1   2  102.11    4.94
   2   1   2  110.82    5.00
   2   1   2  102.87    5.01
   2   1   2  104.09    4.93
  -3  -1  -2    1.04    0.09
  -3  -1  -2    0.86    0.08
   3   1   2    1.06    0.09
   3   1   2    1.02    0.09
   3   1   2    0.92    0.10
   3   1   2    1.05    0.08
   3   1   2    0.97    0.09
  -4  -1  -2    2.27    0.15
  -4  -1  -2    2.18    0.14
  -4  -1  -2    2.35    0.15
  -4  -1  -2    2.30    0.18
  -4  -1  -2    2.29    0.15
   4   1   2    2.09    0.14
   4   1   2    2.23    0.15
   4   1   2    2.06    0.14
   4   1   2    2.31    0.15
  -5  -1  -2   11.86    0.60
  -5  -1  -2   12.45    0.60
  -5  -1  -2   11.32    0.59
  -5  -1  -2   11.94    0.77
  -5  -1  -2   12.43    0.59
   5   1   2   11.62    0.59
   5   1   2   10.89    0.59
   5   1   2   11.76    0.59
   5   1   2   10.44    0.59
  -6  -1  -2   44.31    2.02
  -6  -1  -2   41.35    2.04
  -6  -1  -2   38.85    2.01
  -6  -1  -2   37.94    2.65
  -6  -1  -2   40.33    2.04
   6   1   2   46.49    2.04
   6   1   2   40.96    2.01
  -7  -1  -2    3.44    0.24
  -7  -1  -2    2.89    0.22
  -7  -1  -2    3.58    0.24
  -7  -1  -2    3.30    0.22
   7   1   2    3.64    0.23
   7   1   2    3.98    0.23
   7   1   2    3.09    0.23
   7   1   2    3.23    0.22
  -8  -1  -2    8.30    0.45
  -8  -1  -2    7.05    0.61
  -8  -1  -2    7.11    0.45
  -8  -1  -2    9.18    0.46
  -8  -1  -2    8.87    0.47
   8   1   2    8.22    0.47
   8   1   2    8.16    0.46
   8   1   2    7.88    0.46
   8   1   2    9.37    0.46
  -9  -1  -2    0.23    0.22
   9   1   2    0.52    0.12
   9   1   2    0.40    0.15
   9   1   2    0.35    0.12
   9   1   2    0.45    0.16
   9   1   2    0.47    0.12
  10   1   2    0.34    0.15
  10   1   2    0.45    0.15
   8  -2  -2    1.82    0.29
  -8   2   2    2.88    0.28
  -8   2   2    2.24    0.27
   7  -2  -2   11.20    0.71
  -7   2   2   12.34    0.63
  -7   2   2   11.22    0.64
   6  -2  -2    5.14    0.34
  -6   2   2    4.26    0.40
  -6   2   2    4.99    0.30
  -6   2   2    5.21    0.31
   5  -2  -2    1.84    0.17
  -5   2   2    1.63    0.15
  -5   2   2    1.33    0.20
  -5   2   2    1.63    0.15
   4  -2  -2    2.96    0.21
  -4   2   2    3.06    0.18
  -4   2   2    2.77    0.27
  -4   2   2    2.89    0.18
  -4   2   2    3.03    0.18
  -4   2   2    2.48    0.17
   3  -2  -2    0.73    0.10
  -3   2   2    0.61    0.07
  -3   2   2    0.58    0.07
  -3   2   2    0.70    0.07
  -3   2   2    0.68    0.07
  -3   2   2    0.75    0.16
   2  -2  -2   16.47    0.90
  -2   2   2   15.36    0.76
  -2   2   2   16.27    0.90
  -2   2   2   14.56    0.77
  -2   2   2   17.54    1.03
  -2   2   2   14.59    0.76
  -2   2   2   14.92    0.77
   1  -2  -2   73.17    4.10
  -1   2   2   74.57    4.62
  -1   2   2   71.05    4.09
   0  -2  -2    8.41    0.56
   0   2   2    8.70    0.58
   0   2   2    9.16    0.52
  -1  -2  -2   19.15    1.16
  -1  -2  -2   19.55    0.90
  -1  -2  -2   19.60    0.91
  -1  -2  -2   18.86    0.90
  -1  -2  -2   19.29    0.91
   1   2   2   18.58    0.90
   1   2   2   18.50    0.91
   1   2   2   16.84    1.19
  -2  -2  -2  106.58    5.24
  -2  -2  -2  110.07    5.17
   2   2   2  105.04    5.23
   2   2   2  107.59    5.16
   2   2   2  105.38    5.16
   2   2   2  111.12    5.23
  -3  -2  -2    0.10    0.04
  -3  -2  -2    0.06    0.04
  -3  -2  -2    0.06    0.03
   3   2   2    0.11    0.04
   3   2   2    0.05    0.04
  -4  -2  -2    9.91    0.52
  -4  -2  -2   10.45    0.53
  -4  -2  -2   10.99    0.52
  -4  -2  -2   10.79    0.53
  -4  -2  -2    9.93    0.67
   4   2   2   10.45    0.52
   4   2   2    9.49    0.52
   4   2   2   10.33    0.52
   4   2   2   10.29    0.53
  -5  -2  -2   14.08    0.69
  -5  -2  -2   14.65    0.71
  -5  -2  -2   14.71    0.71
  -5  -2  -2   13.48    0.90
  -5  -2  -2   13.80    0.69
   5   2   2   13.19    0.70
   5   2   2   13.53    0.69
   5   2   2   13.42    0.70
   5   2   2   13.86    0.69
  -6  -2  -2    2.49    0.18
  -6  -2  -2    2.47    0.19
  -6  -2  -2    2.54    0.19
  -6  -2  -2    2.53    0.19
   6   2   2    2.73    0.18
   6   2   2    2.63    0.18
   6   2   2    2.53    0.18
   6   2   2    2.58    0.18
  -7  -2  -2   44.05    2.84
   7   2   2   45.71    2.16
   7   2   2   43.98    2.19
   7   2   2   44.56    2.19
   7   2   2   43.34    2.16
  -8  -2  -2   16.37    0.93
  -8  -2  -2   19.56    1.24
  -8  -2  -2   18.48    0.95
   8   2   2   17.45    0.95
   8   2   2   20.54    0.94
  -9  -2  -2    3.55    0.25
  -9  -2  -2    3.52    0.25
   9   2   2    3.21    0.32
   9   2   2    3.59    0.26
   9   2   2    3.66    0.26
   9   2   2    3.15    0.32
 -10  -2  -2    0.18    0.10
 -10  -2  -2    0.07    0.10
 -10  -2  -2   -0.22    0.32
  10   2   2   -0.10    0.13
  10   2   2   -0.08    0.16
  10   2   2    0.07    0.14
   8  -3  -2    1.26    0.26
   7  -3  -2    1.00    0.15
   7  -3  -2    1.16    0.19
  -7   3   2    1.13    0.17
  -7   3   2    1.22    0.18
   6  -3  -2    1.74    0.20
  -6   3   2    2.06    0.20
  -6   3   2    2.22    0.20
  -6   3   2    2.19    0.19
  -6   3   2    2.61    0.27
  -6   3   2    2.14    0.20
   5  -3  -2    1.41    0.16
  -5   3   2    1.38    0.14
  -5   3   2    1.66    0.15
  -5   3   2    1.54    0.14
  -5   3   2    1.38    0.14
   4  -3  -2    0.21    0.07
  -4   3   2    0.35    0.06
  -4   3   2    0.21    0.06
  -4   3   2    0.29    0.06
  -4   3   2    0.28    0.12
  -4   3   2    0.40    0.06
   3  -3  -2   20.12    1.05
  -3   3   2   17.02    0.89
  -3   3   2   16.48    0.89
  -3   3   2   19.60    0.88
  -3   3   2   17.55    0.88
  -2   3   2   19.11    1.16
  -2   3   2   20.12    0.98
  -2   3   2   22.21    1.33
  -2   3   2   20.19    0.99
  -1   3   2   -0.20    0.07
  -1   3   2   -0.27    0.05
  -1   3   2   -0.24    0.07
   0  -3  -2  147.89    9.06
   0  -3  -2  133.47    9.32
   0   3   2  157.81    8.27
   0   3   2  150.16    9.03
  -1  -3  -2    4.10    0.27
  -1  -3  -2    3.61    0.26
   1   3   2    3.91    0.20
   1   3   2    4.41    0.27
   1   3   2    3.29    0.26
   1   3   2    3.60    0.19
  -2  -3  -2    5.34    0.26
  -2  -3  -2    5.15    0.26
  -2  -3  -2    5.19    0.27
  -2  -3  -2    5.11    0.35
  -2  -3  -2    5.21    0.26
  -2  -3  -2    5.35    0.34
   2   3   2    5.07    0.27
   2   3   2    5.16    0.26
   2   3   2    5.26    0.27
   2   3   2    4.98    0.27
  -3  -3  -2    3.74    0.21
  -3  -3  -2    3.86    0.21
  -3  -3  -2    4.01    0.21
  -3  -3  -2    3.98    0.21
   3   3   2    3.82    0.21
   3   3   2    3.68    0.21
   3   3   2    3.69    0.21
   3   3   2    3.64    0.21
  -4  -3  -2   54.77    2.76
  -4  -3  -2   55.37    2.76
  -4  -3  -2   55.39    2.73
  -4  -3  -2   60.63    2.73
   4   3   2   58.05    2.77
   4   3   2   58.61    2.73
   4   3   2   55.88    2.77
   4   3   2   54.69    2.73
  -5  -3  -2    3.06    0.18
  -5  -3  -2    2.68    0.18
  -5  -3  -2    2.75    0.17
  -5  -3  -2    2.97    0.18
   5   3   2    2.32    0.18
   5   3   2    2.19    0.17
   5   3   2    2.67    0.17
   5   3   2    2.72    0.17
  -6  -3  -2    0.63    0.09
  -6  -3  -2    0.59    0.09
  -6  -3  -2    0.52    0.09
  -6  -3  -2    0.52    0.09
  -6  -3  -2    0.47    0.08
   6   3   2    0.59    0.09
   6   3   2    0.50    0.08
   6   3   2    0.47    0.08
   6   3   2    0.58    0.09
  -7  -3  -2    5.38    0.32
  -7  -3  -2    5.57    0.41
  -7  -3  -2    5.62    0.32
   7   3   2    4.85    0.31
   7   3   2    5.51    0.32
   7   3   2    5.03    0.31
   7   3   2    5.52    0.31
  -8  -3  -2   23.71    1.19
  -8  -3  -2   25.18    1.21
  -8  -3  -2   21.74    1.20
  -8  -3  -2   23.89    1.22
   8   3   2   24.17    1.19
   8   3   2   23.31    1.20
  -9  -3  -2    0.25    0.19
  -9  -3  -2    0.20    0.08
  -9  -3  -2    0.08    0.08
   9   3   2    0.33    0.14
   9   3   2    0.03    0.09
   9   3   2    0.29    0.14
   9   3   2    0.29    0.10
 -10  -3  -2    0.27    0.11
 -10  -3  -2    0.26    0.10
  10   3   2    0.07    0.12
  10   3   2    0.31    0.13
   7  -4  -2    0.69    0.17
   7  -4  -2    0.56    0.18
  -7   4   2    0.52    0.20
  -7   4   2    0.66    0.15
  -7   4   2    0.65    0.16
  -7   4   2    0.52    0.19
   6  -4  -2    4.35    0.33
   6  -4  -2    3.82    0.38
  -6   4   2    4.36    0.31
  -6   4   2    3.86    0.30
  -6   4   2    4.86    0.29
  -6   4   2    4.46    0.29
   5  -4  -2    6.54    0.44
   5  -4  -2    6.95    0.49
  -5   4   2    5.97    0.35
  -5   4   2    6.12    0.35
  -5   4   2    6.56    0.36
  -5   4   2    6.09    0.36
   4  -4  -2    1.49    0.17
   4  -4  -2    1.44    0.18
  -4   4   2    1.45    0.13
  -4   4   2    1.54    0.13
  -4   4   2    1.49    0.13
  -4   4   2    1.66    0.13
   3  -4  -2    5.36    0.39
   3  -4  -2    6.44    0.44
  -3   4   2    6.21    0.31
  -3   4   2    5.84    0.31
  -3   4   2    5.93    0.31
  -3   4   2    6.63    0.32
  -3   4   2    5.85    0.38
  -3   4   2    5.95    0.46
   2  -4  -2    0.22    0.07
   2  -4  -2    0.18    0.07
  -2   4   2    0.04    0.03
  -2   4   2    0.00    0.05
  -2   4   2   -0.02    0.08
  -2   4   2    0.03    0.09
  -2   4   2    0.04    0.03
  -2   4   2    0.11    0.03
  -2   4   2    0.09    0.03
   1  -4  -2   22.61    1.61
   1  -4  -2   23.60    1.44
   1  -4  -2   26.52    1.62
  -1   4   2   26.28    1.22
  -1   4   2   24.55    1.57
  -1   4   2   22.30    1.62
  -1   4   2   27.16    1.20
  -1   4   2   25.29    1.22
  -1   4   2   26.44    1.43
  -1   4   2   26.06    1.20
   0  -4  -2    0.08    0.06
   0  -4  -2    0.16    0.07
   0   4   2    0.10    0.02
   0   4   2    0.11    0.02
   0   4   2    0.13    0.02
   0   4   2    0.11    0.02
   0   4   2    0.06    0.06
   0   4   2    0.09    0.07
  -1  -4  -2   13.92    0.86
  -1  -4  -2   13.24    0.88
   1   4   2   14.44    0.66
   1   4   2   12.29    0.86
   1   4   2   13.69    0.65
   1   4   2   12.00    0.87
   1   4   2   14.08    0.66
   1   4   2   14.17    0.66
  -2  -4  -2   15.61    1.01
  -2  -4  -2   15.67    0.78
  -2  -4  -2   16.33    0.77
  -2  -4  -2   16.34    0.77
  -2  -4  -2   16.26    0.78
  -2  -4  -2   15.72    1.00
   2   4   2   15.59    0.78
   2   4   2   15.40    0.78
   2   4   2   15.21    0.77
   2   4   2   15.83    0.77
  -3  -4  -2   12.03    0.60
  -3  -4  -2   12.37    0.78
  -3  -4  -2   11.87    0.60
  -3  -4  -2   12.57    0.59
  -3  -4  -2   12.19    0.60
   3   4   2   11.87    0.61
   3   4   2   11.55    0.61
   3   4   2   11.90    0.60
   3   4   2   11.84    0.60
  -4  -4  -2    3.56    0.20
  -4  -4  -2    3.54    0.20
  -4  -4  -2    3.79    0.21
  -4  -4  -2    3.65    0.21
   4   4   2    3.41    0.21
   4   4   2    3.28    0.21
   4   4   2    3.43    0.21
   4   4   2    3.30    0.20
  -5  -4  -2   38.08    1.90
  -5  -4  -2   39.89    1.93
  -5  -4  -2   39.31    1.91
  -5  -4  -2   38.91    1.93
   5   4   2   41.12    1.93
   5   4   2   38.22    1.91
  -6  -4  -2   38.43    1.92
  -6  -4  -2   39.04    1.94
  -6  -4  -2   40.20    1.95
  -6  -4  -2   39.56    1.92
   6   4   2   40.29    1.92
   6   4   2   37.35    1.94
   6   4   2   40.45    1.94
   6   4   2   39.49    1.92
  -7  -4  -2    1.70    0.21
  -7  -4  -2    1.83    0.17
  -7  -4  -2    1.83    0.17
   7   4   2    1.87    0.16
   7   4   2    1.60    0.16
  -8  -4  -2    1.22    0.17
  -8  -4  -2    1.37    0.16
  -8  -4  -2    0.98    0.17
  -8  -4  -2    1.33    0.15
  -8  -4  -2    1.54    0.15
   8   4   2    1.28    0.16
   8   4   2    1.16    0.14
   8   4   2    1.47    0.15
   8   4   2    1.15    0.15
  -9  -4  -2    1.37    0.17
  -9  -4  -2    1.34    0.17
  -9  -4  -2    0.79    0.20
   9   4   2    0.82    0.13
   9   4   2    0.99    0.13
 -10  -4  -2    5.46    0.37
 -10  -4  -2    6.10    0.37
  10   4   2    5.46    0.38
  10   4   2    5.85    0.37
   7  -5  -2    0.01    0.16
   7  -5  -2    0.21    0.16
  -7   5   2    0.39    0.19
  -7   5   2    0.39    0.18
   6  -5  -2    0.14    0.16
   6  -5  -2    0.24    0.14
  -6   5   2    0.46    0.13
  -6   5   2    0.20    0.15
  -6   5   2    0.30    0.12
  -6   5   2    0.47    0.15
   5  -5  -2    1.22    0.20
   5  -5  -2    1.58    0.22
  -5   5   2    1.42    0.18
  -5   5   2    1.71    0.17
  -5   5   2    1.77    0.19
  -5   5   2    1.52    0.17
   4  -5  -2    5.27    0.41
  -4   5   2    5.07    0.29
  -4   5   2    4.49    0.29
  -4   5   2    5.08    0.40
  -4   5   2    5.52    0.29
  -4   5   2    5.23    0.29
   3  -5  -2   45.85    3.32
  -3   5   2   53.96    3.24
  -3   5   2   56.52    2.50
  -3   5   2   53.05    2.53
  -3   5   2   51.31    2.49
  -3   5   2   45.30    3.33
  -3   5   2   55.14    2.53
  -3   5   2   53.77    2.93
   2  -5  -2   21.10    1.43
   2  -5  -2   23.66    1.43
  -2   5   2   22.58    1.43
  -2   5   2   21.86    1.39
  -2   5   2   19.95    1.07
  -2   5   2   21.68    1.05
  -2   5   2   21.54    1.05
  -2   5   2   21.81    1.07
  -2   5   2   21.82    1.25
   1  -5  -2   11.06    0.85
   1  -5  -2   13.66    0.76
   1  -5  -2   11.94    0.85
  -1   5   2   12.75    0.62
  -1   5   2   12.70    0.62
  -1   5   2   13.50    0.86
  -1   5   2   12.69    0.63
  -1   5   2   12.93    0.75
  -1   5   2   13.13    0.63
   0  -5  -2    3.41    0.28
   0  -5  -2    3.06    0.24
   0  -5  -2    3.98    0.28
   0   5   2    3.74    0.29
   0   5   2    3.63    0.19
   0   5   2    3.18    0.28
   0   5   2    3.67    0.19
   0   5   2    3.88    0.19
   0   5   2    3.87    0.19
  -1  -5  -2    6.29    0.44
  -1  -5  -2    5.38    0.43
  -1  -5  -2    6.33    0.39
  -1  -5  -2    5.97    0.44
   1   5   2    5.82    0.44
   1   5   2    6.68    0.32
   1   5   2    6.24    0.32
   1   5   2    7.21    0.32
   1   5   2    6.70    0.33
  -2  -5  -2   67.23    3.24
  -2  -5  -2   68.09    4.23
  -2  -5  -2   65.36    3.24
  -2  -5  -2   68.41    4.12
  -2  -5  -2   66.35    3.19
  -2  -5  -2   64.17    3.77
  -2  -5  -2   68.89    3.20
  -2  -5  -2   76.41    4.24
   2   5   2   65.91    3.20
   2   5   2   67.19    3.25
   2   5   2   57.69    4.12
   2   5   2   66.21    3.20
   2   5   2   66.18    3.25
  -3  -5  -2    4.32    0.24
  -3  -5  -2    4.36    0.24
  -3  -5  -2    4.21    0.33
  -3  -5  -2    4.40    0.23
  -3  -5  -2    4.31    0.24
  -3  -5  -2    4.37    0.31
   3   5   2    4.29    0.24
   3   5   2    4.48    0.25
   3   5   2    4.32    0.25
   3   5   2    4.64    0.24
  -4  -5  -2    2.05    0.14
  -4  -5  -2    1.95    0.14
  -4  -5  -2    1.88    0.21
  -4  -5  -2    2.05    0.15
  -4  -5  -2    2.07    0.15
   4   5   2    1.98    0.15
   4   5   2    2.09    0.15
  -5  -5  -2   12.39    0.61
  -5  -5  -2   12.18    0.61
  -5  -5  -2   12.24    0.61
  -5  -5  -2   11.58    0.60
   5   5   2   11.18    0.62
   5   5   2   11.98    0.61
   5   5   2   11.59    0.61
   5   5   2   11.47    0.61
  -6  -5  -2    0.80    0.13
  -6  -5  -2    0.60    0.09
  -6  -5  -2    0.57    0.09
  -6  -5  -2    0.52    0.09
   6   5   2    0.50    0.09
   6   5   2    0.63    0.10
  -7  -5  -2    2.04    0.18
  -7  -5  -2    2.33    0.18
   7   5   2    2.11    0.18
   7   5   2    2.16    0.18
  -8  -5  -2    4.55    0.29
  -8  -5  -2    4.10    0.28
  -8  -5  -2    4.78    0.38
  -8  -5  -2    4.60    0.29
  -8  -5  -2    4.42    0.28
   8   5   2    4.26    0.29
   8   5   2    4.45    0.29
   8   5   2    4.64    0.29
   8   5   2    4.53    0.29
  -9  -5  -2   10.25    0.55
  -9  -5  -2    9.01    0.73
  -9  -5  -2   10.15    0.55
   9   5   2    9.19    0.55
   9   5   2   10.93    0.55
 -10  -5  -2    0.45    0.11
 -10  -5  -2    0.61    0.11
  10   5   2    0.48    0.13
   6  -6  -2    0.22    0.17
   6  -6  -2    0.42    0.17
   5  -6  -2    1.39    0.25
   5  -6  -2    1.42    0.21
  -5   6   2    2.12    0.21
  -5   6   2    1.54    0.23
  -5   6   2    1.81    0.21
  -5   6   2    1.75    0.23
   4  -6  -2   42.21    2.87
   4  -6  -2   50.83    2.57
  -4   6   2   43.60    2.15
  -4   6   2   45.79    2.18
  -4   6   2   41.75    2.15
  -4   6   2   42.64    2.18
   3  -6  -2    0.89    0.15
   3  -6  -2    0.86    0.17
  -3   6   2    0.87    0.12
  -3   6   2    0.81    0.11
  -3   6   2    0.71    0.14
  -3   6   2    0.74    0.11
  -3   6   2    1.01    0.12
  -3   6   2    1.13    0.17
  -3   6   2    0.76    0.15
   2  -6  -2    0.23    0.10
   2  -6  -2    0.22    0.11
   2  -6  -2    0.34    0.12
  -2   6   2    0.29    0.11
  -2   6   2    0.24    0.06
  -2   6   2    0.21    0.05
  -2   6   2    0.37    0.10
  -2   6   2    0.21    0.05
  -2   6   2    0.35    0.11
  -2   6   2    0.17    0.06
   1  -6  -2   -0.12    0.09
   1  -6  -2   -0.02    0.07
   1  -6  -2   -0.06    0.06
  -1   6   2   -0.05    0.04
  -1   6   2   -0.03    0.04
  -1   6   2   -0.18    0.09
  -1   6   2   -0.07    0.09
  -1   6   2    0.00    0.04
  -1   6   2   -0.08    0.07
  -1   6   2   -0.02    0.04
   0  -6  -2    1.91    0.17
   0  -6  -2    1.41    0.21
   0   6   2    1.93    0.12
   0   6   2    1.97    0.13
   0   6   2    1.93    0.13
   0   6   2    1.66    0.21
   0   6   2    1.90    0.12
  -1  -6  -2    4.15    0.33
  -1  -6  -2    4.71    0.33
  -1  -6  -2    4.97    0.33
  -1  -6  -2    4.09    0.29
   1   6   2    3.73    0.23
   1   6   2    4.17    0.23
   1   6   2    4.25    0.34
   1   6   2    4.17    0.23
   1   6   2    4.06    0.23
  -2  -6  -2    5.21    0.42
  -2  -6  -2    6.44    0.30
  -2  -6  -2    5.83    0.42
  -2  -6  -2    6.25    0.29
  -2  -6  -2    5.48    0.37
  -2  -6  -2    6.01    0.30
  -2  -6  -2    6.17    0.30
  -2  -6  -2    6.20    0.43
   2   6   2    5.74    0.32
   2   6   2    6.03    0.32
   2   6   2    6.09    0.43
   2   6   2    5.88    0.32
   2   6   2    5.65    0.31
  -3  -6  -2   24.48    1.19
  -3  -6  -2   24.49    1.21
  -3  -6  -2   25.21    1.19
  -3  -6  -2   25.66    1.56
  -3  -6  -2   21.87    1.58
  -3  -6  -2   24.64    1.21
   3   6   2   24.68    1.22
   3   6   2   24.52    1.20
   3   6   2   25.44    1.22
   3   6   2   24.72    1.20
  -4  -6  -2   46.43    2.84
  -4  -6  -2   46.85    2.79
  -4  -6  -2   45.27    2.18
  -4  -6  -2   42.84    2.15
  -4  -6  -2   44.56    2.18
  -4  -6  -2   44.35    2.15
   4   6   2   45.36    2.16
   4   6   2   43.54    2.19
   4   6   2   42.31    2.16
   4   6   2   44.21    2.19
  -5  -6  -2   70.43    3.28
  -5  -6  -2   62.18    4.16
  -5  -6  -2   68.67    3.24
   5   6   2   65.82    3.28
   5   6   2   68.42    3.24
  -6  -6  -2   13.47    0.66
  -6  -6  -2   13.79    0.67
  -6  -6  -2   12.12    0.65
  -6  -6  -2   12.53    0.67
  -6  -6  -2   12.84    0.86
   6   6   2   11.95    0.66
   6   6   2   12.45    0.67
   7   6   2    3.06    0.22
   7   6   2    3.43    0.23
  -8  -6  -2    5.69    0.38
  -8  -6  -2    6.12    0.36
  -8  -6  -2    5.62    0.37
  -8  -6  -2    6.29    0.36
   8   6   2    5.96    0.36
   8   6   2    6.69    0.37
  -9  -6  -2    0.44    0.09
  -9  -6  -2    0.20    0.09
  -9  -6  -2    0.26    0.19
   9   6   2    0.26    0.09
   9   6   2    0.26    0.09
 -10  -6  -2    0.22    0.10
 -10  -6  -2    0.15    0.11
  10   6   2    0.12    0.10
  10   6   2   -0.02    0.10
   5  -7  -2    0.33    0.17
   5  -7  -2    0.36    0.16
  -5   7   2    0.24    0.15
  -5   7   2    0.28    0.15
   4  -7  -2    9.74    0.68
  -4   7   2    9.13    0.50
  -4   7   2    8.43    0.51
  -4   7   2    9.19    0.49
  -4   7   2    8.96    0.50
   3  -7  -2    1.06    0.22
  -3   7   2    1.31    0.15
  -3   7   2    1.24    0.21
  -3   7   2    1.37    0.17
  -3   7   2    1.14    0.15
  -3   7   2    1.47    0.17
   2  -7  -2    6.62    0.48
   2  -7  -2    8.35    0.56
   2  -7  -2    7.55    0.56
  -2   7   2    7.41    0.54
  -2   7   2    7.28    0.39
  -2   7   2    7.33    0.40
  -2   7   2    7.61    0.39
  -2   7   2    7.71    0.38
  -2   7   2    6.00    0.54
   1  -7  -2   13.73    1.05
   1  -7  -2   14.25    0.94
   1  -7  -2   17.97    1.08
  -1   7   2   15.80    0.78
  -1   7   2   15.86    0.77
  -1   7   2   16.10    0.79
  -1   7   2   15.53    0.77
  -1   7   2   16.07    1.06
   0  -7  -2   -0.04    0.09
   0   7   2    0.06    0.05
   0   7   2    0.01    0.05
   0   7   2    0.03    0.06
   0   7   2   -0.05    0.06
  -1  -7  -2    1.57    0.21
  -1  -7  -2    1.31    0.20
   1   7   2    1.63    0.13
   1   7   2    1.56    0.13
   1   7   2    1.64    0.13
   1   7   2    1.61    0.13
  -2  -7  -2    6.36    0.43
  -2  -7  -2    6.79    0.49
  -2  -7  -2    6.63    0.49
  -2  -7  -2    6.34    0.48
   2   7   2    6.73    0.36
   2   7   2    6.69    0.36
   2   7   2    6.65    0.36
   2   7   2    6.94    0.36
  -3  -7  -2   18.33    0.92
  -3  -7  -2   18.81    0.92
  -3  -7  -2   20.06    1.23
  -3  -7  -2   18.09    0.93
  -3  -7  -2   18.48    0.93
  -3  -7  -2   18.24    1.22
   3   7   2   18.09    0.93
   3   7   2   19.32    0.95
   3   7   2   19.20    0.94
   3   7   2   19.34    0.95
  -4  -7  -2   27.29    1.36
  -4  -7  -2   27.79    1.37
  -4  -7  -2   28.66    1.77
  -4  -7  -2   28.08    1.37
  -4  -7  -2   28.24    1.79
  -4  -7  -2   27.27    1.36
   4   7   2   28.24    1.37
   4   7   2   28.36    1.39
   4   7   2   27.16    1.37
   4   7   2   27.00    1.39
  -5  -7  -2    5.48    0.31
  -5  -7  -2    5.08    0.31
  -5  -7  -2    5.36    0.42
  -5  -7  -2    5.11    0.32
  -5  -7  -2    5.99    0.40
  -5  -7  -2    5.53    0.31
   5   7   2    5.54    0.32
   5   7   2    5.10    0.32
  -6  -7  -2    0.29    0.09
  -6  -7  -2    0.24    0.08
  -6  -7  -2    0.28    0.12
  -6  -7  -2    0.20    0.10
  -6  -7  -2    0.19    0.08
   6   7   2    0.13    0.08
  -7  -7  -2    1.82    0.20
  -7  -7  -2    1.91    0.21
  -7  -7  -2    2.23    0.18
  -7  -7  -2    1.67    0.23
  -7  -7  -2    2.41    0.19
   7   7   2    1.55    0.19
   7   7   2    2.10    0.17
   7   7   2    1.83    0.19
   7   7   2    1.85    0.16
  -8  -7  -2   -0.01    0.12
  -8  -7  -2    0.26    0.09
  -8  -7  -2    0.16    0.09
   8   7   2    0.08    0.08
   8   7   2    0.11    0.08
  -9  -7  -2    0.00    0.09
  -9  -7  -2    0.09    0.09
   9   7   2    0.03    0.09
   9   7   2    0.12    0.09
   4  -8  -2    0.04    0.15
   4  -8  -2    0.12    0.16
   3  -8  -2    0.02    0.13
   3  -8  -2    0.08    0.14
  -3   8   2   -0.06    0.10
  -3   8   2   -0.15    0.10
  -3   8   2   -0.07    0.13
  -3   8   2   -0.04    0.13
   2  -8  -2    3.77    0.33
   2  -8  -2    3.51    0.29
   2  -8  -2    2.70    0.33
  -2   8   2    2.97    0.25
  -2   8   2    3.00    0.22
  -2   8   2    3.02    0.24
  -2   8   2    2.73    0.31
  -2   8   2    3.14    0.22
   1  -8  -2    3.10    0.26
   1  -8  -2    2.79    0.30
   1  -8  -2    2.47    0.29
  -1   8   2    2.60    0.19
  -1   8   2    2.89    0.22
  -1   8   2    2.61    0.21
  -1   8   2    2.76    0.33
  -1   8   2    2.76    0.20
  -1   8   2    3.09    0.29
   0  -8  -2    1.91    0.26
   0  -8  -2    1.91    0.20
   0  -8  -2    1.55    0.23
   0   8   2    1.92    0.16
   0   8   2    1.80    0.16
   0   8   2    1.91    0.17
   0   8   2    1.89    0.17
   0   8   2    1.78    0.26
  -1  -8  -2    3.87    0.33
  -1  -8  -2    3.58    0.34
   1   8   2    3.71    0.24
   1   8   2    3.77    0.23
   1   8   2    3.64    0.23
   1   8   2    3.59    0.23
  -2  -8  -2    7.07    0.54
   2   8   2    7.17    0.40
   2   8   2    7.02    0.40
   2   8   2    7.48    0.40
   2   8   2    7.39    0.39
  -3  -8  -2    0.00    0.04
  -3  -8  -2    0.01    0.05
  -3  -8  -2   -0.03    0.04
  -3  -8  -2    0.02    0.09
  -3  -8  -2   -0.05    0.04
   3   8   2   -0.06    0.09
   3   8   2    0.01    0.08
   3   8   2    0.01    0.08
   3   8   2   -0.05    0.08
  -4  -8  -2    2.12    0.17
  -4  -8  -2    2.05    0.15
  -4  -8  -2    2.09    0.17
  -4  -8  -2    2.34    0.24
  -4  -8  -2    2.15    0.23
  -4  -8  -2    1.83    0.15
   4   8   2    1.75    0.18
   4   8   2    2.07    0.18
   4   8   2    2.01    0.18
   4   8   2    1.62    0.18
  -5  -8  -2    3.47    0.24
  -5  -8  -2    3.26    0.30
  -5  -8  -2    3.69    0.30
  -5  -8  -2    3.11    0.24
  -5  -8  -2    3.07    0.22
  -5  -8  -2    3.34    0.23
   5   8   2    2.92    0.23
   5   8   2    3.34    0.24
   5   8   2    3.43    0.24
   5   8   2    3.03    0.23
  -6  -8  -2    0.82    0.14
  -6  -8  -2    0.69    0.11
  -6  -8  -2    0.89    0.14
  -6  -8  -2    0.80    0.13
  -6  -8  -2    0.79    0.15
  -6  -8  -2    0.97    0.15
   6   8   2    0.68    0.11
   6   8   2    0.59    0.10
  -7  -8  -2   -0.10    0.14
  -7  -8  -2   -0.13    0.09
  -7  -8  -2   -0.02    0.13
  -7  -8  -2   -0.08    0.11
  -7  -8  -2    0.02    0.09
   7   8   2   -0.08    0.07
  -8  -8  -2    3.65    0.34
  -8  -8  -2    3.11    0.27
  -8  -8  -2    3.25    0.27
   8   8   2    3.44    0.25
   8   8   2    3.81    0.25
  -9  -8  -2   13.20    0.94
  -9  -8  -2   13.58    0.73
  -9  -8  -2   13.11    0.73
   9   8   2   13.33    0.72
   9   8   2   13.90    0.73
   2  -9  -2    0.04    0.14
   2  -9  -2    0.01    0.16
  -2   9   2    0.03    0.11
  -2   9   2    0.14    0.11
   1  -9  -2    0.56    0.16
   1  -9  -2    0.44    0.17
   1  -9  -2    0.34    0.16
  -1   9   2    0.48    0.14
  -1   9   2    0.51    0.11
  -1   9   2    0.54    0.20
  -1   9   2    0.48    0.14
  -1   9   2    0.32    0.11
   0  -9  -2    1.19    0.24
   0  -9  -2    1.45    0.28
   0  -9  -2    1.30    0.20
   0   9   2    0.96    0.16
   0   9   2    1.09    0.20
   0   9   2    1.09    0.13
   0   9   2    1.04    0.14
   0   9   2    1.09    0.15
  -1  -9  -2   10.33    0.71
   1   9   2   11.78    0.59
   1   9   2   11.22    0.61
   1   9   2   11.48    0.60
   1   9   2   11.19    0.60
  -2  -9  -2    0.24    0.14
  -2  -9  -2    0.14    0.11
   2   9   2    0.20    0.09
   2   9   2    0.08    0.09
   2   9   2    0.21    0.11
   2   9   2    0.07    0.11
  -3  -9  -2    0.15    0.10
  -3  -9  -2   -0.15    0.12
   3   9   2   -0.02    0.10
   3   9   2    0.13    0.12
   3   9   2    0.10    0.09
   3   9   2    0.07    0.08
  -4  -9  -2    0.63    0.15
  -4  -9  -2    0.59    0.09
  -4  -9  -2    0.41    0.08
  -4  -9  -2    0.54    0.14
  -4  -9  -2    0.52    0.09
  -4  -9  -2    0.41    0.07
   4   9   2    0.38    0.13
   4   9   2    0.36    0.13
  -5  -9  -2    1.89    0.19
  -5  -9  -2    1.92    0.19
  -5  -9  -2    2.38    0.28
  -5  -9  -2    2.34    0.25
   5   9   2    2.19    0.21
   5   9   2    1.77    0.24
   5   9   2    1.84    0.23
   5   9   2    2.42    0.21
  -6  -9  -2    0.14    0.13
  -6  -9  -2    0.32    0.13
  -6  -9  -2    0.05    0.14
  -6  -9  -2    0.00    0.14
  -6  -9  -2    0.14    0.10
  -6  -9  -2    0.20    0.11
   6   9   2    0.09    0.09
   6   9   2    0.07    0.09
  -7  -9  -2    2.88    0.33
  -7  -9  -2    2.84    0.27
  -7  -9  -2    2.77    0.35
  -7  -9  -2    3.01    0.27
  -7  -9  -2    2.98    0.30
  -7  -9  -2    3.00    0.36
   7   9   2    3.01    0.24
   7   9   2    2.73    0.24
  -8  -9  -2    0.56    0.16
  -8  -9  -2    0.84    0.18
  -8  -9  -2    0.60    0.15
   8   9   2    0.50    0.11
   8   9   2    0.23    0.10
   1 -10  -2    4.83    0.49
   1 -10  -2    4.03    0.37
   1 -10  -2    4.53    0.43
   0 -10  -2    0.10    0.17
   0 -10  -2   -0.22    0.18
   0  10   2    0.20    0.26
   0  10   2    0.11    0.12
   0  10   2    0.10    0.12
   0  10   2    0.06    0.20
  -1 -10  -2    0.04    0.19
   1  10   2   -0.03    0.12
   1  10   2    0.03    0.16
   1  10   2    0.04    0.12
   1  10   2    0.08    0.17
  -2 -10  -2    1.62    0.33
   2  10   2    1.12    0.19
   2  10   2    0.94    0.19
  -3 -10  -2    4.36    0.46
  -3 -10  -2    5.14    0.42
   3  10   2    4.83    0.34
   3  10   2    4.46    0.41
   3  10   2    5.06    0.34
  -4 -10  -2    0.65    0.15
   4  10   2    0.54    0.13
   4  10   2    0.43    0.13
  -5 -10  -2    0.11    0.17
  -5 -10  -2    0.03    0.12
  -5 -10  -2    0.01    0.09
  -5 -10  -2   -0.03    0.09
   5  10   2    0.05    0.12
   5  10   2    0.21    0.12
  -6 -10  -2    4.23    0.40
  -6 -10  -2    4.06    0.44
   6  10   2    4.67    0.33
   6  10   2    4.80    0.33
  -7 -10  -2   13.44    0.73
  -7 -10  -2   13.35    0.73
  -7 -10  -2   12.75    0.96
   7  10   2   13.27    0.72
   7  10   2   13.21    0.73
  -2 -11  -2    5.10    0.58
  -3 -11  -2    0.88    0.27
   3  11   2    0.68    0.18
   3  11   2    0.74    0.18
  -4 -11  -2    0.08    0.24
   4  11   2    0.26    0.17
   4  11   2   -0.13    0.17
   3   9  -3    0.03    0.13
   3   9  -3    0.07    0.12
  -3  -9   3   -0.04    0.20
  -3  -9   3    0.13    0.16
  -3  -9   3   -0.11    0.16
  -3  -9   3   -0.19    0.22
   2   9  -3    1.16    0.17
   2   9  -3    1.03    0.17
  -2  -9   3    0.95    0.19
  -2  -9   3    1.12    0.20
  -2  -9   3    1.02    0.25
   1   9  -3    2.48    0.29
   1   9  -3    2.44    0.28
  -1  -9   3    2.38    0.36
   0   9  -3    5.27    0.42
   0  -9   3    6.88    0.61
  -6  -8   3    0.30    0.13
  -6  -8   3    0.63    0.25
  -6  -8   3    0.33    0.14
   5   8  -3    2.97    0.23
   5   8  -3    3.04    0.23
  -5  -8   3    2.29    0.38
  -5  -8   3    2.29    0.26
   4   8  -3    1.63    0.18
   4   8  -3    1.60    0.18
  -4  -8   3    1.28    0.17
  -4  -8   3    1.43    0.18
  -4  -8   3    1.47    0.30
   3   8  -3    1.80    0.18
   3   8  -3    1.84    0.18
  -3  -8   3    1.78    0.31
  -3  -8   3    1.76    0.22
  -3  -8   3    1.99    0.24
  -3  -8   3    1.62    0.22
  -3  -8   3    2.29    0.30
  -3  -8   3    1.99    0.31
   2   8  -3   -0.06    0.09
   2   8  -3   -0.13    0.09
  -2  -8   3    0.10    0.16
  -2  -8   3   -0.16    0.15
  -2  -8   3   -0.01    0.12
  -2  -8   3   -0.06    0.11
   1   8  -3   -0.17    0.10
  -1  -8   3    0.07    0.12
  -1  -8   3   -0.13    0.14
  -1  -8   3   -0.14    0.13
  -1  -8   3   -0.07    0.12
  -1  -8   3   -0.11    0.15
   0   8  -3    0.02    0.11
   0   8  -3    0.14    0.11
   0  -8   3    0.02    0.12
   0  -8   3    0.04    0.12
   0  -8   3   -0.04    0.11
  -1   8  -3    0.70    0.14
  -1   8  -3    0.75    0.14
   1  -8   3    0.58    0.14
  -2   8  -3    7.68    0.47
  -2   8  -3    7.20    0.47
   2  -8   3    7.49    0.59
  -7  -7   3   21.30    1.35
  -7  -7   3   19.31    1.02
  -7  -7   3   18.53    1.03
   6   7  -3   16.85    0.85
   6   7  -3   16.61    0.84
  -6  -7   3   16.14    0.85
  -6  -7   3   16.18    0.86
  -6  -7   3   14.64    1.10
   5   7  -3    0.09    0.08
   5   7  -3    0.13    0.08
  -5  -7   3    0.04    0.16
  -5  -7   3    0.09    0.10
  -5  -7   3    0.11    0.10
   4   7  -3    0.02    0.07
   4   7  -3    0.08    0.07
  -4  -7   3   -0.15    0.08
  -4  -7   3    0.01    0.13
  -4  -7   3   -0.16    0.12
  -4  -7   3    0.01    0.14
  -4  -7   3   -0.17    0.08
   3   7  -3   12.07    0.63
   3   7  -3   12.36    0.64
  -3  -7   3   12.35    0.64
  -3  -7   3   11.59    0.65
  -3  -7   3   11.36    0.81
  -3  -7   3   10.99    0.64
  -3  -7   3   11.73    0.63
   2   7  -3    8.64    0.47
   2   7  -3    8.03    0.46
   2   7  -3    8.90    0.47
   2   7  -3    7.57    0.46
  -2  -7   3    8.31    0.46
  -2  -7   3    8.60    0.64
  -2  -7   3    8.52    0.47
   1   7  -3    0.42    0.09
   1   7  -3    0.62    0.10
   1   7  -3    0.59    0.10
   1   7  -3    0.56    0.10
  -1  -7   3    0.28    0.11
  -1  -7   3    0.56    0.11
  -1  -7   3    0.36    0.12
  -1  -7   3    0.65    0.11
  -1  -7   3    0.36    0.14
   0   7  -3    1.12    0.15
   0   7  -3    0.74    0.13
   0   7  -3    0.81    0.13
   0   7  -3    0.89    0.12
   0   7  -3    0.93    0.21
   0  -7   3    0.70    0.11
   0  -7   3    0.48    0.12
   0  -7   3    1.00    0.17
   0  -7   3    0.48    0.12
   0  -7   3    1.06    0.16
  -1   7  -3   30.85    1.60
  -1   7  -3   33.29    1.58
  -1   7  -3   30.82    2.03
  -1   7  -3   29.84    1.57
  -1   7  -3   34.01    1.60
  -2   7  -3    0.08    0.10
  -2   7  -3   -0.05    0.09
   2  -7   3   -0.04    0.08
   2  -7   3   -0.05    0.10
   2  -7   3   -0.12    0.10
   2  -7   3   -0.14    0.09
   2  -7   3   -0.03    0.08
  -3   7  -3   -0.06    0.11
  -3   7  -3    0.00    0.12
   3  -7   3    0.15    0.12
  -4   7  -3    0.27    0.16
  -4   7  -3    0.26    0.15
   4  -7   3    0.56    0.15
   7   6  -3   18.93    0.97
   7   6  -3   19.86    0.98
  -7  -6   3   19.17    0.98
  -7  -6   3   18.30    0.97
  -7  -6   3   17.34    1.26
   6   6  -3    6.42    0.38
   6   6  -3    6.66    0.38
  -6  -6   3    6.46    0.38
  -6  -6   3    6.55    0.52
  -6  -6   3    6.23    0.38
   5   6  -3   -0.04    0.08
   5   6  -3   -0.06    0.07
  -5  -6   3   -0.05    0.10
  -5  -6   3   -0.11    0.10
  -5  -6   3    0.15    0.08
  -5  -6   3    0.10    0.07
   4   6  -3   -0.02    0.07
   4   6  -3    0.11    0.10
   4   6  -3   -0.02    0.07
   4   6  -3   -0.01    0.10
  -4  -6   3   -0.16    0.08
  -4  -6   3    0.03    0.09
  -4  -6   3   -0.02    0.07
  -4  -6   3    0.02    0.07
  -4  -6   3   -0.03    0.11
   3   6  -3    0.69    0.10
   3   6  -3    0.39    0.10
   3   6  -3    0.64    0.10
   3   6  -3    0.51    0.10
  -3  -6   3    0.58    0.10
  -3  -6   3    0.52    0.14
  -3  -6   3    0.65    0.10
   2   6  -3    7.23    0.40
   2   6  -3    7.54    0.41
   2   6  -3    7.29    0.41
   2   6  -3    6.99    0.41
  -2  -6   3    7.20    0.52
  -2  -6   3    6.98    0.40
  -2  -6   3    6.97    0.41
  -2  -6   3    7.28    0.40
  -2  -6   3    7.51    0.41
   1   6  -3    8.57    0.49
   1   6  -3    9.57    0.50
   1   6  -3    9.66    0.50
   1   6  -3    9.33    0.49
  -1  -6   3    8.42    0.48
  -1  -6   3    9.28    0.64
  -1  -6   3    8.91    0.49
  -1  -6   3    9.17    0.50
  -1  -6   3    9.06    0.49
  -1  -6   3    9.38    0.67
   0   6  -3    0.60    0.10
   0   6  -3    0.54    0.10
   0   6  -3    0.52    0.09
   0   6  -3    0.57    0.09
   0   6  -3    0.68    0.15
   0  -6   3    0.55    0.10
   0  -6   3    0.48    0.09
   0  -6   3    0.41    0.09
   0  -6   3    0.50    0.09
  -1   6  -3   20.99    1.10
  -1   6  -3   22.46    1.11
  -1   6  -3   22.16    1.12
  -1   6  -3   21.51    1.12
   1  -6   3   22.59    1.09
   1  -6   3   23.59    1.48
   1  -6   3   21.77    1.10
   1  -6   3   21.60    1.09
   1  -6   3   22.40    1.11
  -2   6  -3    0.48    0.11
  -2   6  -3    0.34    0.10
  -2   6  -3    0.37    0.15
  -2   6  -3    0.49    0.10
  -2   6  -3    0.47    0.10
   2  -6   3    0.49    0.08
   2  -6   3    0.47    0.13
   2  -6   3    0.41    0.09
   2  -6   3    0.45    0.08
   2  -6   3    0.46    0.09
  -3   6  -3    2.48    0.24
  -3   6  -3    2.05    0.29
  -3   6  -3    2.31    0.23
   3  -6   3    2.51    0.18
   3  -6   3    2.57    0.18
   3  -6   3    2.51    0.20
   3  -6   3    2.58    0.19
   3  -6   3    2.76    0.29
  -4   6  -3    8.39    0.45
  -4   6  -3    8.19    0.45
   4  -6   3    6.44    0.58
  -5   6  -3    1.25    0.17
  -5   6  -3    0.99    0.17
   8   5  -3    1.31    0.19
   8   5  -3    0.82    0.14
  -8  -5   3    1.21    0.18
  -8  -5   3    1.19    0.17
   7   5  -3    2.58    0.22
   7   5  -3    3.22    0.22
  -7  -5   3    2.66    0.21
  -7  -5   3    1.93    0.33
  -7  -5   3    2.52    0.21
   6   5  -3    0.41    0.08
   6   5  -3    0.20    0.08
  -6  -5   3    0.36    0.09
  -6  -5   3    0.21    0.14
  -6  -5   3    0.31    0.09
   5   5  -3   35.30    1.97
   5   5  -3   40.93    2.00
   5   5  -3   40.55    1.98
   5   5  -3   42.96    2.00
  -5  -5   3   40.04    2.00
  -5  -5   3   38.31    1.97
  -5  -5   3   39.09    2.53
  -5  -5   3   41.65    1.98
  -5  -5   3   43.32    2.01
   4   5  -3   13.08    0.70
   4   5  -3   13.64    0.71
  -4  -5   3   13.43    0.70
  -4  -5   3   13.33    0.89
  -4  -5   3   13.76    0.71
   3   5  -3    2.67    0.20
   3   5  -3    2.62    0.20
  -3  -5   3    2.50    0.19
  -3  -5   3    2.77    0.19
  -3  -5   3    2.48    0.25
  -3  -5   3    2.93    0.20
  -3  -5   3    2.45    0.19
   2   5  -3   12.48    0.67
   2   5  -3   12.73    0.66
  -2  -5   3   12.87    0.66
  -2  -5   3   12.85    0.66
  -2  -5   3   13.20    0.67
  -2  -5   3   12.63    0.84
  -2  -5   3   13.01    0.67
   1   5  -3   37.25    1.84
   1   5  -3   36.77    1.84
   1   5  -3   36.61    1.82
   1   5  -3   37.71    1.82
  -1  -5   3   36.85    1.84
  -1  -5   3   38.14    1.82
  -1  -5   3   37.33    1.82
  -1  -5   3   38.51    1.84
  -1  -5   3   36.33    2.33
   0   5  -3   24.69    1.22
   0   5  -3   23.99    1.21
   0   5  -3   23.66    1.22
   0   5  -3   23.74    1.55
   0   5  -3   23.73    1.21
   0  -5   3   23.43    1.20
   0  -5   3   25.98    1.22
   0  -5   3   26.08    1.20
  -1   5  -3    3.69    0.23
  -1   5  -3    3.29    0.22
  -1   5  -3    3.20    0.22
  -1   5  -3    2.99    0.29
  -1   5  -3    3.35    0.22
   1  -5   3    3.18    0.22
   1  -5   3    3.50    0.22
   1  -5   3    3.74    0.32
   1  -5   3    3.43    0.22
   1  -5   3    3.58    0.22
  -2   5  -3    0.30    0.08
  -2   5  -3    0.31    0.08
  -2   5  -3    0.42    0.08
  -2   5  -3    0.22    0.12
  -2   5  -3    0.29    0.08
   2  -5   3    0.43    0.08
   2  -5   3    0.35    0.08
   2  -5   3    0.37    0.13
   2  -5   3    0.28    0.08
   2  -5   3    0.28    0.08
  -3   5  -3    1.26    0.15
  -3   5  -3    1.04    0.16
  -3   5  -3    1.34    0.16
  -3   5  -3    1.17    0.16
   3  -5   3    1.33    0.14
   3  -5   3    1.35    0.15
   3  -5   3    1.04    0.20
   3  -5   3    1.27    0.13
   3  -5   3    1.31    0.13
  -4   5  -3    0.04    0.08
  -4   5  -3   -0.05    0.09
  -4   5  -3    0.18    0.13
  -4   5  -3    0.12    0.10
  -4   5  -3    0.16    0.10
   4  -5   3    0.01    0.08
   4  -5   3    0.05    0.07
   4  -5   3    0.10    0.07
   4  -5   3   -0.07    0.08
   4  -5   3   -0.10    0.09
  -5   5  -3    0.20    0.11
  -5   5  -3    0.21    0.13
  -5   5  -3    0.13    0.13
  -5   5  -3    0.20    0.11
   5  -5   3    0.20    0.07
   5  -5   3    0.15    0.08
   5  -5   3    0.12    0.08
   5  -5   3    0.31    0.16
   5  -5   3    0.21    0.07
   5  -5   3    0.33    0.14
   5  -5   3    0.38    0.12
  -6   5  -3   -0.20    0.13
  -6   5  -3   -0.12    0.13
   6  -5   3    0.10    0.13
   6  -5   3    0.04    0.16
   6  -5   3   -0.01    0.16
   8   4  -3    5.90    0.39
   8   4  -3    5.80    0.39
  -8  -4   3    6.84    0.38
  -8  -4   3    6.30    0.38
   7   4  -3    0.25    0.14
   7   4  -3    0.49    0.15
   7   4  -3    0.38    0.09
  -7  -4   3    0.34    0.08
  -7  -4   3    0.37    0.08
   6   4  -3    0.15    0.11
   6   4  -3    0.43    0.08
   6   4  -3    0.38    0.09
   6   4  -3    0.45    0.11
  -6  -4   3    0.44    0.10
  -6  -4   3    0.35    0.08
  -6  -4   3    0.27    0.08
  -6  -4   3    0.38    0.10
   5   4  -3    6.81    0.39
   5   4  -3    7.00    0.39
   3   4  -3    7.20    0.37
   3   4  -3    6.08    0.36
   3   4  -3    6.07    0.37
   3   4  -3    6.14    0.36
  -3  -4   3    7.14    0.37
  -3  -4   3    7.09    0.46
  -3  -4   3    7.04    0.36
  -3  -4   3    5.95    0.36
  -3  -4   3    5.94    0.36
   2   4  -3   23.50    1.15
   2   4  -3   21.02    1.16
   2   4  -3   23.27    1.16
   2   4  -3   24.13    1.15
  -2  -4   3   23.98    1.16
  -2  -4   3   24.39    1.14
  -2  -4   3   19.92    1.45
  -2  -4   3   23.15    1.16
  -2  -4   3   25.16    1.15
   1   4  -3    2.70    0.18
   1   4  -3    2.48    0.18
   1   4  -3    2.53    0.18
   1   4  -3    2.62    0.18
  -1  -4   3    2.63    0.18
  -1  -4   3    2.29    0.22
  -1  -4   3    2.55    0.18
  -1  -4   3    2.64    0.18
  -1  -4   3    2.68    0.18
   0   4  -3    2.13    0.16
   0   4  -3    1.93    0.20
   0   4  -3    1.97    0.16
   0   4  -3    2.19    0.15
   0   4  -3    2.20    0.16
   0  -4   3    2.07    0.16
   0  -4   3    2.13    0.16
   0  -4   3    2.38    0.16
   0  -4   3    2.13    0.15
   0  -4   3    2.24    0.20
  -1   4  -3   16.11    0.81
  -1   4  -3   16.11    0.82
  -1   4  -3   17.74    1.04
  -1   4  -3   15.16    0.82
  -1   4  -3   16.99    0.81
   1  -4   3   16.21    0.81
   1  -4   3   16.09    0.80
   1  -4   3   15.85    0.80
   1  -4   3   15.30    0.81
  -2   4  -3   10.62    0.57
  -2   4  -3   10.60    0.58
  -2   4  -3   10.79    0.57
  -2   4  -3   10.56    0.57
  -2   4  -3   11.39    0.74
   2  -4   3   11.34    0.57
   2  -4   3   11.32    0.77
   2  -4   3   11.50    0.56
   2  -4   3   11.02    0.56
   2  -4   3   11.48    0.57
  -3   4  -3   -0.01    0.07
  -3   4  -3   -0.01    0.06
  -3   4  -3   -0.03    0.09
  -3   4  -3    0.00    0.07
  -3   4  -3    0.05    0.07
   3  -4   3   -0.04    0.06
   3  -4   3    0.00    0.06
   3  -4   3    0.02    0.06
   3  -4   3   -0.08    0.06
   3  -4   3   -0.09    0.10
  -4   4  -3   -0.04    0.07
  -4   4  -3    0.11    0.07
  -4   4  -3    0.04    0.07
  -4   4  -3   -0.04    0.08
   4  -4   3    0.06    0.10
   4  -4   3   -0.01    0.06
   4  -4   3   -0.06    0.07
   4  -4   3    0.00    0.07
   4  -4   3   -0.03    0.09
   4  -4   3   -0.01    0.11
   4  -4   3   -0.02    0.06
  -5   4  -3    0.31    0.10
  -5   4  -3    0.33    0.10
  -5   4  -3    0.17    0.10
  -5   4  -3    0.23    0.10
  -5   4  -3    0.60    0.14
   5  -4   3    0.29    0.09
   5  -4   3    0.33    0.14
   5  -4   3    0.21    0.12
   5  -4   3    0.25    0.11
   5  -4   3    0.30    0.08
   5  -4   3    0.43    0.08
   5  -4   3    0.26    0.09
  -6   4  -3    9.37    0.54
  -6   4  -3    8.87    0.52
  -6   4  -3    8.44    0.51
  -6   4  -3    9.32    0.53
   6  -4   3    9.79    0.48
   6  -4   3    8.85    0.49
   6  -4   3   10.05    0.59
   6  -4   3    8.76    0.48
   6  -4   3   10.27    0.69
   6  -4   3    8.31    0.48
  -7   4  -3    0.49    0.15
  -7   4  -3    0.47    0.15
   7  -4   3    0.24    0.17
   7  -4   3    0.39    0.15
   8   3  -3    0.43    0.20
   8   3  -3    0.62    0.16
   8   3  -3    0.46    0.12
   8   3  -3    0.51    0.12
   8   3  -3    0.44    0.21
  -8  -3   3    0.52    0.11
  -8  -3   3    0.61    0.12
   7   3  -3   19.78    1.01
   7   3  -3   19.73    1.02
   7   3  -3   19.45    1.00
   7   3  -3   20.00    1.01
  -7  -3   3   20.33    1.02
  -7  -3   3   18.73    1.00
   6   3  -3    7.22    0.41
   6   3  -3    7.80    0.41
  -6  -3   3    7.20    0.41
  -6  -3   3    7.67    0.42
  -6  -3   3    7.35    0.42
  -6  -3   3    6.82    0.42
   5   3  -3    6.04    0.34
   5   3  -3    5.43    0.33
  -5  -3   3    6.35    0.34
  -5  -3   3    6.07    0.35
  -4  -3   3    4.69    0.28
  -4  -3   3    3.74    0.26
  -4  -3   3    4.92    0.28
  -4  -3   3    4.24    0.27
   3   3  -3   65.48    3.31
   3   3  -3   65.14    3.32
   3   3  -3   70.15    3.27
   3   3  -3   60.22    3.27
  -3  -3   3   74.49    4.19
  -3  -3   3   70.23    3.32
  -3  -3   3   69.74    3.27
  -3  -3   3   68.75    3.27
  -3  -3   3   66.54    3.31
   2   3  -3    5.37    0.31
   2   3  -3    5.15    0.31
   2   3  -3    5.53    0.31
   2   3  -3    5.32    0.32
  -2  -3   3    6.14    0.32
  -2  -3   3    6.15    0.32
  -2  -3   3    6.09    0.32
  -2  -3   3    5.42    0.39
  -2  -3   3    6.05    0.31
   1   3  -3    0.08    0.05
   1   3  -3    0.09    0.06
   1   3  -3    0.02    0.05
   1   3  -3    0.10    0.06
  -1  -3   3    0.03    0.05
  -1  -3   3    0.08    0.05
  -1  -3   3    0.06    0.05
  -1  -3   3    0.04    0.06
   0   3  -3   22.34    1.10
   0   3  -3   21.56    1.11
   0   3  -3   21.51    1.10
   0   3  -3   25.83    1.41
   0   3  -3   21.65    1.11
   0  -3   3   22.31    1.11
   0  -3   3   22.10    1.11
   0  -3   3   22.29    1.40
   0  -3   3   22.99    1.10
   0  -3   3   21.83    1.10
  -1   3  -3    8.18    0.57
  -1   3  -3    8.55    0.45
  -1   3  -3    8.68    0.45
  -1   3  -3    8.20    0.45
  -1   3  -3    8.72    0.45
   1  -3   3    9.05    0.60
   1  -3   3    8.62    0.45
   1  -3   3    8.90    0.44
   1  -3   3    8.64    0.44
   1  -3   3    8.93    0.45
  -2   3  -3    0.02    0.05
  -2   3  -3    0.11    0.06
  -2   3  -3    0.07    0.06
  -2   3  -3    0.05    0.08
  -2   3  -3    0.07    0.06
   2  -3   3    0.03    0.05
   2  -3   3    0.03    0.05
   2  -3   3    0.07    0.05
   2  -3   3    0.11    0.09
   2  -3   3    0.01    0.05
  -3   3  -3    0.12    0.06
  -3   3  -3    0.16    0.06
  -3   3  -3    0.08    0.07
  -3   3  -3    0.12    0.07
   3  -3   3    0.13    0.06
   3  -3   3    0.18    0.09
   3  -3   3    0.39    0.09
   3  -3   3    0.14    0.10
   3  -3   3    0.05    0.06
   3  -3   3    0.16    0.06
   3  -3   3    0.19    0.06
  -4   3  -3   10.83    0.56
  -4   3  -3   10.69    0.56
  -4   3  -3   11.19    0.56
  -4   3  -3   10.55    0.55
   4  -3   3   10.00    0.74
   4  -3   3   10.77    0.64
   4  -3   3   10.41    0.54
   4  -3   3   10.05    0.55
   4  -3   3   11.30    0.55
   4  -3   3   11.22    0.55
  -5   3  -3    5.19    0.31
  -5   3  -3    5.06    0.30
  -5   3  -3    5.07    0.31
  -5   3  -3    5.19    0.31
   5  -3   3    5.27    0.42
   5  -3   3    5.37    0.35
   5  -3   3    4.84    0.29
   5  -3   3    4.93    0.30
   5  -3   3    5.54    0.29
   5  -3   3    4.75    0.29
  -6   3  -3    2.45    0.20
  -6   3  -3    2.36    0.20
   6  -3   3    2.09    0.19
   6  -3   3    2.14    0.25
   6  -3   3    2.13    0.25
   6  -3   3    1.92    0.19
   6  -3   3    2.49    0.18
   6  -3   3    2.47    0.18
   6  -3   3    1.74    0.21
  -7   3  -3   -0.08    0.11
  -7   3  -3   -0.07    0.11
   7  -3   3   -0.10    0.12
   7  -3   3    0.02    0.09
   7  -3   3    0.05    0.09
   7  -3   3   -0.14    0.11
   7  -3   3    0.11    0.16
   7  -3   3    0.03    0.13
  -8   3  -3    1.05    0.17
  -8   3  -3    1.10    0.17
   8  -3   3    0.55    0.21
   8  -3   3    0.70    0.19
   9   2  -3    0.13    0.16
   9   2  -3    0.31    0.17
   9   2  -3    0.13    0.20
  -9  -2   3    0.08    0.13
  -9  -2   3    0.22    0.13
   8   2  -3    0.15    0.11
   8   2  -3   -0.10    0.17
   8   2  -3    0.14    0.18
   8   2  -3    0.07    0.14
   8   2  -3    0.04    0.12
  -8  -2   3   -0.03    0.09
  -8  -2   3    0.01    0.10
   7   2  -3    5.21    0.31
   7   2  -3    4.68    0.38
   7   2  -3    5.34    0.32
  -7  -2   3    5.05    0.32
  -7  -2   3    4.65    0.31
  -7  -2   3    5.09    0.32
   6   2  -3    3.49    0.25
   6   2  -3    3.63    0.23
   6   2  -3    3.96    0.23
   6   2  -3    3.52    0.25
  -6  -2   3    3.85    0.25
  -6  -2   3    3.44    0.24
  -6  -2   3    3.22    0.23
  -6  -2   3    3.13    0.23
   5   2  -3   23.07    1.17
   5   2  -3   22.89    1.17
   5   2  -3   21.16    1.15
   5   2  -3   21.22    1.15
  -5  -2   3   24.05    1.17
  -5  -2   3   25.04    1.16
  -5  -2   3   26.34    1.18
  -5  -2   3   23.12    1.16
   4   2  -3    7.06    0.38
   4   2  -3    7.30    0.38
  -4  -2   3    6.36    0.39
  -4  -2   3    7.77    0.39
  -4  -2   3    6.48    0.39
  -4  -2   3    7.19    0.38
   3   2  -3   21.14    1.02
   3   2  -3   20.15    1.01
   3   2  -3   20.01    1.02
   3   2  -3   19.95    1.01
  -3  -2   3   21.43    1.03
  -3  -2   3   20.26    1.01
  -3  -2   3   20.86    1.01
  -3  -2   3   19.81    1.02
   2   2  -3    0.29    0.06
   2   2  -3    0.28    0.06
   2   2  -3    0.29    0.06
   2   2  -3    0.32    0.06
  -2  -2   3    0.35    0.06
  -2  -2   3    0.42    0.07
  -2  -2   3    0.34    0.07
  -2  -2   3    0.33    0.06
  -2  -2   3    0.57    0.09
   1   2  -3   97.55    4.77
   1   2  -3  107.13    4.78
   1   2  -3   93.25    4.84
   1   2  -3   94.58    4.84
  -1  -2   3  107.90    6.11
  -1  -2   3   97.18    4.77
  -1  -2   3   97.05    4.84
  -1  -2   3   98.09    4.84
  -1  -2   3  104.00    4.78
   0   2  -3    5.67    0.32
   0   2  -3    5.60    0.32
   0   2  -3    5.65    0.32
   0   2  -3    6.19    0.32
   0   2  -3    6.02    0.40
   0  -2   3    5.69    0.32
   0  -2   3    6.84    0.32
   0  -2   3    5.73    0.32
   0  -2   3    6.78    0.32
   0  -2   3    6.40    0.40
  -1   2  -3   35.44    1.85
  -1   2  -3   37.69    1.83
  -1   2  -3   37.13    1.82
  -1   2  -3   37.21    1.85
  -1   2  -3   39.67    2.34
   1  -2   3   37.88    1.82
   1  -2   3   38.92    1.85
   1  -2   3   38.14    1.82
   1  -2   3   37.94    1.85
  -2   2  -3    2.38    0.16
  -2   2  -3    2.66    0.20
  -2   2  -3    2.40    0.16
  -2   2  -3    2.52    0.16
  -2   2  -3    2.09    0.15
  -2   2  -3    2.53    0.16
   2  -2   3    2.38    0.16
   2  -2   3    2.49    0.16
   2  -2   3    2.69    0.22
   2  -2   3    2.48    0.16
   2  -2   3    2.83    0.16
  -3   2  -3   32.07    1.64
  -3   2  -3   33.91    1.64
  -3   2  -3   34.44    1.66
  -3   2  -3   34.53    1.66
   3  -2   3   35.50    1.66
   3  -2   3   32.68    2.17
   3  -2   3   33.29    1.66
   3  -2   3   34.17    1.64
   3  -2   3   33.39    1.64
  -4   2  -3   13.76    0.72
  -4   2  -3   15.08    0.71
  -4   2  -3   13.76    0.71
  -4   2  -3   14.51    0.72
   4  -2   3   13.48    0.70
   4  -2   3   13.56    0.95
   4  -2   3   14.42    0.71
   4  -2   3   14.29    0.71
   4  -2   3   14.15    0.70
  -5   2  -3    0.51    0.09
  -5   2  -3    0.51    0.09
  -5   2  -3    0.52    0.09
  -5   2  -3    0.59    0.09
  -5   2  -3    0.53    0.12
   5  -2   3    0.55    0.08
   5  -2   3    0.39    0.07
   5  -2   3    0.51    0.11
   5  -2   3    0.43    0.08
   5  -2   3    0.67    0.13
   5  -2   3    0.55    0.13
   5  -2   3    0.48    0.08
  -6   2  -3    1.12    0.15
  -6   2  -3    1.17    0.14
  -6   2  -3    1.09    0.14
  -6   2  -3    0.94    0.14
   6  -2   3    1.04    0.13
   6  -2   3    0.94    0.13
   6  -2   3    1.09    0.21
   6  -2   3    1.01    0.19
   6  -2   3    1.49    0.17
  -7   2  -3    0.21    0.10
  -7   2  -3    0.33    0.10
  -7   2  -3    0.38    0.10
  -7   2  -3    0.10    0.16
  -7   2  -3    0.18    0.10
   7  -2   3    0.30    0.09
   7  -2   3    0.08    0.09
   7  -2   3    0.31    0.13
   7  -2   3    0.21    0.11
   7  -2   3    0.22    0.12
   7  -2   3    0.36    0.15
  -8   2  -3    0.73    0.14
  -8   2  -3    0.76    0.14
   8  -2   3    0.90    0.13
   8  -2   3    0.97    0.20
   8  -2   3    0.60    0.16
   8  -2   3    0.46    0.15
   8  -2   3    0.55    0.17
   8  -2   3    0.66    0.12
  -9   2  -3    0.74    0.17
  -9   2  -3    0.57    0.17
   8   1  -3    0.10    0.16
   8   1  -3    0.14    0.11
   8   1  -3   -0.02    0.11
   8   1  -3    0.17    0.15
   8   1  -3    0.07    0.16
  -8  -1   3    0.14    0.11
  -8  -1   3    0.32    0.11
   7   1  -3    0.15    0.12
   7   1  -3    0.02    0.11
   7   1  -3    0.04    0.10
   7   1  -3   -0.08    0.08
   7   1  -3    0.10    0.08
  -7  -1   3   -0.09    0.08
  -7  -1   3    0.02    0.08
  -7  -1   3   -0.06    0.08
  -7  -1   3   -0.09    0.08
   6   1  -3   -0.11    0.08
   6   1  -3   -0.08    0.08
   6   1  -3    0.01    0.06
   6   1  -3    0.01    0.06
   6   1  -3   -0.05    0.08
  -6  -1   3    0.09    0.08
  -6  -1   3    0.05    0.07
  -6  -1   3   -0.07    0.06
  -6  -1   3   -0.11    0.06
   5   1  -3   13.06    0.65
   5   1  -3   12.75    0.76
   5   1  -3   13.30    0.64
   5   1  -3   12.88    0.64
   5   1  -3   13.33    0.65
  -5  -1   3   11.90    0.65
  -5  -1   3   12.60    0.66
  -5  -1   3   11.64    0.64
  -5  -1   3   11.86    0.65
   4   1  -3   48.13    2.28
   4   1  -3   47.54    2.28
   4   1  -3   47.41    2.31
   4   1  -3   48.37    2.31
  -4  -1   3   45.80    2.29
  -4  -1   3   46.14    2.32
   3   1  -3    4.38    0.23
   3   1  -3    3.98    0.23
  -3  -1   3    3.82    0.23
  -3  -1   3    3.35    0.23
  -3  -1   3    4.15    0.24
  -3  -1   3    4.43    0.24
  -2  -1   3    8.92    0.45
  -2  -1   3    8.34    0.45
  -2  -1   3    9.63    0.46
  -2  -1   3    8.88    0.46
   1   1  -3   76.24    3.69
   1   1  -3   78.86    3.70
   1   1  -3   77.57    3.65
   1   1  -3   70.50    3.64
  -1  -1   3   70.43    3.65
  -1  -1   3   79.23    3.65
  -1  -1   3   81.98    4.67
  -1  -1   3   77.61    3.70
  -1  -1   3   72.08    3.69
   0   1  -3   22.57    1.40
   0   1  -3   22.59    1.10
   0   1  -3   21.80    1.10
   0   1  -3   22.07    1.12
   0   1  -3   23.72    1.12
   0  -1   3   22.43    1.40
   0  -1   3   22.74    1.12
   0  -1   3   23.40    1.10
   0  -1   3   22.51    1.12
   0  -1   3   23.40    1.10
  -1   1  -3    0.43    0.06
  -1   1  -3    0.32    0.06
  -1   1  -3    0.40    0.06
  -1   1  -3    0.51    0.07
  -1   1  -3    0.35    0.06
  -1   1  -3    0.35    0.06
   1  -1   3    0.42    0.06
   1  -1   3    0.34    0.06
   1  -1   3    0.42    0.06
   1  -1   3    0.43    0.06
  -2   1  -3    0.16    0.05
  -2   1  -3    0.14    0.05
  -2   1  -3    0.08    0.05
  -2   1  -3    0.16    0.05
   2  -1   3    0.17    0.05
   2  -1   3    0.13    0.07
   2  -1   3    0.14    0.05
   2  -1   3    0.16    0.05
   2  -1   3    0.17    0.05
  -3   1  -3  140.59    6.68
  -3   1  -3  134.80    6.59
  -3   1  -3  141.49    6.67
  -3   1  -3  133.00    6.59
   3  -1   3  135.36    8.71
   3  -1   3  140.51    6.67
   3  -1   3  131.29    6.58
   3  -1   3  146.43    6.59
   3  -1   3  135.17    6.67
  -4   1  -3   22.94    1.11
  -4   1  -3   22.01    1.46
  -4   1  -3   22.64    1.12
  -4   1  -3   24.16    1.11
  -4   1  -3   22.98    1.12
   4  -1   3   22.58    1.10
   4  -1   3   20.56    1.12
   4  -1   3   23.89    1.10
   4  -1   3   21.33    1.46
   4  -1   3   22.35    1.12
  -5   1  -3   12.34    0.68
  -5   1  -3   13.44    0.69
  -5   1  -3   13.61    0.68
  -5   1  -3   13.53    0.68
   5  -1   3   14.21    0.67
   5  -1   3   13.43    0.68
   5  -1   3   13.29    0.67
   5  -1   3   13.01    0.68
  -6   1  -3    8.11    0.47
  -6   1  -3    9.01    0.47
  -6   1  -3    7.92    0.62
  -6   1  -3    8.56    0.46
  -6   1  -3    9.04    0.47
   6  -1   3    9.16    0.46
   6  -1   3    9.22    0.47
   6  -1   3    8.74    0.63
  -7   1  -3   -0.04    0.07
  -7   1  -3   -0.07    0.06
   7  -1   3    0.03    0.09
   7  -1   3    0.04    0.07
   7  -1   3    0.14    0.10
   7  -1   3   -0.06    0.08
   7  -1   3    0.07    0.13
   7  -1   3   -0.03    0.11
  -8   1  -3    0.03    0.10
  -8   1  -3    0.17    0.20
  -8   1  -3    0.19    0.10
   8  -1   3    0.19    0.10
   8  -1   3    0.01    0.14
   8  -1   3    0.08    0.17
   8  -1   3    0.14    0.10
   8  -1   3    0.01    0.12
   8  -1   3   -0.02    0.12
  -9   1  -3    1.63    0.23
  -9   1  -3    1.70    0.23
   8   0  -3    0.29    0.11
   8   0  -3    0.30    0.15
   8   0  -3    0.29    0.11
  -8   0   3    0.44    0.13
  -8   0   3    0.31    0.14
   7   0  -3    5.02    0.30
   7   0  -3    4.84    0.30
   7   0  -3    5.08    0.28
   7   0  -3    4.90    0.28
  -7   0   3    4.64    0.31
  -7   0   3    4.22    0.30
  -7   0   3    4.25    0.43
  -7   0   3    4.07    0.31
  -7   0   3    4.43    0.31
   6   0  -3    2.38    0.18
   6   0  -3    2.73    0.24
   6   0  -3    2.77    0.20
   6   0  -3    2.49    0.19
   6   0  -3    2.66    0.18
  -6   0   3    2.73    0.22
  -6   0   3    2.93    0.21
  -6   0   3    2.51    0.20
  -6   0   3    2.62    0.20
   5   0  -3  111.10    6.32
   5   0  -3  116.55    5.45
   5   0  -3  106.63    5.44
   5   0  -3  109.63    5.37
   5   0  -3  110.91    5.37
  -5   0   3  114.00    5.46
  -5   0   3  121.22    5.39
  -5   0   3  103.66    5.45
  -5   0   3  115.79    5.39
   4   0  -3    2.84    0.16
   4   0  -3    3.02    0.22
   4   0  -3    2.54    0.16
   4   0  -3    2.72    0.17
   4   0  -3    2.46    0.17
  -4   0   3    2.79    0.18
  -4   0   3    2.52    0.17
  -4   0   3    2.38    0.17
  -4   0   3    2.61    0.18
   3   0  -3    9.12    0.47
   3   0  -3    9.34    0.56
   3   0  -3    8.42    0.46
   3   0  -3   10.51    0.48
   3   0  -3    8.99    0.47
  -3   0   3    9.49    0.47
  -3   0   3    9.03    0.48
  -3   0   3   10.03    0.48
  -3   0   3    8.82    0.47
   2   0  -3   10.34    0.60
   2   0  -3   10.32    0.51
   2   0  -3   10.30    0.50
  -2   0   3    8.75    0.51
  -2   0   3   11.45    0.51
  -2   0   3    9.61    0.51
  -2   0   3   10.38    0.52
   1   0  -3   84.76    4.12
   1   0  -3   95.23    4.12
   1   0  -3   77.00    4.17
   1   0  -3   92.45    4.83
   1   0  -3   84.44    4.17
  -1   0   3   90.40    4.17
  -1   0   3   85.28    4.17
  -1   0   3   77.73    4.12
  -1   0   3   86.71    4.12
   0   0  -3   48.08    2.31
   0   0  -3   48.67    2.31
   0   0  -3   47.97    2.28
   0   0  -3   46.24    2.67
   0   0  -3   47.82    2.28
   0   0   3   45.46    2.28
   0   0   3   52.87    2.28
   0   0   3   43.88    2.31
   0   0   3   51.31    2.31
   0   0   3   42.84    2.91
  -1   0  -3   38.54    2.20
  -1   0  -3   40.78    1.90
  -1   0  -3   41.50    1.88
  -1   0  -3   39.04    1.88
  -1   0  -3   40.80    1.90
   1   0   3   34.05    2.19
   1   0   3   37.93    1.88
   1   0   3   39.96    1.90
   1   0   3   39.66    1.88
   1   0   3   37.95    1.90
  -2   0  -3    7.93    0.42
  -2   0  -3    7.97    0.47
  -2   0  -3    8.07    0.41
  -2   0  -3    8.29    0.42
  -2   0  -3    7.67    0.41
   2   0   3    7.91    0.42
   2   0   3    8.63    0.42
   2   0   3    8.52    0.41
   2   0   3    8.11    0.41
   2   0   3    8.36    0.47
  -3   0  -3    0.76    0.09
  -3   0  -3    0.95    0.09
  -3   0  -3    0.77    0.09
  -3   0  -3    0.88    0.09
   3   0   3    0.78    0.09
   3   0   3    0.72    0.09
   3   0   3    0.75    0.09
   3   0   3    0.87    0.09
   3   0   3    0.79    0.12
   3   0   3    0.63    0.06
  -4   0  -3  117.45    5.47
  -4   0  -3  120.15    5.40
  -4   0  -3  117.07    5.40
  -4   0  -3  110.37    5.47
  -4   0  -3   98.86    7.13
   4   0   3   96.14    7.13
   4   0   3  121.19    5.47
   4   0   3  108.43    5.47
   4   0   3  114.29    5.40
   4   0   3  123.06    5.40
  -5   0  -3   13.76    0.69
  -5   0  -3   13.06    0.90
  -5   0  -3   13.85    0.68
   5   0   3   13.05    0.69
   5   0   3   13.26    0.68
   5   0   3   13.64    0.90
   5   0   3   13.32    0.69
   5   0   3   14.11    0.68
  -6   0  -3   11.99    0.63
  -6   0  -3   11.97    0.62
  -6   0  -3   11.58    0.62
  -6   0  -3   11.34    0.61
   6   0   3   11.77    0.62
   6   0   3   12.57    0.63
   6   0   3   12.35    0.62
   6   0   3   12.39    0.61
  -7   0  -3    1.14    0.22
  -7   0  -3    0.79    0.12
  -7   0  -3    0.94    0.13
  -7   0  -3    0.95    0.12
  -7   0  -3    1.08    0.14
   7   0   3    0.80    0.11
   7   0   3    1.04    0.14
   7   0   3    1.23    0.16
   7   0   3    1.20    0.15
  -8   0  -3    0.26    0.08
  -8   0  -3    0.14    0.08
  -8   0  -3    0.09    0.08
  -8   0  -3    0.19    0.08
   8   0   3    0.16    0.09
   8   0   3    0.19    0.11
   8   0   3    0.24    0.11
   8   0   3    0.17    0.09
  -9   0  -3    0.93    0.14
  -9   0  -3    1.24    0.19
  -9   0  -3    1.01    0.28
   9   0   3    0.37    0.18
   9   0   3    1.33    0.20
   9   0   3    0.77    0.14
   9   0   3    0.56    0.18
 -10   0  -3    3.34    0.29
  10   0   3    2.40    0.32
  10   0   3    2.57    0.31
   8  -1  -3    0.16    0.17
  -8   1   3    0.15    0.14
  -8   1   3    0.31    0.15
   7  -1  -3   11.16    0.52
   7  -1  -3   11.27    0.53
   7  -1  -3    9.28    0.53
   7  -1  -3   12.22    0.68
   7  -1  -3    9.22    0.52
  -7   1   3   10.43    0.59
  -7   1   3   10.11    0.59
  -7   1   3   10.48    0.58
   6  -1  -3    0.59    0.09
   6  -1  -3    0.66    0.09
   6  -1  -3    0.70    0.09
   6  -1  -3    0.64    0.10
  -6   1   3    0.46    0.09
  -6   1   3    0.55    0.10
  -6   1   3    0.60    0.10
  -6   1   3    0.35    0.13
  -6   1   3    0.40    0.10
   5  -1  -3    0.05    0.05
   5  -1  -3    0.04    0.05
   5  -1  -3   -0.02    0.04
   5  -1  -3    0.06    0.08
   5  -1  -3    0.00    0.04
  -5   1   3   -0.05    0.07
  -5   1   3    0.04    0.07
  -5   1   3   -0.04    0.06
  -5   1   3    0.02    0.07
   4  -1  -3    2.38    0.14
   4  -1  -3    2.41    0.14
  -4   1   3    2.69    0.17
  -4   1   3    2.22    0.16
  -4   1   3    2.39    0.17
  -4   1   3    2.43    0.17
   3  -1  -3   73.38    3.44
   3  -1  -3   73.35    3.48
   3  -1  -3   70.41    3.48
   3  -1  -3   72.73    4.05
   3  -1  -3   70.07    3.44
  -3   1   3   75.27    3.49
  -3   1   3   70.19    3.45
  -3   1   3   70.71    3.45
  -3   1   3   70.41    3.49
   2  -1  -3   63.53    3.57
   2  -1  -3   76.78    3.57
   2  -1  -3   72.43    3.53
   2  -1  -3   74.78    4.15
   2  -1  -3   77.88    3.53
  -2   1   3   75.95    3.58
  -2   1   3   81.72    3.53
  -2   1   3   69.45    3.58
  -2   1   3   71.50    3.53
   1  -1  -3   20.07    1.18
   1  -1  -3   21.08    1.00
   1  -1  -3   20.80    0.99
  -1   1   3   20.88    0.99
  -1   1   3   21.61    1.18
  -1   1   3   18.01    1.01
  -1   1   3   21.72    1.01
  -1   1   3   20.52    1.00
   0  -1  -3    5.80    0.29
   0  -1  -3    5.90    0.29
   0  -1  -3    5.78    0.35
   0  -1  -3    5.53    0.29
   0  -1  -3    6.08    0.29
   0   1   3    6.25    0.29
   0   1   3    5.61    0.29
   0   1   3    6.31    0.36
   0   1   3    5.80    0.35
   0   1   3    4.85    0.29
   0   1   3    5.79    0.29
  -1  -1  -3  294.18   16.24
  -1  -1  -3  289.37   14.00
  -1  -1  -3  295.36   13.82
  -1  -1  -3  281.32   13.82
  -1  -1  -3  278.27   14.01
   1   1   3  293.50   16.21
   1   1   3  297.60   14.03
   1   1   3  276.88   13.83
   1   1   3  305.52   13.85
   1   1   3  275.72   14.02
  -2  -1  -3   28.70    1.38
  -2  -1  -3   27.57    1.40
  -2  -1  -3   28.60    1.38
  -2  -1  -3   28.86    1.40
   2   1   3   29.12    1.38
   2   1   3   29.38    1.40
   2   1   3   28.67    1.38
   2   1   3   27.06    1.40
   2   1   3   27.98    1.61
  -3  -1  -3    3.92    0.22
  -3  -1  -3    4.57    0.23
  -3  -1  -3    3.89    0.23
  -3  -1  -3    4.12    0.23
   3   1   3    3.93    0.28
   3   1   3    4.27    0.23
   3   1   3    4.17    0.23
   3   1   3    3.96    0.22
   3   1   3    4.01    0.22
  -4  -1  -3    0.43    0.06
  -4  -1  -3    0.33    0.06
  -4  -1  -3    0.32    0.06
  -4  -1  -3    0.42    0.06
  -4  -1  -3    0.35    0.06
   4   1   3    0.27    0.06
   4   1   3    0.38    0.06
   4   1   3    0.33    0.06
   4   1   3    0.44    0.07
   4   1   3    0.60    0.09
  -5  -1  -3    2.25    0.17
  -5  -1  -3    2.38    0.17
  -5  -1  -3    2.32    0.16
  -5  -1  -3    2.37    0.16
   5   1   3    2.22    0.16
   5   1   3    2.33    0.16
   5   1   3    2.48    0.16
   5   1   3    2.61    0.16
  -6  -1  -3    1.19    0.18
  -6  -1  -3    1.16    0.13
  -6  -1  -3    1.26    0.13
  -6  -1  -3    1.07    0.14
  -6  -1  -3    1.07    0.13
   6   1   3    1.23    0.13
   6   1   3    1.32    0.12
   6   1   3    1.27    0.12
   6   1   3    0.93    0.13
  -7  -1  -3   15.40    0.75
  -7  -1  -3   14.65    0.76
  -7  -1  -3   14.86    0.98
   7   1   3   13.25    0.74
   7   1   3   14.63    0.75
   7   1   3   14.15    0.75
   7   1   3   14.83    0.74
  -8  -1  -3    0.19    0.07
  -8  -1  -3   -0.04    0.14
  -8  -1  -3    0.12    0.08
  -8  -1  -3    0.12    0.07
  -8  -1  -3    0.10    0.08
   8   1   3   -0.03    0.08
   8   1   3    0.04    0.09
  -9  -1  -3    0.13    0.09
  -9  -1  -3    0.10    0.09
  -9  -1  -3    0.14    0.21
   9   1   3    0.22    0.16
   9   1   3    0.15    0.11
   9   1   3    0.13    0.16
   9   1   3    0.22    0.10
   9   1   3    0.14    0.09
  10   1   3    0.10    0.14
  10   1   3    0.32    0.15
   8  -2  -3    1.63    0.24
  -8   2   3    1.89    0.28
  -8   2   3    1.89    0.28
   7  -2  -3    6.06    0.44
  -7   2   3    6.51    0.40
  -7   2   3    5.70    0.41
   6  -2  -3    0.05    0.09
  -6   2   3   -0.04    0.08
  -6   2   3    0.22    0.09
  -6   2   3   -0.11    0.09
  -6   2   3    0.08    0.08
  -6   2   3   -0.05    0.10
   5  -2  -3    0.25    0.09
  -5   2   3    0.24    0.07
  -5   2   3    0.22    0.07
   4  -2  -3    0.04    0.07
  -4   2   3   -0.04    0.05
  -4   2   3   -0.03    0.05
  -4   2   3    0.07    0.10
   3  -2  -3   18.42    1.05
  -3   2   3   18.88    0.89
  -3   2   3   18.07    1.19
  -3   2   3   16.84    0.88
   2  -2  -3   59.33    3.46
  -2   2   3   62.45    3.46
  -2   2   3   62.89    2.98
  -2   2   3   60.98    2.94
   1  -2  -3  131.20    7.35
  -1   2   3  132.66    7.35
  -1   2   3  126.73    6.28
  -1   2   3  133.50    6.36
   0  -2  -3   37.58    2.16
   0   2   3   39.96    1.83
   0   2   3   38.41    1.86
   0   2   3   35.97    2.16
   0   2   3   44.04    2.36
   0   2   3   34.34    1.86
   0   2   3   37.77    1.83
  -1  -2  -3    1.49    0.08
  -1  -2  -3    1.34    0.12
  -1  -2  -3    1.61    0.09
   1   2   3    1.38    0.12
   1   2   3    1.61    0.09
   1   2   3    1.55    0.09
  -2  -2  -3   60.00    2.88
  -2  -2  -3   55.20    2.88
  -2  -2  -3   59.41    2.84
  -2  -2  -3   61.91    2.84
   2   2   3   61.53    2.85
   2   2   3   60.06    2.88
   2   2   3   56.10    2.88
   2   2   3   60.80    2.85
  -3  -2  -3    5.47    0.28
  -3  -2  -3    5.26    0.28
  -3  -2  -3    5.58    0.29
  -3  -2  -3    5.22    0.28
   3   2   3    5.43    0.29
   3   2   3    5.25    0.28
   3   2   3    5.37    0.28
   3   2   3    5.44    0.29
  -4  -2  -3   39.02    2.46
  -4  -2  -3   37.95    1.88
  -4  -2  -3   38.48    1.88
  -4  -2  -3   43.10    1.90
  -4  -2  -3   38.19    1.90
   4   2   3   36.09    1.90
   4   2   3   38.66    1.88
   4   2   3   40.75    1.88
   4   2   3   37.46    1.90
  -5  -2  -3    4.98    0.28
  -5  -2  -3    4.44    0.27
  -5  -2  -3    4.96    0.28
  -5  -2  -3    4.17    0.34
  -5  -2  -3    5.10    0.28
   5   2   3    4.94    0.28
   5   2   3    5.33    0.28
   5   2   3    4.91    0.28
   5   2   3    5.47    0.28
  -6  -2  -3    0.80    0.12
  -6  -2  -3    0.92    0.13
  -6  -2  -3    0.64    0.13
  -6  -2  -3    0.85    0.13
  -6  -2  -3    0.79    0.12
   6   2   3    0.73    0.11
   6   2   3    0.56    0.09
   6   2   3    0.72    0.11
   6   2   3    0.72    0.12
  -7  -2  -3   -0.01    0.08
  -7  -2  -3    0.02    0.07
  -7  -2  -3   -0.01    0.09
   7   2   3   -0.08    0.07
   7   2   3   -0.04    0.07
   7   2   3    0.03    0.08
   7   2   3   -0.01    0.07
  -8  -2  -3    2.84    0.33
  -8  -2  -3    3.52    0.25
  -8  -2  -3    3.77    0.24
  -8  -2  -3    3.26    0.23
  -8  -2  -3    3.93    0.25
  -9  -2  -3    0.04    0.17
   9   2   3    0.12    0.10
   9   2   3    0.18    0.10
   9   2   3    0.25    0.15
   9   2   3    0.42    0.15
 -10  -2  -3    0.11    0.33
  10   2   3   -0.06    0.13
  10   2   3    0.08    0.13
   7  -3  -3    0.53    0.15
  -7   3   3    0.45    0.17
  -7   3   3    0.38    0.18
   6  -3  -3    9.91    0.62
  -6   3   3    9.72    0.53
  -6   3   3    9.82    0.54
   5  -3  -3   20.91    1.34
  -5   3   3   22.63    1.14
  -5   3   3   26.43    1.16
  -5   3   3   22.56    1.15
   4  -3  -3   11.88    0.75
  -4   3   3   14.06    0.64
  -4   3   3   12.87    0.64
  -4   3   3   12.75    0.63
  -4   3   3   11.81    0.64
   3  -3  -3    1.33    0.15
  -3   3   3    1.39    0.20
  -3   3   3    1.41    0.11
  -3   3   3    1.33    0.11
  -3   3   3    1.57    0.11
  -3   3   3    1.72    0.11
   2  -3  -3   29.70    1.61
  -2   3   3   30.02    1.61
  -2   3   3   26.11    1.37
  -2   3   3   27.27    1.36
   1  -3  -3   51.10    2.92
  -1   3   3   52.17    3.20
  -1   3   3   55.50    3.30
  -1   3   3   48.50    2.92
   0   3   3   30.80    1.76
  -1  -3  -3   44.34    2.59
   1   3   3   41.25    2.03
   1   3   3   42.66    2.37
   1   3   3   38.81    2.66
   1   3   3   42.71    2.01
  -2  -3  -3   25.51    1.56
   2   3   3   25.31    1.21
   2   3   3   23.80    1.21
   2   3   3   25.54    1.22
   4   3   3   10.04    0.51
   4   3   3   10.01    0.51
  -5  -3  -3   31.67    1.75
  -5  -3  -3   36.98    2.26
  -5  -3  -3   36.24    1.73
   5   3   3   36.12    1.73
   5   3   3   36.92    1.73
   5   3   3   35.52    1.75
   5   3   3   35.57    1.75
  -6  -3  -3    0.40    0.08
  -6  -3  -3    0.55    0.08
  -6  -3  -3    0.39    0.08
   6   3   3    0.35    0.08
   6   3   3    0.46    0.08
   6   3   3    0.31    0.08
   6   3   3    0.27    0.07
  -7  -3  -3    0.09    0.08
   7   3   3   -0.06    0.07
   7   3   3    0.01    0.07
   7   3   3    0.09    0.07
   7   3   3    0.10    0.07
  -8  -3  -3    0.21    0.12
   8   3   3    0.01    0.08
   8   3   3    0.05    0.08
  -9  -3  -3    1.12    0.13
  -9  -3  -3    0.86    0.19
  -9  -3  -3    1.16    0.16
   9   3   3    1.38    0.16
   9   3   3    1.68    0.23
   9   3   3    0.99    0.16
 -10  -3  -3    3.08    0.25
 -10  -3  -3    3.86    0.26
  10   3   3    3.64    0.29
  10   3   3    3.59    0.28
   7  -4  -3    1.69    0.28
   7  -4  -3    1.58    0.23
   6  -4  -3    0.11    0.13
   6  -4  -3    0.08    0.15
  -6   4   3    0.28    0.12
  -6   4   3    0.06    0.11
  -6   4   3    0.03    0.12
  -6   4   3    0.23    0.13
   5  -4  -3    1.87    0.22
   5  -4  -3    1.39    0.19
  -5   4   3    1.41    0.27
  -5   4   3    1.88    0.16
  -5   4   3    1.54    0.16
  -5   4   3    1.68    0.17
  -5   4   3    1.42    0.17
   4  -4  -3    5.52    0.42
  -4   4   3    6.81    0.35
  -4   4   3    6.01    0.35
  -4   4   3    7.07    0.35
  -4   4   3    6.97    0.35
   3  -4  -3    6.36    0.44
  -3   4   3    6.92    0.36
  -3   4   3    7.04    0.53
  -3   4   3    6.98    0.36
  -3   4   3    7.70    0.36
  -3   4   3    7.09    0.44
  -3   4   3    6.71    0.35
   2  -4  -3   23.42    1.31
  -2   4   3   21.56    1.30
  -2   4   3   22.22    1.09
  -2   4   3   21.56    1.43
  -2   4   3   24.66    1.11
   1  -4  -3    5.42    0.40
  -1   4   3    5.93    0.40
   0  -4  -3    1.80    0.16
  -1  -4  -3   93.58    5.83
   1   4   3   95.40    4.54
   1   4   3   83.40    5.83
   1   4   3  100.65    6.00
   1   4   3  101.60    4.61
  -2  -4  -3   66.47    3.70
  -2  -4  -3   58.25    2.86
  -2  -4  -3   54.05    2.90
  -2  -4  -3   61.00    3.79
   2   4   3   61.05    2.91
   2   4   3   57.24    2.91
   2   4   3   58.23    2.87
   2   4   3   62.87    2.87
  -3  -4  -3   51.19    2.38
  -3  -4  -3   45.78    2.37
  -3  -4  -3   50.67    2.34
  -3  -4  -3   47.46    3.02
  -3  -4  -3   45.83    3.09
  -3  -4  -3   53.32    2.35
   3   4   3   46.57    2.35
   3   4   3   50.95    2.35
   3   4   3   47.72    2.38
   3   4   3   48.20    2.38
  -4  -4  -3    2.14    0.14
  -4  -4  -3    1.90    0.14
  -4  -4  -3    1.99    0.14
  -4  -4  -3    2.01    0.13
   4   4   3    1.94    0.14
   4   4   3    1.96    0.14
   4   4   3    1.96    0.14
   4   4   3    2.00    0.14
  -5  -4  -3   32.62    1.66
  -5  -4  -3   34.24    1.66
  -5  -4  -3   32.64    1.64
  -5  -4  -3   35.28    2.14
  -5  -4  -3   31.36    1.64
   5   4   3   34.50    1.66
   5   4   3   35.15    1.64
  -6  -4  -3   15.71    0.79
  -6  -4  -3   15.00    0.79
  -6  -4  -3   15.54    0.78
  -6  -4  -3   14.87    1.00
  -6  -4  -3   14.96    0.78
   6   4   3   15.84    0.80
   6   4   3   15.64    0.79
   6   4   3   15.57    0.79
   6   4   3   16.22    0.78
  -7  -4  -3    0.20    0.08
  -7  -4  -3    0.23    0.08
  -7  -4  -3    0.23    0.08
   7   4   3    0.23    0.08
   7   4   3    0.17    0.08
  -8  -4  -3    0.03    0.07
  -8  -4  -3    0.10    0.07
  -8  -4  -3    0.09    0.11
  -8  -4  -3    0.10    0.07
  -8  -4  -3    0.05    0.07
   8   4   3    0.18    0.08
   8   4   3    0.00    0.07
   8   4   3    0.08    0.07
   8   4   3   -0.09    0.07
  -9  -4  -3    9.32    0.51
  -9  -4  -3    9.16    0.50
   9   4   3    9.07    0.50
   9   4   3    8.32    0.49
 -10  -4  -3    0.27    0.10
 -10  -4  -3    0.16    0.10
  10   4   3    0.12    0.11
  10   4   3   -0.07    0.11
   6  -5  -3    0.14    0.15
   6  -5  -3    0.17    0.15
  -6   5   3    0.18    0.13
  -6   5   3    0.17    0.16
  -6   5   3    0.08    0.15
  -6   5   3    0.33    0.14
   5  -5  -3    0.16    0.13
   5  -5  -3    0.18    0.14
  -5   5   3    0.03    0.09
  -5   5   3    0.10    0.10
  -5   5   3    0.10    0.10
  -5   5   3    0.14    0.09
   4  -5  -3    6.03    0.43
  -4   5   3    5.31    0.34
  -4   5   3    6.16    0.48
  -4   5   3    6.42    0.34
  -4   5   3    6.40    0.34
  -4   5   3    6.78    0.34
  -4   5   3    7.00    0.50
   3  -5  -3    3.00    0.23
  -3   5   3    2.53    0.16
  -3   5   3    2.80    0.26
  -3   5   3    2.85    0.28
  -3   5   3    2.54    0.16
  -3   5   3    2.63    0.23
  -3   5   3    2.45    0.16
  -3   5   3    2.59    0.16
   2  -5  -3    3.82    0.29
  -2   5   3    3.34    0.18
  -2   5   3    3.58    0.25
  -2   5   3    3.24    0.18
  -2   5   3    4.08    0.31
  -2   5   3    3.13    0.18
  -2   5   3    3.44    0.18
  -2   5   3    3.03    0.28
   1  -5  -3    3.57    0.29
   1  -5  -3    4.54    0.33
  -1   5   3    3.89    0.34
  -1   5   3    4.65    0.21
  -1   5   3    4.14    0.22
  -1   5   3    4.74    0.29
  -1   5   3    4.49    0.21
  -1   5   3    4.44    0.22
   0  -5  -3   29.51    1.95
   0  -5  -3   29.81    1.73
   0   5   3   28.94    1.47
   0   5   3   28.96    1.47
   0   5   3   29.77    1.45
   0   5   3   33.33    1.73
   0   5   3   33.74    1.90
   0   5   3   28.85    1.45
   0   5   3   29.83    1.95
  -1  -5  -3   26.33    1.66
  -1  -5  -3   25.31    1.62
  -1  -5  -3   28.30    1.48
   1   5   3   23.37    1.24
   1   5   3   23.73    1.25
   1   5   3   28.51    1.66
   1   5   3   28.42    1.62
   1   5   3   24.43    1.26
   1   5   3   23.63    1.24
  -2  -5  -3    1.56    0.16
  -2  -5  -3    1.46    0.14
  -2  -5  -3    1.58    0.13
  -2  -5  -3    1.43    0.15
   2   5   3    1.59    0.11
   2   5   3    1.71    0.11
   2   5   3    1.29    0.17
   2   5   3    1.40    0.10
   2   5   3    1.46    0.10
  -3  -5  -3   13.92    0.66
  -3  -5  -3   13.47    0.66
  -3  -5  -3   12.87    0.67
  -3  -5  -3   14.13    0.88
  -3  -5  -3   14.22    0.87
  -3  -5  -3   12.69    0.67
   3   5   3   12.91    0.67
   3   5   3   13.67    0.67
   3   5   3   13.63    0.68
   3   5   3   13.47    0.68
  -4  -5  -3   10.61    0.54
  -4  -5  -3   10.71    0.53
  -4  -5  -3   10.68    0.54
  -4  -5  -3   10.64    0.68
  -4  -5  -3   10.01    0.70
  -4  -5  -3   10.55    0.53
   4   5   3   10.58    0.54
   4   5   3   10.62    0.54
   4   5   3   10.62    0.55
   4   5   3   10.66    0.54
  -5  -5  -3   17.30    0.88
  -5  -5  -3   17.33    0.88
  -5  -5  -3   16.87    0.87
  -5  -5  -3   15.35    0.86
   5   5   3   18.96    0.88
   5   5   3   17.17    0.87
   5   5   3   18.92    0.87
  -6  -5  -3   24.53    1.21
  -6  -5  -3   22.91    1.20
  -6  -5  -3   24.88    1.19
  -6  -5  -3   24.16    1.19
   6   5   3   23.92    1.21
   6   5   3   24.20    1.19
  -7  -5  -3   17.51    1.25
  -7  -5  -3   20.19    0.98
  -7  -5  -3   20.49    0.99
   7   5   3   19.15    0.98
   7   5   3   19.84    0.99
  -8  -5  -3    1.29    0.16
  -8  -5  -3    1.58    0.21
  -8  -5  -3    1.66    0.16
  -8  -5  -3    1.71    0.17
  -8  -5  -3    1.53    0.15
   8   5   3    1.70    0.16
   8   5   3    1.26    0.17
   8   5   3    1.48    0.17
   8   5   3    1.93    0.16
  -9  -5  -3    1.71    0.19
  -9  -5  -3    1.88    0.30
  -9  -5  -3    2.18    0.20
   9   5   3    1.76    0.17
   9   5   3    2.22    0.18
 -10  -5  -3    0.02    0.09
 -10  -5  -3    0.12    0.09
  10   5   3   -0.18    0.09
   6  -6  -3    0.83    0.21
   6  -6  -3    0.60    0.17
   5  -6  -3    2.39    0.27
   5  -6  -3    1.94    0.25
  -5   6   3    1.95    0.22
  -5   6   3    1.96    0.24
  -5   6   3    2.24    0.22
  -5   6   3    2.02    0.24
   4  -6  -3    5.59    0.44
   4  -6  -3    7.36    0.50
  -4   6   3    6.06    0.35
  -4   6   3    6.18    0.35
   3  -6  -3    5.86    0.48
   3  -6  -3    5.92    0.43
  -3   6   3    6.23    0.48
  -3   6   3    6.64    0.34
  -3   6   3    6.54    0.33
  -3   6   3    6.49    0.34
  -3   6   3    6.35    0.33
  -3   6   3    5.88    0.46
   2  -6  -3    3.76    0.32
  -2   6   3    4.49    0.24
  -2   6   3    4.49    0.24
  -2   6   3    5.25    0.36
  -2   6   3    4.58    0.32
  -2   6   3    4.26    0.37
  -2   6   3    4.46    0.24
  -2   6   3    4.31    0.23
  -1   6   3   11.50    0.55
  -1   6   3   11.63    0.55
  -1   6   3   12.27    0.56
  -1   6   3   10.40    0.75
  -1   6   3    9.56    0.77
  -1   6   3   11.84    0.56
  -1   6   3   11.18    0.68
   0  -6  -3    3.70    0.31
   0  -6  -3    3.71    0.27
   0   6   3    3.51    0.31
   0   6   3    3.54    0.20
   0   6   3    3.66    0.27
   0   6   3    3.67    0.19
   0   6   3    3.82    0.31
   0   6   3    3.56    0.19
   0   6   3    3.72    0.20
  -1  -6  -3   20.02    1.30
  -1  -6  -3   18.28    1.32
  -1  -6  -3   22.69    1.33
  -1  -6  -3   18.86    1.18
   1   6   3   20.06    1.00
   1   6   3   21.09    0.99
   1   6   3   20.72    1.00
   1   6   3   18.99    1.29
   1   6   3   20.92    1.32
   1   6   3   21.48    0.99
  -2  -6  -3    3.37    0.29
  -2  -6  -3    3.75    0.26
  -2  -6  -3    3.65    0.29
  -2  -6  -3    3.55    0.30
   2   6   3    3.92    0.21
   2   6   3    3.86    0.21
   2   6   3    4.28    0.22
   2   6   3    3.76    0.21
  -3  -6  -3   78.62    3.75
  -3  -6  -3   81.89    3.80
  -3  -6  -3   78.88    3.80
  -3  -6  -3   79.44    4.42
  -3  -6  -3   81.36    4.85
  -3  -6  -3   79.06    3.75
  -3  -6  -3   77.27    4.97
   3   6   3   79.24    3.77
   3   6   3   74.70    3.77
   3   6   3   76.26    3.82
   3   6   3   75.86    3.81
  -4  -6  -3    4.70    0.26
  -4  -6  -3    4.84    0.26
  -4  -6  -3    4.13    0.26
  -4  -6  -3    4.56    0.26
  -4  -6  -3    4.96    0.32
  -4  -6  -3    4.92    0.37
   4   6   3    4.77    0.27
   4   6   3    4.27    0.27
  -5  -6  -3   29.17    1.37
  -5  -6  -3   29.08    1.76
  -5  -6  -3   28.02    1.75
  -5  -6  -3   27.59    1.35
  -5  -6  -3   28.86    1.37
  -5  -6  -3   26.11    1.35
   5   6   3   25.75    1.37
   5   6   3   26.14    1.35
   5   6   3   27.68    1.35
   5   6   3   26.95    1.37
  -6  -6  -3   35.30    1.72
  -6  -6  -3   37.06    1.72
  -6  -6  -3   36.04    1.74
  -6  -6  -3   35.67    1.74
   6   6   3   36.09    1.72
   6   6   3   33.10    1.74
   6   6   3   32.44    1.72
   6   6   3   35.21    1.74
  -7  -6  -3   35.92    1.78
  -7  -6  -3   35.71    1.76
  -8  -6  -3    0.59    0.10
  -8  -6  -3    0.22    0.11
  -8  -6  -3    0.47    0.12
  -8  -6  -3    0.47    0.10
  -8  -6  -3    0.55    0.11
   8   6   3    0.61    0.11
   8   6   3    0.66    0.10
   8   6   3    0.61    0.10
   8   6   3    0.57    0.11
  -9  -6  -3    0.76    0.11
  -9  -6  -3    0.86    0.11
  -9  -6  -3    0.91    0.17
   9   6   3    0.92    0.12
   9   6   3    0.80    0.12
 -10  -6  -3    0.36    0.10
 -10  -6  -3   -0.18    0.10
  10   6   3   -0.16    0.10
  10   6   3    0.09    0.10
   5  -7  -3    3.39    0.31
   5  -7  -3    3.08    0.36
   4  -7  -3    0.13    0.15
   4  -7  -3    0.23    0.14
  -4   7   3    0.02    0.10
  -4   7   3    0.05    0.11
  -4   7   3    0.10    0.11
  -4   7   3    0.03    0.10
   3  -7  -3    1.29    0.19
   3  -7  -3    1.49    0.22
  -3   7   3    1.59    0.16
  -3   7   3    1.50    0.15
  -3   7   3    1.40    0.24
  -3   7   3    1.68    0.15
  -3   7   3    1.52    0.16
   2  -7  -3    8.95    0.75
   2  -7  -3   11.03    0.68
  -2   7   3   10.75    0.77
  -2   7   3   10.74    0.55
  -2   7   3   11.07    0.54
  -2   7   3   10.76    0.54
  -2   7   3   11.76    0.75
  -2   7   3   10.63    0.66
  -2   7   3   10.70    0.54
  -1   7   3    7.77    0.40
  -1   7   3    8.12    0.41
  -1   7   3    8.13    0.41
  -1   7   3    8.64    0.57
  -1   7   3    7.42    0.59
  -1   7   3    7.97    0.51
  -1   7   3    7.71    0.41
   0  -7  -3    2.35    0.26
   0   7   3    3.02    0.17
   0   7   3    2.86    0.16
   0   7   3    2.71    0.17
   0   7   3    2.39    0.27
   0   7   3    2.94    0.17
   0   7   3    2.68    0.26
   0   7   3    2.78    0.24
  -1  -7  -3    1.67    0.20
  -1  -7  -3    2.32    0.23
  -1  -7  -3    1.76    0.22
  -1  -7  -3    1.54    0.17
   1   7   3    2.13    0.14
   1   7   3    2.10    0.14
   1   7   3    1.94    0.14
   1   7   3    1.46    0.21
   1   7   3    1.85    0.13
  -3  -7  -3    5.69    0.27
  -3  -7  -3    5.57    0.39
  -3  -7  -3    5.24    0.41
   3   7   3    5.43    0.30
   3   7   3    4.73    0.30
   3   7   3    5.15    0.31
   3   7   3    5.55    0.30
  -4  -7  -3    3.92    0.31
  -4  -7  -3    4.13    0.24
  -4  -7  -3    4.07    0.24
  -4  -7  -3    4.13    0.24
  -4  -7  -3    4.25    0.36
   4   7   3    4.24    0.26
   4   7   3    4.55    0.27
   4   7   3    4.31    0.26
   4   7   3    4.15    0.26
  -5  -7  -3    5.89    0.47
  -5  -7  -3    6.29    0.43
  -5  -7  -3    6.20    0.35
  -5  -7  -3    6.33    0.35
  -5  -7  -3    6.51    0.35
  -5  -7  -3    6.31    0.35
   5   7   3    6.28    0.35
   5   7   3    6.09    0.36
  -6  -7  -3    1.71    0.16
  -6  -7  -3    1.75    0.16
  -6  -7  -3    1.45    0.17
  -6  -7  -3    1.32    0.16
  -6  -7  -3    1.56    0.17
   6   7   3    1.73    0.17
   6   7   3    1.35    0.15
   6   7   3    1.93    0.17
   6   7   3    1.59    0.16
  -8  -7  -3    1.18    0.16
  -8  -7  -3    1.01    0.19
  -8  -7  -3    1.25    0.17
  -8  -7  -3    0.98    0.16
  -8  -7  -3    0.98    0.16
   8   7   3    1.08    0.15
   8   7   3    1.31    0.16
  -9  -7  -3   13.09    0.69
  -9  -7  -3   12.79    0.70
   9   7   3   12.54    0.69
   9   7   3   13.35    0.70
 -10  -7  -3    0.45    0.13
 -10  -7  -3    0.50    0.13
  10   7   3    0.69    0.13
  10   7   3    0.88    0.13
   4  -8  -3    0.45    0.18
   4  -8  -3    0.43    0.17
   3  -8  -3    3.88    0.33
  -3   8   3    3.71    0.30
  -3   8   3    3.56    0.29
  -3   8   3    3.53    0.25
  -3   8   3    2.91    0.36
  -3   8   3    3.64    0.25
   2  -8  -3    0.06    0.13
   2  -8  -3    0.08    0.12
  -2   8   3    0.07    0.07
  -2   8   3    0.02    0.07
  -2   8   3   -0.15    0.14
  -2   8   3    0.11    0.09
  -2   8   3    0.03    0.09
   1  -8  -3    0.37    0.13
   1  -8  -3    0.32    0.15
  -1   8   3    0.35    0.08
  -1   8   3    0.31    0.07
  -1   8   3    0.20    0.16
  -1   8   3    0.43    0.14
  -1   8   3    0.39    0.07
  -1   8   3    0.10    0.12
  -1   8   3    0.31    0.08
   0  -8  -3    8.53    0.60
   0  -8  -3    9.34    0.69
   0  -8  -3    8.67    0.67
   0   8   3    9.21    0.49
   0   8   3    9.49    0.60
   0   8   3    9.38    0.48
   0   8   3    9.71    0.48
   0   8   3    9.56    0.66
   0   8   3    9.51    0.48
  -1  -8  -3   67.62    3.92
   1   8   3   58.93    2.98
   1   8   3   60.26    2.98
   1   8   3   58.76    2.94
   1   8   3   59.89    2.94
  -2  -8  -3    2.17    0.24
   2   8   3    2.22    0.17
   2   8   3    2.12    0.17
  -3  -8  -3    0.03    0.09
   3   8   3    0.03    0.07
   3   8   3    0.12    0.08
   3   8   3   -0.03    0.06
   3   8   3    0.04    0.08
  -4  -8  -3   10.54    0.54
  -4  -8  -3   10.93    0.54
  -4  -8  -3   10.23    0.53
  -4  -8  -3   11.03    0.72
  -4  -8  -3   10.41    0.53
   4   8   3   10.58    0.57
   4   8   3   10.57    0.56
   4   8   3   10.48    0.56
   4   8   3   10.83    0.57
  -5  -8  -3   30.88    1.53
  -5  -8  -3   30.87    1.51
  -5  -8  -3   30.54    1.50
  -5  -8  -3   30.45    1.52
  -5  -8  -3   29.76    1.98
  -5  -8  -3   31.43    1.97
   5   8   3   31.51    1.52
   5   8   3   31.29    1.54
  -6  -8  -3    1.28    0.19
  -6  -8  -3    1.29    0.22
  -6  -8  -3    1.28    0.16
  -6  -8  -3    1.49    0.18
  -6  -8  -3    1.36    0.17
  -6  -8  -3    1.24    0.16
   6   8   3    1.16    0.14
   6   8   3    1.40    0.16
   6   8   3    1.24    0.16
   6   8   3    1.41    0.17
  -7  -8  -3    0.16    0.12
  -7  -8  -3    0.14    0.09
  -7  -8  -3    0.15    0.10
  -7  -8  -3    0.11    0.10
   7   8   3    0.14    0.08
   7   8   3    0.13    0.08
  -8  -8  -3    0.74    0.18
  -8  -8  -3    0.85    0.17
  -8  -8  -3    0.93    0.19
  -8  -8  -3    0.76    0.13
  -8  -8  -3    0.73    0.13
   2  -9  -3    0.99    0.20
   2  -9  -3    1.27    0.26
  -2   9   3    0.99    0.13
  -2   9   3    1.02    0.13
   1  -9  -3    0.12    0.16
   1  -9  -3    0.08    0.14
  -1   9   3    0.27    0.19
  -1   9   3   -0.03    0.12
  -1   9   3    0.06    0.08
  -1   9   3    0.07    0.08
  -1   9   3    0.06    0.11
   0  -9  -3    5.52    0.47
   0  -9  -3    5.13    0.44
   0  -9  -3    5.59    0.40
   0   9   3    5.08    0.33
   0   9   3    4.88    0.43
   0   9   3    5.14    0.32
   0   9   3    5.14    0.30
   0   9   3    5.42    0.31
  -1  -9  -3    2.74    0.31
  -1  -9  -3    3.42    0.29
   1   9   3    3.07    0.22
   1   9   3    3.02    0.23
   1   9   3    3.18    0.24
   1   9   3    3.19    0.22
  -2  -9  -3    0.02    0.12
  -2  -9  -3    0.17    0.11
  -2  -9  -3    0.20    0.13
   2   9   3    0.14    0.10
   2   9   3    0.05    0.11
   2   9   3    0.15    0.15
   2   9   3    0.06    0.08
   2   9   3    0.09    0.08
  -3  -9  -3    8.90    0.73
  -3  -9  -3   11.51    0.74
   3   9   3   10.39    0.57
   3   9   3   10.31    0.56
   3   9   3   10.67    0.55
   3   9   3   11.02    0.56
  -4  -9  -3    0.30    0.11
  -4  -9  -3    0.37    0.12
   4   9   3    0.16    0.11
   4   9   3    0.22    0.10
   4   9   3    0.44    0.10
   4   9   3    0.30    0.11
  -6  -9  -3    1.66    0.23
  -6  -9  -3    1.49    0.18
  -6  -9  -3    1.56    0.19
  -6  -9  -3    1.86    0.23
  -6  -9  -3    1.82    0.23
   6   9   3    1.59    0.19
   6   9   3    1.47    0.19
  -7  -9  -3   13.96    0.74
  -7  -9  -3   13.77    0.97
  -7  -9  -3   14.07    0.75
   7   9   3   14.55    0.76
   7   9   3   14.45    0.75
  -8  -9  -3    4.20    0.38
   8   9   3    4.11    0.28
   8   9   3    4.00    0.28
   1 -10  -3    3.97    0.38
   1 -10  -3    4.25    0.42
   0 -10  -3   -0.07    0.18
   0 -10  -3    0.01    0.15
   0 -10  -3    0.08    0.17
   0  10   3   -0.09    0.11
   0  10   3    0.19    0.25
   0  10   3    0.06    0.11
  -1 -10  -3    0.43    0.19
  -1 -10  -3    0.42    0.17
  -1 -10  -3    0.29    0.18
   1  10   3    0.55    0.24
   1  10   3    0.16    0.15
   1  10   3    0.26    0.15
   1  10   3    0.46    0.12
   1  10   3    0.38    0.12
   2  10   3    6.34    0.38
   2  10   3    6.49    0.38
   2  10   3    6.21    0.42
   2  10   3    5.89    0.43
  -3 -10  -3    3.31    0.39
  -3 -10  -3    3.73    0.34
   3  10   3    3.70    0.27
   3  10   3    3.08    0.32
   3  10   3    3.39    0.34
   3  10   3    3.34    0.28
  -4 -10  -3    4.92    0.44
  -4 -10  -3    4.73    0.40
   4  10   3    4.81    0.32
   4  10   3    4.69    0.33
   4  10   3    4.08    0.37
   4  10   3    4.44    0.36
  -5 -10  -3   -0.09    0.14
  -5 -10  -3    0.11    0.12
   5  10   3    0.00    0.11
   5  10   3    0.07    0.11
  -6 -10  -3    0.12    0.11
  -6 -10  -3    0.33    0.16
  -6 -10  -3    0.20    0.11
   6  10   3    0.41    0.12
   6  10   3    0.26    0.12
  -7 -10  -3    5.56    0.38
  -7 -10  -3    5.53    0.46
  -7 -10  -3    5.22    0.38
   7  10   3    6.63    0.40
   7  10   3    5.41    0.39
  -2 -11  -3    0.04    0.23
   2  11   3    0.22    0.16
   2  11   3    0.08    0.15
  -3 -11  -3    6.56    0.54
  -3 -11  -3    7.39    0.63
   3  11   3    6.78    0.45
   3  11   3    6.10    0.45
  -4 -11  -3    1.78    0.29
  -4 -11  -3    1.08    0.27
   4  11   3    1.27    0.19
   4  11   3    1.20    0.19
  -5 -11  -3    6.71    0.59
   5  11   3    7.66    0.48
   5  11   3    7.03    0.47
   4   8  -4    0.00    0.10
   4   8  -4    0.24    0.10
  -4  -8   4    0.32    0.16
  -4  -8   4    0.42    0.23
  -4  -8   4    0.30    0.15
   3   8  -4    6.57    0.37
   3   8  -4    5.80    0.37
  -3  -8   4    5.49    0.54
  -3  -8   4    5.08    0.39
  -3  -8   4    5.45    0.39
  -3  -8   4    5.69    0.54
   2   8  -4   21.04    1.03
   2   8  -4   20.57    1.04
  -2  -8   4   18.61    1.07
  -2  -8   4   19.67    1.02
  -2  -8   4   19.05    1.38
  -2  -8   4   20.37    1.03
  -2  -8   4   19.13    1.06
   1   8  -4    0.68    0.13
   1   8  -4    0.54    0.13
  -1  -8   4    0.17    0.15
  -1  -8   4    0.30    0.16
  -1  -8   4    0.36    0.15
   0   8  -4    0.00    0.12
   0   8  -4   -0.08    0.12
   0  -8   4    0.16    0.16
   0  -8   4   -0.03    0.14
   0  -8   4    0.25    0.15
  -1   8  -4    1.80    0.21
  -1   8  -4    1.85    0.26
   1  -8   4    2.39    0.30
  -6  -7   4    0.45    0.24
  -6  -7   4    0.08    0.11
  -6  -7   4    0.40    0.12
   5   7  -4    1.27    0.17
   5   7  -4    1.23    0.17
  -5  -7   4    1.08    0.25
  -5  -7   4    0.91    0.14
  -5  -7   4    1.10    0.15
   4   7  -4    3.95    0.26
   4   7  -4    4.20    0.27
  -4  -7   4    3.82    0.40
  -4  -7   4    3.30    0.27
  -4  -7   4    3.32    0.27
   3   7  -4    8.95    0.48
   3   7  -4    8.29    0.47
  -3  -7   4    7.07    0.51
  -3  -7   4    8.91    0.48
  -3  -7   4    8.88    0.49
  -3  -7   4    7.52    0.51
  -3  -7   4    9.07    0.63
   2   7  -4    5.36    0.33
   2   7  -4    5.41    0.34
  -2  -7   4    5.32    0.35
  -2  -7   4    5.10    0.38
  -2  -7   4    5.27    0.39
  -2  -7   4    5.54    0.46
  -2  -7   4    5.44    0.34
   1   7  -4    0.96    0.15
   1   7  -4    1.22    0.15
  -1  -7   4    0.98    0.14
  -1  -7   4    0.89    0.13
  -1  -7   4    0.91    0.17
  -1  -7   4    1.03    0.20
   0   7  -4    2.25    0.37
   0   7  -4    1.88    0.19
   0   7  -4    1.79    0.19
  -1   7  -4    3.19    0.25
  -1   7  -4    3.37    0.25
   1  -7   4    2.71    0.31
   1  -7   4    2.99    0.25
   1  -7   4    2.92    0.28
   1  -7   4    2.55    0.28
   1  -7   4    2.89    0.25
  -2   7  -4    9.32    0.53
  -2   7  -4    8.99    0.54
   2  -7   4    9.54    0.52
   2  -7   4    9.03    0.51
   2  -7   4   10.35    0.72
  -3   7  -4    0.30    0.14
  -3   7  -4    0.17    0.14
   3  -7   4    0.44    0.15
   7   6  -4    1.43    0.20
   7   6  -4    2.13    0.22
  -7  -6   4    1.54    0.29
  -6  -6   4    1.03    0.15
  -6  -6   4    0.74    0.23
  -6  -6   4    0.62    0.10
   5   6  -4   10.48    0.56
   5   6  -4   10.13    0.56
  -5  -6   4   10.39    0.73
  -5  -6   4    9.84    0.56
  -5  -6   4   10.25    0.56
   4   6  -4    0.42    0.09
   4   6  -4    0.46    0.10
  -4  -6   4    0.51    0.10
  -4  -6   4    0.52    0.10
  -4  -6   4    0.40    0.12
   3   6  -4    0.12    0.07
   3   6  -4    0.07    0.08
   3   6  -4    0.16    0.11
   3   6  -4    0.03    0.10
  -3  -6   4    0.10    0.13
  -3  -6   4    0.11    0.07
  -3  -6   4    0.02    0.07
  -3  -6   4   -0.01    0.09
  -3  -6   4   -0.01    0.10
   2   6  -4    1.08    0.13
   2   6  -4    1.04    0.14
   2   6  -4    1.15    0.17
   2   6  -4    1.09    0.15
  -2  -6   4    0.88    0.13
  -2  -6   4    1.30    0.22
  -2  -6   4    1.26    0.19
  -2  -6   4    1.22    0.14
   1   6  -4    4.54    0.28
   1   6  -4    4.65    0.28
   1   6  -4    4.54    0.28
   1   6  -4    4.45    0.28
  -1  -6   4    4.15    0.28
  -1  -6   4    4.26    0.28
  -1  -6   4    4.71    0.37
   0   6  -4    3.51    0.23
   0   6  -4    3.33    0.22
   0   6  -4    2.85    0.22
   0   6  -4    3.25    0.23
   0  -6   4    3.05    0.23
   0  -6   4    3.29    0.25
   0  -6   4    3.32    0.25
   0  -6   4    3.10    0.32
   0  -6   4    3.33    0.23
  -1   6  -4    2.90    0.23
  -1   6  -4    3.48    0.23
  -1   6  -4    2.95    0.23
  -1   6  -4    3.27    0.23
  -2   6  -4    0.01    0.09
  -2   6  -4    0.17    0.09
  -2   6  -4    0.09    0.16
  -2   6  -4    0.05    0.10
  -2   6  -4    0.10    0.08
   2  -6   4    0.10    0.11
   2  -6   4    0.14    0.11
   2  -6   4    0.07    0.09
   2  -6   4    0.11    0.10
   2  -6   4   -0.01    0.11
  -3   6  -4   17.42    0.88
  -3   6  -4   17.13    0.89
   3  -6   4   15.99    0.85
   3  -6   4   17.65    0.87
   3  -6   4   16.64    1.17
  -4   6  -4    7.69    0.48
  -4   6  -4    7.72    0.48
   4  -6   4    8.37    0.45
   4  -6   4    8.37    0.63
   4  -6   4    8.81    0.45
  -5   6  -4    2.01    0.26
  -5   6  -4    1.63    0.26
   5  -6   4    2.32    0.30
   7   5  -4    1.82    0.21
   7   5  -4    1.87    0.21
  -7  -5   4    2.07    0.19
  -7  -5   4    1.77    0.28
  -7  -5   4    1.78    0.20
   6   5  -4    2.66    0.21
   6   5  -4    2.94    0.22
  -6  -5   4    2.57    0.21
  -6  -5   4    2.68    0.21
  -6  -5   4    1.97    0.32
   5   5  -4    4.63    0.32
   5   5  -4    5.82    0.32
   5   5  -4    4.65    0.32
   5   5  -4    5.25    0.32
  -5  -5   4    5.06    0.32
  -5  -5   4    5.10    0.41
  -5  -5   4    5.18    0.32
   4   5  -4   10.61    0.61
   4   5  -4   11.40    0.60
   4   5  -4   11.40    0.60
   4   5  -4   11.41    0.60
  -4  -5   4   11.00    0.60
  -4  -5   4   10.93    0.60
  -4  -5   4   11.72    0.60
  -4  -5   4   11.24    0.76
  -4  -5   4   10.99    0.59
  -3  -5   4    2.11    0.24
   2   5  -4    0.58    0.10
   2   5  -4    0.44    0.09
  -2  -5   4    0.36    0.12
  -2  -5   4    0.47    0.09
  -2  -5   4    0.42    0.09
   1   5  -4    0.11    0.07
   1   5  -4    0.07    0.05
   1   5  -4    0.11    0.06
   1   5  -4    0.02    0.07
  -1  -5   4    0.02    0.07
  -1  -5   4    0.01    0.07
  -1  -5   4    0.04    0.10
  -1  -5   4   -0.05    0.07
  -1  -5   4   -0.05    0.07
   0   5  -4    1.20    0.20
   0   5  -4    1.42    0.13
   0   5  -4    1.12    0.13
   0   5  -4    1.50    0.14
   0   5  -4    1.34    0.14
   0  -5   4    0.89    0.14
   0  -5   4    1.25    0.15
   0  -5   4    1.26    0.15
   0  -5   4    1.06    0.14
   0  -5   4    1.21    0.21
  -1   5  -4    0.92    0.13
  -1   5  -4    0.90    0.11
  -1   5  -4    0.80    0.10
  -1   5  -4    1.06    0.14
  -1   5  -4    0.88    0.15
   1  -5   4    0.67    0.10
   1  -5   4    0.65    0.10
   1  -5   4    0.67    0.10
   1  -5   4    0.79    0.15
   1  -5   4    0.85    0.11
  -2   5  -4    1.81    0.17
  -2   5  -4    2.10    0.18
  -2   5  -4    1.80    0.24
  -2   5  -4    1.93    0.17
  -2   5  -4    1.71    0.17
   2  -5   4    1.88    0.18
   2  -5   4    1.93    0.18
   2  -5   4    2.03    0.17
   2  -5   4    2.08    0.25
   2  -5   4    1.89    0.17
  -3   5  -4    1.94    0.19
  -3   5  -4    1.91    0.18
   3  -5   4    2.16    0.21
   3  -5   4    2.12    0.18
   3  -5   4    2.04    0.20
   3  -5   4    2.62    0.27
   3  -5   4    2.24    0.18
  -4   5  -4    5.94    0.35
  -4   5  -4    5.77    0.36
  -4   5  -4    5.52    0.49
  -4   5  -4    5.55    0.37
  -4   5  -4    5.63    0.36
   4  -5   4    6.09    0.34
   4  -5   4    6.31    0.48
   4  -5   4    5.78    0.34
  -5   5  -4    3.33    0.25
  -5   5  -4    2.99    0.25
   5  -5   4    2.83    0.31
   5  -5   4    2.57    0.22
   5  -5   4    3.16    0.23
  -6   5  -4    6.74    0.42
  -6   5  -4    6.34    0.43
   6  -5   4    5.97    0.51
   8   4  -4    0.52    0.15
   8   4  -4    0.75    0.16
  -8  -4   4    0.50    0.11
  -8  -4   4    0.29    0.11
   7   4  -4    8.34    0.51
   7   4  -4    9.22    0.51
  -7  -4   4    9.58    0.51
  -7  -4   4    8.86    0.51
   6   4  -4   -0.08    0.08
   6   4  -4   -0.12    0.12
   6   4  -4    0.00    0.07
  -6  -4   4   -0.11    0.07
  -6  -4   4   -0.04    0.07
   5   4  -4    4.18    0.26
   5   4  -4    3.97    0.28
   5   4  -4    4.09    0.25
   5   4  -4    4.37    0.28
  -5  -4   4    3.41    0.34
  -5  -4   4    3.42    0.26
  -5  -4   4    4.59    0.27
  -5  -4   4    4.04    0.27
  -5  -4   4    3.87    0.27
   4   4  -4    0.18    0.07
   4   4  -4    0.25    0.08
  -4  -4   4    0.12    0.11
   3   4  -4   12.81    0.70
   3   4  -4   13.68    0.70
  -3  -4   4   13.61    0.89
  -3  -4   4   14.69    0.70
  -3  -4   4   13.21    0.71
   2   4  -4    1.72    0.15
   2   4  -4    1.55    0.14
  -2  -4   4    1.60    0.15
  -2  -4   4    1.49    0.14
  -2  -4   4    1.68    0.19
  -2  -4   4    1.49    0.15
  -2  -4   4    1.45    0.14
   1   4  -4    9.78    0.53
   1   4  -4    9.60    0.52
  -1  -4   4    9.78    0.66
  -1  -4   4   10.06    0.52
  -1  -4   4    9.76    0.52
  -1  -4   4   10.11    0.53
  -1  -4   4   10.26    0.52
   0   4  -4    4.67    0.27
   0   4  -4    4.32    0.33
   0   4  -4    4.33    0.26
   0   4  -4    4.23    0.27
   0   4  -4    4.42    0.27
   0  -4   4    4.13    0.26
   0  -4   4    4.37    0.26
   0  -4   4    4.27    0.26
   0  -4   4    4.31    0.26
  -1   4  -4   50.68    2.46
  -1   4  -4   51.61    2.43
  -1   4  -4   45.09    2.46
  -1   4  -4   50.57    3.11
  -1   4  -4   49.98    2.43
   1  -4   4   50.02    2.43
   1  -4   4   51.39    3.23
   1  -4   4   49.94    2.43
   1  -4   4   52.28    2.46
   1  -4   4   49.82    2.46
  -2   4  -4   18.23    0.93
  -2   4  -4   17.75    0.91
  -2   4  -4   17.62    1.17
  -2   4  -4   19.29    0.93
  -2   4  -4   19.32    0.92
   2  -4   4   17.24    1.22
   2  -4   4   18.49    0.91
   2  -4   4   18.35    0.92
  -3   4  -4    5.40    0.30
  -3   4  -4    5.01    0.30
  -3   4  -4    5.14    0.30
  -3   4  -4    4.97    0.30
  -3   4  -4    4.91    0.39
   3  -4   4    5.25    0.29
   3  -4   4    4.88    0.41
   3  -4   4    4.60    0.29
  -4   4  -4    0.25    0.09
  -4   4  -4    0.30    0.08
  -4   4  -4    0.36    0.09
  -4   4  -4    0.24    0.09
   4  -4   4    0.21    0.08
   4  -4   4    0.32    0.08
   4  -4   4    0.06    0.10
  -5   4  -4    2.37    0.21
  -5   4  -4    2.53    0.22
  -5   4  -4    2.48    0.22
  -5   4  -4    2.49    0.22
  -5   4  -4    2.58    0.31
   5  -4   4    2.55    0.20
   5  -4   4    2.76    0.20
   5  -4   4    2.31    0.27
  -6   4  -4   -0.21    0.10
  -6   4  -4   -0.15    0.10
   6  -4   4   -0.18    0.09
   6  -4   4    0.01    0.12
  -7   4  -4    1.02    0.17
  -7   4  -4    1.22    0.18
   7  -4   4    0.93    0.20
   8   3  -4    3.58    0.31
   8   3  -4    2.79    0.31
   8   3  -4    3.13    0.29
  -8  -3   4    2.95    0.25
  -8  -3   4    2.85    0.25
   7   3  -4   28.91    1.58
   7   3  -4   30.35    1.56
   7   3  -4   31.55    1.83
   7   3  -4   29.12    1.56
   7   3  -4   33.12    1.55
  -7  -3   4   32.69    1.57
  -7  -3   4   31.76    1.55
   6   3  -4    4.30    0.26
   6   3  -4    3.92    0.26
   6   3  -4    3.91    0.29
   6   3  -4    3.12    0.29
  -6  -3   4    3.93    0.27
  -6  -3   4    3.60    0.27
  -6  -3   4    4.05    0.26
  -6  -3   4    4.26    0.27
   5   3  -4    3.28    0.22
   5   3  -4    3.21    0.22
   4   3  -4    5.45    0.34
   4   3  -4    6.04    0.35
   4   3  -4    6.28    0.34
   4   3  -4    6.03    0.34
  -4  -3   4    6.36    0.35
  -4  -3   4    5.58    0.35
   3   3  -4   29.28    1.39
   3   3  -4   27.77    1.39
   3   3  -4   29.05    1.41
   3   3  -4   28.83    1.41
  -3  -3   4   27.61    1.39
  -3  -3   4   26.57    1.77
  -3  -3   4   28.70    1.41
   2   3  -4    4.79    0.29
   2   3  -4    5.25    0.29
   2   3  -4    5.00    0.29
   2   3  -4    4.77    0.29
  -2  -3   4    4.92    0.29
  -2  -3   4    5.09    0.29
  -2  -3   4    4.97    0.28
  -2  -3   4    5.12    0.29
  -2  -3   4    4.54    0.35
   1   3  -4    5.16    0.29
   1   3  -4    5.48    0.30
   1   3  -4    4.83    0.29
   1   3  -4    5.11    0.29
  -1  -3   4    4.43    0.35
  -1  -3   4    5.31    0.29
  -1  -3   4    5.27    0.29
   0   3  -4    1.65    0.17
   0   3  -4    1.81    0.15
   0   3  -4    1.71    0.14
   0   3  -4    1.70    0.15
   0   3  -4    1.83    0.14
   0  -3   4    1.58    0.13
   0  -3   4    1.74    0.14
   0  -3   4    1.60    0.13
   0  -3   4    1.79    0.14
  -1   3  -4   12.51    0.64
  -1   3  -4   12.02    0.81
  -1   3  -4   13.19    0.65
  -1   3  -4   13.49    0.66
  -1   3  -4   12.58    0.64
   1  -3   4   12.67    0.64
   1  -3   4   12.63    0.64
   1  -3   4   12.62    0.65
   1  -3   4   12.62    0.65
  -2   3  -4    0.99    0.11
  -2   3  -4    0.91    0.10
  -2   3  -4    0.78    0.11
  -2   3  -4    1.03    0.12
  -2   3  -4    0.78    0.15
   2  -3   4    0.70    0.09
   2  -3   4    0.67    0.11
   2  -3   4    0.60    0.13
  -3   3  -4    3.73    0.30
  -3   3  -4    3.02    0.21
  -3   3  -4    3.06    0.22
  -3   3  -4    3.12    0.22
  -3   3  -4    3.86    0.22
   3  -3   4    3.88    0.22
   3  -3   4    3.56    0.22
   3  -3   4    3.22    0.30
   3  -3   4    3.35    0.22
   3  -3   4    3.56    0.22
  -4   3  -4   11.35    0.60
  -4   3  -4   10.60    0.76
  -4   3  -4   11.67    0.60
  -4   3  -4   11.58    0.59
  -4   3  -4   11.51    0.59
   4  -3   4   10.97    0.79
   4  -3   4   11.63    0.58
   4  -3   4   11.73    0.59
  -5   3  -4    2.83    0.20
  -5   3  -4    2.41    0.18
  -5   3  -4    2.53    0.20
  -5   3  -4    2.58    0.18
   5  -3   4    2.29    0.29
   5  -3   4    2.37    0.19
   5  -3   4    2.63    0.19
   5  -3   4    2.34    0.20
   5  -3   4    2.41    0.20
  -6   3  -4    1.98    0.19
  -6   3  -4    1.90    0.18
  -6   3  -4    1.68    0.19
  -6   3  -4    1.70    0.17
   6  -3   4    1.64    0.17
   6  -3   4    1.31    0.20
   6  -3   4    1.81    0.17
   6  -3   4    2.06    0.25
   6  -3   4    1.66    0.23
   6  -3   4    1.35    0.20
   6  -3   4    1.49    0.22
  -7   3  -4    7.60    0.45
  -7   3  -4    8.19    0.46
   7  -3   4    8.26    0.61
   7  -3   4    7.72    0.46
   7  -3   4    7.85    0.43
   7  -3   4    7.52    0.44
   7  -3   4    6.62    0.57
   7  -3   4    7.80    0.46
   7  -3   4    7.80    0.51
  -8   3  -4    2.95    0.30
  -8   3  -4    2.87    0.29
   8   2  -4   13.17    0.69
   8   2  -4   11.79    0.81
   8   2  -4   12.53    0.69
  -8  -2   4   13.26    0.70
  -8  -2   4   12.45    0.69
   7   2  -4    1.58    0.20
   7   2  -4    1.85    0.20
   7   2  -4    1.53    0.21
  -7  -2   4    1.68    0.17
  -7  -2   4    1.70    0.17
   6   2  -4   -0.04    0.07
   6   2  -4   -0.06    0.08
   6   2  -4   -0.16    0.10
   6   2  -4   -0.03    0.11
  -6  -2   4    0.01    0.07
  -6  -2   4   -0.10    0.07
  -6  -2   4   -0.11    0.07
  -6  -2   4   -0.02    0.07
   5   2  -4    6.32    0.36
   5   2  -4    6.36    0.35
   5   2  -4    6.10    0.37
   5   2  -4    6.46    0.37
  -5  -2   4    6.29    0.36
  -5  -2   4    5.72    0.36
  -5  -2   4    6.89    0.37
  -5  -2   4    6.53    0.36
   4   2  -4    0.08    0.07
   4   2  -4    0.27    0.08
  -4  -2   4    0.13    0.07
  -4  -2   4    0.09    0.07
  -4  -2   4    0.01    0.07
  -4  -2   4    0.15    0.07
   3   2  -4    0.85    0.11
   3   2  -4    0.99    0.11
  -3  -2   4    0.77    0.12
  -3  -2   4    0.95    0.13
  -3  -2   4    1.15    0.12
  -3  -2   4    1.06    0.13
   2   2  -4   39.15    1.88
   2   2  -4   37.25    1.88
   2   2  -4   36.64    1.90
   2   2  -4   39.03    1.90
  -2  -2   4   37.93    1.88
  -2  -2   4   41.02    1.91
  -2  -2   4   40.27    2.40
   1   2  -4   37.13    1.77
   1   2  -4   35.75    1.80
   1   2  -4   37.27    1.80
   1   2  -4   38.41    1.77
  -1  -2   4   36.12    1.80
  -1  -2   4   39.13    1.78
  -1  -2   4   31.28    2.26
  -1  -2   4   36.87    1.80
  -1  -2   4   37.08    1.77
   0   2  -4   35.54    1.79
   0   2  -4   35.85    1.77
   0   2  -4   35.22    1.77
   0   2  -4   36.65    2.25
   0   2  -4   36.96    1.79
   0  -2   4   37.58    1.79
   0  -2   4   35.84    2.25
   0  -2   4   36.98    1.79
   0  -2   4   36.34    1.77
   0  -2   4   37.65    1.77
  -1   2  -4   73.12    4.01
  -1   2  -4   58.61    3.17
  -1   2  -4   63.30    3.17
  -1   2  -4   61.33    3.13
  -1   2  -4   65.70    3.13
  -1   2  -4   71.59    3.67
   1  -2   4   63.67    3.17
   1  -2   4   64.80    3.13
   1  -2   4   65.59    3.13
   1  -2   4   63.33    3.17
  -2   2  -4    5.98    0.33
  -2   2  -4    6.13    0.33
  -2   2  -4    5.96    0.33
  -2   2  -4    6.35    0.36
  -2   2  -4    5.98    0.41
  -2   2  -4    5.58    0.32
   2  -2   4    6.02    0.32
   2  -2   4    6.22    0.33
   2  -2   4    6.31    0.33
   2  -2   4    5.94    0.32
   2  -2   4    5.62    0.43
  -3   2  -4    3.86    0.23
  -3   2  -4    3.70    0.23
  -3   2  -4    3.63    0.23
  -3   2  -4    3.63    0.23
   3  -2   4    3.98    0.22
   3  -2   4    3.69    0.22
   3  -2   4    4.18    0.23
   3  -2   4    3.71    0.22
   3  -2   4    3.01    0.30
  -4   2  -4    5.27    0.31
  -4   2  -4    5.66    0.31
  -4   2  -4    5.44    0.32
  -4   2  -4    5.41    0.31
   4  -2   4    5.80    0.31
   4  -2   4    4.69    0.42
   4  -2   4    6.04    0.31
   4  -2   4    5.80    0.31
   4  -2   4    5.34    0.31
  -5   2  -4    2.79    0.19
  -5   2  -4    2.92    0.21
  -5   2  -4    2.92    0.19
  -5   2  -4    2.95    0.21
   5  -2   4    2.42    0.20
   5  -2   4    2.60    0.20
   5  -2   4    2.71    0.19
   5  -2   4    2.52    0.19
  -6   2  -4    1.15    0.13
  -6   2  -4    0.89    0.14
  -6   2  -4    1.13    0.15
  -6   2  -4    1.01    0.13
   6  -2   4    0.82    0.15
   6  -2   4    1.13    0.18
   6  -2   4    1.15    0.14
   6  -2   4    1.27    0.16
   6  -2   4    1.04    0.16
   6  -2   4    1.02    0.14
   6  -2   4    1.33    0.22
  -7   2  -4    3.58    0.26
  -7   2  -4    3.40    0.25
   7  -2   4    3.59    0.25
   7  -2   4    3.48    0.25
   7  -2   4    3.29    0.35
   7  -2   4    3.31    0.27
   7  -2   4    3.31    0.27
  -8   2  -4    8.73    0.50
  -8   2  -4    8.96    0.50
   8  -2   4    8.25    0.51
   8  -2   4    8.05    0.52
   8   1  -4    2.06    0.32
  -8  -1   4    2.40    0.26
  -8  -1   4    2.68    0.26
   7   1  -4   -0.01    0.09
   7   1  -4    0.00    0.11
   7   1  -4    0.06    0.10
   7   1  -4    0.19    0.13
   7   1  -4    0.08    0.13
  -7  -1   4   -0.02    0.09
  -7  -1   4    0.17    0.10
   6   1  -4    8.65    0.47
   6   1  -4    8.31    0.45
   6   1  -4    9.33    0.46
   6   1  -4    8.23    0.55
   6   1  -4    8.36    0.47
  -6  -1   4    7.21    0.46
  -6  -1   4    8.41    0.46
   5   1  -4   40.79    2.05
   5   1  -4   42.02    2.08
   5   1  -4   42.56    2.42
  -5  -1   4   42.92    2.09
  -5  -1   4   44.10    2.06
  -5  -1   4   39.26    2.06
  -5  -1   4   44.28    2.09
   4   1  -4   36.94    1.84
   4   1  -4   39.22    1.86
   4   1  -4   34.24    1.86
   4   1  -4   40.18    2.18
  -4  -1   4   36.02    1.87
  -4  -1   4   38.11    1.85
  -4  -1   4   37.27    1.85
  -4  -1   4   41.08    1.88
   3   1  -4    4.52    0.25
   3   1  -4    3.99    0.25
   3   1  -4    4.55    0.30
   3   1  -4    4.29    0.25
   3   1  -4    4.41    0.25
  -3  -1   4    4.71    0.25
  -3  -1   4    3.99    0.25
   2   1  -4    2.71    0.17
   2   1  -4    2.48    0.19
   2   1  -4    2.19    0.15
   2   1  -4    2.19    0.16
   2   1  -4    2.34    0.15
  -2  -1   4    2.30    0.16
  -2  -1   4    2.53    0.16
  -2  -1   4    2.35    0.16
  -2  -1   4    2.43    0.16
   1   1  -4   40.71    2.04
   1   1  -4   42.26    2.04
   1   1  -4   42.52    2.06
   1   1  -4   42.45    2.06
  -1  -1   4   40.38    2.04
  -1  -1   4   42.45    2.07
  -1  -1   4   43.62    2.06
  -1  -1   4   41.40    2.59
  -1  -1   4   43.85    2.04
   0   1  -4    0.01    0.05
   0   1  -4   -0.04    0.05
   0   1  -4   -0.01    0.05
   0   1  -4   -0.01    0.05
   0   1  -4   -0.03    0.05
   0  -1   4    0.04    0.05
   0  -1   4   -0.02    0.03
   0  -1   4   -0.02    0.05
   0  -1   4   -0.05    0.05
   0  -1   4   -0.02    0.05
  -1   1  -4    2.91    0.21
  -1   1  -4    3.06    0.18
  -1   1  -4    3.14    0.20
  -1   1  -4    2.92    0.18
  -1   1  -4    2.90    0.18
  -1   1  -4    3.05    0.18
   1  -1   4    3.10    0.18
   1  -1   4    3.18    0.18
   1  -1   4    3.02    0.18
   1  -1   4    3.04    0.18
  -2   1  -4    2.90    0.18
  -2   1  -4    2.90    0.18
  -2   1  -4    2.88    0.18
  -2   1  -4    3.03    0.18
  -2   1  -4    2.58    0.18
   2  -1   4    2.90    0.18
   2  -1   4    2.87    0.18
   2  -1   4    3.00    0.18
   2  -1   4    3.01    0.18
  -3   1  -4    0.05    0.06
  -3   1  -4   -0.04    0.06
  -3   1  -4    0.02    0.06
  -3   1  -4    0.01    0.06
   3  -1   4    0.01    0.06
   3  -1   4   -0.05    0.07
   3  -1   4    0.02    0.05
   3  -1   4    0.02    0.05
   3  -1   4   -0.02    0.05
  -4   1  -4   26.40    1.34
  -4   1  -4   25.61    1.34
  -4   1  -4   26.40    1.32
  -4   1  -4   25.31    1.33
   4  -1   4   27.30    1.34
   4  -1   4   26.99    1.32
   4  -1   4   27.97    1.75
   4  -1   4   29.25    1.34
   4  -1   4   27.85    1.32
  -5   1  -4   12.16    0.64
  -5   1  -4   12.49    0.64
  -5   1  -4   11.79    0.65
  -5   1  -4   12.29    0.65
   5  -1   4   13.96    0.64
   5  -1   4   12.89    0.65
  -6   1  -4   10.06    0.57
  -6   1  -4    9.87    0.56
  -6   1  -4   11.22    0.57
  -6   1  -4   10.95    0.57
   6  -1   4   10.88    0.56
   6  -1   4   11.47    0.57
   6  -1   4   10.37    0.56
   6  -1   4   10.95    0.75
   6  -1   4   10.80    0.57
  -7   1  -4    0.40    0.09
  -7   1  -4    0.40    0.10
  -7   1  -4    0.43    0.08
  -7   1  -4    0.33    0.08
   7  -1   4    0.28    0.11
   7  -1   4    0.30    0.09
   7  -1   4    0.25    0.10
   7  -1   4    0.16    0.08
  -8   1  -4    3.52    0.25
  -8   1  -4    3.03    0.25
  -9   1  -4    0.30    0.13
  -9   1  -4    0.25    0.14
   9  -1   4    0.28    0.13
   9  -1   4    0.35    0.14
   8   0  -4    1.01    0.20
  -8   0   4    1.27    0.18
  -8   0   4    1.55    0.25
   7   0  -4    2.85    0.25
   7   0  -4    2.79    0.25
   7   0  -4    2.69    0.21
   7   0  -4    2.63    0.21
   7   0  -4    2.53    0.28
  -7   0   4    3.20    0.25
  -7   0   4    3.49    0.26
   6   0  -4    2.54    0.18
   6   0  -4    2.67    0.20
   6   0  -4    2.51    0.18
   6   0  -4    2.59    0.20
  -6   0   4    2.93    0.22
  -6   0   4    2.48    0.21
  -6   0   4    2.38    0.21
  -6   0   4    2.36    0.21
   5   0  -4   22.23    1.27
   5   0  -4   22.90    1.25
   5   0  -4   27.32    1.49
   5   0  -4   27.07    1.27
   5   0  -4   27.96    1.25
  -5   0   4   27.35    1.29
  -5   0   4   25.95    1.26
  -5   0   4   26.76    1.27
  -5   0   4   22.89    1.28
   4   0  -4   28.55    1.36
   4   0  -4   27.24    1.34
   4   0  -4   28.57    1.59
   4   0  -4   27.59    1.36
   4   0  -4   26.92    1.34
  -4   0   4   27.93    1.37
  -4   0   4   28.00    1.37
  -4   0   4   27.34    1.35
  -4   0   4   25.39    1.35
   3   0  -4   20.16    1.07
   3   0  -4   18.44    0.91
   3   0  -4   17.96    0.91
   3   0  -4   18.13    0.89
   3   0  -4   17.70    0.90
  -3   0   4   18.03    0.91
  -3   0   4   18.98    0.90
  -3   0   4   15.39    0.91
  -3   0   4   19.72    0.91
   2   0  -4   10.93    0.58
   2   0  -4   11.73    0.69
   2   0  -4   11.49    0.59
   2   0  -4   11.32    0.59
   2   0  -4   11.55    0.58
  -2   0   4   11.44    0.59
  -2   0   4   12.56    0.59
  -2   0   4   11.62    0.58
  -2   0   4   12.44    0.59
   1   0  -4    0.18    0.04
   1   0  -4    0.15    0.06
   1   0  -4    0.23    0.05
   1   0  -4    0.13    0.05
   1   0  -4    0.20    0.05
  -1   0   4    0.17    0.05
  -1   0   4    0.13    0.05
  -1   0   4    0.19    0.05
  -1   0   4    0.15    0.05
   0   0  -4    0.00    0.04
   0   0  -4    0.02    0.04
   0   0  -4   -0.02    0.04
   0   0  -4    0.02    0.04
   0   0  -4    0.01    0.05
   0   0   4    0.00    0.04
   0   0   4    0.06    0.04
   0   0   4    0.02    0.04
   0   0   4    0.03    0.04
  -1   0  -4    1.21    0.10
  -1   0  -4    1.33    0.11
  -1   0  -4    1.30    0.11
  -1   0  -4    1.50    0.12
  -1   0  -4    1.28    0.11
   1   0   4    1.31    0.11
   1   0   4    1.33    0.11
   1   0   4    1.28    0.11
   1   0   4    1.27    0.11
  -2   0  -4    0.00    0.04
  -2   0  -4   -0.01    0.05
  -2   0  -4   -0.09    0.05
  -2   0  -4   -0.05    0.05
  -2   0  -4   -0.07    0.05
   2   0   4   -0.01    0.05
   2   0   4   -0.05    0.05
   2   0   4   -0.05    0.05
   2   0   4    0.01    0.05
   2   0   4    0.00    0.04
  -3   0  -4    0.14    0.06
  -3   0  -4    0.14    0.06
  -3   0  -4    0.09    0.05
  -3   0  -4    0.17    0.06
   3   0   4    0.17    0.06
   3   0   4    0.10    0.04
   3   0   4    0.11    0.05
   3   0   4    0.13    0.06
   3   0   4    0.04    0.07
   3   0   4    0.06    0.05
  -4   0  -4   52.98    2.63
  -4   0  -4   56.05    2.63
  -4   0  -4   55.24    2.60
  -4   0  -4   54.40    2.60
   4   0   4   47.69    3.42
   4   0   4   54.66    2.60
   4   0   4   55.05    2.63
   4   0   4   57.00    3.02
   4   0   4   53.80    2.63
   4   0   4   51.62    2.60
  -5   0  -4   38.81    1.91
  -5   0  -4   35.45    1.91
  -5   0  -4   37.16    1.88
  -5   0  -4   38.46    1.89
   5   0   4   38.87    1.88
   5   0   4   42.59    2.49
   5   0   4   39.82    2.18
   5   0   4   39.09    1.91
  -6   0  -4   24.29    1.24
  -6   0  -4   26.77    1.23
  -6   0  -4   22.25    1.24
  -6   0  -4   26.10    1.23
   6   0   4   24.30    1.62
   6   0   4   25.94    1.24
   6   0   4   24.09    1.22
   6   0   4   24.87    1.24
   6   0   4   24.80    1.22
  -7   0  -4    0.21    0.07
  -7   0  -4    0.26    0.08
  -7   0  -4    0.40    0.14
  -7   0  -4    0.39    0.08
  -7   0  -4    0.34    0.09
   7   0   4    0.36    0.09
   7   0   4    0.39    0.09
   7   0   4    0.42    0.10
   7   0   4    0.38    0.10
  -8   0  -4    0.18    0.09
  -8   0  -4    0.08    0.08
  -9   0  -4    1.25    0.29
  -9   0  -4    1.61    0.19
  -9   0  -4    1.44    0.19
   9   0   4    0.81    0.20
   9   0   4    0.88    0.21
   9   0   4    1.83    0.22
   9   0   4    1.38    0.21
   8  -1  -4    8.45    0.61
  -8   1   4    8.73    0.53
  -8   1   4    7.43    0.52
   7  -1  -4   10.09    0.67
  -7   1   4    9.94    0.58
  -7   1   4   10.50    0.57
   6  -1  -4    0.82    0.10
   6  -1  -4    0.49    0.13
   6  -1  -4    0.73    0.09
   6  -1  -4    0.99    0.10
   6  -1  -4    0.81    0.09
  -6   1   4    0.51    0.11
  -6   1   4    1.13    0.20
  -6   1   4    1.06    0.16
  -6   1   4    0.68    0.12
   5  -1  -4    1.56    0.12
   5  -1  -4    1.45    0.18
   5  -1  -4    1.55    0.11
   5  -1  -4    1.63    0.11
   5  -1  -4    1.63    0.12
  -5   1   4    1.80    0.17
  -5   1   4    1.53    0.16
  -5   1   4    1.67    0.16
  -5   1   4    1.55    0.16
   4  -1  -4    1.98    0.20
   4  -1  -4    2.14    0.13
   4  -1  -4    2.07    0.13
   4  -1  -4    2.16    0.13
   4  -1  -4    1.95    0.13
  -4   1   4    1.69    0.16
  -4   1   4    2.33    0.16
   3  -1  -4   30.21    1.50
   3  -1  -4   32.05    1.50
   3  -1  -4   29.88    1.48
   3  -1  -4   30.99    1.76
   3  -1  -4   30.29    1.48
  -3   1   4   33.70    1.50
  -3   1   4   30.18    1.49
  -3   1   4   28.51    1.51
   2  -1  -4   26.72    1.17
   2  -1  -4   24.84    1.17
   2  -1  -4   23.74    1.19
   2  -1  -4   26.94    1.19
   2  -1  -4   25.86    1.40
  -2   1   4   23.32    1.18
  -2   1   4   24.21    1.20
  -2   1   4   21.26    1.18
  -2   1   4   21.73    1.19
   1  -1  -4   26.35    1.30
   1  -1  -4   26.33    1.31
   1  -1  -4   25.19    1.31
   1  -1  -4   31.04    1.30
   1  -1  -4   26.17    1.53
  -1   1   4   28.45    1.32
  -1   1   4   24.34    1.32
  -1   1   4   27.45    1.30
  -1   1   4   26.86    1.30
   0  -1  -4   14.69    0.88
   0  -1  -4   15.22    0.74
   0  -1  -4   15.20    0.75
   0  -1  -4   15.96    0.74
   0   1   4   14.95    0.75
   0   1   4   15.22    0.88
   0   1   4   14.48    0.76
   0   1   4   17.24    0.94
   0   1   4   15.53    0.76
   0   1   4   14.20    0.75
  -1  -1  -4   11.60    0.54
  -1  -1  -4   10.91    0.54
  -1  -1  -4   10.12    0.66
  -1  -1  -4   10.25    0.53
  -1  -1  -4   10.80    0.62
  -1  -1  -4   10.86    0.53
   1   1   4   10.36    0.54
   1   1   4   11.04    0.54
   1   1   4   10.69    0.53
   1   1   4   10.14    0.53
   1   1   4   11.11    0.63
  -2  -1  -4   21.36    1.06
  -2  -1  -4   22.82    1.07
  -2  -1  -4   22.19    1.08
  -2  -1  -4   20.91    1.08
  -2  -1  -4   20.92    1.25
   2   1   4   21.50    1.08
   2   1   4   23.63    1.25
   2   1   4   21.56    1.08
   2   1   4   21.86    1.07
   2   1   4   22.45    1.07
  -3  -1  -4   25.90    1.25
  -3  -1  -4   26.87    1.25
  -3  -1  -4   26.05    1.27
  -3  -1  -4   24.89    1.27
   3   1   4   24.39    1.25
   3   1   4   27.14    1.27
   3   1   4   25.02    1.27
   3   1   4   25.62    1.64
   3   1   4   26.92    1.46
   3   1   4   24.39    1.25
  -4  -1  -4    4.57    0.26
  -4  -1  -4    4.58    0.26
  -4  -1  -4    4.70    0.26
  -4  -1  -4    4.88    0.26
   4   1   4    4.78    0.27
   4   1   4    4.69    0.26
   4   1   4    5.09    0.26
   4   1   4    4.43    0.29
   4   1   4    4.59    0.33
   4   1   4    4.85    0.26
  -5  -1  -4    0.99    0.12
  -5  -1  -4    1.22    0.12
   5   1   4    1.26    0.12
   5   1   4    1.21    0.12
   5   1   4    1.35    0.12
   5   1   4    1.19    0.11
   5   1   4    0.99    0.14
  -6  -1  -4    0.14    0.09
  -6  -1  -4    0.04    0.06
  -6  -1  -4    0.04    0.06
   6   1   4    0.13    0.07
   6   1   4    0.12    0.07
  -7  -1  -4    0.06    0.08
  -7  -1  -4    0.03    0.08
   7   1   4    0.19    0.08
   7   1   4    0.12    0.08
   7   1   4    0.13    0.07
   7   1   4    0.13    0.08
  -8  -1  -4   14.54    0.81
  -8  -1  -4   14.55    0.82
  -8  -1  -4   18.21    1.08
  -8  -1  -4   15.53    0.82
  -8  -1  -4   15.98    0.81
  -9  -1  -4    0.59    0.23
  -9  -1  -4    1.16    0.15
   9   1   4    0.47    0.17
   9   1   4    0.80    0.13
   9   1   4    0.74    0.13
   9   1   4    0.40    0.17
 -10  -1  -4    0.50    0.12
 -10  -1  -4    0.72    0.12
  10   1   4    0.61    0.15
  10   1   4    0.53    0.15
   7  -2  -4    0.54    0.17
  -7   2   4    0.59    0.14
  -7   2   4    0.49    0.13
   6  -2  -4    9.99    0.63
  -6   2   4    8.91    0.54
  -6   2   4   10.33    0.54
  -6   2   4    9.47    0.53
  -6   2   4   10.34    0.53
   5  -2  -4    9.12    0.57
  -5   2   4    8.63    0.48
  -5   2   4    8.27    0.48
  -5   2   4    9.16    0.49
  -5   2   4   10.26    0.49
   4  -2  -4    0.83    0.15
  -4   2   4    0.77    0.12
  -4   2   4    0.89    0.12
  -4   2   4    0.81    0.11
  -4   2   4    0.80    0.11
   3  -2  -4    1.76    0.16
  -3   2   4    1.57    0.12
  -3   2   4    1.55    0.12
  -3   2   4    1.43    0.12
  -3   2   4    1.58    0.12
   2  -2  -4    1.08    0.13
  -2   2   4    1.28    0.13
  -2   2   4    1.13    0.09
  -2   2   4    1.25    0.09
  -2   2   4    1.15    0.09
  -2   2   4    1.26    0.09
   1  -2  -4    1.20    0.13
  -1   2   4    1.28    0.09
  -1   2   4    1.39    0.09
  -1   2   4    1.20    0.14
  -1   2   4    1.33    0.09
  -1   2   4    1.41    0.09
   0  -2  -4   33.63    1.89
   0   2   4   33.21    2.05
   0   2   4   33.92    1.60
   0   2   4   31.92    1.62
   0   2   4   32.13    1.60
   0   2   4   34.00    1.89
   0   2   4   34.65    1.62
  -1  -2  -4    4.87    0.27
  -1  -2  -4    5.68    0.33
  -1  -2  -4    4.66    0.26
  -1  -2  -4    5.72    0.27
  -1  -2  -4    5.45    0.27
   1   2   4    5.55    0.28
   1   2   4    5.21    0.27
   1   2   4    5.23    0.27
   1   2   4    5.62    0.33
   1   2   4    5.32    0.27
  -2  -2  -4  118.69    6.37
  -2  -2  -4  118.94    6.28
  -2  -2  -4  136.34    6.32
  -2  -2  -4  132.33    6.40
   2   2   4  136.38    6.28
   2   2   4  135.98    6.28
   2   2   4  136.47    7.37
   2   2   4  132.74    6.37
   2   2   4  134.76    6.37
  -3  -2  -4   59.98    3.33
  -3  -2  -4   71.20    3.33
  -3  -2  -4   65.55    3.29
  -3  -2  -4   69.27    3.29
   3   2   4   69.78    3.33
   3   2   4   72.61    3.29
   3   2   4   70.43    3.29
   3   2   4   69.17    3.33
  -4  -2  -4   72.94    3.50
  -4  -2  -4   72.90    3.50
  -4  -2  -4   69.40    3.55
  -4  -2  -4   73.10    3.55
   4   2   4   69.64    3.50
   4   2   4   76.71    3.55
   4   2   4   75.82    4.61
   4   2   4   72.07    3.51
   4   2   4   73.91    3.55
  -5  -2  -4   -0.05    0.05
  -5  -2  -4    0.01    0.05
  -5  -2  -4   -0.01    0.05
  -5  -2  -4   -0.09    0.05
   5   2   4   -0.01    0.06
   5   2   4   -0.02    0.05
   5   2   4   -0.06    0.05
   5   2   4   -0.05    0.06
  -6  -2  -4    0.98    0.13
  -6  -2  -4    0.88    0.13
  -6  -2  -4    1.04    0.13
  -6  -2  -4    1.34    0.15
  -6  -2  -4    1.05    0.13
   6   2   4    1.14    0.13
   6   2   4    1.18    0.13
   6   2   4    1.06    0.13
   6   2   4    0.93    0.13
  -7  -2  -4    2.82    0.21
  -7  -2  -4    2.69    0.21
  -7  -2  -4    2.67    0.25
   7   2   4    2.80    0.20
   7   2   4    2.75    0.20
   7   2   4    2.67    0.20
   7   2   4    2.78    0.20
  -8  -2  -4    0.26    0.10
  -8  -2  -4    0.14    0.13
  -8  -2  -4    0.37    0.09
  -8  -2  -4    0.38    0.09
  -8  -2  -4    0.09    0.09
   8   2   4    0.25    0.10
   8   2   4    0.25    0.10
  -9  -2  -4   11.89    0.61
  -9  -2  -4   10.17    0.82
  -9  -2  -4   11.52    0.61
   9   2   4   11.18    0.64
   9   2   4   11.70    0.61
   9   2   4   11.09    0.63
   9   2   4   11.25    0.61
  10   2   4    0.38    0.13
  10   2   4    0.41    0.14
   7  -3  -4    0.16    0.16
  -7   3   4    0.24    0.14
  -7   3   4    0.19    0.14
  -6   3   4    4.58    0.28
  -6   3   4    3.70    0.30
  -6   3   4    3.72    0.29
  -6   3   4    3.84    0.28
   5  -3  -4   19.51    1.13
  -5   3   4   19.27    0.96
  -5   3   4   19.66    0.95
  -5   3   4   17.70    0.96
   4  -3  -4    0.18    0.09
  -4   3   4    0.11    0.06
  -4   3   4    0.08    0.06
   3  -3  -4    6.49    0.40
  -3   3   4    6.43    0.32
  -3   3   4    5.55    0.32
   2  -3  -4   15.43    0.96
  -2   3   4   17.86    0.96
  -2   3   4   18.34    0.80
  -2   3   4   14.99    0.81
  -2   3   4   15.50    1.09
   1  -3  -4   36.39    2.07
  -1   3   4   37.42    1.77
  -1   3   4   38.75    2.26
  -1   3   4   33.45    1.77
  -1   3   4   36.48    2.07
  -1   3   4   36.07    1.74
   0  -3  -4   26.09    1.48
   0   3   4   26.73    1.26
   0   3   4   24.76    1.24
   0   3   4   25.58    1.26
   0   3   4   26.21    1.24
   0   3   4   25.99    1.48
   1   3   4    2.47    0.13
   1   3   4    2.48    0.19
   1   3   4    2.53    0.14
   1   3   4    2.09    0.19
   1   3   4    2.27    0.14
   1   3   4    2.62    0.13
  -2  -3  -4   17.88    0.86
  -2  -3  -4   17.79    0.85
   2   3   4   16.76    0.85
   2   3   4   16.89    0.87
   2   3   4   19.47    1.02
   2   3   4   16.78    0.87
   2   3   4   17.36    0.86
  -3  -3  -4   27.74    1.36
  -3  -3  -4   27.26    1.36
  -3  -3  -4   27.68    1.34
  -3  -3  -4   28.81    1.34
   3   3   4   27.32    1.34
   3   3   4   28.29    1.36
   3   3   4   28.12    1.34
   3   3   4   26.91    1.36
  -4  -3  -4    5.20    0.30
  -4  -3  -4    5.72    0.30
  -4  -3  -4    5.42    0.29
  -4  -3  -4    5.67    0.30
   4   3   4    5.47    0.30
   4   3   4    5.53    0.30
   4   3   4    5.74    0.30
   4   3   4    5.64    0.30
  -5  -3  -4   12.39    0.64
  -5  -3  -4   13.02    0.65
  -5  -3  -4   12.94    0.64
  -5  -3  -4   13.00    0.65
   5   3   4   12.13    0.65
   5   3   4   13.10    0.64
   5   3   4   12.44    0.64
   5   3   4   12.13    0.65
  -6  -3  -4   15.04    0.74
  -6  -3  -4   14.09    0.72
  -6  -3  -4   14.79    0.73
  -6  -3  -4   13.78    0.93
  -6  -3  -4   14.74    0.74
   6   3   4   14.15    0.73
   6   3   4   14.44    0.74
   6   3   4   13.85    0.73
   6   3   4   14.30    0.74
  -7  -3  -4    0.17    0.09
  -7  -3  -4   -0.03    0.06
  -7  -3  -4    0.14    0.08
  -7  -3  -4    0.12    0.08
   7   3   4    0.14    0.07
   7   3   4    0.11    0.07
   7   3   4    0.15    0.07
   7   3   4    0.14    0.07
  -8  -3  -4    6.14    0.38
  -8  -3  -4    5.53    0.39
  -8  -3  -4    7.10    0.48
   8   3   4    6.91    0.38
   8   3   4    6.25    0.38
   8   3   4    6.71    0.38
   8   3   4    6.42    0.38
  -9  -3  -4    7.92    0.59
   9   3   4    6.68    0.47
   9   3   4    8.18    0.44
   9   3   4    8.20    0.44
   9   3   4    7.39    0.47
 -10  -3  -4    5.88    0.37
 -10  -3  -4    5.92    0.37
  10   3   4    6.31    0.39
  10   3   4    6.13    0.39
   7  -4  -4    5.57    0.45
  -7   4   4    6.02    0.42
  -7   4   4    5.73    0.42
  -6   4   4    1.07    0.14
  -6   4   4    1.07    0.17
  -6   4   4    0.93    0.16
   5  -4  -4    5.88    0.42
  -5   4   4    6.07    0.35
  -5   4   4    6.35    0.36
   4  -4  -4   15.95    0.92
  -4   4   4   15.93    0.78
  -4   4   4   14.68    0.77
   3  -4  -4    6.54    0.40
  -3   4   4    6.52    0.32
  -3   4   4    6.37    0.32
  -3   4   4    6.12    0.32
  -3   4   4    5.70    0.48
  -3   4   4    5.63    0.32
   2  -4  -4    1.88    0.16
  -2   4   4    1.42    0.16
  -1   4   4    0.06    0.06
  -1   4   4    0.21    0.08
  -1   4   4    0.09    0.07
   0  -4  -4   86.95    4.61
   0  -4  -4   69.92    5.18
   0   4   4   81.56    4.61
   0   4   4   89.66    5.19
   0   4   4   80.99    5.03
  -1  -4  -4   74.79    4.97
   1   4   4   88.94    5.12
   1   4   4   71.68    4.55
   1   4   4   87.99    4.98
  -2  -4  -4    0.20    0.07
   2   4   4    0.22    0.04
   2   4   4    0.21    0.04
   2   4   4    0.28    0.04
   2   4   4    0.20    0.04
   2   4   4    0.25    0.05
  -3  -4  -4   15.06    0.73
  -3  -4  -4   15.09    0.72
  -3  -4  -4   12.99    0.93
  -3  -4  -4   15.50    0.73
  -3  -4  -4   13.87    0.71
   3   4   4   14.10    0.73
   3   4   4   15.18    0.72
   3   4   4   15.01    0.73
   3   4   4   15.11    0.72
  -4  -4  -4   45.08    2.25
  -4  -4  -4   46.51    2.25
  -4  -4  -4   42.76    2.22
  -4  -4  -4   46.14    2.22
   4   4   4   46.53    2.22
   4   4   4   46.28    2.22
   4   4   4   45.62    2.25
   4   4   4   49.28    2.25
  -5  -4  -4    6.87    0.36
  -5  -4  -4    6.37    0.35
  -5  -4  -4    6.77    0.36
  -5  -4  -4    6.81    0.36
   5   4   4    6.94    0.36
   5   4   4    6.60    0.36
  -6  -4  -4    0.32    0.08
  -6  -4  -4    0.23    0.05
  -6  -4  -4    0.32    0.08
  -6  -4  -4    0.23    0.07
  -6  -4  -4    0.28    0.07
   6   4   4    0.28    0.08
   6   4   4    0.23    0.08
   6   4   4    0.20    0.08
   6   4   4    0.14    0.08
  -7  -4  -4    6.16    0.35
  -7  -4  -4    6.30    0.35
  -7  -4  -4    5.95    0.42
   7   4   4    5.90    0.35
   7   4   4    6.19    0.35
  -8  -4  -4    0.41    0.09
  -8  -4  -4    0.21    0.08
  -8  -4  -4    0.23    0.08
  -8  -4  -4    0.20    0.08
  -8  -4  -4    0.17    0.09
   8   4   4    0.20    0.08
   8   4   4    0.18    0.08
   8   4   4    0.37    0.09
   8   4   4    0.41    0.09
  -9  -4  -4    3.51    0.25
  -9  -4  -4    3.61    0.25
   9   4   4    3.34    0.25
   9   4   4    3.49    0.25
 -10  -4  -4    2.65    0.22
  10   4   4    2.00    0.21
   6  -5  -4    0.06    0.14
   6  -5  -4    0.01    0.16
   5  -5  -4    3.79    0.36
   5  -5  -4    3.43    0.31
  -5   5   4    3.89    0.28
  -5   5   4    3.75    0.27
   4  -5  -4   10.29    0.58
   4  -5  -4    8.59    0.64
  -4   5   4    8.04    0.46
  -4   5   4    8.70    0.46
  -4   5   4    8.46    0.46
  -4   5   4    9.13    0.66
  -4   5   4    8.71    0.46
  -4   5   4    8.85    0.63
  -3   5   4   29.69    1.96
  -3   5   4   30.78    1.90
  -3   5   4   29.55    1.73
  -2   5   4    5.47    0.28
  -2   5   4    5.22    0.43
  -2   5   4    5.58    0.41
  -2   5   4    5.63    0.27
   1  -5  -4   56.97    4.05
   1  -5  -4   69.50    3.62
  -1   5   4   64.80    3.60
   0  -5  -4    0.86    0.12
   0  -5  -4    0.99    0.11
   0   5   4    0.87    0.13
   0   5   4    1.22    0.13
   0   5   4    0.66    0.13
  -1  -5  -4    0.02    0.06
  -1  -5  -4    0.05    0.07
  -1  -5  -4    0.06    0.05
   1   5   4   -0.01    0.03
   1   5   4    0.05    0.07
   1   5   4   -0.07    0.06
   1   5   4    0.05    0.03
   1   5   4    0.09    0.07
  -2  -5  -4    2.06    0.18
  -2  -5  -4    2.01    0.17
   2   5   4    2.40    0.14
   2   5   4    2.46    0.13
   2   5   4    2.27    0.18
   2   5   4    2.42    0.20
  -3  -5  -4    6.34    0.42
  -3  -5  -4    6.31    0.31
  -3  -5  -4    5.70    0.31
  -3  -5  -4    6.65    0.31
  -3  -5  -4    6.14    0.31
   3   5   4    6.08    0.32
   3   5   4    5.99    0.32
   3   5   4    5.94    0.32
   3   5   4    5.54    0.32
  -4  -5  -4    7.20    0.37
  -4  -5  -4    7.12    0.36
  -4  -5  -4    7.00    0.36
  -4  -5  -4    6.88    0.37
  -4  -5  -4    7.94    0.50
   4   5   4    6.83    0.37
   4   5   4    6.69    0.37
   4   5   4    7.05    0.38
   4   5   4    6.95    0.37
  -5  -5  -4   -0.04    0.06
  -5  -5  -4   -0.03    0.06
  -5  -5  -4   -0.02    0.06
  -5  -5  -4    0.11    0.06
   5   5   4    0.03    0.06
   5   5   4    0.00    0.06
   5   5   4   -0.03    0.06
   5   5   4   -0.06    0.06
  -6  -5  -4   15.56    0.77
  -6  -5  -4   15.76    0.78
  -6  -5  -4   16.12    0.77
  -6  -5  -4   15.61    0.78
   6   5   4   14.79    0.78
   6   5   4   14.96    0.78
   6   5   4   14.38    0.77
   6   5   4   14.88    0.78
  -7  -5  -4   13.44    0.87
  -7  -5  -4   11.57    0.70
  -7  -5  -4   14.27    0.70
  -7  -5  -4   13.71    0.71
   7   5   4   13.87    0.70
   7   5   4   14.90    0.72
  -8  -5  -4    3.51    0.24
  -8  -5  -4    2.90    0.24
  -8  -5  -4    3.36    0.27
  -8  -5  -4    3.30    0.25
  -8  -5  -4    3.65    0.24
   8   5   4    4.09    0.25
   8   5   4    3.35    0.24
   8   5   4    3.74    0.25
   8   5   4    3.54    0.25
  -9  -5  -4    0.07    0.08
  -9  -5  -4    0.03    0.08
  -9  -5  -4    0.00    0.11
   9   5   4    0.00    0.08
   9   5   4    0.29    0.09
 -10  -5  -4    0.05    0.09
 -10  -5  -4    0.20    0.09
  10   5   4   -0.10    0.09
  10   5   4   -0.14    0.09
   5  -6  -4    1.84    0.26
   5  -6  -4    1.67    0.24
  -5   6   4    1.68    0.21
  -5   6   4    1.85    0.22
   4  -6  -4    0.40    0.15
   4  -6  -4    0.44    0.16
  -4   6   4    0.67    0.10
  -4   6   4    0.46    0.10
  -4   6   4    0.65    0.09
  -4   6   4    0.51    0.10
   3  -6  -4    0.28    0.12
   3  -6  -4    0.43    0.14
  -3   6   4    0.32    0.06
  -3   6   4    0.07    0.11
  -3   6   4    0.31    0.06
  -3   6   4    0.25    0.13
  -3   6   4    0.29    0.06
  -3   6   4    0.31    0.12
  -3   6   4    0.35    0.06
  -2   6   4  150.54    7.08
  -2   6   4  151.42    8.33
  -2   6   4  148.93    9.41
  -2   6   4  148.30    7.17
  -2   6   4  143.97    7.17
  -2   6   4  146.13    7.08
  -1   6   4    3.68    0.20
  -1   6   4    3.79    0.21
  -1   6   4    4.17    0.21
  -1   6   4    4.88    0.31
  -1   6   4    4.26    0.21
  -1   6   4    4.42    0.36
  -1   6   4    3.98    0.33
   0  -6  -4    0.34    0.10
   0   6   4    0.19    0.03
   0   6   4    0.16    0.03
   0   6   4    0.41    0.11
  -1  -6  -4    1.59    0.18
  -1  -6  -4    1.91    0.16
  -1  -6  -4    1.90    0.20
   1   6   4    2.07    0.12
   1   6   4    1.88    0.12
   1   6   4    2.06    0.12
   1   6   4    1.93    0.20
   1   6   4    2.11    0.12
  -2  -6  -4   18.49    1.15
  -2  -6  -4   17.07    1.02
   2   6   4   18.04    0.85
   2   6   4   17.55    0.86
   2   6   4   16.39    0.85
   2   6   4   17.35    0.87
  -3  -6  -4    2.71    0.24
  -3  -6  -4    2.56    0.20
  -3  -6  -4    2.70    0.23
   3   6   4    2.66    0.17
   3   6   4    2.58    0.17
  -4  -6  -4    1.71    0.12
  -4  -6  -4    1.54    0.12
  -4  -6  -4    1.61    0.12
  -4  -6  -4    1.64    0.12
  -4  -6  -4    1.74    0.20
   4   6   4    1.68    0.14
   4   6   4    1.71    0.14
   4   6   4    1.82    0.14
   4   6   4    1.69    0.14
  -5  -6  -4    1.05    0.13
  -5  -6  -4    1.14    0.13
  -5  -6  -4    1.15    0.13
  -5  -6  -4    1.54    0.20
  -5  -6  -4    1.28    0.13
   5   6   4    1.27    0.14
   5   6   4    1.34    0.14
   5   6   4    1.36    0.14
   5   6   4    1.30    0.13
  -6  -6  -4    0.06    0.08
  -6  -6  -4    0.07    0.07
  -6  -6  -4    0.06    0.08
  -6  -6  -4    0.01    0.07
   6   6   4   -0.01    0.07
   6   6   4    0.08    0.08
   6   6   4   -0.03    0.07
   6   6   4    0.04    0.07
  -7  -6  -4    8.05    0.47
  -7  -6  -4    8.67    0.46
  -7  -6  -4    8.05    0.46
  -7  -6  -4    8.87    0.47
   7   6   4    8.84    0.49
   7   6   4    8.65    0.48
  -8  -6  -4   13.52    0.85
  -8  -6  -4   13.80    0.71
  -8  -6  -4   13.55    0.70
  -8  -6  -4   13.31    0.70
  -8  -6  -4   13.14    0.71
   8   6   4   13.67    0.70
   8   6   4   13.88    0.71
   8   6   4   12.62    0.70
   8   6   4   11.87    0.71
  -9  -6  -4   -0.05    0.08
  -9  -6  -4    0.09    0.08
  -9  -6  -4    0.09    0.08
   9   6   4    0.17    0.09
   9   6   4    0.24    0.09
 -10  -6  -4    0.92    0.13
 -10  -6  -4    0.57    0.12
  10   6   4    0.89    0.12
   5  -7  -4    3.16    0.35
   5  -7  -4    2.75    0.29
   4  -7  -4    2.21    0.30
   4  -7  -4    2.35    0.26
  -4   7   4    2.52    0.21
  -4   7   4    2.69    0.21
   3  -7  -4    0.29    0.15
   3  -7  -4    0.16    0.13
  -3   7   4    0.29    0.08
  -3   7   4    0.38    0.07
  -3   7   4    0.10    0.15
  -3   7   4    0.20    0.07
  -3   7   4    0.26    0.08
   2  -7  -4    1.82    0.22
   2  -7  -4    1.54    0.20
  -2   7   4    1.60    0.11
  -2   7   4    1.73    0.12
  -2   7   4    1.64    0.12
  -2   7   4    2.03    0.26
  -2   7   4    1.48    0.12
  -2   7   4    1.72    0.23
  -2   7   4    1.25    0.23
  -1   7   4    3.68    0.32
  -1   7   4    3.04    0.16
  -1   7   4    2.69    0.27
  -1   7   4    2.73    0.16
  -1   7   4    3.03    0.17
  -1   7   4    2.71    0.16
  -1   7   4    2.90    0.27
   0   7   4    2.85    0.16
   0   7   4    3.23    0.16
   0   7   4    2.65    0.16
   0   7   4    2.75    0.26
   0   7   4    3.05    0.29
   0   7   4    2.74    0.16
   0   7   4    3.00    0.25
  -1  -7  -4    7.92    0.53
  -1  -7  -4    6.48    0.46
  -1  -7  -4    6.73    0.52
   1   7   4    6.73    0.47
   1   7   4    6.88    0.37
   1   7   4    7.41    0.37
   1   7   4    6.96    0.51
   1   7   4    7.99    0.37
   1   7   4    7.88    0.37
  -2  -7  -4   14.75    1.00
  -2  -7  -4   16.11    1.00
  -2  -7  -4   14.43    0.90
  -2  -7  -4   14.76    1.01
   2   7   4   14.85    0.75
   2   7   4   15.31    0.76
   2   7   4   15.95    1.00
   2   7   4   15.95    0.75
   2   7   4   14.59    0.76
  -3  -7  -4    0.03    0.10
  -3  -7  -4    0.00    0.08
  -3  -7  -4    0.01    0.09
  -3  -7  -4   -0.05    0.06
   3   7   4   -0.10    0.06
   3   7   4   -0.03    0.06
   3   7   4    0.02    0.06
   3   7   4   -0.02    0.06
  -4  -7  -4   27.16    1.36
  -4  -7  -4   27.20    1.78
  -4  -7  -4   28.81    1.38
  -4  -7  -4   27.98    1.37
  -4  -7  -4   28.13    1.36
   4   7   4   28.27    1.39
   4   7   4   29.10    1.38
  -5  -7  -4   14.99    0.77
  -5  -7  -4   13.69    1.01
  -5  -7  -4   14.43    0.98
  -5  -7  -4   16.10    0.77
  -5  -7  -4   15.56    0.76
  -5  -7  -4   15.61    0.76
   5   7   4   15.81    0.78
   5   7   4   15.06    0.78
   5   7   4   15.27    0.79
   5   7   4   16.12    0.79
  -6  -7  -4    3.89    0.26
  -6  -7  -4    4.00    0.27
  -6  -7  -4    4.35    0.26
  -6  -7  -4    4.14    0.37
  -6  -7  -4    4.45    0.26
   6   7   4    4.00    0.27
   6   7   4    4.24    0.27
   6   7   4    3.90    0.27
   6   7   4    4.46    0.27
  -7  -7  -4    0.25    0.10
  -7  -7  -4    0.45    0.10
  -7  -7  -4    0.36    0.09
  -7  -7  -4    0.19    0.10
   7   7   4    0.33    0.09
   7   7   4    0.35    0.09
   7   7   4    0.39    0.09
   7   7   4    0.40    0.09
  -8  -7  -4    0.46    0.10
  -8  -7  -4    0.51    0.14
  -8  -7  -4    0.63    0.13
  -8  -7  -4    0.47    0.10
   8   7   4    0.64    0.10
   8   7   4    0.54    0.10
  -9  -7  -4    2.71    0.25
  -9  -7  -4    3.35    0.25
   9   7   4    3.47    0.23
   9   7   4    3.10    0.23
 -10  -7  -4   -0.03    0.11
 -10  -7  -4   -0.22    0.11
  10   7   4   -0.02    0.10
  10   7   4    0.02    0.10
   4  -8  -4    4.92    0.51
   4  -8  -4    7.00    0.47
   3  -8  -4    3.36    0.31
   3  -8  -4    3.15    0.35
  -3   8   4    3.71    0.24
  -3   8   4    3.09    0.40
  -3   8   4    3.90    0.24
   2  -8  -4    0.78    0.18
   2  -8  -4    0.71    0.16
  -2   8   4    0.63    0.08
  -2   8   4    0.53    0.08
  -2   8   4    0.56    0.09
  -2   8   4    0.55    0.18
  -2   8   4    0.67    0.09
   1  -8  -4    1.98    0.26
  -1   8   4    2.09    0.16
  -1   8   4    2.24    0.25
  -1   8   4    2.58    0.30
  -1   8   4    2.03    0.27
  -1   8   4    2.19    0.15
  -1   8   4    2.19    0.14
  -1   8   4    2.14    0.16
   0  -8  -4   13.37    0.99
   0  -8  -4   15.01    0.89
   0   8   4   14.32    0.72
   0   8   4   14.80    1.00
   0   8   4   14.64    0.72
   0   8   4   15.30    0.89
   0   8   4   14.72    0.73
   0   8   4   15.20    0.71
   0   8   4   13.17    0.96
  -1  -8  -4    2.14    0.23
  -1  -8  -4    1.86    0.20
   1   8   4    2.10    0.14
   1   8   4    1.85    0.22
   1   8   4    1.86    0.22
   1   8   4    1.75    0.14
   1   8   4    1.74    0.15
   1   8   4    1.79    0.14
  -2  -8  -4    0.24    0.11
   2   8   4    0.16    0.06
   2   8   4    0.19    0.07
   2   8   4    0.20    0.08
   2   8   4    0.19    0.11
   2   8   4    0.11    0.07
  -3  -8  -4    3.27    0.28
   3   8   4    3.15    0.22
   3   8   4    3.20    0.21
   3   8   4    3.04    0.22
   3   8   4    3.16    0.21
  -4  -8  -4    5.56    0.42
  -4  -8  -4    6.12    0.45
   4   8   4    5.85    0.34
   4   8   4    5.67    0.33
  -5  -8  -4   12.10    0.62
  -5  -8  -4   11.97    0.80
  -5  -8  -4   12.11    0.61
  -5  -8  -4   12.49    0.61
  -5  -8  -4   12.23    0.86
  -5  -8  -4   11.78    0.62
   5   8   4   12.44    0.65
   5   8   4   12.35    0.64
  -6  -8  -4    5.60    0.45
  -6  -8  -4    5.43    0.32
  -6  -8  -4    6.05    0.35
  -6  -8  -4    5.84    0.36
  -6  -8  -4    6.09    0.38
  -6  -8  -4    5.74    0.32
   6   8   4    4.61    0.33
   6   8   4    4.68    0.33
  -7  -8  -4   -0.05    0.11
  -7  -8  -4   -0.03    0.08
  -7  -8  -4    0.01    0.09
  -7  -8  -4    0.00    0.12
  -7  -8  -4   -0.15    0.11
   7   8   4   -0.01    0.09
   7   8   4   -0.06    0.08
   7   8   4    0.19    0.09
   7   8   4    0.00    0.09
  -8  -8  -4    0.17    0.10
  -8  -8  -4    0.21    0.11
  -8  -8  -4    0.18    0.13
  -8  -8  -4    0.36    0.18
  -8  -8  -4    0.30    0.17
   8   8   4    0.33    0.10
   8   8   4    0.11    0.09
  -9  -8  -4    0.12    0.12
  -9  -8  -4    0.13    0.12
  -9  -8  -4   -0.03    0.13
   9   8   4   -0.01    0.09
   9   8   4    0.07    0.09
   2  -9  -4    0.10    0.15
   2  -9  -4    0.04    0.15
   1  -9  -4    0.17    0.16
   1  -9  -4    0.12    0.14
  -1   9   4    0.18    0.10
  -1   9   4    0.26    0.08
  -1   9   4    0.24    0.10
  -1   9   4    0.25    0.08
  -1   9   4    0.14    0.20
   0  -9  -4    7.75    0.61
   0  -9  -4    8.05    0.54
   0   9   4    8.33    0.43
   0   9   4    8.33    0.42
   0   9   4    8.31    0.58
   0   9   4    8.20    0.43
   0   9   4    7.53    0.44
  -1  -9  -4    2.01    0.21
  -1  -9  -4    1.84    0.25
   1   9   4    1.55    0.16
   1   9   4    1.57    0.16
   1   9   4    2.35    0.28
  -2  -9  -4    4.81    0.39
  -2  -9  -4    3.98    0.39
  -2  -9  -4    5.17    0.41
  -2  -9  -4    4.48    0.36
   2   9   4    4.73    0.39
   2   9   4    4.86    0.28
   2   9   4    5.17    0.29
   2   9   4    4.93    0.31
   2   9   4    4.62    0.30
  -3  -9  -4    8.62    0.66
  -3  -9  -4    9.23    0.67
   3   9   4    9.90    0.51
   3   9   4   10.02    0.50
   3   9   4    9.63    0.52
   3   9   4    8.99    0.51
  -4  -9  -4    1.69    0.22
  -4  -9  -4    1.68    0.22
   4   9   4    1.19    0.20
   4   9   4    1.52    0.20
   4   9   4    1.69    0.17
   4   9   4    1.43    0.17
  -5  -9  -4    0.99    0.18
  -5  -9  -4    0.87    0.09
  -5  -9  -4    0.72    0.11
  -5  -9  -4    0.97    0.18
  -5  -9  -4    0.75    0.10
  -5  -9  -4    0.75    0.10
   5   9   4    1.11    0.17
   5   9   4    0.85    0.12
  -6  -9  -4    1.39    0.17
  -6  -9  -4    1.43    0.22
  -6  -9  -4    1.74    0.17
  -6  -9  -4    1.78    0.19
   6   9   4    1.42    0.18
   6   9   4    1.32    0.19
   6   9   4    2.04    0.22
   6   9   4    1.48    0.19
  -7  -9  -4    4.35    0.28
  -7  -9  -4    3.69    0.32
  -7  -9  -4    3.40    0.36
  -7  -9  -4    3.74    0.33
  -7  -9  -4    4.03    0.28
   7   9   4    3.74    0.28
   7   9   4    3.63    0.28
  -8  -9  -4   -0.03    0.12
  -8  -9  -4    0.05    0.12
  -8  -9  -4    0.26    0.14
  -8  -9  -4    0.24    0.21
  -8  -9  -4    0.13    0.21
   8   9   4    0.04    0.10
   8   9   4    0.01    0.10
  -9  -9  -4   -0.07    0.14
  -9  -9  -4   -0.16    0.14
   9   9   4    0.42    0.11
   9   9   4    0.25    0.11
   1 -10  -4    2.13    0.29
   1 -10  -4    2.25    0.31
   0 -10  -4   -0.01    0.16
   0 -10  -4    0.10    0.14
   0  10   4    0.06    0.10
   0  10   4    0.11    0.10
  -1 -10  -4    0.23    0.14
  -1 -10  -4    0.20    0.15
   1  10   4    0.16    0.10
   1  10   4    0.26    0.14
   1  10   4    0.08    0.14
   1  10   4    0.18    0.10
  -2 -10  -4   10.29    0.80
  -2 -10  -4   11.01    0.72
   2  10   4   10.35    0.61
   2  10   4   12.19    0.60
   2  10   4   10.57    0.62
   2  10   4   12.06    0.59
  -3 -10  -4    5.30    0.46
  -3 -10  -4    5.56    0.44
   3  10   4    5.28    0.34
   3  10   4    4.81    0.37
   3  10   4    5.43    0.33
   3  10   4    4.89    0.38
  -4 -10  -4    0.17    0.12
  -4 -10  -4   -0.02    0.13
   4  10   4   -0.01    0.15
   4  10   4   -0.03    0.11
   4  10   4    0.10    0.11
   4  10   4   -0.16    0.15
  -5 -10  -4    0.36    0.13
  -5 -10  -4    0.16    0.13
   5  10   4    0.41    0.13
   5  10   4    0.34    0.13
  -7 -10  -4    0.07    0.13
  -7 -10  -4    0.14    0.14
  -7 -10  -4    0.11    0.12
   7  10   4    0.12    0.12
   7  10   4    0.11    0.13
  -8 -10  -4    7.19    0.46
  -8 -10  -4    6.97    0.46
   8  10   4    7.09    0.45
   8  10   4    6.72    0.44
   2  11   4    3.40    0.31
   2  11   4    2.94    0.31
  -3 -11  -4    2.50    0.41
   3  11   4    2.53    0.28
   3  11   4    2.47    0.28
  -4 -11  -4    5.10    0.51
  -4 -11  -4    5.55    0.46
   4  11   4    4.93    0.38
   4  11   4    4.79    0.38
   5  11   4    0.49    0.16
   5  11   4    0.50    0.15
   6  11   4   -0.17    0.14
   6  11   4    0.18    0.15
  -2  -8   5    2.33    0.38
   1   8  -5    0.22    0.14
   1   8  -5    0.20    0.14
  -1  -8   5   -0.08    0.18
  -1  -8   5   -0.06    0.17
  -1  -8   5   -0.19    0.19
   4   7  -5    1.46    0.19
   4   7  -5    1.34    0.19
  -4  -7   5    1.20    0.26
  -4  -7   5    1.41    0.21
  -4  -7   5    1.56    0.18
   3   7  -5    7.91    0.44
   3   7  -5    7.46    0.44
  -3  -7   5    7.10    0.45
  -3  -7   5    7.60    0.45
  -3  -7   5    6.98    0.60
  -2  -7   5    0.67    0.14
  -2  -7   5    0.97    0.14
   1   7  -5    5.80    0.34
   1   7  -5    5.47    0.33
  -1  -7   5    5.40    0.36
  -1  -7   5    5.58    0.36
  -1  -7   5    4.14    0.45
  -1  -7   5    4.44    0.40
  -1  -7   5    4.79    0.42
   0   7  -5    1.29    0.18
   0   7  -5    1.11    0.18
   0  -7   5    0.74    0.18
   0  -7   5    0.87    0.20
   0  -7   5    0.75    0.19
   0  -7   5    0.93    0.17
   0  -7   5    0.86    0.16
  -1   7  -5    0.03    0.11
  -1   7  -5    0.01    0.11
   1  -7   5   -0.27    0.19
   1  -7   5    0.03    0.15
   1  -7   5    0.03    0.20
   1  -7   5    0.15    0.15
  -2   7  -5    0.77    0.14
   2  -7   5    0.61    0.16
   2  -7   5    0.42    0.15
   2  -7   5    0.39    0.15
  -3   7  -5   18.67    1.03
  -3   7  -5   20.11    1.02
   6   6  -5   16.31    0.88
   6   6  -5   16.88    0.87
  -6  -6   5   16.13    1.14
   5   6  -5   30.35    1.53
   5   6  -5   30.96    1.51
  -5  -6   5   29.73    1.53
  -5  -6   5   32.09    1.94
  -5  -6   5   27.68    1.51
   4   6  -5    5.09    0.31
   4   6  -5    4.94    0.31
  -4  -6   5    4.81    0.44
  -4  -6   5    4.99    0.32
  -4  -6   5    4.43    0.31
   3   6  -5    4.34    0.29
   3   6  -5    4.28    0.28
  -3  -6   5    4.18    0.29
  -3  -6   5    3.90    0.39
  -3  -6   5    4.32    0.29
   2   6  -5    1.42    0.14
   2   6  -5    1.62    0.15
  -2  -6   5    1.23    0.25
  -2  -6   5    1.27    0.17
  -2  -6   5    1.39    0.22
  -2  -6   5    1.11    0.16
   1   6  -5    7.05    0.38
   1   6  -5    6.79    0.38
  -1  -6   5    6.25    0.41
  -1  -6   5    6.35    0.38
  -1  -6   5    6.24    0.41
  -1  -6   5    6.16    0.38
   0   6  -5   11.80    0.62
   0   6  -5   12.05    0.61
   0  -6   5   11.16    0.61
   0  -6   5   11.68    0.62
   0  -6   5   11.77    0.61
   0  -6   5   11.25    0.63
   0  -6   5    9.47    0.80
  -1   6  -5    1.08    0.23
  -1   6  -5    1.06    0.15
  -1   6  -5    0.96    0.15
   1  -6   5    0.97    0.15
   1  -6   5    1.25    0.19
  -2   6  -5    1.75    0.20
  -2   6  -5    1.23    0.26
  -2   6  -5    2.16    0.18
  -2   6  -5    2.07    0.18
   2  -6   5    1.50    0.24
  -3   6  -5    0.12    0.11
  -3   6  -5    0.13    0.11
   3  -6   5    0.06    0.16
   3  -6   5    0.12    0.12
   3  -6   5    0.13    0.15
  -4   6  -5    0.02    0.13
  -4   6  -5    0.08    0.13
   4  -6   5    0.16    0.13
   4  -6   5    0.26    0.13
   4  -6   5    0.06    0.14
   6   5  -5    5.92    0.38
   6   5  -5    6.07    0.38
  -6  -5   5    5.24    0.52
  -6  -5   5    6.77    0.38
  -6  -5   5    6.40    0.38
   5   5  -5    5.40    0.33
   5   5  -5    5.48    0.32
  -5  -5   5    4.68    0.32
  -5  -5   5    5.18    0.32
   4   5  -5    2.34    0.20
   4   5  -5    2.55    0.20
  -4  -5   5    2.46    0.20
  -4  -5   5    2.97    0.29
  -4  -5   5    2.55    0.21
   3   5  -5   20.79    0.99
   3   5  -5   18.77    1.00
   3   5  -5   19.10    0.98
   3   5  -5   19.54    1.00
  -3  -5   5   18.10    1.25
  -3  -5   5   19.37    1.00
  -3  -5   5   19.78    1.00
  -3  -5   5   17.99    0.98
  -3  -5   5   20.91    0.99
   2   5  -5    4.03    0.27
   2   5  -5    4.03    0.27
   2   5  -5    3.77    0.27
   2   5  -5    4.21    0.27
  -2  -5   5    3.95    0.26
  -2  -5   5    4.38    0.27
  -2  -5   5    3.99    0.28
  -2  -5   5    4.28    0.28
  -2  -5   5    4.08    0.34
   1   5  -5    7.17    0.41
   1   5  -5    7.24    0.42
  -1  -5   5    7.64    0.53
   0   5  -5    8.43    0.47
   0   5  -5    8.88    0.48
   0   5  -5    8.50    0.48
   0   5  -5    8.28    0.61
   0   5  -5    9.42    0.48
   0  -5   5    8.52    0.47
   0  -5   5    8.50    0.47
  -1   5  -5   15.48    1.02
  -1   5  -5   16.28    0.81
  -1   5  -5   15.22    0.80
  -1   5  -5   16.31    0.80
  -1   5  -5   15.05    0.79
   1  -5   5   13.80    0.79
   1  -5   5   13.31    0.80
   1  -5   5   15.69    0.80
   1  -5   5   16.63    0.79
   1  -5   5   17.29    1.08
  -2   5  -5    5.28    0.35
  -2   5  -5    5.54    0.33
  -2   5  -5    5.34    0.33
  -2   5  -5    5.27    0.32
  -2   5  -5    5.17    0.32
   2  -5   5    5.31    0.35
   2  -5   5    5.51    0.45
   2  -5   5    5.02    0.34
   2  -5   5    6.14    0.33
   2  -5   5    5.79    0.33
  -3   5  -5    0.17    0.09
  -3   5  -5    0.03    0.18
  -3   5  -5    0.05    0.08
  -3   5  -5    0.08    0.10
   3  -5   5    0.13    0.10
   3  -5   5    0.05    0.10
   3  -5   5    0.15    0.12
   3  -5   5    0.03    0.12
   3  -5   5    0.07    0.09
  -4   5  -5    0.11    0.09
  -4   5  -5   -0.32    0.20
  -4   5  -5    0.00    0.09
   4  -5   5   -0.08    0.13
   4  -5   5   -0.07    0.13
   4  -5   5    0.13    0.11
   4  -5   5   -0.07    0.10
   4  -5   5   -0.11    0.11
  -5   5  -5    2.83    0.24
  -5   5  -5    2.51    0.25
   5  -5   5    2.73    0.25
   5  -5   5    2.67    0.25
   5  -5   5    2.71    0.29
  -6   5  -5    0.32    0.15
  -6   5  -5    0.07    0.15
   7   4  -5    8.04    0.48
   7   4  -5    7.16    0.54
   7   4  -5    7.27    0.47
  -7  -4   5    7.69    0.45
  -7  -4   5    7.77    0.45
   6   4  -5    1.64    0.21
   6   4  -5    1.60    0.21
  -6  -4   5    2.10    0.18
  -6  -4   5    2.06    0.19
  -6  -4   5    2.11    0.31
   5   4  -5   -0.05    0.12
   5   4  -5   -0.07    0.08
   5   4  -5    0.06    0.08
   5   4  -5    0.07    0.12
  -5  -4   5    0.13    0.08
  -5  -4   5    0.15    0.07
  -5  -4   5   -0.06    0.13
   4   4  -5    0.62    0.11
   4   4  -5    1.02    0.13
   4   4  -5    0.82    0.12
  -4  -4   5    0.77    0.12
  -4  -4   5    0.73    0.12
  -4  -4   5    0.87    0.12
  -4  -4   5    0.80    0.15
  -4  -4   5    0.81    0.11
   3   4  -5   17.45    0.94
   3   4  -5   17.86    0.95
  -3  -4   5   20.82    1.19
  -3  -4   5   18.22    0.94
  -3  -4   5   18.20    0.95
   2   4  -5    2.46    0.19
   2   4  -5    2.51    0.19
  -2  -4   5    2.76    0.20
  -2  -4   5    2.42    0.23
  -2  -4   5    2.33    0.19
   1   4  -5    3.45    0.23
   1   4  -5    3.75    0.23
  -1  -4   5    3.44    0.23
  -1  -4   5    3.55    0.23
  -1  -4   5    3.90    0.24
  -1  -4   5    3.74    0.29
  -1  -4   5    3.34    0.23
   0   4  -5    0.01    0.07
   0   4  -5    0.19    0.11
   0   4  -5    0.13    0.07
   0  -4   5    0.15    0.07
   0  -4   5    0.23    0.07
   0  -4   5    0.12    0.07
   0  -4   5    0.08    0.07
  -1   4  -5   33.47    1.72
  -1   4  -5   33.34    1.69
   1  -4   5   34.53    1.71
   1  -4   5   35.77    2.25
   1  -4   5   34.79    1.69
   1  -4   5   34.44    1.69
   1  -4   5   35.42    1.71
  -2   4  -5    5.04    0.37
  -2   4  -5    6.05    0.35
  -2   4  -5    5.89    0.35
  -2   4  -5    5.99    0.35
  -2   4  -5    5.99    0.34
  -2   4  -5    5.57    0.44
   2  -4   5    6.42    0.35
   2  -4   5    6.04    0.47
   2  -4   5    6.73    0.35
   2  -4   5    6.14    0.35
   2  -4   5    6.44    0.35
  -3   4  -5    0.15    0.05
  -3   4  -5    0.28    0.07
  -3   4  -5    0.27    0.14
  -3   4  -5    0.33    0.07
   3  -4   5    0.26    0.09
   3  -4   5    0.13    0.08
   3  -4   5    0.18    0.09
   3  -4   5    0.29    0.10
   3  -4   5    0.17    0.11
   4  -4   5    0.13    0.09
   4  -4   5    0.05    0.08
  -5   4  -5    3.29    0.39
  -5   4  -5    3.54    0.26
  -5   4  -5    3.37    0.26
   5  -4   5    3.40    0.29
   5  -4   5    3.45    0.26
   5  -4   5    3.72    0.34
   5  -4   5    2.95    0.28
   5  -4   5    3.59    0.25
  -6   4  -5    0.02    0.11
  -6   4  -5    0.15    0.11
   6  -4   5    0.10    0.11
   6  -4   5   -0.06    0.16
   6  -4   5    0.13    0.13
   6  -4   5    0.07    0.12
   6  -4   5    0.10    0.17
  -7   4  -5   -0.15    0.13
   7  -4   5   -0.25    0.17
   7   3  -5    0.45    0.14
   7   3  -5    0.28    0.13
   7   3  -5    0.39    0.14
  -7  -3   5    0.48    0.11
  -7  -3   5    0.19    0.10
   6   3  -5   -0.16    0.09
   6   3  -5    0.07    0.10
   6   3  -5    0.03    0.16
   6   3  -5   -0.05    0.15
   6   3  -5    0.02    0.10
  -6  -3   5    0.08    0.09
  -6  -3   5   -0.09    0.08
   5   3  -5    1.82    0.18
   5   3  -5    1.77    0.18
  -5  -3   5    1.90    0.19
  -5  -3   5    2.08    0.17
  -5  -3   5    2.03    0.17
  -5  -3   5    1.58    0.18
   4   3  -5    2.52    0.19
   4   3  -5    2.58    0.19
  -4  -3   5    2.31    0.24
   3   3  -5    0.01    0.06
   3   3  -5    0.15    0.08
   3   3  -5    0.05    0.07
   3   3  -5    0.15    0.07
  -3  -3   5    0.12    0.09
  -3  -3   5    0.06    0.08
  -3  -3   5   -0.02    0.07
   2   3  -5    4.24    0.25
   2   3  -5    4.10    0.25
   2   3  -5    3.68    0.25
   2   3  -5    4.44    0.25
  -2  -3   5    3.85    0.26
  -2  -3   5    4.00    0.26
  -2  -3   5    3.38    0.29
   1   3  -5   17.17    0.90
   1   3  -5   17.39    0.89
   1   3  -5   18.24    0.89
   1   3  -5   16.65    0.90
  -1  -3   5   18.01    1.12
  -1  -3   5   17.80    0.90
  -1  -3   5   18.68    0.89
  -1  -3   5   17.83    0.90
  -1  -3   5   17.46    0.89
   0   3  -5    0.29    0.08
   0   3  -5    0.21    0.07
   0   3  -5    0.27    0.08
   0   3  -5    0.23    0.07
   0  -3   5    0.24    0.08
   0  -3   5    0.22    0.08
   0  -3   5    0.24    0.07
   0  -3   5    0.17    0.07
  -1   3  -5    1.92    0.20
  -1   3  -5    2.27    0.17
  -1   3  -5    1.81    0.16
  -1   3  -5    2.23    0.18
  -1   3  -5    2.45    0.18
   1  -3   5    2.02    0.16
   1  -3   5    2.43    0.17
   1  -3   5    2.11    0.17
   1  -3   5    2.32    0.16
  -2   3  -5    8.65    0.45
  -2   3  -5    8.59    0.45
  -2   3  -5    7.64    0.56
   2  -3   5    8.70    0.45
   2  -3   5    8.38    0.45
   2  -3   5    8.01    0.61
   2  -3   5    8.12    0.45
   2  -3   5    8.83    0.45
  -3   3  -5   11.79    0.59
  -3   3  -5   10.24    0.58
  -3   3  -5   11.07    0.74
  -3   3  -5   11.49    0.58
  -3   3  -5   10.25    0.64
   3  -3   5   11.48    0.59
   3  -3   5   11.48    0.58
   3  -3   5   11.15    0.78
   3  -3   5   10.79    0.59
   3  -3   5   11.82    0.58
  -4   3  -5    5.72    0.32
  -4   3  -5    5.58    0.32
  -4   3  -5    5.10    0.31
  -4   3  -5    5.42    0.42
  -4   3  -5    4.91    0.31
   4  -3   5    5.47    0.32
   4  -3   5    4.74    0.42
   4  -3   5    5.65    0.32
   4  -3   5    5.53    0.32
   4  -3   5    5.07    0.31
  -5   3  -5    0.45    0.09
  -5   3  -5    0.38    0.09
  -5   3  -5    0.52    0.09
  -5   3  -5    0.26    0.09
   5  -3   5    0.38    0.11
   5  -3   5    0.39    0.09
   5  -3   5    0.21    0.12
   5  -3   5    0.53    0.10
   5  -3   5    0.36    0.11
  -6   3  -5    0.13    0.09
  -6   3  -5   -0.01    0.09
   6  -3   5   -0.11    0.09
   6  -3   5   -0.05    0.11
   6  -3   5   -0.17    0.12
   6  -3   5    0.05    0.10
  -7   3  -5    7.87    0.47
  -7   3  -5    8.64    0.48
   7  -3   5    7.04    0.61
  -8   3  -5    1.99    0.26
  -8   3  -5    1.87    0.27
   7   2  -5    0.30    0.13
   7   2  -5    0.20    0.13
   7   2  -5    0.13    0.20
   7   2  -5    0.24    0.12
   7   2  -5    0.07    0.20
  -7  -2   5    0.36    0.10
  -7  -2   5    0.50    0.10
  -6  -2   5   -0.10    0.08
  -6  -2   5   -0.06    0.08
   5   2  -5    8.14    0.44
   5   2  -5    7.16    0.45
   5   2  -5    7.53    0.45
   5   2  -5    8.10    0.52
   5   2  -5    7.82    0.44
  -5  -2   5    8.59    0.45
  -5  -2   5    7.96    0.43
  -5  -2   5    7.51    0.44
  -5  -2   5    8.32    0.44
   4   2  -5    0.46    0.11
   4   2  -5    0.53    0.09
   4   2  -5    0.46    0.10
   4   2  -5    0.53    0.09
   4   2  -5    0.44    0.10
  -4  -2   5    0.56    0.09
  -4  -2   5    0.45    0.09
  -4  -2   5    0.73    0.10
  -4  -2   5    0.56    0.09
   3   2  -5    1.35    0.14
   3   2  -5    1.55    0.18
   3   2  -5    1.22    0.15
   3   2  -5    1.49    0.14
   3   2  -5    1.40    0.15
  -3  -2   5    1.21    0.14
  -3  -2   5    1.32    0.15
  -3  -2   5    1.64    0.14
  -3  -2   5    1.09    0.16
  -3  -2   5    1.20    0.14
   2   2  -5    7.83    0.40
   2   2  -5    7.31    0.40
   2   2  -5    7.33    0.40
   2   2  -5    7.38    0.40
  -2  -2   5    7.08    0.41
  -2  -2   5    8.02    0.41
  -2  -2   5    6.22    0.48
  -2  -2   5    7.45    0.40
  -2  -2   5    7.82    0.41
   1   2  -5   63.15    3.08
   1   2  -5   63.59    3.09
   1   2  -5   64.51    3.62
   1   2  -5   61.40    3.12
   1   2  -5   62.63    3.13
  -1  -2   5   60.17    3.12
  -1  -2   5   63.94    3.12
  -1  -2   5   71.30    3.93
  -1  -2   5   63.63    3.08
  -1  -2   5   64.89    3.08
   0   2  -5    5.09    0.28
   0   2  -5    4.83    0.32
   0   2  -5    5.16    0.28
   0  -2   5    4.93    0.28
   0  -2   5    4.36    0.28
   0  -2   5    4.84    0.29
   0  -2   5    4.93    0.29
  -1   2  -5    7.53    0.40
  -1   2  -5    7.84    0.41
  -1   2  -5    7.91    0.46
  -1   2  -5    7.57    0.40
  -1   2  -5    7.52    0.41
  -1   2  -5    8.07    0.50
   1  -2   5    7.26    0.40
   1  -2   5    7.03    0.41
  -2   2  -5    1.78    0.15
  -2   2  -5    1.97    0.16
  -2   2  -5    2.11    0.18
  -2   2  -5    1.93    0.16
  -2   2  -5    2.00    0.16
  -2   2  -5    2.05    0.16
   2  -2   5    2.14    0.16
   2  -2   5    2.11    0.16
  -3   2  -5   36.22    2.00
  -3   2  -5   33.14    1.75
  -3   2  -5   35.59    2.21
  -3   2  -5   36.53    1.76
  -3   2  -5   35.95    1.74
  -3   2  -5   34.87    1.73
   3  -2   5   36.23    1.75
   3  -2   5   34.91    2.30
   3  -2   5   35.13    1.73
   3  -2   5   36.13    1.76
   3  -2   5   36.18    1.73
  -5   2  -5    3.63    0.25
  -5   2  -5    4.23    0.26
  -5   2  -5    3.93    0.25
  -5   2  -5    4.19    0.26
   5  -2   5    3.79    0.25
   5  -2   5    3.84    0.26
   5  -2   5    4.01    0.25
   5  -2   5    3.80    0.35
   5  -2   5    3.99    0.25
  -6   2  -5    1.41    0.16
  -6   2  -5    1.28    0.14
  -6   2  -5    1.47    0.15
  -6   2  -5    1.33    0.16
   6  -2   5    1.46    0.19
   6  -2   5    1.26    0.16
   6  -2   5    1.44    0.19
   6  -2   5    1.41    0.16
  -7   2  -5    0.28    0.10
  -7   2  -5    0.52    0.10
   7  -2   5    0.24    0.15
  -8   2  -5    0.12    0.12
  -8   2  -5    0.21    0.12
   8  -2   5    0.02    0.13
   8  -2   5    0.04    0.13
   8   1  -5   -0.02    0.17
   7   1  -5    0.01    0.11
   7   1  -5   -0.04    0.11
   7   1  -5    0.10    0.13
  -7  -1   5    0.08    0.12
  -7  -1   5    0.22    0.12
   6   1  -5    3.48    0.30
   6   1  -5    3.73    0.25
   6   1  -5    3.32    0.29
   6   1  -5    3.20    0.29
   6   1  -5    3.63    0.25
  -6  -1   5    3.12    0.26
  -6  -1   5    3.97    0.26
  -6  -1   5    3.55    0.27
  -6  -1   5    4.16    0.26
   5   1  -5    2.20    0.20
   5   1  -5    2.20    0.17
   5   1  -5    2.06    0.22
   5   1  -5    2.07    0.17
   5   1  -5    1.82    0.20
  -5  -1   5    2.11    0.18
  -5  -1   5    2.04    0.17
  -5  -1   5    1.87    0.17
  -5  -1   5    1.74    0.16
   4   1  -5    0.12    0.07
   4   1  -5    0.18    0.09
   4   1  -5    0.11    0.07
  -4  -1   5    0.21    0.07
  -4  -1   5    0.21    0.07
  -4  -1   5    0.04    0.08
  -4  -1   5    0.10    0.08
   3   1  -5    0.46    0.11
   3   1  -5    0.55    0.08
   3   1  -5    0.46    0.09
   3   1  -5    0.57    0.09
   3   1  -5    0.58    0.08
  -3  -1   5    0.48    0.09
  -3  -1   5    0.52    0.09
  -3  -1   5    0.49    0.08
  -3  -1   5    0.48    0.08
   2   1  -5   21.41    1.03
   2   1  -5   22.25    1.05
   2   1  -5   21.55    1.04
   2   1  -5   21.30    1.05
   2   1  -5   19.74    1.22
  -2  -1   5   22.09    1.05
  -2  -1   5   20.64    1.04
  -2  -1   5   18.88    1.04
  -2  -1   5   20.93    1.05
   1   1  -5    1.33    0.12
   1   1  -5    1.36    0.12
   1   1  -5    1.49    0.12
   1   1  -5    1.33    0.12
  -1  -1   5    1.27    0.11
  -1  -1   5    1.36    0.12
  -1  -1   5    1.47    0.13
  -1  -1   5    1.39    0.13
  -1  -1   5    1.36    0.12
   0   1  -5    0.30    0.06
   0   1  -5    0.32    0.06
   0   1  -5    0.29    0.06
   0   1  -5    0.41    0.08
   0   1  -5    0.36    0.06
   0  -1   5    0.27    0.06
   0  -1   5    0.28    0.07
   0  -1   5    0.26    0.06
   0  -1   5    0.29    0.06
  -1   1  -5   35.40    1.68
  -1   1  -5   35.78    1.97
  -1   1  -5   35.77    1.71
  -1   1  -5   30.01    1.70
  -1   1  -5   34.37    1.68
   1  -1   5   36.76    1.71
   1  -1   5   33.61    1.68
   1  -1   5   34.35    1.71
   1  -1   5   36.36    1.69
  -2   1  -5   23.96    1.51
  -2   1  -5   24.43    1.20
  -2   1  -5   20.71    1.38
  -2   1  -5   25.81    1.19
  -2   1  -5   24.22    1.19
  -2   1  -5   24.06    1.20
   2  -1   5   23.00    1.19
   2  -1   5   26.06    1.21
   2  -1   5   25.26    1.19
   2  -1   5   24.86    1.20
  -3   1  -5   -0.02    0.06
  -3   1  -5    0.07    0.07
  -3   1  -5    0.01    0.06
  -3   1  -5    0.01    0.04
  -3   1  -5   -0.03    0.06
   3  -1   5   -0.01    0.05
   3  -1   5    0.05    0.05
   3  -1   5   -0.01    0.09
   3  -1   5   -0.01    0.06
   3  -1   5   -0.02    0.06
  -4   1  -5    8.98    0.49
  -4   1  -5    9.81    0.49
  -4   1  -5    9.02    0.49
  -4   1  -5    9.81    0.49
   4  -1   5    9.20    0.48
   4  -1   5    9.77    0.49
   4  -1   5    8.68    0.49
   4  -1   5    8.97    0.64
   4  -1   5    8.90    0.49
  -5   1  -5   59.86    2.96
  -5   1  -5   60.11    2.99
   5  -1   5   61.21    2.99
   5  -1   5   61.64    2.95
   5  -1   5   56.13    2.95
   5  -1   5   63.95    2.99
   5  -1   5   64.43    3.91
  -6   1  -5   12.15    0.68
  -6   1  -5   12.63    0.68
  -6   1  -5   13.79    0.69
  -6   1  -5   13.42    0.68
   6  -1   5   12.59    0.90
   6  -1   5   13.30    0.68
   6  -1   5   13.77    0.68
   6  -1   5   13.31    0.68
   6  -1   5   13.11    0.69
  -7   1  -5   11.23    0.58
  -7   1  -5    9.72    0.56
  -7   1  -5   11.17    0.57
  -7   1  -5   10.11    0.57
   7  -1   5   11.01    0.58
   7  -1   5   11.82    0.58
   7  -1   5    9.64    0.76
  -8   1  -5    0.21    0.09
  -8   1  -5    0.21    0.09
   8  -1   5    0.03    0.10
   8  -1   5    0.18    0.17
   8  -1   5    0.19    0.17
   8  -1   5    0.08    0.11
  -9   1  -5    1.19    0.15
  -9   1  -5    1.13    0.15
   9  -1   5    0.85    0.17
   9  -1   5    0.63    0.17
   7   0  -5    3.30    0.23
   7   0  -5    3.37    0.23
   7   0  -5    3.32    0.33
  -7   0   5    3.56    0.29
  -7   0   5    3.39    0.29
   6   0  -5    1.91    0.23
   6   0  -5    1.80    0.17
   6   0  -5    1.99    0.17
   6   0  -5    2.23    0.20
   6   0  -5    1.55    0.20
  -6   0   5    2.50    0.21
  -6   0   5    1.74    0.22
  -6   0   5    2.34    0.21
  -6   0   5    1.94    0.21
   5   0  -5    1.22    0.15
   5   0  -5    1.17    0.13
   5   0  -5    1.32    0.15
   5   0  -5    1.14    0.12
  -5   0   5    1.13    0.15
  -5   0   5    1.17    0.15
  -5   0   5    1.17    0.15
  -5   0   5    0.92    0.14
   4   0  -5    3.31    0.24
   4   0  -5    4.15    0.24
   4   0  -5    4.23    0.30
   4   0  -5    3.88    0.23
   4   0  -5    3.95    0.23
  -4   0   5    4.30    0.25
  -4   0   5    4.16    0.25
  -4   0   5    3.38    0.25
  -4   0   5    3.69    0.24
   3   0  -5  188.81    9.21
   3   0  -5  198.03   10.67
   3   0  -5  187.51    9.08
  -3   0   5  185.95    9.09
  -3   0   5  197.16    9.09
  -3   0   5  175.30    9.21
  -3   0   5  197.27    9.22
   2   0  -5   10.22    0.59
   2   0  -5    9.58    0.49
   2   0  -5    9.10    0.49
   2   0  -5    9.85    0.49
   2   0  -5    9.58    0.48
  -2   0   5    8.44    0.49
  -2   0   5    9.40    0.49
  -2   0   5    9.05    0.49
  -2   0   5   11.01    0.50
   1   0  -5    2.49    0.16
   1   0  -5    2.71    0.16
   1   0  -5    2.44    0.16
   1   0  -5    2.71    0.16
   1   0  -5    2.86    0.20
  -1   0   5    2.47    0.17
  -1   0   5    2.45    0.16
  -1   0   5    2.33    0.17
  -1   0   5    2.56    0.16
   0   0  -5   13.82    0.62
   0   0  -5   13.07    0.73
   0   0  -5   12.59    0.63
   0   0  -5   11.11    0.61
   0   0  -5   11.05    0.62
   0   0   5   12.34    0.63
   0   0   5   11.83    0.63
   0   0   5   12.47    0.62
   0   0   5   13.42    0.62
  -1   0  -5   54.52    2.55
  -1   0  -5   47.04    3.24
  -1   0  -5   55.28    2.58
  -1   0  -5   48.45    2.98
  -1   0  -5   53.83    2.55
  -1   0  -5   52.81    2.58
   1   0   5   56.35    2.59
   1   0   5   54.09    2.55
   1   0   5   54.51    2.58
   1   0   5   52.57    2.55
  -2   0  -5   28.45    1.37
  -2   0  -5   29.34    1.39
  -2   0  -5   24.37    1.59
  -2   0  -5   27.78    1.37
  -2   0  -5   28.32    1.38
   2   0   5   29.11    1.39
   2   0   5   31.10    1.37
   2   0   5   26.89    1.38
   2   0   5   27.28    1.37
  -3   0  -5    0.32    0.07
  -3   0  -5    0.22    0.06
  -3   0  -5    0.29    0.07
  -3   0  -5    0.25    0.06
   3   0   5    0.23    0.09
   3   0   5    0.30    0.06
   3   0   5    0.22    0.06
   3   0   5    0.31    0.05
   3   0   5    0.24    0.06
   3   0   5    0.27    0.06
  -4   0  -5    0.01    0.06
  -4   0  -5   -0.01    0.06
  -4   0  -5   -0.06    0.06
  -4   0  -5   -0.01    0.07
   4   0   5   -0.03    0.04
   4   0   5   -0.02    0.06
   4   0   5   -0.05    0.07
   4   0   5    0.01    0.06
  -5   0  -5   12.37    0.71
  -5   0  -5   14.01    0.71
  -5   0  -5   12.21    0.70
  -5   0  -5   14.21    0.70
   5   0   5   14.09    0.71
   5   0   5   13.84    0.70
   5   0   5   13.99    0.92
   5   0   5   15.65    0.71
   5   0   5   13.74    0.70
  -6   0  -5   18.68    0.98
  -6   0  -5   18.73    0.97
   6   0   5   20.87    0.97
   6   0   5   19.22    0.98
   6   0   5   19.38    0.97
   6   0   5   20.14    0.98
   6   0   5   18.52    1.28
  -7   0  -5    3.89    0.24
  -7   0  -5    3.28    0.24
  -7   0  -5    3.78    0.24
  -7   0  -5    3.39    0.25
   7   0   5    3.50    0.23
   7   0   5    3.62    0.33
   7   0   5    3.22    0.23
  -8   0  -5    0.98    0.13
  -8   0  -5    1.05    0.14
   8   0   5    0.95    0.13
   8   0   5    1.07    0.17
   8   0   5    1.25    0.17
   8   0   5    0.80    0.13
  -9   0  -5    0.02    0.10
  -9   0  -5   -0.07    0.09
   9   0   5    0.03    0.20
   9   0   5   -0.12    0.13
   9   0   5   -0.12    0.12
   9   0   5    0.07    0.20
   7  -1  -5    0.10    0.15
  -7   1   5   -0.07    0.12
  -7   1   5    0.09    0.13
   6  -1  -5    0.12    0.11
  -6   1   5    0.13    0.12
  -6   1   5    0.08    0.11
   5  -1  -5    0.49    0.11
   5  -1  -5    0.47    0.06
   5  -1  -5    0.46    0.07
   5  -1  -5    0.47    0.06
   5  -1  -5    0.43    0.06
  -5   1   5    0.47    0.10
  -5   1   5    0.32    0.10
  -5   1   5    0.43    0.11
  -5   1   5    0.44    0.10
   4  -1  -5    5.82    0.31
   4  -1  -5    5.71    0.31
   4  -1  -5    5.66    0.31
   4  -1  -5    5.93    0.41
   4  -1  -5    5.91    0.31
  -4   1   5    6.00    0.34
  -4   1   5    6.58    0.34
  -4   1   5    6.30    0.34
  -4   1   5    6.11    0.34
   3  -1  -5    5.73    0.30
   3  -1  -5    5.28    0.30
   3  -1  -5    6.71    0.31
   3  -1  -5    6.32    0.31
   3  -1  -5    5.34    0.39
  -3   1   5    6.39    0.33
  -3   1   5    5.87    0.33
  -3   1   5    5.58    0.32
  -3   1   5    5.59    0.32
   2  -1  -5    3.04    0.17
   2  -1  -5    3.00    0.17
   2  -1  -5    3.25    0.23
  -2   1   5    3.26    0.18
  -2   1   5    3.05    0.18
  -2   1   5    2.49    0.18
  -2   1   5    3.01    0.19
   1  -1  -5   25.75    1.44
   1  -1  -5   25.66    1.23
   1  -1  -5   25.87    1.21
   1  -1  -5   23.88    1.23
   1  -1  -5   24.71    1.21
  -1   1   5   26.04    1.23
  -1   1   5   24.78    1.22
  -1   1   5   25.57    1.22
  -1   1   5   23.41    1.23
   0  -1  -5   49.17    2.44
   0  -1  -5   51.08    2.84
   0  -1  -5   50.71    2.44
   0  -1  -5   52.59    2.41
   0  -1  -5   49.00    2.41
   0   1   5   51.25    2.84
   0   1   5   45.19    2.41
   0   1   5   51.24    2.41
   0   1   5   50.33    2.45
   0   1   5   51.39    2.45
  -1  -1  -5   13.14    0.62
  -1  -1  -5   13.07    0.61
  -1  -1  -5   12.57    0.72
  -1  -1  -5   12.26    0.62
  -1  -1  -5   13.40    0.61
   1   1   5   11.60    0.62
   1   1   5   12.35    0.72
   1   1   5   11.36    0.61
   1   1   5   11.96    0.61
   1   1   5   11.92    0.62
  -2  -1  -5    4.04    0.22
  -2  -1  -5    3.92    0.22
  -2  -1  -5    3.88    0.22
  -2  -1  -5    4.10    0.26
  -2  -1  -5    4.10    0.22
   2   1   5    3.94    0.23
   2   1   5    4.03    0.22
   2   1   5    3.88    0.22
   2   1   5    3.73    0.25
   2   1   5    3.80    0.22
  -3  -1  -5  124.23    6.08
  -3  -1  -5  126.06    6.00
  -3  -1  -5  123.76    6.08
  -3  -1  -5  123.80    6.00
   3   1   5  125.36    6.00
   3   1   5  128.21    7.03
   3   1   5  131.56    6.08
   3   1   5  127.74    6.08
   3   1   5  116.84    6.00
  -4  -1  -5   13.84    0.67
  -4  -1  -5   13.45    0.67
  -4  -1  -5   13.24    0.68
  -4  -1  -5   13.40    0.68
   4   1   5   13.26    0.68
   4   1   5   12.22    0.76
   4   1   5   12.79    0.67
   4   1   5   14.00    0.87
   4   1   5   12.72    0.68
   4   1   5   14.07    0.67
  -5  -1  -5    4.73    0.27
  -5  -1  -5    4.47    0.27
  -5  -1  -5    4.85    0.27
  -5  -1  -5    4.63    0.27
   5   1   5    4.37    0.26
   5   1   5    4.98    0.27
   5   1   5    4.49    0.27
   5   1   5    4.28    0.27
   5   1   5    4.50    0.34
   5   1   5    4.60    0.29
  -6  -1  -5    5.62    0.32
  -6  -1  -5    5.36    0.32
   6   1   5    5.38    0.32
   6   1   5    5.69    0.32
   6   1   5    5.38    0.41
   6   1   5    5.37    0.31
   6   1   5    5.57    0.34
   6   1   5    5.68    0.32
  -7  -1  -5    4.67    0.31
  -7  -1  -5    5.23    0.31
   7   1   5    5.60    0.31
   7   1   5    4.90    0.32
   7   1   5    5.79    0.31
  -8  -1  -5    0.20    0.10
   8   1   5    0.59    0.13
   8   1   5    0.44    0.12
   8   1   5    0.42    0.07
  -9  -1  -5    1.12    0.16
  -9  -1  -5    1.44    0.16
   9   1   5    1.78    0.20
   9   1   5    1.52    0.21
   9   1   5    1.87    0.29
   9   1   5    1.98    0.30
 -10  -1  -5    3.13    0.25
 -10  -1  -5    2.85    0.24
  10   1   5    2.35    0.30
  10   1   5    2.00    0.28
   7  -2  -5   -0.23    0.16
  -7   2   5    0.03    0.14
  -7   2   5   -0.06    0.14
   6  -2  -5   14.25    0.85
  -6   2   5   12.88    0.72
  -6   2   5   12.80    0.73
  -6   2   5   15.15    0.73
  -6   2   5   13.29    0.72
   5  -2  -5   13.30    0.88
  -5   2   5   14.28    0.75
  -5   2   5   16.27    0.76
  -5   2   5   13.96    0.74
  -5   2   5   13.74    1.01
  -5   2   5   15.25    0.74
   4  -2  -5   -0.02    0.09
  -4   2   5   -0.03    0.06
  -4   2   5    0.05    0.07
  -4   2   5   -0.03    0.07
  -4   2   5    0.00    0.06
   3  -2  -5    6.74    0.44
  -3   2   5    6.50    0.36
  -3   2   5    6.94    0.36
  -3   2   5    6.46    0.36
  -3   2   5    6.88    0.35
   2  -2  -5    4.22    0.29
  -2   2   5    3.86    0.23
  -2   2   5    3.78    0.23
  -2   2   5    4.48    0.23
  -2   2   5    4.63    0.23
   1  -2  -5    9.90    0.62
  -1   2   5   11.03    0.52
  -1   2   5   10.13    0.51
  -1   2   5    9.14    0.61
  -1   2   5   11.45    0.52
  -1   2   5    9.90    0.51
   0  -2  -5   19.63    0.94
   0  -2  -5   19.88    0.94
   0  -2  -5   19.14    1.11
   0  -2  -5   20.34    0.93
   0  -2  -5   19.92    0.93
   0   2   5   18.84    0.95
   0   2   5   17.50    0.93
   0   2   5   21.05    0.95
   0   2   5   16.90    1.11
   0   2   5   19.27    0.94
  -1  -2  -5   23.34    1.13
  -1  -2  -5   23.54    1.13
  -1  -2  -5   23.40    1.14
  -1  -2  -5   23.58    1.34
  -1  -2  -5   19.87    1.14
   1   2   5   22.97    1.15
   1   2   5   24.79    1.34
   1   2   5   23.84    1.15
   1   2   5   23.26    1.13
   1   2   5   25.09    1.13
  -2  -2  -5    4.39    0.23
  -2  -2  -5    4.76    0.23
  -2  -2  -5    4.54    0.23
  -2  -2  -5    4.60    0.23
   2   2   5    4.13    0.23
   2   2   5    4.20    0.23
   2   2   5    4.11    0.23
   2   2   5    3.60    0.27
   2   2   5    3.90    0.23
  -3  -2  -5   24.76    1.21
  -3  -2  -5   26.95    1.21
  -3  -2  -5   24.28    1.22
  -3  -2  -5   25.71    1.22
   3   2   5   22.22    1.22
   3   2   5   24.44    1.42
   3   2   5   26.47    1.21
   3   2   5   23.48    1.21
   3   2   5   25.07    1.23
  -4  -2  -5    5.63    0.33
  -4  -2  -5    6.21    0.34
  -4  -2  -5    6.45    0.34
  -4  -2  -5    6.25    0.33
   4   2   5    6.56    0.34
   4   2   5    6.23    0.34
   4   2   5    6.74    0.42
   4   2   5    6.31    0.34
   4   2   5    6.27    0.34
  -5  -2  -5    1.30    0.12
  -5  -2  -5    1.36    0.12
   5   2   5    1.49    0.14
   5   2   5    1.12    0.14
   5   2   5    1.23    0.13
   5   2   5    1.42    0.13
   5   2   5    1.63    0.13
  -6  -2  -5    1.00    0.13
  -6  -2  -5    0.77    0.10
  -6  -2  -5    0.90    0.12
  -6  -2  -5    0.94    0.13
   6   2   5    0.74    0.12
   6   2   5    0.98    0.13
   6   2   5    1.06    0.12
   6   2   5    1.00    0.13
  -7  -2  -5   10.45    0.58
  -7  -2  -5   10.27    0.57
   7   2   5   11.49    0.58
   7   2   5   10.93    0.57
  -8  -2  -5    0.25    0.09
  -8  -2  -5    0.22    0.09
  -9  -2  -5    1.08    0.15
  -9  -2  -5    1.19    0.15
   9   2   5    1.01    0.17
   9   2   5    0.64    0.11
   9   2   5    0.63    0.12
   9   2   5    0.94    0.17
 -10  -2  -5    0.11    0.10
  10   2   5    0.17    0.13
  10   2   5    0.18    0.14
   7  -3  -5    0.08    0.19
  -7   3   5    0.16    0.17
  -7   3   5    0.13    0.16
   6  -3  -5    0.21    0.15
  -6   3   5    0.44    0.13
  -6   3   5    0.49    0.15
  -6   3   5    0.54    0.13
  -6   3   5    0.27    0.15
   5  -3  -5    0.19    0.12
  -5   3   5    0.33    0.10
  -5   3   5    0.19    0.09
  -5   3   5    0.02    0.10
  -5   3   5    0.13    0.09
  -5   3   5    0.31    0.17
   4  -3  -5   11.42    0.72
  -4   3   5   12.25    0.60
  -4   3   5   11.25    0.60
   3  -3  -5    2.30    0.23
  -3   3   5    2.77    0.18
  -3   3   5    2.86    0.18
  -3   3   5    2.41    0.17
  -3   3   5    2.97    0.17
  -3   3   5    3.27    0.28
   2  -3  -5    4.52    0.31
  -2   3   5    5.04    0.24
  -2   3   5    3.81    0.24
  -2   3   5    4.76    0.24
  -2   3   5    4.36    0.24
   1  -3  -5    5.55    0.35
  -1   3   5    4.96    0.36
  -1   3   5    5.22    0.28
  -1   3   5    6.13    0.28
  -1   3   5    5.36    0.27
  -1   3   5    4.95    0.28
  -1   3   5    5.38    0.35
   0  -3  -5   57.10    3.41
   0   3   5   61.17    2.92
   0   3   5   63.39    3.41
   0   3   5   58.38    2.89
   0   3   5   60.57    2.89
   0   3   5   61.06    2.92
  -1  -3  -5    9.38    0.61
   1   3   5    9.60    0.48
   1   3   5    9.96    0.48
   1   3   5    9.22    0.47
   1   3   5    9.51    0.57
   1   3   5    9.79    0.47
  -2  -3  -5    2.35    0.13
   2   3   5    2.05    0.13
   2   3   5    2.21    0.14
   2   3   5    2.04    0.17
   2   3   5    2.12    0.13
   2   3   5    2.25    0.14
  -3  -3  -5   17.59    0.84
  -3  -3  -5   17.67    0.83
  -3  -3  -5   17.84    0.84
  -3  -3  -5   15.98    0.83
   3   3   5   15.81    0.83
   3   3   5   16.94    0.83
   3   3   5   16.23    0.98
   3   3   5   16.98    0.84
   3   3   5   17.33    0.84
  -4  -3  -5    1.18    0.11
  -4  -3  -5    1.43    0.11
  -4  -3  -5    1.43    0.11
  -4  -3  -5    1.25    0.11
   4   3   5    1.25    0.12
   4   3   5    1.27    0.11
   4   3   5    1.06    0.10
   4   3   5    1.32    0.11
   4   3   5    1.13    0.12
  -5  -3  -5    2.21    0.16
  -5  -3  -5    2.27    0.16
  -5  -3  -5    2.47    0.16
  -5  -3  -5    2.27    0.16
   5   3   5    2.23    0.17
   5   3   5    2.57    0.17
  -6  -3  -5    0.96    0.12
  -6  -3  -5    1.07    0.13
  -6  -3  -5    1.01    0.12
  -6  -3  -5    1.03    0.13
   6   3   5    1.23    0.13
   6   3   5    1.11    0.13
   6   3   5    0.94    0.12
   6   3   5    0.93    0.13
  -7  -3  -5    1.61    0.15
  -7  -3  -5    1.54    0.16
   7   3   5    1.59    0.15
   7   3   5    1.58    0.15
  -8  -3  -5    4.74    0.32
  -8  -3  -5    5.86    0.33
  -8  -3  -5    5.39    0.33
  -8  -3  -5    5.46    0.33
   8   3   5    5.09    0.33
   8   3   5    5.72    0.33
   8   3   5    5.65    0.33
   8   3   5    5.69    0.33
   9   3   5    4.51    0.30
   9   3   5    4.52    0.30
  10   3   5    0.40    0.12
  10   3   5    0.49    0.13
   6  -4  -5    0.26    0.16
  -6   4   5    0.26    0.13
  -6   4   5    0.03    0.15
  -6   4   5    0.05    0.17
  -6   4   5    0.09    0.12
   5  -4  -5    9.68    0.68
  -5   4   5   10.54    0.57
  -5   4   5   11.15    0.56
  -5   4   5    9.18    0.56
  -5   4   5   12.26    0.57
   4  -4  -5    2.72    0.25
  -4   4   5    2.63    0.30
  -4   4   5    2.66    0.19
  -4   4   5    2.47    0.20
  -4   4   5    3.08    0.19
  -4   4   5    2.60    0.19
   3  -4  -5    0.41    0.10
  -3   4   5    0.34    0.06
  -3   4   5    0.46    0.06
  -3   4   5    0.16    0.10
  -3   4   5    0.47    0.07
  -3   4   5    0.34    0.06
  -3   4   5    0.34    0.13
   2  -4  -5    0.82    0.14
  -2   4   5    1.03    0.09
  -2   4   5    1.23    0.09
  -2   4   5    0.83    0.14
  -2   4   5    1.07    0.09
  -2   4   5    1.11    0.09
  -2   4   5    1.22    0.17
   1  -4  -5    1.38    0.16
  -1   4   5    1.57    0.09
  -1   4   5    1.34    0.17
  -1   4   5    1.50    0.15
  -1   4   5    1.28    0.16
  -1   4   5    1.61    0.09
   0   4   5    2.07    0.11
   0   4   5    2.14    0.19
   0   4   5    1.95    0.11
   0   4   5    2.12    0.18
   0   4   5    1.99    0.11
  -1  -4  -5   23.92    1.49
   1   4   5   25.77    1.15
   1   4   5   25.10    1.15
   1   4   5   24.42    1.53
   1   4   5   23.56    1.16
   1   4   5   23.05    1.37
   1   4   5   22.98    1.16
   1   4   5   21.89    1.48
  -2  -4  -5   14.26    1.04
   2   4   5   16.82    0.81
   2   4   5   17.67    0.97
   2   4   5   17.57    0.82
   2   4   5   16.64    0.81
   2   4   5   16.34    0.82
  -3  -4  -5   16.81    0.77
  -3  -4  -5   15.71    0.99
  -3  -4  -5   15.45    0.76
  -3  -4  -5   14.17    0.77
  -3  -4  -5   16.20    0.76
   3   4   5   14.85    0.77
   3   4   5   16.09    0.78
   3   4   5   15.29    0.78
   3   4   5   16.62    0.99
   3   4   5   15.15    0.77
  -4  -4  -5    2.07    0.14
  -4  -4  -5    1.93    0.14
   4   4   5    2.34    0.15
   4   4   5    2.15    0.15
   4   4   5    2.12    0.15
   4   4   5    2.13    0.15
  -5  -4  -5   31.12    1.61
  -5  -4  -5   32.67    1.59
   5   4   5   33.48    1.62
   5   4   5   33.01    1.60
   5   4   5   33.74    1.62
   5   4   5   32.55    1.60
  -6  -4  -5    3.86    0.22
  -6  -4  -5    3.38    0.22
   6   4   5    2.78    0.22
   6   4   5    3.78    0.22
   6   4   5    3.02    0.22
   6   4   5    3.59    0.22
  -7  -4  -5   12.17    0.64
  -8  -4  -5    2.13    0.18
  -8  -4  -5    1.80    0.17
   8   4   5    2.24    0.19
   8   4   5    2.05    0.18
   8   4   5    1.79    0.17
   8   4   5    2.22    0.18
 -10  -4  -5    0.40    0.10
  10   4   5    0.29    0.10
   6  -5  -5    0.28    0.16
   6  -5  -5    0.23    0.17
  -6   5   5    0.51    0.16
  -6   5   5    0.44    0.16
   5  -5  -5    0.26    0.15
   5  -5  -5    0.10    0.15
  -5   5   5    0.28    0.11
  -5   5   5    0.17    0.12
  -5   5   5    0.24    0.10
  -5   5   5    0.17    0.13
   4  -5  -5    2.08    0.21
  -4   5   5    2.29    0.30
  -4   5   5    1.81    0.17
  -4   5   5    1.34    0.16
  -3   5   5    0.31    0.06
  -3   5   5    0.26    0.06
  -3   5   5    0.14    0.11
  -3   5   5    0.31    0.13
  -3   5   5    0.17    0.11
  -2   5   5   11.59    0.74
  -2   5   5   12.00    0.60
  -2   5   5   13.76    0.60
  -2   5   5   11.40    0.81
   1  -5  -5    1.83    0.20
   1  -5  -5    2.32    0.19
  -1   5   5    1.99    0.22
  -1   5   5    1.71    0.18
  -1   5   5    1.99    0.10
   0  -5  -5    1.11    0.12
   0  -5  -5    1.06    0.13
   0   5   5    0.99    0.15
  -1  -5  -5    1.39    0.12
  -1  -5  -5    1.18    0.14
  -1  -5  -5    1.05    0.15
   1   5   5    1.05    0.08
   1   5   5    1.14    0.14
   1   5   5    1.31    0.15
   1   5   5    1.22    0.08
   1   5   5    1.15    0.14
  -2  -5  -5   39.43    2.42
  -2  -5  -5   38.01    2.15
  -2  -5  -5   39.28    2.35
   2   5   5   37.91    1.85
   2   5   5   37.24    1.82
   2   5   5   36.23    1.82
   2   5   5   37.99    2.16
   2   5   5   37.16    1.85
   2   5   5   37.68    2.41
  -3  -5  -5    8.68    0.43
  -3  -5  -5    8.27    0.43
  -3  -5  -5    9.46    0.43
  -3  -5  -5    7.54    0.43
   3   5   5    9.05    0.45
   3   5   5    9.19    0.44
   3   5   5    9.20    0.45
   3   5   5    8.58    0.44
  -4  -5  -5    8.15    0.43
  -4  -5  -5    9.36    0.43
  -4  -5  -5    8.28    0.43
  -4  -5  -5    9.26    0.57
  -4  -5  -5    8.00    0.43
   4   5   5    8.13    0.44
   4   5   5    7.63    0.43
   4   5   5    8.53    0.44
   4   5   5    8.51    0.44
  -5  -5  -5    0.69    0.10
  -5  -5  -5    0.46    0.08
   5   5   5    0.43    0.08
   5   5   5    0.46    0.08
   5   5   5    0.79    0.12
  -6  -5  -5   19.38    0.96
  -6  -5  -5   19.21    0.96
  -6  -5  -5   18.81    0.97
  -6  -5  -5   19.98    0.98
   6   5   5   19.44    0.97
   6   5   5   19.44    0.97
   6   5   5   19.76    0.98
   6   5   5   18.46    0.98
  -7  -5  -5   14.33    0.72
  -7  -5  -5   14.22    0.72
  -7  -5  -5   13.85    0.71
  -7  -5  -5   12.40    0.71
   7   5   5   14.03    0.72
   7   5   5   14.39    0.72
  -8  -5  -5   20.67    1.03
  -8  -5  -5   19.75    1.01
  -8  -5  -5   18.78    1.02
  -8  -5  -5   19.90    1.01
   8   5   5   20.32    1.03
   8   5   5   20.49    1.02
   8   5   5   20.12    1.03
   8   5   5   20.08    1.01
  -9  -5  -5    5.76    0.35
  -9  -5  -5    5.74    0.35
   9   5   5    5.78    0.36
   9   5   5    6.01    0.36
 -10  -5  -5    0.21    0.09
 -10  -5  -5    0.35    0.09
  10   5   5    0.16    0.09
  10   5   5    0.33    0.10
   5  -6  -5   -0.02    0.14
   5  -6  -5    0.04    0.15
   4  -6  -5   -0.10    0.12
   4  -6  -5    0.01    0.12
  -4   6   5    0.00    0.09
  -4   6   5   -0.03    0.08
   3  -6  -5    0.48    0.16
   3  -6  -5    0.83    0.16
  -3   6   5    0.78    0.16
  -3   6   5    1.01    0.11
  -3   6   5    0.83    0.11
  -3   6   5    0.92    0.19
  -3   6   5    0.81    0.10
  -3   6   5    0.93    0.16
  -3   6   5    0.80    0.11
  -2   6   5    2.08    0.25
  -2   6   5    1.78    0.24
  -2   6   5    1.94    0.12
  -2   6   5    2.07    0.12
  -2   6   5    2.08    0.23
  -1   6   5   21.36    1.38
  -1   6   5   22.08    1.42
  -1   6   5   21.07    1.26
   0  -6  -5   36.54    2.24
   0  -6  -5   43.74    2.52
   0   6   5   33.64    2.44
   0   6   5   42.75    2.24
  -1  -6  -5    0.26    0.10
  -1  -6  -5    0.19    0.09
  -1  -6  -5    0.19    0.08
   1   6   5    0.07    0.09
   1   6   5    0.16    0.08
   1   6   5    0.17    0.04
  -2  -6  -5    3.61    0.26
  -2  -6  -5    4.43    0.31
  -2  -6  -5    3.83    0.29
   2   6   5    3.84    0.21
   2   6   5    3.83    0.21
   2   6   5    3.54    0.29
   2   6   5    3.64    0.28
  -3  -6  -5   13.90    0.92
  -3  -6  -5   13.66    0.82
  -3  -6  -5   15.51    0.91
   3   6   5   13.76    0.69
   3   6   5   14.66    0.70
   3   6   5   12.45    0.70
   3   6   5   13.60    0.69
  -4  -6  -5    1.06    0.10
  -4  -6  -5    1.08    0.10
  -4  -6  -5    1.10    0.16
  -4  -6  -5    0.98    0.14
  -4  -6  -5    1.10    0.18
  -4  -6  -5    1.08    0.10
  -4  -6  -5    1.13    0.10
   4   6   5    1.05    0.12
   4   6   5    1.01    0.12
   4   6   5    1.15    0.12
   4   6   5    0.90    0.12
  -5  -6  -5   28.78    1.62
  -5  -6  -5   23.97    1.25
  -5  -6  -5   25.84    1.24
  -5  -6  -5   24.31    1.24
  -5  -6  -5   25.16    1.26
   5   6   5   25.18    1.27
   5   6   5   24.92    1.25
   5   6   5   25.46    1.25
   5   6   5   25.05    1.27
  -6  -6  -5    0.91    0.11
  -6  -6  -5    0.89    0.13
  -6  -6  -5    0.81    0.13
  -6  -6  -5    0.95    0.11
   6   6   5    0.79    0.11
   6   6   5    0.77    0.12
   6   6   5    0.91    0.14
   6   6   5    0.81    0.11
  -7  -6  -5   13.25    0.65
  -7  -6  -5   12.87    0.65
  -7  -6  -5   12.22    0.66
  -7  -6  -5   13.36    0.66
   7   6   5   12.44    0.66
   7   6   5   12.76    0.66
   7   6   5   11.88    0.65
   7   6   5   11.39    0.66
  -8  -6  -5   17.38    0.89
  -8  -6  -5   16.89    0.89
  -8  -6  -5   17.80    0.90
  -8  -6  -5   18.79    0.91
   8   6   5   16.92    0.90
   8   6   5   16.74    0.89
   8   6   5   17.09    0.91
   8   6   5   17.58    0.90
  -9  -6  -5   15.87    0.84
  -9  -6  -5   16.03    0.85
   9   6   5   17.23    0.85
   9   6   5   15.77    0.85
  10   6   5    1.45    0.19
  10   6   5    1.91    0.20
   4  -7  -5    5.34    0.51
   4  -7  -5    7.28    0.48
   3  -7  -5    0.06    0.13
   3  -7  -5   -0.08    0.13
  -3   7   5    0.02    0.07
  -3   7   5   -0.02    0.07
  -3   7   5    0.03    0.06
  -3   7   5    0.03    0.07
  -3   7   5   -0.01    0.17
   2  -7  -5    0.21    0.13
   2  -7  -5    0.18    0.14
  -2   7   5    0.28    0.14
  -2   7   5    0.32    0.14
  -2   7   5    0.21    0.15
  -2   7   5    0.32    0.05
  -2   7   5    0.23    0.05
  -1   7   5   -0.02    0.10
  -1   7   5    0.00    0.03
  -1   7   5    0.01    0.12
  -1   7   5    0.01    0.03
  -1   7   5   -0.01    0.03
  -1   7   5   -0.05    0.11
  -1   7   5    0.01    0.03
   0   7   5   13.47    0.65
   0   7   5   13.68    0.65
   0   7   5   12.93    0.66
   0   7   5   13.24    0.65
   0   7   5   14.01    0.89
   0   7   5   13.34    0.81
   0   7   5   12.81    0.91
   1   7   5    3.89    0.32
   1   7   5    3.79    0.20
   1   7   5    3.44    0.29
   1   7   5    3.84    0.21
   1   7   5    4.09    0.21
   1   7   5    3.88    0.21
  -2  -7  -5    6.56    0.49
  -2  -7  -5    6.33    0.48
  -2  -7  -5    6.63    0.43
   2   7   5    6.50    0.44
   2   7   5    7.31    0.48
   2   7   5    6.81    0.35
   2   7   5    7.47    0.36
   2   7   5    6.80    0.35
   2   7   5    6.29    0.35
   2   7   5    6.55    0.48
  -3  -7  -5    2.47    0.23
  -3  -7  -5    2.45    0.25
  -3  -7  -5    2.55    0.21
   3   7   5    2.54    0.17
   3   7   5    2.52    0.17
  -4  -7  -5    4.57    0.33
  -4  -7  -5    4.16    0.30
  -4  -7  -5    4.56    0.35
  -4  -7  -5    4.06    0.22
   4   7   5    3.83    0.25
   4   7   5    3.99    0.25
  -5  -7  -5    8.86    0.49
  -5  -7  -5    8.66    0.49
  -5  -7  -5   10.60    0.67
  -5  -7  -5    9.62    0.50
  -5  -7  -5    9.39    0.49
   5   7   5    9.55    0.51
   5   7   5    9.75    0.51
   5   7   5   10.36    0.52
   5   7   5   10.00    0.51
  -6  -7  -5    1.75    0.15
  -6  -7  -5    1.39    0.22
  -6  -7  -5    1.73    0.15
   6   7   5    1.77    0.17
   6   7   5    1.41    0.16
   6   7   5    1.43    0.16
   6   7   5    1.70    0.17
  -7  -7  -5    0.37    0.09
  -7  -7  -5    0.17    0.10
  -7  -7  -5    0.27    0.12
  -7  -7  -5    0.29    0.11
  -7  -7  -5    0.30    0.08
   7   7   5    0.35    0.11
   7   7   5    0.22    0.08
   7   7   5    0.29    0.10
   7   7   5    0.25    0.08
  -8  -7  -5    1.07    0.16
  -8  -7  -5    0.85    0.16
  -8  -7  -5    0.77    0.12
  -8  -7  -5    1.10    0.17
   8   7   5    1.10    0.14
   8   7   5    0.99    0.13
  -9  -7  -5    2.78    0.25
  -9  -7  -5    3.39    0.25
   9   7   5    2.99    0.22
   9   7   5    2.84    0.22
 -10  -7  -5    0.41    0.12
 -10  -7  -5    0.10    0.11
  10   7   5    0.60    0.11
  10   7   5    0.28    0.11
   3  -8  -5    1.81    0.27
   3  -8  -5    1.91    0.24
  -3   8   5    1.69    0.28
   2  -8  -5    0.98    0.18
   2  -8  -5    1.37    0.23
  -2   8   5    1.16    0.12
  -2   8   5    1.13    0.11
  -2   8   5    1.09    0.13
  -2   8   5    1.15    0.21
  -2   8   5    0.99    0.11
   1  -8  -5   -0.12    0.11
   1  -8  -5    0.05    0.13
  -1   8   5    0.04    0.04
  -1   8   5    0.05    0.04
  -1   8   5    0.02    0.05
  -1   8   5   -0.03    0.05
  -1   8   5   -0.17    0.14
  -1   8   5    0.10    0.17
   0  -8  -5    6.51    0.47
   0  -8  -5    7.48    0.54
   0   8   5    6.98    0.35
   0   8   5    6.85    0.36
   0   8   5    6.56    0.52
   0   8   5    7.67    0.49
   0   8   5    7.56    0.56
   0   8   5    7.03    0.36
   0   8   5    6.70    0.36
  -1  -8  -5    0.05    0.10
  -1  -8  -5   -0.06    0.11
   1   8   5   -0.06    0.06
   1   8   5   -0.04    0.05
   1   8   5   -0.10    0.13
   1   8   5   -0.07    0.10
   1   8   5   -0.09    0.10
   1   8   5   -0.01    0.05
   1   8   5   -0.05    0.06
  -2  -8  -5    4.26    0.35
   2   8   5    3.85    0.24
   2   8   5    3.95    0.23
   2   8   5    4.35    0.23
   2   8   5    4.27    0.31
   2   8   5    3.53    0.33
   2   8   5    3.90    0.24
  -3  -8  -5   19.08    1.38
   3   8   5   23.40    1.08
   3   8   5   22.10    1.06
  -4  -8  -5    1.71    0.22
   4   8   5    1.64    0.15
   4   8   5    1.50    0.15
  -5  -8  -5    0.05    0.05
  -5  -8  -5   -0.02    0.06
  -5  -8  -5    0.05    0.06
  -5  -8  -5    0.07    0.05
   5   8   5    0.05    0.08
   5   8   5    0.12    0.09
   5   8   5    0.02    0.09
   5   8   5    0.12    0.09
  -6  -8  -5    2.03    0.17
  -6  -8  -5    1.86    0.19
  -6  -8  -5    2.20    0.19
  -6  -8  -5    2.29    0.26
  -6  -8  -5    1.94    0.17
   6   8   5    2.25    0.19
   6   8   5    1.97    0.20
   6   8   5    2.26    0.19
   6   8   5    1.57    0.20
  -7  -8  -5    8.47    0.49
  -7  -8  -5    9.17    0.47
  -7  -8  -5    9.25    0.48
  -7  -8  -5    7.37    0.62
  -7  -8  -5    8.65    0.50
   7   8   5    8.41    0.49
   7   8   5    9.37    0.49
   7   8   5    8.04    0.48
   7   8   5    9.42    0.49
  -8  -8  -5    3.67    0.35
  -8  -8  -5    4.17    0.29
  -8  -8  -5    4.00    0.36
  -8  -8  -5    3.93    0.29
  -8  -8  -5    3.65    0.34
   8   8   5    4.32    0.29
   8   8   5    4.59    0.29
 -10  -8  -5    2.44    0.28
 -10  -8  -5    1.95    0.26
   2  -9  -5    6.75    0.57
  -2   9   5    7.42    0.64
   1  -9  -5    0.96    0.19
   1  -9  -5    0.79    0.20
  -1   9   5    0.99    0.11
  -1   9   5    0.62    0.22
  -1   9   5    1.01    0.12
   0  -9  -5    0.81    0.17
   0  -9  -5    0.75    0.18
   0   9   5    0.83    0.11
   0   9   5    0.87    0.13
   0   9   5    1.00    0.22
   0   9   5    0.78    0.25
   0   9   5    0.64    0.09
   0   9   5    0.84    0.11
  -1  -9  -5    3.72    0.32
  -1  -9  -5    3.38    0.28
   1   9   5    3.15    0.20
   1   9   5    3.11    0.22
   1   9   5    3.15    0.21
   1   9   5    3.21    0.33
   1   9   5    3.26    0.32
   1   9   5    2.64    0.22
  -2  -9  -5    8.31    0.62
  -2  -9  -5    7.53    0.54
  -2  -9  -5    9.42    0.62
   2   9   5    8.28    0.45
   2   9   5    8.89    0.61
   2   9   5    8.36    0.57
   2   9   5    8.39    0.44
  -3  -9  -5    6.50    0.47
  -3  -9  -5    5.97    0.47
  -3  -9  -5    6.01    0.41
   3   9   5    5.67    0.36
   3   9   5    6.24    0.34
   3   9   5    5.83    0.34
   3   9   5    5.54    0.35
  -4  -9  -5    0.62    0.15
   4   9   5    0.66    0.11
   4   9   5    0.98    0.15
  -5  -9  -5    0.84    0.17
   5   9   5    0.85    0.14
   5   9   5    1.06    0.16
   5   9   5    1.09    0.15
   5   9   5    0.72    0.12
  -6  -9  -5    3.56    0.35
  -6  -9  -5    4.43    0.25
  -6  -9  -5    3.96    0.25
  -6  -9  -5    3.87    0.24
  -6  -9  -5    4.04    0.26
   6   9   5    3.99    0.28
   6   9   5    4.05    0.28
   6   9   5    4.06    0.30
   6   9   5    3.57    0.30
  -7  -9  -5   -0.09    0.10
  -7  -9  -5    0.05    0.13
  -7  -9  -5   -0.11    0.12
  -7  -9  -5    0.03    0.13
  -7  -9  -5   -0.01    0.10
   7   9   5   -0.21    0.10
   7   9   5    0.00    0.10
  -8  -9  -5    0.10    0.13
  -8  -9  -5    0.40    0.14
  -8  -9  -5    0.07    0.20
  -8  -9  -5    0.24    0.13
  -8  -9  -5    0.14    0.20
   8   9   5    0.31    0.11
   8   9   5    0.01    0.10
  -9  -9  -5    1.94    0.29
  -9  -9  -5    1.94    0.26
   1 -10  -5    0.67    0.23
   1 -10  -5    1.02    0.22
   0 -10  -5    0.80    0.21
   0 -10  -5    0.47    0.18
  -1 -10  -5    0.08    0.13
  -1 -10  -5   -0.03    0.14
   1  10   5   -0.06    0.13
   1  10   5   -0.03    0.09
   1  10   5   -0.01    0.12
   1  10   5    0.14    0.09
  -2 -10  -5    4.05    0.32
  -2 -10  -5    3.46    0.36
   2  10   5    3.70    0.25
   2  10   5    3.05    0.29
   2  10   5    3.68    0.26
   2  10   5    3.38    0.30
  -3 -10  -5    0.29    0.14
  -3 -10  -5    0.38    0.16
  -3 -10  -5    0.12    0.12
   3  10   5    0.07    0.10
   3  10   5    0.07    0.10
   3  10   5    0.13    0.14
   3  10   5   -0.15    0.14
  -4 -10  -5    0.73    0.15
   4  10   5    0.68    0.13
   4  10   5    0.63    0.13
  -5 -10  -5    0.18    0.12
  -6 -10  -5    1.77    0.24
   6  10   5    1.79    0.23
   6  10   5    1.42    0.22
  -7 -10  -5    0.19    0.12
  -7 -10  -5    0.09    0.13
  -7 -10  -5    0.11    0.11
   7  10   5    0.43    0.14
   7  10   5    0.21    0.14
  -8 -10  -5    0.16    0.15
  -8 -10  -5    0.19    0.15
  -8 -10  -5   -0.05    0.15
   8  10   5   -0.19    0.12
   8  10   5   -0.03    0.12
  -2 -11  -5    1.44    0.23
  -2 -11  -5    1.49    0.27
  -3 -11  -5    4.97    0.42
   3  11   5    4.80    0.35
   3  11   5    4.86    0.35
  -4 -11  -5    2.75    0.34
   4  11   5    3.56    0.31
   4  11   5    3.42    0.30
  -5 -11  -5    7.52    0.58
   5  11   5    7.24    0.48
   5  11   5    7.94    0.48
  -6 -11  -5    0.28    0.15
   6  11   5   -0.19    0.15
   6  11   5   -0.01    0.15
  -3  -7   6    1.38    0.19
  -3  -7   6    1.59    0.29
  -3  -7   6    1.26    0.19
   2   7  -6    6.22    0.37
   2   7  -6    5.94    0.37
  -2  -7   6    5.65    0.41
  -2  -7   6    5.52    0.40
   1   7  -6    7.35    0.45
   1   7  -6    7.58    0.45
  -1  -7   6    7.89    0.63
  -1  -7   6    7.26    0.48
  -1  -7   6    7.47    0.48
   0   7  -6    1.03    0.13
   0   7  -6    0.98    0.14
   0   7  -6    0.47    0.20
   0  -7   6    0.93    0.19
   0  -7   6    0.62    0.17
   0  -7   6    0.99    0.19
  -1   7  -6    1.26    0.19
  -1   7  -6    0.42    0.13
   1  -7   6    0.73    0.20
   1  -7   6    0.94    0.19
   4   6  -6    3.86    0.26
   4   6  -6    3.86    0.26
  -4  -6   6    3.72    0.27
  -4  -6   6    3.53    0.42
  -4  -6   6    3.71    0.27
   3   6  -6   -0.16    0.09
   3   6  -6   -0.10    0.09
  -3  -6   6    0.02    0.09
  -3  -6   6    0.00    0.09
   2   6  -6   12.48    0.68
   2   6  -6   12.21    0.67
  -2  -6   6   12.24    0.67
  -2  -6   6   12.77    0.68
   1   6  -6    8.40    0.47
   1   6  -6    8.59    0.47
  -1  -6   6    7.95    0.48
  -1  -6   6    7.51    0.47
   0   6  -6    1.14    0.16
   0   6  -6    1.45    0.26
   0   6  -6    1.25    0.16
   0  -6   6    0.96    0.15
   0  -6   6    1.45    0.23
   0  -6   6    1.08    0.15
   0  -6   6    0.75    0.19
   0  -6   6    0.90    0.20
  -1   6  -6    0.38    0.26
  -1   6  -6    0.48    0.10
  -1   6  -6    0.40    0.14
  -1   6  -6    0.44    0.10
   1  -6   6    0.70    0.15
   1  -6   6    0.40    0.18
   1  -6   6    0.52    0.15
   1  -6   6    0.39    0.17
   1  -6   6    0.36    0.14
  -2   6  -6    0.10    0.28
  -2   6  -6    0.39    0.11
  -2   6  -6    0.12    0.12
  -2   6  -6    0.32    0.10
   2  -6   6    0.12    0.13
   2  -6   6    0.09    0.19
   2  -6   6    0.16    0.14
   2  -6   6    0.08    0.14
   2  -6   6    0.31    0.19
  -3   6  -6    0.99    0.15
  -3   6  -6    1.24    0.16
   3  -6   6    0.79    0.16
   3  -6   6    0.63    0.15
  -4   6  -6    0.33    0.14
   4  -6   6    0.21    0.19
   4  -6   6   -0.24    0.17
   5   5  -6    0.80    0.12
   5   5  -6    0.75    0.13
  -5  -5   6    0.95    0.22
  -5  -5   6    0.96    0.12
  -5  -5   6    1.24    0.16
   4   5  -6    3.21    0.23
   4   5  -6    3.03    0.23
  -4  -5   6    2.61    0.21
  -4  -5   6    2.78    0.33
  -4  -5   6    2.57    0.22
   3   5  -6    5.62    0.32
   3   5  -6    5.25    0.32
  -3  -5   6    4.85    0.32
  -3  -5   6    4.68    0.42
  -3  -5   6    5.06    0.32
   2   5  -6    1.13    0.14
   2   5  -6    0.85    0.13
  -2  -5   6    1.08    0.14
  -2  -5   6    0.73    0.16
  -2  -5   6    0.78    0.11
   1   5  -6    0.65    0.10
   1   5  -6    0.56    0.10
  -1  -5   6    0.54    0.10
  -1  -5   6    0.63    0.11
  -1  -5   6    0.56    0.12
  -1  -5   6    0.46    0.12
   0   5  -6    0.62    0.14
   0   5  -6    0.40    0.08
   0   5  -6    0.48    0.09
   0  -5   6    0.21    0.09
   0  -5   6    0.22    0.09
   0  -5   6    0.41    0.13
   0  -5   6    0.31    0.12
  -1   5  -6    3.21    0.26
  -1   5  -6    3.47    0.22
  -1   5  -6    2.94    0.21
  -1   5  -6    2.99    0.34
   1  -5   6    2.64    0.26
   1  -5   6    2.77    0.26
   1  -5   6    2.90    0.23
   1  -5   6    2.34    0.30
   1  -5   6    2.73    0.23
  -2   5  -6    1.72    0.16
  -2   5  -6    1.71    0.16
  -2   5  -6    1.42    0.19
   2  -5   6    1.31    0.19
   2  -5   6    0.95    0.17
   2  -5   6    1.65    0.19
   2  -5   6    1.26    0.17
  -3   5  -6    0.50    0.10
  -3   5  -6    0.71    0.23
  -3   5  -6    0.49    0.08
  -3   5  -6    0.67    0.11
   3  -5   6    0.50    0.16
   3  -5   6    0.57    0.13
   3  -5   6    0.69    0.13
   3  -5   6    0.51    0.16
   3  -5   6    0.34    0.12
  -4   5  -6    1.90    0.20
  -4   5  -6    1.70    0.20
   4  -5   6    1.24    0.22
   4  -5   6    1.61    0.18
   4  -5   6    1.27    0.22
   4  -5   6    1.39    0.23
   4  -5   6    1.41    0.17
  -5   5  -6    6.36    0.38
  -5   5  -6    5.74    0.38
   5  -5   6    5.71    0.40
   5  -5   6    5.38    0.50
   5  -5   6    5.68    0.40
   6   4  -6    0.23    0.13
   6   4  -6   -0.02    0.13
  -6  -4   6    0.27    0.09
  -6  -4   6    0.29    0.20
   5   4  -6   -0.11    0.09
  -5  -4   6   -0.02    0.08
  -5  -4   6   -0.13    0.15
  -5  -4   6    0.16    0.09
   4   4  -6   14.06    0.90
   4   4  -6   14.69    0.76
   4   4  -6   14.71    0.77
  -4  -4   6   14.76    0.77
  -4  -4   6   13.52    0.96
  -4  -4   6   15.67    0.78
   3   4  -6   19.71    0.98
   3   4  -6   19.95    0.99
   3   4  -6   20.22    1.00
   3   4  -6   16.86    0.99
  -3  -4   6   18.55    0.98
  -3  -4   6   19.28    0.99
  -3  -4   6   20.35    1.00
  -3  -4   6   19.13    1.24
  -3  -4   6   20.14    1.00
   2   4  -6    0.20    0.08
   2   4  -6    0.13    0.07
   2   4  -6    0.35    0.09
   2   4  -6    0.38    0.09
  -2  -4   6    0.31    0.09
  -2  -4   6    0.25    0.10
  -2  -4   6    0.22    0.08
  -2  -4   6    0.18    0.08
  -2  -4   6    0.18    0.08
   1   4  -6    1.52    0.16
   1   4  -6    1.91    0.17
   1   4  -6    1.82    0.17
   1   4  -6    1.62    0.16
  -1  -4   6    1.76    0.17
  -1  -4   6    1.94    0.17
  -1  -4   6    1.44    0.17
  -1  -4   6    1.77    0.16
   0   4  -6    0.13    0.07
   0   4  -6    0.19    0.08
   0   4  -6    0.06    0.09
  -1   4  -6    0.24    0.10
  -1   4  -6    0.29    0.08
  -1   4  -6    0.36    0.08
   1  -4   6    0.16    0.09
  -2   4  -6    1.61    0.17
  -2   4  -6    1.42    0.15
  -2   4  -6    1.59    0.17
  -2   4  -6    1.45    0.24
  -2   4  -6    1.59    0.15
  -2   4  -6    1.42    0.17
   2  -4   6    1.36    0.22
  -3   4  -6    9.19    0.48
  -3   4  -6    8.56    0.63
  -3   4  -6    9.02    0.48
  -3   4  -6    8.49    0.48
  -3   4  -6    7.71    0.47
  -3   4  -6    8.79    0.51
   3  -4   6    8.86    0.64
  -4   4  -6    0.31    0.09
  -4   4  -6    0.46    0.09
  -4   4  -6    0.35    0.19
   4  -4   6    0.12    0.10
   4  -4   6    0.35    0.10
   4  -4   6    0.23    0.12
  -5   4  -6    0.60    0.25
  -5   4  -6    0.55    0.11
   5  -4   6    0.46    0.18
   5  -4   6    0.46    0.13
   5  -4   6    0.55    0.14
   5  -4   6    0.27    0.15
   5  -4   6    0.28    0.17
  -6   4  -6    0.01    0.12
  -6   4  -6   -0.16    0.12
   6  -4   6    0.06    0.15
   6  -4   6   -0.13    0.13
   6  -4   6   -0.10    0.13
   6   3  -6    2.86    0.27
   6   3  -6    2.13    0.25
   6   3  -6    2.87    0.26
  -6  -3   6    2.72    0.22
  -6  -3   6    2.08    0.22
   5   3  -6   31.20    1.52
   5   3  -6   30.70    1.78
   5   3  -6   30.63    1.50
  -5  -3   6   30.21    1.51
  -5  -3   6   29.24    1.92
  -5  -3   6   29.63    1.53
   4   3  -6    0.37    0.09
   4   3  -6    0.31    0.09
   4   3  -6    0.13    0.11
   4   3  -6    0.19    0.10
   4   3  -6    0.26    0.11
  -4  -3   6    0.43    0.08
  -4  -3   6    0.40    0.08
  -4  -3   6    0.31    0.11
  -4  -3   6    0.46    0.11
   3   3  -6    0.94    0.15
  -3  -3   6    0.97    0.13
  -3  -3   6    0.88    0.14
  -3  -3   6    0.75    0.13
   2   3  -6    7.01    0.39
   2   3  -6    6.89    0.39
   2   3  -6    6.73    0.46
  -2  -3   6    7.02    0.40
  -2  -3   6    6.72    0.40
  -2  -3   6    7.15    0.48
   1   3  -6   34.41    1.93
   1   3  -6   33.54    1.67
   1   3  -6   33.53    1.65
  -1  -3   6   34.46    1.65
  -1  -3   6   32.40    2.09
  -1  -3   6   33.06    1.67
   0   3  -6    0.67    0.11
   0   3  -6    0.82    0.12
   0   3  -6    0.77    0.12
   0  -3   6    0.56    0.08
   0  -3   6    0.71    0.10
   0  -3   6    0.49    0.08
   0  -3   6    0.80    0.12
  -1   3  -6    0.08    0.09
  -1   3  -6    0.06    0.08
  -1   3  -6    0.03    0.07
  -1   3  -6    0.07    0.07
   1  -3   6    0.02    0.07
   1  -3   6   -0.10    0.06
   1  -3   6   -0.01    0.07
   1  -3   6    0.04    0.07
  -2   3  -6   19.24    0.94
  -2   3  -6   20.18    1.19
  -2   3  -6   17.89    1.08
  -2   3  -6   18.29    0.95
   2  -3   6   18.81    0.94
   2  -3   6   19.10    1.26
   2  -3   6   16.83    0.95
   2  -3   6   18.20    0.94
   2  -3   6   19.67    0.95
  -3   3  -6   16.86    1.10
  -3   3  -6   17.15    0.89
  -3   3  -6   16.73    0.98
   3  -3   6   18.38    0.88
   3  -3   6   15.38    0.87
   3  -3   6   16.50    0.87
   3  -3   6   18.90    0.87
  -4   3  -6    1.48    0.15
  -4   3  -6    1.41    0.25
  -4   3  -6    1.44    0.16
  -4   3  -6    1.53    0.16
  -4   3  -6    1.46    0.16
   4  -3   6    1.78    0.22
   4  -3   6    1.40    0.16
   4  -3   6    1.62    0.17
  -5   3  -6    0.23    0.19
  -5   3  -6   -0.03    0.07
  -5   3  -6   -0.01    0.08
   5  -3   6   -0.12    0.11
  -6   3  -6   -0.14    0.09
  -6   3  -6    0.05    0.09
  -6   3  -6    0.28    0.23
   6  -3   6   -0.08    0.13
   6  -3   6   -0.09    0.11
   6  -3   6    0.08    0.11
   6  -3   6   -0.27    0.15
   6  -3   6   -0.19    0.15
  -7   3  -6    0.40    0.12
  -7   3  -6    0.11    0.11
   7  -3   6    0.16    0.13
   7  -3   6    0.14    0.14
   7   2  -6    0.12    0.15
   7   2  -6    0.11    0.15
   7   2  -6    0.45    0.14
  -7  -2   6    0.23    0.12
  -7  -2   6    0.20    0.12
   6   2  -6   34.11    1.97
   6   2  -6   40.31    1.96
   6   2  -6   42.16    2.33
   6   2  -6   40.56    1.99
  -6  -2   6   42.32    2.01
  -6  -2   6   40.47    1.98
   5   2  -6   12.86    0.66
   5   2  -6   11.30    0.77
  -5  -2   6   12.17    0.66
  -5  -2   6   13.04    0.66
   4   2  -6    0.24    0.09
   4   2  -6    0.22    0.09
   3   2  -6    0.05    0.07
   3   2  -6    0.08    0.09
   3   2  -6    0.11    0.09
   3   2  -6    0.16    0.07
   3   2  -6    0.08    0.09
  -3  -2   6    0.23    0.09
  -3  -2   6    0.13    0.07
  -3  -2   6    0.12    0.08
  -3  -2   6    0.23    0.07
  -3  -2   6    0.17    0.08
   2   2  -6    3.15    0.21
   2   2  -6    2.89    0.21
   2   2  -6    3.20    0.21
   2   2  -6    2.69    0.25
   2   2  -6    2.74    0.21
  -2  -2   6    3.26    0.21
  -2  -2   6    2.94    0.21
   1   2  -6    4.66    0.28
   1   2  -6    4.17    0.27
   1   2  -6    5.07    0.28
   1   2  -6    5.00    0.33
   1   2  -6    4.38    0.27
  -1  -2   6    4.80    0.28
  -1  -2   6    4.43    0.32
  -1  -2   6    4.83    0.28
   0   2  -6   12.20    0.73
   0   2  -6   12.16    0.62
   0   2  -6   12.48    0.63
   0   2  -6   12.54    0.63
   0   2  -6   11.19    0.63
   0  -2   6   12.42    0.63
   0  -2   6   12.88    0.63
   0  -2   6   11.42    0.63
   0  -2   6   12.37    0.63
  -1   2  -6    1.92    0.17
  -1   2  -6    1.53    0.14
  -1   2  -6    1.50    0.14
  -1   2  -6    1.61    0.16
  -1   2  -6    1.64    0.15
  -1   2  -6    1.69    0.15
   1  -2   6    1.55    0.14
   1  -2   6    1.49    0.14
   1  -2   6    1.48    0.15
   1  -2   6    1.53    0.14
  -2   2  -6    0.05    0.08
  -2   2  -6    0.02    0.07
  -2   2  -6    0.08    0.06
  -2   2  -6    0.01    0.07
   2  -2   6    0.03    0.07
   2  -2   6   -0.03    0.06
   2  -2   6    0.04    0.07
   2  -2   6    0.01    0.06
  -3   2  -6    0.50    0.09
  -3   2  -6    0.66    0.12
  -3   2  -6    0.44    0.07
  -3   2  -6    0.46    0.09
   3  -2   6    0.63    0.10
   3  -2   6    0.70    0.11
   3  -2   6    0.49    0.08
   3  -2   6    0.49    0.13
   3  -2   6    0.58    0.10
  -4   2  -6    0.13    0.08
  -4   2  -6    0.20    0.09
  -4   2  -6    0.30    0.12
   4  -2   6    0.35    0.12
   4  -2   6    0.21    0.08
   4  -2   6    0.21    0.09
   4  -2   6    0.20    0.08
   4  -2   6    0.22    0.09
  -5   2  -6    2.05    0.17
  -5   2  -6    1.98    0.17
  -5   2  -6    1.80    0.17
  -5   2  -6    1.64    0.16
   5  -2   6    1.87    0.17
   5  -2   6    1.69    0.25
   5  -2   6    2.00    0.17
  -6   2  -6    1.14    0.16
  -6   2  -6    1.09    0.15
   6  -2   6    1.18    0.17
   6  -2   6    1.17    0.17
   6  -2   6    1.47    0.22
  -7   2  -6    0.37    0.10
  -7   2  -6    0.58    0.10
   7  -2   6    0.54    0.17
   7  -2   6    0.80    0.13
   7  -2   6    0.51    0.16
   7  -2   6    0.65    0.17
   7  -2   6    0.72    0.14
  -8   2  -6    6.30    0.39
  -8   2  -6    6.30    0.40
   8  -2   6    5.76    0.41
   8  -2   6    6.50    0.56
   8  -2   6    5.86    0.41
   7   1  -6    1.65    0.26
  -7  -1   6    1.96    0.25
  -7  -1   6    2.00    0.25
   6   1  -6    0.72    0.13
   6   1  -6    1.21    0.17
   6   1  -6    1.19    0.18
   6   1  -6    0.75    0.12
   6   1  -6    0.71    0.17
  -6  -1   6    0.96    0.14
   5   1  -6    0.42    0.10
   5   1  -6    0.35    0.10
   5   1  -6    0.31    0.12
   5   1  -6    0.36    0.13
   5   1  -6    0.43    0.11
  -5  -1   6    0.44    0.10
  -5  -1   6    0.45    0.10
  -5  -1   6    0.47    0.10
  -5  -1   6    0.38    0.10
   4   1  -6    8.62    0.59
   4   1  -6    9.40    0.49
   4   1  -6    9.04    0.49
  -4  -1   6    9.09    0.50
  -4  -1   6    8.72    0.49
  -4  -1   6    9.58    0.51
  -4  -1   6   10.01    0.50
   3   1  -6   35.64    1.98
   3   1  -6   33.05    1.69
   3   1  -6   32.79    1.69
   3   1  -6   34.52    1.67
   3   1  -6   33.79    1.67
  -3  -1   6   32.40    1.69
  -3  -1   6   34.82    1.68
  -3  -1   6   32.62    1.67
  -3  -1   6   37.77    1.70
   2   1  -6   53.87    2.55
   2   1  -6   54.14    2.52
   2   1  -6   54.68    2.96
  -2  -1   6   48.30    3.20
  -2  -1   6   53.34    2.56
  -2  -1   6   51.26    2.52
  -2  -1   6   49.97    2.52
  -2  -1   6   50.31    2.55
   1   1  -6    0.21    0.08
   1   1  -6    0.01    0.06
   1   1  -6   -0.05    0.06
  -1  -1   6    0.05    0.07
  -1  -1   6   -0.01    0.04
  -1  -1   6    0.02    0.07
  -1  -1   6    0.01    0.07
  -1  -1   6   -0.05    0.06
   0   1  -6   44.10    2.19
   0   1  -6   43.93    2.16
   0   1  -6   46.01    2.54
   0  -1   6   45.54    2.19
   0  -1   6   46.19    2.16
   0  -1   6   41.82    2.19
   0  -1   6   44.60    2.16
  -1   1  -6   42.47    2.03
  -1   1  -6   40.19    1.99
  -1   1  -6   40.59    2.00
  -1   1  -6   35.90    2.33
  -1   1  -6   40.47    2.02
   1  -1   6   43.54    2.02
   1  -1   6   42.30    2.00
   1  -1   6   42.66    2.02
   1  -1   6   41.61    2.00
  -2   1  -6    0.41    0.08
  -2   1  -6    0.36    0.07
  -2   1  -6    0.52    0.08
  -2   1  -6    0.50    0.08
  -2   1  -6    0.33    0.08
  -2   1  -6    0.39    0.08
   2  -1   6    0.42    0.08
   2  -1   6    0.53    0.09
   2  -1   6    0.49    0.08
   2  -1   6    0.48    0.08
  -3   1  -6    0.25    0.07
  -3   1  -6    0.14    0.07
  -3   1  -6    0.13    0.07
  -3   1  -6    0.15    0.08
  -3   1  -6    0.17    0.06
  -3   1  -6    0.14    0.07
   3  -1   6    0.21    0.08
   3  -1   6    0.14    0.06
   3  -1   6    0.02    0.10
   3  -1   6    0.16    0.07
   3  -1   6    0.18    0.08
  -4   1  -6    4.63    0.28
  -4   1  -6    4.34    0.28
   4  -1   6    4.59    0.28
   4  -1   6    4.36    0.27
   4  -1   6    4.29    0.27
   4  -1   6    4.37    0.26
   4  -1   6    4.81    0.37
  -5   1  -6    3.67    0.24
  -5   1  -6    3.48    0.24
   5  -1   6    3.80    0.24
   5  -1   6    3.59    0.24
   5  -1   6    3.24    0.32
   5  -1   6    3.58    0.24
   5  -1   6    3.62    0.24
  -6   1  -6    1.99    0.18
  -6   1  -6    2.18    0.18
  -6   1  -6    2.19    0.19
  -6   1  -6    1.90    0.18
   6  -1   6    2.26    0.26
   6  -1   6    1.85    0.18
   6  -1   6    2.04    0.18
  -7   1  -6   14.75    0.78
  -7   1  -6   14.76    0.77
   7  -1   6   14.25    0.76
   7  -1   6   15.89    0.78
   7  -1   6   14.56    0.78
   7  -1   6   14.07    0.79
   8  -1   6    0.14    0.17
   8  -1   6    0.25    0.12
   8  -1   6    0.07    0.18
   8  -1   6    0.06    0.11
   8  -1   6    0.14    0.18
  -9   1  -6    0.46    0.13
  -9   1  -6    0.37    0.13
   9  -1   6    0.33    0.18
   9  -1   6    0.33    0.16
   7   0  -6    4.59    0.42
  -7   0   6    4.49    0.35
  -7   0   6    4.47    0.35
   6   0  -6    2.13    0.18
   6   0  -6    1.78    0.22
   6   0  -6    1.99    0.23
   5   0  -6    0.10    0.10
   5   0  -6    0.11    0.10
   5   0  -6    0.11    0.08
   5   0  -6    0.21    0.08
   5   0  -6    0.09    0.10
  -5   0   6    0.18    0.10
  -5   0   6    0.30    0.11
   4   0  -6    6.95    0.38
   4   0  -6    6.45    0.39
   4   0  -6    7.11    0.38
   4   0  -6    7.09    0.39
  -4   0   6    7.03    0.40
  -4   0   6    7.07    0.40
  -4   0   6    7.65    0.41
  -4   0   6    7.33    0.40
  -3   0   6   12.92    0.63
  -3   0   6   12.13    0.62
  -3   0   6   10.76    0.62
  -3   0   6   11.96    0.62
   2   0  -6   15.96    0.74
   2   0  -6   14.71    0.73
   2   0  -6   14.17    0.87
   2   0  -6   14.91    0.72
   2   0  -6   14.08    0.73
  -2   0   6   12.67    0.73
  -2   0   6   15.24    0.75
  -2   0   6   14.64    0.73
  -2   0   6   14.21    0.74
   1   0  -6    4.17    0.24
   1   0  -6    4.25    0.24
   1   0  -6    4.10    0.30
   1   0  -6    4.11    0.25
   1   0  -6    4.58    0.25
  -1   0   6    4.11    0.25
  -1   0   6    4.36    0.25
   0   0  -6    9.95    0.50
   0   0  -6   10.07    0.50
   0   0  -6    8.21    0.50
   0   0  -6    9.81    0.50
   0   0  -6   10.60    0.59
   0   0   6    9.34    0.50
   0   0   6   10.19    0.50
   0   0   6    9.27    0.50
   0   0   6    9.99    0.51
  -1   0  -6   39.11    1.94
  -1   0  -6   42.54    2.27
  -1   0  -6   40.89    1.94
  -1   0  -6   37.57    1.96
  -1   0  -6   40.32    1.96
   1   0   6   38.80    1.94
   1   0   6   40.19    1.96
   1   0   6   39.79    1.94
   1   0   6   40.73    1.97
  -2   0  -6    0.69    0.10
  -2   0  -6    0.67    0.08
  -2   0  -6    0.93    0.11
  -2   0  -6    0.67    0.10
  -2   0  -6    0.81    0.11
  -2   0  -6    0.68    0.11
   2   0   6    0.80    0.11
   2   0   6    0.81    0.11
   2   0   6    0.60    0.09
   2   0   6    0.81    0.11
  -3   0  -6    0.82    0.12
  -3   0  -6    0.77    0.12
  -3   0  -6    0.88    0.11
  -3   0  -6    0.82    0.12
   3   0   6    0.95    0.11
   3   0   6    0.93    0.11
   3   0   6    0.83    0.11
   3   0   6    1.03    0.11
  -4   0  -6    0.56    0.09
  -4   0  -6    0.55    0.09
  -4   0  -6    0.52    0.09
  -4   0  -6    0.54    0.09
   4   0   6    0.52    0.09
   4   0   6    0.55    0.08
   4   0   6    0.52    0.09
   4   0   6    0.46    0.09
  -5   0  -6   -0.05    0.07
  -5   0  -6    0.00    0.07
   5   0   6    0.10    0.07
   5   0   6    0.08    0.07
   5   0   6   -0.04    0.10
   5   0   6   -0.03    0.06
   5   0   6    0.06    0.07
  -6   0  -6    0.37    0.09
  -6   0  -6    0.41    0.09
   6   0   6    0.40    0.12
   6   0   6    0.39    0.09
   6   0   6    0.46    0.09
  -7   0  -6   12.07    0.62
  -7   0  -6   12.40    0.63
  -7   0  -6   11.18    0.62
  -7   0  -6   10.81    0.63
   7   0   6   11.39    0.62
   7   0   6   11.49    0.82
   7   0   6   11.46    0.63
   7   0   6   11.74    0.62
   7   0   6   12.32    0.62
  -8   0  -6    4.68    0.29
  -8   0  -6    4.32    0.29
   8   0   6    4.33    0.30
   8   0   6    4.25    0.30
   8   0   6    4.22    0.34
   8   0   6    4.03    0.34
  -9   0  -6    0.00    0.10
  -9   0  -6    0.15    0.10
   9   0   6    0.09    0.14
   9   0   6    0.10    0.14
   7  -1  -6    0.57    0.20
  -7   1   6    0.44    0.16
  -7   1   6    0.35    0.16
   6  -1  -6    6.06    0.45
  -6   1   6    5.76    0.38
  -6   1   6    6.32    0.39
   5  -1  -6    3.86    0.21
   5  -1  -6    3.94    0.22
   5  -1  -6    3.83    0.31
   5  -1  -6    3.88    0.21
   5  -1  -6    4.10    0.22
  -5   1   6    3.52    0.27
  -5   1   6    3.81    0.28
  -5   1   6    4.45    0.27
  -5   1   6    3.77    0.27
   4  -1  -6    5.34    0.28
   4  -1  -6    5.57    0.28
   4  -1  -6    4.88    0.27
   4  -1  -6    5.27    0.37
   4  -1  -6    5.14    0.27
  -4   1   6    4.36    0.31
  -4   1   6    5.27    0.31
  -4   1   6    5.24    0.31
  -4   1   6    5.00    0.31
   3  -1  -6    0.19    0.09
   3  -1  -6    0.24    0.05
   3  -1  -6    0.19    0.06
   3  -1  -6    0.14    0.06
   3  -1  -6    0.22    0.05
  -3   1   6    0.23    0.08
  -3   1   6    0.16    0.07
  -3   1   6    0.09    0.07
  -3   1   6    0.20    0.08
   2  -1  -6   24.40    1.18
   2  -1  -6   25.57    1.42
   2  -1  -6   24.62    1.20
  -2   1   6   24.37    1.19
  -2   1   6   22.57    1.21
   1  -1  -6   32.25    1.85
   1  -1  -6   31.68    1.56
   1  -1  -6   32.44    1.58
   1  -1  -6   32.08    1.58
   1  -1  -6   33.01    1.56
  -1   1   6   31.78    1.59
  -1   1   6   33.80    1.57
  -1   1   6   31.08    1.59
  -1   1   6   32.33    1.57
   0  -1  -6   13.31    0.79
   0  -1  -6   13.36    0.67
   0  -1  -6   13.08    0.66
   0  -1  -6   13.12    0.67
   0  -1  -6   14.42    0.66
   0   1   6   12.43    0.67
   0   1   6   14.30    0.68
   0   1   6   12.75    0.67
   0   1   6   13.78    0.67
  -1  -1  -6   24.02    1.28
  -1  -1  -6   20.30    1.09
  -1  -1  -6   22.84    1.08
  -1  -1  -6   22.85    1.08
  -1  -1  -6   22.77    1.10
   1   1   6   22.00    1.27
   1   1   6   21.21    1.10
   1   1   6   22.77    1.10
   1   1   6   22.51    1.08
   1   1   6   20.23    1.08
  -2  -1  -6   44.53    2.19
  -2  -1  -6   44.98    2.16
  -2  -1  -6   44.15    2.19
  -2  -1  -6   44.85    2.53
  -2  -1  -6   46.07    2.16
   2   1   6   44.94    2.19
   2   1   6   47.99    2.53
   2   1   6   41.76    2.16
   2   1   6   42.72    2.19
   2   1   6   44.78    2.16
  -3  -1  -6   -0.04    0.06
  -3  -1  -6   -0.05    0.05
  -3  -1  -6    0.05    0.06
  -3  -1  -6    0.00    0.05
   3   1   6   -0.05    0.06
   3   1   6    0.04    0.06
   3   1   6   -0.01    0.06
   3   1   6   -0.02    0.05
   3   1   6   -0.02    0.06
  -4  -1  -6    0.40    0.08
  -4  -1  -6    0.46    0.08
  -4  -1  -6    0.39    0.07
   4   1   6    0.39    0.07
   4   1   6    0.35    0.07
   4   1   6    0.36    0.08
   4   1   6    0.42    0.08
   4   1   6    0.35    0.09
   4   1   6    0.49    0.08
  -5  -1  -6    0.10    0.07
  -5  -1  -6    0.01    0.06
  -5  -1  -6   -0.06    0.07
  -5  -1  -6   -0.03    0.07
   5   1   6    0.15    0.07
   5   1   6    0.04    0.06
   5   1   6   -0.06    0.08
   5   1   6    0.05    0.07
   5   1   6    0.10    0.07
   5   1   6   -0.02    0.05
  -6  -1  -6    6.33    0.36
  -6  -1  -6    6.15    0.35
   6   1   6    5.65    0.36
   6   1   6    6.11    0.34
   6   1   6    6.48    0.35
   6   1   6    6.05    0.35
   6   1   6    5.72    0.44
   6   1   6    5.81    0.35
  -7  -1  -6    3.64    0.24
  -7  -1  -6    3.58    0.24
   7   1   6    3.66    0.33
   7   1   6    3.69    0.23
  -8  -1  -6    0.04    0.08
  -8  -1  -6    0.06    0.08
   8   1   6    0.12    0.08
   8   1   6    0.34    0.12
   8   1   6    0.20    0.09
   8   1   6    0.45    0.12
  -9  -1  -6    0.26    0.09
  -9  -1  -6    0.27    0.09
   9   1   6    0.07    0.11
   9   1   6    0.06    0.10
  10   1   6    0.95    0.18
  10   1   6    1.43    0.19
   7  -2  -6    4.13    0.47
  -7   2   6    5.80    0.41
  -7   2   6    5.29    0.41
   6  -2  -6    6.71    0.48
  -6   2   6    6.51    0.40
  -6   2   6    6.42    0.40
  -6   2   6    5.77    0.44
  -6   2   6    5.90    0.43
  -5   2   6    5.17    0.34
  -5   2   6    4.22    0.32
  -5   2   6    5.04    0.31
  -5   2   6    5.22    0.32
   4  -2  -6    4.28    0.32
  -4   2   6    4.15    0.26
  -4   2   6    3.76    0.26
  -4   2   6    4.12    0.27
  -4   2   6    4.56    0.27
   3  -2  -6    2.76    0.24
  -3   2   6    3.20    0.20
  -3   2   6    2.71    0.19
   2  -2  -6   16.99    1.00
  -2   2   6   18.16    0.84
  -2   2   6   16.50    0.83
  -2   2   6   15.69    0.84
  -2   2   6   17.13    0.85
   1  -2  -6   43.38    2.11
   1  -2  -6   41.50    2.11
   1  -2  -6   45.16    2.08
   1  -2  -6   47.14    2.48
  -1   2   6   41.31    2.12
  -1   2   6   43.75    2.47
  -1   2   6   38.83    2.67
  -1   2   6   46.37    2.12
  -1   2   6   43.37    2.09
  -1  -2  -6    0.00    0.04
  -1  -2  -6    0.01    0.04
  -1  -2  -6    0.00    0.06
  -1  -2  -6   -0.02    0.03
  -1  -2  -6   -0.02    0.03
   1   2   6    0.02    0.04
   1   2   6    0.01    0.04
   1   2   6    0.09    0.05
   1   2   6    0.06    0.06
   1   2   6    0.02    0.05
  -2  -2  -6    7.89    0.40
  -2  -2  -6    8.40    0.41
  -2  -2  -6    7.54    0.48
  -2  -2  -6    7.69    0.41
  -2  -2  -6    7.77    0.40
   2   2   6    8.64    0.41
   2   2   6    7.59    0.48
   2   2   6    7.66    0.41
   2   2   6    7.77    0.41
   2   2   6    8.68    0.42
  -3  -2  -6    0.26    0.06
  -3  -2  -6    0.32    0.06
  -3  -2  -6    0.22    0.06
  -3  -2  -6    0.27    0.06
   3   2   6    0.33    0.07
   3   2   6    0.32    0.07
   3   2   6    0.22    0.06
   3   2   6    0.32    0.08
   3   2   6    0.29    0.06
  -4  -2  -6   92.98    4.48
  -4  -2  -6   87.33    4.48
  -4  -2  -6   93.81    4.54
  -4  -2  -6   95.43    4.54
   4   2   6   83.09    5.90
   4   2   6  101.18    5.25
   4   2   6   94.70    4.48
   4   2   6   98.37    4.55
  -5  -2  -6   11.93    0.62
  -5  -2  -6   11.74    0.61
  -5  -2  -6   11.90    0.61
  -5  -2  -6   12.06    0.62
   5   2   6   12.59    0.79
   5   2   6   12.86    0.62
   5   2   6   11.72    0.62
   5   2   6   11.19    0.62
   5   2   6   12.39    0.71
   5   2   6   11.77    0.62
  -6  -2  -6    6.92    0.38
  -6  -2  -6    7.02    0.38
  -6  -2  -6    7.31    0.38
  -6  -2  -6    7.08    0.38
   6   2   6    6.60    0.48
   6   2   6    6.44    0.38
   6   2   6    6.61    0.38
   6   2   6    6.52    0.38
   6   2   6    6.77    0.38
   6   2   6    6.87    0.42
  -7  -2  -6    0.77    0.12
  -7  -2  -6    0.72    0.11
  -7  -2  -6    0.73    0.12
  -7  -2  -6    0.64    0.10
   7   2   6    0.94    0.13
   7   2   6    0.76    0.10
   7   2   6    0.70    0.11
  -8  -2  -6    1.95    0.19
  -8  -2  -6    1.71    0.20
  -8  -2  -6    2.18    0.20
  -8  -2  -6    2.23    0.19
   8   2   6    2.77    0.22
   8   2   6    2.37    0.21
   8   2   6    2.41    0.19
   8   2   6    2.14    0.21
   8   2   6    2.02    0.18
  -9  -2  -6    1.17    0.17
  -9  -2  -6    1.02    0.13
   9   2   6    1.06    0.17
   9   2   6    1.30    0.17
 -10  -2  -6    0.40    0.10
 -10  -2  -6    0.32    0.10
  10   2   6    0.17    0.14
  10   2   6    0.05    0.13
   6  -3  -6    3.20    0.35
  -6   3   6    3.58    0.34
  -6   3   6    3.24    0.35
   5  -3  -6    2.47    0.26
  -5   3   6    1.76    0.21
  -5   3   6    1.67    0.24
  -5   3   6    2.01    0.23
  -5   3   6    2.34    0.21
   4  -3  -6    9.86    0.66
  -4   3   6   10.87    0.55
  -4   3   6   11.17    0.56
  -4   3   6   10.47    0.55
  -4   3   6    9.94    0.75
  -4   3   6   10.14    0.54
   3  -3  -6   18.00    1.11
  -3   3   6   18.97    0.93
  -3   3   6   19.20    0.94
  -3   3   6   19.18    0.93
  -3   3   6   18.41    0.94
   2  -3  -6    2.34    0.22
  -2   3   6    1.86    0.21
  -2   3   6    2.37    0.16
  -2   3   6    2.42    0.16
  -2   3   6    2.33    0.16
  -2   3   6    2.67    0.16
  -2   3   6    2.60    0.21
   1  -3  -6   18.76    1.08
  -1   3   6   17.00    0.90
  -1   3   6   19.89    0.90
  -1   3   6   18.72    0.89
  -1   3   6   18.37    1.07
  -1   3   6   17.26    0.91
  -1   3   6   18.18    1.15
   0  -3  -6   44.28    2.56
   0   3   6   43.67    2.57
   0   3   6   42.77    2.20
   0   3   6   43.87    2.17
   0   3   6   51.39    2.78
   0   3   6   44.99    2.17
   0   3   6   44.59    2.20
  -1  -3  -6   25.57    1.30
  -1  -3  -6   28.38    1.28
  -1  -3  -6   26.61    1.54
   1   3   6   26.76    1.29
   1   3   6   26.67    1.31
   1   3   6   27.44    1.54
   1   3   6   25.58    1.31
   1   3   6   26.71    1.29
  -2  -3  -6    1.11    0.10
  -2  -3  -6    0.99    0.08
  -2  -3  -6    1.06    0.08
  -2  -3  -6    1.05    0.08
  -2  -3  -6    1.02    0.08
   2   3   6    0.93    0.09
   2   3   6    1.06    0.10
   2   3   6    0.99    0.10
   2   3   6    0.85    0.12
   2   3   6    0.96    0.09
  -3  -3  -6   10.54    0.52
  -3  -3  -6   10.82    0.52
  -3  -3  -6    9.94    0.53
  -3  -3  -6   10.02    0.53
   3   3   6   10.19    0.53
   3   3   6   10.27    0.53
   3   3   6   11.13    0.54
   3   3   6   10.66    0.63
   3   3   6   10.39    0.53
  -4  -3  -6    9.79    0.50
  -4  -3  -6    9.58    0.50
  -4  -3  -6    9.69    0.50
  -4  -3  -6    9.94    0.50
   4   3   6    9.15    0.63
   4   3   6    9.75    0.51
   4   3   6    9.40    0.50
   4   3   6   10.10    0.59
   4   3   6   10.05    0.50
   4   3   6   10.36    0.51
  -5  -3  -6   28.24    1.38
  -5  -3  -6   28.48    1.36
   5   3   6   27.66    1.37
   5   3   6   27.39    1.38
   5   3   6   28.48    1.60
   5   3   6   26.95    1.77
   5   3   6   28.01    1.38
   5   3   6   27.52    1.37
  -6  -3  -6    1.51    0.15
  -6  -3  -6    1.50    0.15
  -6  -3  -6    1.79    0.15
  -6  -3  -6    1.60    0.15
   6   3   6    1.36    0.15
   6   3   6    1.56    0.16
  -7  -3  -6    5.86    0.34
  -7  -3  -6    5.94    0.34
   7   3   6    5.23    0.34
   7   3   6    6.23    0.34
  -8  -3  -6    0.08    0.08
  -8  -3  -6    0.12    0.08
  -8  -3  -6   -0.06    0.07
  -8  -3  -6    0.01    0.07
   8   3   6    0.07    0.07
   8   3   6   -0.06    0.07
   8   3   6    0.13    0.08
   8   3   6    0.12    0.07
  -9  -3  -6    0.02    0.09
   9   3   6    0.09    0.08
   9   3   6   -0.10    0.08
  10   3   6    1.64    0.21
  10   3   6    1.67    0.20
   6  -4  -6    0.21    0.18
   5  -4  -6    0.38    0.14
  -5   4   6    0.23    0.12
  -5   4   6    0.21    0.13
  -5   4   6    0.29    0.12
  -5   4   6    0.08    0.13
  -4   4   6   15.10    0.74
  -4   4   6   12.03    0.99
  -4   4   6   14.34    0.73
  -4   4   6   14.17    0.74
  -4   4   6   15.11    0.97
  -4   4   6   15.25    0.73
   3  -4  -6   30.67    1.70
  -3   4   6   27.17    1.91
  -3   4   6   28.37    1.84
  -3   4   6   30.45    1.44
  -3   4   6   29.91    1.42
  -3   4   6   30.86    1.42
  -3   4   6   26.63    1.43
   2  -4  -6   32.49    1.87
  -2   4   6   32.30    1.86
  -1   4   6   -0.07    0.04
  -1   4   6   -0.01    0.04
  -1   4   6   -0.06    0.08
  -1   4   6   -0.09    0.07
  -1   4   6   -0.05    0.04
  -1   4   6    0.07    0.04
   0  -4  -6    5.11    0.35
   0   4   6    5.83    0.27
   0   4   6    5.35    0.36
   0   4   6    5.07    0.35
   0   4   6    5.05    0.27
   0   4   6    5.16    0.27
   0   4   6    4.91    0.27
   1   4   6    8.21    0.39
   1   4   6    6.92    0.50
   1   4   6    7.91    0.39
  -2  -4  -6   54.44    3.29
   2   4   6   54.75    2.60
   2   4   6   55.76    2.57
   2   4   6   48.58    3.02
   2   4   6   58.42    2.57
   2   4   6   48.39    2.60
  -3  -4  -6   14.82    0.73
  -3  -4  -6   14.82    0.72
   3   4   6   15.01    0.73
   3   4   6   14.78    0.73
   3   4   6   15.16    0.74
   3   4   6   15.11    0.74
   3   4   6   13.90    0.87
  -4  -4  -6    9.71    0.50
  -4  -4  -6    9.69    0.50
  -4  -4  -6   10.19    0.50
  -4  -4  -6   10.01    0.51
   4   4   6    9.95    0.51
   4   4   6    9.52    0.51
   4   4   6   10.03    0.51
   4   4   6   10.07    0.51
   4   4   6    9.65    0.60
  -5  -4  -6    1.28    0.13
  -5  -4  -6    1.46    0.13
  -5  -4  -6    1.23    0.13
  -5  -4  -6    1.31    0.13
   5   4   6    1.25    0.13
   5   4   6    1.12    0.13
   5   4   6    0.98    0.13
   5   4   6    1.18    0.13
  -6  -4  -6   21.29    1.00
  -6  -4  -6   21.25    1.00
  -6  -4  -6   20.92    1.01
  -6  -4  -6   21.00    1.01
   6   4   6   16.87    1.01
   6   4   6   20.47    1.00
   6   4   6   17.11    0.99
   6   4   6   21.50    1.02
  -7  -4  -6    1.20    0.15
  -7  -4  -6    1.01    0.12
   7   4   6    0.90    0.13
   7   4   6    0.88    0.13
  -8  -4  -6   -0.03    0.08
  -8  -4  -6   -0.15    0.08
   8   4   6    0.16    0.09
   8   4   6    0.09    0.09
   8   4   6   -0.03    0.07
   8   4   6    0.00    0.07
   9   4   6    0.12    0.08
   9   4   6   -0.07    0.08
  10   4   6    1.65    0.20
  10   4   6    1.60    0.19
  -5   5   6    1.25    0.16
  -5   5   6    1.22    0.15
  -4   5   6    0.08    0.20
  -4   5   6    0.02    0.10
  -4   5   6    0.07    0.08
  -4   5   6    0.03    0.09
  -4   5   6   -0.02    0.09
  -3   5   6    3.23    0.35
  -3   5   6    4.32    0.24
  -3   5   6    4.22    0.36
  -3   5   6    3.95    0.24
  -3   5   6    3.87    0.23
  -3   5   6    4.16    0.23
  -2   5   6   12.78    0.60
  -2   5   6   10.79    0.60
  -2   5   6   12.72    0.74
  -2   5   6   13.28    0.59
  -2   5   6   10.25    0.79
  -2   5   6   13.14    0.59
  -2   5   6   11.10    0.84
  -1   5   6    3.72    0.20
  -1   5   6    3.81    0.31
  -1   5   6    3.60    0.28
  -1   5   6    3.63    0.20
  -1   5   6    4.20    0.34
   0  -5  -6    0.08    0.07
   0   5   6   -0.04    0.03
   0   5   6    0.01    0.09
   0   5   6    0.03    0.08
   0   5   6   -0.02    0.08
   0   5   6   -0.04    0.03
  -1  -5  -6   43.59    2.70
  -1  -5  -6   46.89    3.04
   1   5   6   54.96    2.95
   1   5   6   46.64    2.28
   1   5   6   48.34    2.31
   1   5   6   48.75    2.28
   1   5   6   45.60    2.31
   1   5   6   45.95    2.71
  -2  -5  -6   57.33    3.52
  -2  -5  -6   56.50    3.14
   2   5   6   55.25    2.66
   2   5   6   55.98    3.15
   2   5   6   56.02    2.70
   2   5   6   55.60    2.70
   2   5   6   56.46    2.66
   2   5   6   50.51    3.52
  -3  -5  -6   12.27    0.61
  -3  -5  -6   12.69    0.62
   3   5   6   12.31    0.82
   3   5   6   12.37    0.63
   3   5   6   12.61    0.64
   3   5   6   13.25    0.64
   3   5   6   13.51    0.63
   3   5   6   12.20    0.76
  -4  -5  -6    0.04    0.05
  -4  -5  -6    0.02    0.05
  -4  -5  -6    0.02    0.05
  -4  -5  -6    0.02    0.09
  -4  -5  -6    0.06    0.05
   4   5   6    0.12    0.06
   4   5   6    0.08    0.06
   4   5   6    0.16    0.06
   4   5   6    0.14    0.06
  -5  -5  -6    0.61    0.08
  -5  -5  -6    0.72    0.09
  -5  -5  -6    0.72    0.09
  -5  -5  -6    0.57    0.08
   5   5   6    0.65    0.09
   5   5   6    0.83    0.11
   5   5   6    0.65    0.09
   5   5   6    0.71    0.11
  -6  -5  -6    4.55    0.28
  -6  -5  -6    4.79    0.28
  -6  -5  -6    4.60    0.28
  -6  -5  -6    4.96    0.28
   6   5   6    4.53    0.28
   6   5   6    4.82    0.29
   6   5   6    4.68    0.28
   6   5   6    4.93    0.29
  -7  -5  -6    0.56    0.10
  -7  -5  -6    0.51    0.10
  -7  -5  -6    0.61    0.10
  -7  -5  -6    0.54    0.10
   7   5   6    0.81    0.12
   7   5   6    0.49    0.09
  -8  -5  -6    3.91    0.25
  -8  -5  -6    3.66    0.26
  -8  -5  -6    3.83    0.26
  -8  -5  -6    3.75    0.27
   8   5   6    3.34    0.27
   8   5   6    3.70    0.27
   8   5   6    3.69    0.25
   8   5   6    3.68    0.25
  -9  -5  -6    0.82    0.12
  -9  -5  -6    0.69    0.12
   9   5   6    1.16    0.15
   9   5   6    0.95    0.12
 -10  -5  -6   14.11    0.80
 -10  -5  -6   14.75    0.81
  10   5   6   15.89    0.81
  10   5   6   16.27    0.81
   5  -6  -6    0.67    0.20
   5  -6  -6    0.71    0.19
   4  -6  -6    0.81    0.19
   4  -6  -6    0.86    0.18
  -4   6   6    0.92    0.12
  -4   6   6    0.92    0.12
   3  -6  -6    0.72    0.17
   3  -6  -6    0.64    0.15
  -3   6   6    0.75    0.12
  -3   6   6    0.71    0.11
  -3   6   6    0.66    0.08
  -3   6   6    0.79    0.11
  -3   6   6    0.38    0.17
  -3   6   6    0.65    0.20
   2  -6  -6    2.44    0.23
   2  -6  -6    2.53    0.27
  -2   6   6    2.37    0.25
  -2   6   6    2.30    0.28
  -2   6   6    2.16    0.14
  -2   6   6    2.11    0.14
  -2   6   6    2.52    0.14
  -2   6   6    1.71    0.27
  -2   6   6    2.49    0.14
   0  -6  -6  116.50    7.38
   0  -6  -6  109.21    6.57
   0   6   6  118.64    5.56
   0   6   6  116.85    5.56
   0   6   6  111.39    7.17
   0   6   6  115.84    5.63
   0   6   6  118.69    6.57
   0   6   6  122.67    5.64
   0   6   6  118.24    7.39
  -1  -6  -6    2.51    0.24
  -1  -6  -6    2.63    0.21
   1   6   6    2.95    0.26
   1   6   6    2.76    0.15
   1   6   6    2.57    0.15
   1   6   6    2.87    0.23
   1   6   6    2.77    0.15
   1   6   6    2.61    0.15
  -2  -6  -6   18.07    1.08
  -2  -6  -6   16.58    0.98
  -2  -6  -6   16.61    1.10
   2   6   6   15.76    1.09
   2   6   6   16.93    0.83
   2   6   6   16.85    0.99
   2   6   6   16.87    0.82
   2   6   6   15.95    0.82
   2   6   6   16.69    0.83
  -3  -6  -6    4.52    0.33
  -3  -6  -6    4.82    0.29
   3   6   6    3.81    0.24
   3   6   6    4.53    0.25
   3   6   6    4.34    0.31
   3   6   6    4.13    0.32
   3   6   6    4.34    0.24
   3   6   6    4.26    0.25
  -4  -6  -6    7.66    0.52
  -4  -6  -6    7.05    0.37
  -4  -6  -6    7.06    0.38
  -4  -6  -6    7.47    0.52
  -4  -6  -6    7.62    0.38
  -4  -6  -6    7.05    0.38
   4   6   6    7.71    0.40
   4   6   6    7.83    0.40
   4   6   6    7.90    0.40
   4   6   6    7.88    0.40
  -6  -6  -6    0.23    0.12
  -6  -6  -6    0.39    0.08
  -6  -6  -6    0.35    0.08
   6   6   6    0.30    0.08
   6   6   6    0.42    0.08
   6   6   6    0.30    0.07
   6   6   6    0.32    0.08
  -7  -6  -6    0.57    0.11
  -7  -6  -6    0.86    0.13
  -7  -6  -6    0.67    0.10
  -7  -6  -6    0.54    0.11
   7   6   6    0.53    0.09
   7   6   6    0.60    0.09
   7   6   6    0.52    0.10
   7   6   6    0.62    0.11
  -8  -6  -6    6.28    0.36
  -8  -6  -6    5.94    0.36
  -8  -6  -6    5.88    0.37
  -8  -6  -6    5.92    0.38
   8   6   6    5.57    0.36
   8   6   6    6.06    0.36
   8   6   6    5.88    0.35
   8   6   6    6.24    0.36
  -9  -6  -6    0.70    0.12
  -9  -6  -6    0.67    0.12
   9   6   6    0.42    0.10
   9   6   6    0.45    0.10
 -10  -6  -6    4.13    0.30
 -10  -6  -6    4.36    0.30
  10   6   6    3.86    0.30
  10   6   6    4.59    0.30
   4  -7  -6    1.60    0.25
   4  -7  -6    1.42    0.26
   3  -7  -6    1.76    0.26
   3  -7  -6    1.51    0.23
  -3   7   6    1.64    0.15
  -3   7   6    1.67    0.15
  -3   7   6    1.90    0.35
   2  -7  -6    0.43    0.15
   2  -7  -6    0.43    0.16
  -2   7   6    0.49    0.16
  -2   7   6    0.20    0.18
  -2   7   6    0.46    0.07
  -2   7   6    0.42    0.05
  -2   7   6    0.21    0.16
   1  -7  -6    3.11    0.30
   1  -7  -6    2.52    0.26
  -1   7   6    3.52    0.32
  -1   7   6    3.41    0.32
  -1   7   6    3.08    0.29
   0  -7  -6   20.34    1.13
   0  -7  -6   18.72    1.26
   0   7   6   20.84    1.27
   0   7   6   18.06    1.22
   0   7   6   16.78    0.92
   0   7   6   18.96    1.12
   1   7   6    8.15    0.40
   1   7   6    8.21    0.39
   1   7   6    8.35    0.51
   1   7   6    6.61    0.55
  -2  -7  -6    0.39    0.11
  -2  -7  -6    0.32    0.11
  -2  -7  -6    0.35    0.11
   2   7   6    0.38    0.06
   2   7   6    0.24    0.13
   2   7   6    0.46    0.11
   2   7   6    0.40    0.06
   2   7   6    0.35    0.06
   2   7   6    0.48    0.11
   2   7   6    0.39    0.06
  -3  -7  -6    0.00    0.10
  -3  -7  -6    0.02    0.10
  -3  -7  -6    0.14    0.09
   3   7   6    0.14    0.06
   3   7   6    0.16    0.07
   3   7   6    0.13    0.07
   3   7   6    0.10    0.07
   3   7   6    0.16    0.06
  -4  -7  -6   47.42    2.90
  -4  -7  -6   47.15    2.64
  -4  -7  -6   45.20    2.97
   4   7   6   47.01    2.28
   4   7   6   45.63    2.25
  -6  -7  -6   13.62    0.68
  -6  -7  -6   14.06    0.68
  -6  -7  -6   12.75    0.68
  -6  -7  -6   13.58    0.90
  -6  -7  -6   13.15    0.68
   6   7   6   13.55    0.69
   6   7   6   13.01    0.70
   6   7   6   13.51    0.70
   6   7   6   12.73    0.69
  -7  -7  -6    0.21    0.13
  -7  -7  -6    0.25    0.09
  -7  -7  -6    0.22    0.08
  -7  -7  -6    0.07    0.10
  -7  -7  -6    0.18    0.10
   7   7   6    0.26    0.08
   7   7   6    0.17    0.08
  -8  -7  -6    1.57    0.23
  -8  -7  -6    1.57    0.18
  -8  -7  -6    1.46    0.18
  -8  -7  -6    1.76    0.18
   8   7   6    1.88    0.17
   8   7   6    1.71    0.17
  -9  -7  -6    0.23    0.11
  -9  -7  -6    0.37    0.11
   9   7   6    0.25    0.09
   9   7   6    0.14    0.09
 -10  -7  -6    0.61    0.15
 -10  -7  -6    0.59    0.14
  10   7   6    0.34    0.11
  10   7   6    0.09    0.11
   3  -8  -6    0.43    0.19
   3  -8  -6    0.42    0.18
   2  -8  -6    1.59    0.26
   2  -8  -6    1.38    0.21
  -2   8   6    1.50    0.26
   1  -8  -6    0.17    0.12
   1  -8  -6    0.13    0.13
  -1   8   6    0.11    0.16
  -1   8   6    0.21    0.18
  -1   8   6    0.15    0.17
   0  -8  -6    7.91    0.53
   0  -8  -6    7.87    0.47
   0   8   6    6.47    0.34
   0   8   6    6.03    0.33
   0   8   6    7.54    0.49
   0   8   6    5.50    0.53
   0   8   6    6.50    0.52
   0   8   6    6.57    0.34
  -1  -8  -6    0.53    0.13
   1   8   6    0.26    0.13
  -2  -8  -6    3.98    0.33
   2   8   6    4.14    0.35
   2   8   6    3.42    0.29
   2   8   6    3.77    0.22
   2   8   6    3.85    0.22
  -3  -8  -6    0.93    0.18
   3   8   6    0.84    0.12
   3   8   6    1.01    0.12
   3   8   6    1.24    0.14
  -4  -8  -6    1.78    0.22
  -4  -8  -6    1.74    0.18
  -4  -8  -6    1.51    0.20
   4   8   6    1.39    0.15
   4   8   6    1.26    0.15
   4   8   6    1.63    0.17
   4   8   6    1.42    0.16
   5   8   6   16.50    0.81
   5   8   6   15.33    0.81
   5   8   6   15.51    0.80
   5   8   6   15.71    0.80
  -6  -8  -6   13.63    0.71
  -6  -8  -6   14.58    0.71
  -6  -8  -6   13.60    0.70
  -6  -8  -6   15.02    0.94
  -6  -8  -6   14.01    0.70
   6   8   6   13.28    0.73
   6   8   6   12.95    0.72
   6   8   6   13.92    0.72
   6   8   6   13.72    0.73
  -7  -8  -6   14.39    0.87
  -7  -8  -6   12.54    0.64
  -7  -8  -6   12.07    0.65
  -7  -8  -6   11.72    0.65
  -7  -8  -6   11.73    0.66
   7   8   6   11.73    0.66
   7   8   6   12.60    0.66
   7   8   6   11.98    0.66
   7   8   6   12.60    0.66
  -8  -8  -6    0.98    0.14
  -8  -8  -6    0.85    0.18
  -8  -8  -6    0.93    0.14
   8   8   6    1.49    0.18
   8   8   6    1.45    0.18
  -9  -8  -6    0.69    0.14
  -9  -8  -6    0.73    0.14
  -9  -8  -6    0.94    0.18
   9   8   6    0.59    0.11
 -10  -8  -6    0.71    0.17
 -10  -8  -6    0.54    0.16
   2  -9  -6    7.46    0.66
   2  -9  -6    9.13    0.59
   1  -9  -6    0.59    0.17
   1  -9  -6    0.70    0.19
   0  -9  -6    1.94    0.29
   0  -9  -6    2.79    0.26
   0   9   6    2.32    0.34
   0   9   6    2.18    0.17
   0   9   6    2.55    0.15
   0   9   6    2.98    0.42
   0   9   6    2.87    0.16
   0   9   6    2.32    0.18
  -1  -9  -6    3.80    0.32
  -1  -9  -6    3.51    0.34
   1   9   6    3.91    0.22
   1   9   6    3.91    0.22
   1   9   6    3.68    0.38
   1   9   6    4.36    0.35
   1   9   6    3.50    0.24
   1   9   6    3.55    0.43
  -2  -9  -6   22.55    1.34
  -2  -9  -6   20.07    1.18
   2   9   6   20.01    0.98
   2   9   6   20.25    0.99
   2   9   6   16.96    1.30
   2   9   6   19.07    1.19
  -3  -9  -6    0.54    0.13
  -3  -9  -6    0.65    0.15
  -3  -9  -6    0.34    0.13
   3   9   6    0.30    0.08
   3   9   6    1.06    0.19
  -4  -9  -6    0.44    0.14
  -4  -9  -6    0.52    0.16
  -4  -9  -6    0.41    0.14
   4   9   6    0.47    0.10
   4   9   6    0.61    0.12
   4   9   6    0.41    0.12
   4   9   6    0.46    0.09
  -5  -9  -6    0.12    0.12
   5   9   6    0.19    0.10
   5   9   6    0.21    0.12
   5   9   6    0.20    0.12
   5   9   6    0.15    0.09
  -6  -9  -6   12.02    0.65
  -6  -9  -6   12.71    0.65
  -6  -9  -6   12.06    0.64
  -6  -9  -6   13.06    0.64
  -6  -9  -6   14.42    0.90
   6   9   6   13.07    0.70
   6   9   6   13.42    0.70
  -8  -9  -6   -0.12    0.13
  -8  -9  -6    0.22    0.14
   8   9   6    0.10    0.11
   8   9   6   -0.11    0.11
  -9  -9  -6    0.81    0.16
  -9  -9  -6    0.77    0.16
  -9  -9  -6    0.78    0.19
   9   9   6    1.19    0.16
   0 -10  -6   -0.08    0.15
   0 -10  -6    0.03    0.17
  -1 -10  -6    0.85    0.18
  -1 -10  -6    0.98    0.21
   1  10   6    0.98    0.11
   1  10   6    1.00    0.14
  -2 -10  -6    0.47    0.14
  -2 -10  -6    0.30    0.15
   2  10   6    0.27    0.09
   2  10   6    0.20    0.09
  -3 -10  -6    2.64    0.32
  -3 -10  -6    3.35    0.32
  -3 -10  -6    3.43    0.29
   3  10   6    2.73    0.23
   3  10   6    2.49    0.23
  -4 -10  -6   11.62    0.82
   4  10   6   11.60    0.65
   4  10   6   11.36    0.65
   4  10   6   12.39    0.62
   4  10   6   11.70    0.63
  -5 -10  -6    2.82    0.33
   5  10   6    2.66    0.32
   5  10   6    3.10    0.32
  -6 -10  -6    8.50    0.66
   6  10   6    9.37    0.52
   6  10   6    9.00    0.53
  -7 -10  -6    0.20    0.14
   7  10   6    0.47    0.15
   7  10   6    0.45    0.15
  -8 -10  -6    5.69    0.51
   8  10   6    5.86    0.41
   8  10   6    6.63    0.42
  -2 -11  -6    0.24    0.16
  -2 -11  -6    0.25    0.17
  -3 -11  -6    0.23    0.18
  -3 -11  -6    0.25    0.16
   3  11   6    0.34    0.13
   3  11   6    0.19    0.13
  -4 -11  -6    0.51    0.17
   4  11   6    0.27    0.23
   5  11   6    0.09    0.14
   5  11   6    0.16    0.14
  -6 -11  -6    0.75    0.17
   6  11   6    0.43    0.16
   6  11   6    0.55    0.16
   3   6  -7    5.62    0.52
  -3  -6   7    7.21    0.43
  -3  -6   7    7.28    0.44
   2   6  -7    0.98    0.22
   2   6  -7    0.85    0.12
  -2  -6   7    0.60    0.14
  -2  -6   7    0.79    0.13
   1   6  -7    0.57    0.11
   1   6  -7    0.26    0.18
  -1  -6   7   -0.11    0.13
   0   6  -7    0.45    0.10
   0   6  -7    0.35    0.18
   0  -6   7    0.20    0.15
   0  -6   7    0.50    0.16
  -1   6  -7    1.88    0.32
  -1   6  -7    2.43    0.20
  -1   6  -7    2.22    0.19
   1  -6   7    1.98    0.29
   1  -6   7    2.04    0.24
   1  -6   7    1.90    0.28
  -2   6  -7    3.65    0.28
  -2   6  -7    3.28    0.27
   2  -6   7    3.09    0.36
   2  -6   7    3.51    0.35
   2  -6   7    3.77    0.35
   4   5  -7   13.34    0.90
   4   5  -7   14.20    0.77
   4   5  -7   15.12    0.76
  -4  -5   7   13.05    0.96
  -4  -5   7   14.68    0.76
  -4  -5   7   14.72    0.76
   3   5  -7    5.60    0.34
   3   5  -7    4.95    0.43
   3   5  -7    5.46    0.34
  -3  -5   7    5.41    0.46
  -3  -5   7    5.74    0.35
  -3  -5   7    5.02    0.34
   2   5  -7    1.14    0.16
   2   5  -7    1.05    0.16
   2   5  -7    0.93    0.18
  -2  -5   7    1.28    0.17
  -2  -5   7    1.48    0.17
   1   5  -7    1.17    0.15
   1   5  -7    1.39    0.15
   1   5  -7    0.87    0.18
  -1  -5   7    1.22    0.17
  -1  -5   7    1.48    0.16
   0   5  -7    1.40    0.16
   0   5  -7    1.79    0.16
   0  -5   7    1.48    0.17
   0  -5   7    1.38    0.19
  -1   5  -7   11.43    0.61
  -1   5  -7   11.56    0.62
   1  -5   7   11.25    0.62
   1  -5   7   11.40    0.63
  -2   5  -7    1.18    0.14
   2  -5   7    1.29    0.20
   2  -5   7    0.96    0.15
   2  -5   7    0.91    0.18
  -3   5  -7    0.57    0.10
  -3   5  -7    0.21    0.27
  -3   5  -7    0.32    0.10
   3  -5   7    0.29    0.15
   3  -5   7    0.04    0.13
   3  -5   7    0.33    0.15
  -4   5  -7    0.19    0.12
  -4   5  -7    0.31    0.11
   4  -5   7    0.28    0.15
   4  -5   7    0.06    0.14
   4  -5   7    0.09    0.14
   5   4  -7   -0.04    0.12
   5   4  -7   -0.02    0.13
   5   4  -7   -0.13    0.11
  -5  -4   7    0.04    0.10
  -5  -4   7   -0.13    0.18
   4   4  -7    4.50    0.37
   4   4  -7    4.99    0.33
   4   4  -7    4.58    0.33
  -4  -4   7    5.55    0.33
  -4  -4   7    4.72    0.42
  -4  -4   7    5.53    0.33
   3   4  -7    2.13    0.18
   3   4  -7    1.88    0.22
   3   4  -7    2.01    0.18
  -3  -4   7    1.95    0.18
  -3  -4   7    1.91    0.18
  -3  -4   7    1.83    0.26
   2   4  -7    0.15    0.07
   2   4  -7    0.13    0.11
   2   4  -7    0.27    0.08
  -2  -4   7    0.35    0.09
  -2  -4   7    0.25    0.12
  -2  -4   7    0.12    0.08
   1   4  -7    3.42    0.23
   1   4  -7    3.73    0.30
   1   4  -7    3.72    0.24
  -1  -4   7    3.31    0.24
  -1  -4   7    3.31    0.25
  -1  -4   7    3.25    0.25
  -1  -4   7    3.12    0.24
   0   4  -7    2.18    0.19
   0   4  -7    2.46    0.19
   0   4  -7    2.64    0.20
   0   4  -7    2.60    0.25
   0   4  -7    2.27    0.20
   0  -4   7    2.79    0.20
   0  -4   7    2.39    0.19
   0  -4   7    2.33    0.22
   0  -4   7    1.98    0.21
  -1   4  -7    1.96    0.22
  -1   4  -7    2.35    0.18
  -1   4  -7    2.38    0.18
   1  -4   7    1.85    0.21
   1  -4   7    1.72    0.18
   1  -4   7    1.80    0.19
   1  -4   7    1.70    0.22
  -2   4  -7    2.41    0.22
  -2   4  -7    2.23    0.18
  -2   4  -7    2.04    0.30
  -2   4  -7    1.90    0.17
   2  -4   7    2.45    0.24
   2  -4   7    2.47    0.25
   2  -4   7    2.12    0.19
   2  -4   7    1.95    0.26
   2  -4   7    2.25    0.20
  -3   4  -7   14.80    0.77
  -3   4  -7   14.83    0.87
  -3   4  -7   14.85    0.78
   3  -4   7   14.56    0.79
   3  -4   7   13.81    0.80
   3  -4   7   14.91    0.78
   3  -4   7   15.91    1.04
   3  -4   7   15.23    0.79
  -4   4  -7    0.87    0.15
  -4   4  -7    0.80    0.25
  -4   4  -7    1.28    0.15
   4  -4   7    1.18    0.16
   4  -4   7    1.66    0.21
   4  -4   7    1.22    0.21
   4  -4   7    0.92    0.19
   4  -4   7    1.45    0.25
  -5   4  -7    0.50    0.11
  -5   4  -7    0.60    0.11
   5  -4   7    0.29    0.21
   5  -4   7    0.23    0.15
   5  -4   7    0.10    0.21
   5  -4   7    0.37    0.14
   5  -4   7    0.44    0.15
  -6   4  -7    0.24    0.13
  -6   4  -7    0.26    0.13
   6  -4   7    0.18    0.17
   6  -4   7    0.31    0.17
   6   3  -7    9.42    0.58
   6   3  -7    9.42    0.59
  -6  -3   7    9.31    0.56
  -6  -3   7   10.04    0.56
  -6  -3   7   10.96    0.75
   5   3  -7    0.24    0.11
   5   3  -7    0.31    0.12
   5   3  -7    0.33    0.12
  -5  -3   7    0.31    0.10
  -5  -3   7    0.23    0.16
  -5  -3   7    0.02    0.09
   4   3  -7    0.40    0.16
   4   3  -7    0.44    0.11
   4   3  -7    0.44    0.11
   4   3  -7    0.66    0.16
   4   3  -7    0.41    0.11
  -4  -3   7    0.60    0.10
  -4  -3   7    0.41    0.14
  -4  -3   7    0.40    0.09
   3   3  -7    2.71    0.24
   3   3  -7    2.36    0.20
   3   3  -7    2.19    0.24
   3   3  -7    2.12    0.24
   3   3  -7    2.52    0.20
  -3  -3   7    2.68    0.21
  -3  -3   7    2.91    0.21
  -3  -3   7    2.36    0.25
   2   3  -7    9.98    0.56
   2   3  -7   10.25    0.56
   2   3  -7   10.29    0.55
   2   3  -7   10.22    0.65
   2   3  -7   10.61    0.56
  -2  -3   7    9.85    0.56
  -2  -3   7   10.43    0.67
  -2  -3   7   10.56    0.56
  -2  -3   7   10.28    0.55
  -2  -3   7    9.47    0.55
   1   3  -7    1.49    0.16
   1   3  -7    1.43    0.14
   1   3  -7    0.98    0.15
   1   3  -7    1.27    0.13
   1   3  -7    1.32    0.19
  -1  -3   7    0.94    0.13
  -1  -3   7    1.25    0.14
  -1  -3   7    1.30    0.14
  -1  -3   7    1.04    0.14
   0   3  -7    3.67    0.26
   0   3  -7    4.06    0.26
   0   3  -7    3.99    0.26
   0   3  -7    4.03    0.25
   0   3  -7    4.18    0.31
   0  -3   7    4.03    0.26
   0  -3   7    4.15    0.26
   0  -3   7    3.97    0.26
   0  -3   7    4.00    0.26
  -1   3  -7    0.85    0.16
  -1   3  -7    1.08    0.15
  -1   3  -7    0.79    0.11
  -1   3  -7    0.90    0.13
  -1   3  -7    1.07    0.15
   1  -3   7    0.90    0.14
   1  -3   7    0.82    0.11
   1  -3   7    0.80    0.12
   1  -3   7    0.67    0.10
  -2   3  -7   10.74    0.63
  -2   3  -7    9.03    0.51
  -2   3  -7    9.15    0.57
  -2   3  -7    9.24    0.50
   2  -3   7    9.12    0.50
   2  -3   7    9.48    0.51
   2  -3   7    8.44    0.50
   2  -3   7    8.74    0.50
  -3   3  -7    8.77    0.55
  -3   3  -7    7.64    0.44
  -3   3  -7    7.21    0.44
  -3   3  -7    7.47    0.44
  -3   3  -7    7.63    0.43
  -3   3  -7    7.69    0.47
   3  -3   7    7.63    0.58
   3  -3   7    6.92    0.44
   3  -3   7    7.26    0.44
   3  -3   7    7.91    0.43
   3  -3   7    7.88    0.43
  -4   3  -7    6.12    0.36
  -4   3  -7    6.42    0.36
  -4   3  -7    5.39    0.48
   4  -3   7    5.78    0.38
   4  -3   7    6.48    0.37
   4  -3   7    6.21    0.37
   4  -3   7    5.94    0.48
   4  -3   7    5.70    0.38
  -5   3  -7    1.83    0.35
  -5   3  -7    2.27    0.18
  -5   3  -7    1.94    0.18
   5  -3   7    1.99    0.22
   5  -3   7    1.75    0.21
   5  -3   7    1.76    0.21
   5  -3   7    1.68    0.20
   5  -3   7    1.80    0.26
  -6   3  -7    0.37    0.10
  -6   3  -7    0.62    0.10
   6  -3   7    0.57    0.15
   6  -3   7    0.38    0.20
   6  -3   7    0.48    0.14
   6  -3   7    0.50    0.20
   6  -3   7    0.53    0.17
  -7   3  -7    0.40    0.13
  -7   3  -7   -0.21    0.12
   7  -3   7   -0.11    0.20
   7  -3   7    0.03    0.17
   7  -3   7    0.06    0.16
   6   2  -7    4.86    0.37
   6   2  -7    4.87    0.37
  -6  -2   7    5.11    0.35
  -6  -2   7    4.82    0.35
   5   2  -7    0.66    0.13
   5   2  -7    0.27    0.19
   5   2  -7    0.58    0.19
   5   2  -7    0.58    0.13
  -5  -2   7    0.53    0.11
  -5  -2   7    0.76    0.12
  -5  -2   7    0.53    0.16
   4   2  -7    2.88    0.22
   4   2  -7    2.83    0.22
   4   2  -7    2.48    0.24
  -4  -2   7    3.34    0.23
  -4  -2   7    2.56    0.22
  -4  -2   7    2.24    0.26
   3   2  -7    0.16    0.08
  -3  -2   7    0.04    0.09
  -3  -2   7    0.21    0.08
  -3  -2   7    0.11    0.08
  -3  -2   7    0.15    0.08
  -3  -2   7    0.23    0.08
   2   2  -7    1.70    0.15
   2   2  -7    1.39    0.15
  -2  -2   7    1.51    0.16
  -2  -2   7    1.65    0.16
  -2  -2   7    1.70    0.16
   1   2  -7    0.12    0.07
   1   2  -7    0.18    0.07
   1   2  -7    0.07    0.09
   1   2  -7    0.01    0.06
   1   2  -7    0.04    0.06
  -1  -2   7    0.15    0.08
  -1  -2   7    0.10    0.08
   0   2  -7   16.57    0.80
   0   2  -7   15.39    0.94
   0   2  -7   15.95    0.81
   0  -2   7   15.99    0.81
   0  -2   7   15.25    0.82
  -1   2  -7    8.12    0.44
  -1   2  -7    7.87    0.51
  -1   2  -7    7.96    0.45
   1  -2   7    8.64    0.45
   1  -2   7    7.98    0.45
  -2   2  -7   -0.02    0.07
  -2   2  -7    0.11    0.08
  -2   2  -7    0.08    0.08
  -2   2  -7    0.03    0.08
   2  -2   7   -0.02    0.07
   2  -2   7    0.03    0.08
  -3   2  -7    0.64    0.12
  -3   2  -7    0.63    0.10
   3  -2   7    1.00    0.13
   3  -2   7    0.94    0.11
  -4   2  -7    3.14    0.31
  -4   2  -7    3.24    0.23
  -4   2  -7    3.10    0.23
   4  -2   7    3.35    0.31
  -5   2  -7    9.89    0.57
  -5   2  -7   10.49    0.57
  -5   2  -7   10.56    0.56
  -5   2  -7   10.72    0.59
  -5   2  -7   10.59    0.74
   5  -2   7   10.06    0.57
   5  -2   7    9.76    0.57
   5  -2   7   10.55    0.56
   5  -2   7   10.99    0.57
   5  -2   7   11.61    0.76
  -6   2  -7    0.30    0.22
  -6   2  -7   -0.06    0.07
  -6   2  -7   -0.12    0.07
   6  -2   7    0.08    0.15
   6  -2   7    0.09    0.14
   6  -2   7    0.03    0.10
   6  -2   7    0.11    0.10
   6  -2   7    0.02    0.14
  -7   2  -7   -0.04    0.09
  -7   2  -7    0.14    0.09
   7  -2   7   -0.02    0.13
   7  -2   7   -0.11    0.17
   7  -2   7    0.03    0.12
  -8   2  -7    0.22    0.15
  -8   2  -7    0.24    0.14
   8  -2   7   -0.13    0.23
   8  -2   7    0.25    0.17
   8  -2   7    0.08    0.16
   6   1  -7   -0.09    0.11
  -6  -1   7    0.11    0.13
  -6  -1   7    0.29    0.13
   5   1  -7    3.75    0.32
   5   1  -7    4.27    0.29
   5   1  -7    3.97    0.33
   5   1  -7    3.70    0.34
   5   1  -7    4.18    0.29
  -5  -1   7    4.77    0.30
  -5  -1   7    3.86    0.29
   4   1  -7    7.42    0.43
   4   1  -7    7.83    0.52
   4   1  -7    7.57    0.43
  -4  -1   7    7.10    0.42
  -4  -1   7    7.82    0.44
  -4  -1   7    7.69    0.43
  -4  -1   7    8.01    0.44
   3   1  -7    4.02    0.24
   3   1  -7    4.01    0.27
   3   1  -7    3.85    0.27
   3   1  -7    3.17    0.29
   3   1  -7    4.01    0.25
  -3  -1   7    4.21    0.29
  -3  -1   7    3.58    0.24
  -3  -1   7    3.52    0.24
   2   1  -7    0.89    0.12
   2   1  -7    0.64    0.10
   2   1  -7    0.97    0.13
   2   1  -7    0.71    0.11
   2   1  -7    0.77    0.13
  -2  -1   7    0.83    0.11
  -2  -1   7    0.70    0.11
  -2  -1   7    0.84    0.11
  -2  -1   7    0.90    0.14
  -2  -1   7    0.96    0.11
   1   1  -7   33.34    1.72
   1   1  -7   35.18    2.00
   1   1  -7   37.15    1.70
   1   1  -7   34.09    1.71
   1   1  -7   34.32    1.69
  -1  -1   7   34.65    1.70
  -1  -1   7   35.22    1.70
  -1  -1   7   36.15    1.73
  -1  -1   7   31.96    1.72
   0   1  -7    2.23    0.17
   0   1  -7    2.38    0.21
   0   1  -7    2.05    0.17
   0   1  -7    1.92    0.17
   0   1  -7    2.08    0.17
   0  -1   7    2.09    0.17
   0  -1   7    2.07    0.17
  -1   1  -7    7.42    0.39
  -1   1  -7    7.13    0.39
  -1   1  -7    6.60    0.39
  -1   1  -7    7.14    0.39
  -1   1  -7    6.75    0.45
   1  -1   7    7.39    0.39
   1  -1   7    7.08    0.39
  -2   1  -7    0.85    0.11
  -2   1  -7    0.56    0.09
  -2   1  -7    0.81    0.13
  -2   1  -7    0.57    0.10
  -2   1  -7    0.94    0.12
  -2   1  -7    0.87    0.12
   2  -1   7    0.64    0.10
   2  -1   7    0.48    0.09
  -3   1  -7    2.41    0.22
  -3   1  -7    2.17    0.19
  -3   1  -7    2.57    0.18
  -3   1  -7    2.53    0.18
   3  -1   7    2.46    0.20
   3  -1   7    2.31    0.19
   3  -1   7    2.75    0.19
  -4   1  -7    1.41    0.16
  -4   1  -7    1.49    0.16
  -4   1  -7    1.76    0.20
   4  -1   7    1.78    0.16
   4  -1   7    1.48    0.23
   4  -1   7    1.72    0.17
  -5   1  -7    1.50    0.17
  -5   1  -7    1.61    0.17
   5  -1   7    2.03    0.25
  -6   1  -7    3.73    0.26
  -6   1  -7    3.45    0.25
  -6   1  -7    4.28    0.29
  -6   1  -7    3.93    0.28
   6  -1   7    3.21    0.27
   6  -1   7    3.95    0.26
   6  -1   7    4.15    0.38
   6  -1   7    3.63    0.28
   6  -1   7    3.83    0.26
  -7   1  -7    6.82    0.41
  -7   1  -7    7.17    0.40
   7  -1   7    7.07    0.57
   7  -1   7    6.96    0.41
   7  -1   7    6.91    0.41
   7  -1   7    6.89    0.45
   7  -1   7    6.56    0.44
  -8   1  -7    1.21    0.17
  -8   1  -7    1.21    0.17
   8  -1   7    0.61    0.23
   8  -1   7    0.81    0.16
   8  -1   7    0.89    0.16
   6   0  -7    0.15    0.13
  -6   0   7   -0.13    0.13
  -6   0   7   -0.06    0.13
   5   0  -7    0.10    0.09
   5   0  -7    0.09    0.12
   5   0  -7    0.04    0.10
   5   0  -7    0.07    0.13
   5   0  -7    0.19    0.09
  -5   0   7    0.24    0.11
  -5   0   7    0.14    0.11
   4   0  -7   10.36    0.66
   4   0  -7   10.65    0.56
   4   0  -7   10.36    0.54
   4   0  -7   10.31    0.54
   4   0  -7   10.31    0.56
  -4   0   7   10.98    0.57
  -4   0   7    9.92    0.56
   3   0  -7    6.95    0.38
   3   0  -7    7.22    0.38
  -3   0   7    6.63    0.40
  -3   0   7    7.17    0.40
  -3   0   7    6.97    0.40
  -3   0   7    7.31    0.40
   2   0  -7    6.49    0.36
   2   0  -7    6.56    0.36
   2   0  -7    6.53    0.35
   2   0  -7    6.19    0.43
   2   0  -7    7.12    0.37
  -2   0   7    6.89    0.38
  -2   0   7    5.83    0.42
  -2   0   7    6.86    0.37
  -2   0   7    6.54    0.36
  -2   0   7    6.17    0.36
   1   0  -7   66.13    3.12
   1   0  -7   61.41    3.16
   1   0  -7   57.84    3.12
   1   0  -7   66.35    3.16
   1   0  -7   68.12    3.68
  -1   0   7   60.48    3.13
  -1   0   7   64.34    3.17
  -1   0   7   68.57    3.18
  -1   0   7   70.05    3.13
   0   0  -7    0.06    0.07
   0   0  -7    0.01    0.07
   0   0  -7    0.19    0.08
   0   0  -7    0.04    0.06
   0   0  -7    0.00    0.06
   0   0   7    0.04    0.06
   0   0   7    0.03    0.06
   0   0   7    0.07    0.06
   0   0   7    0.04    0.07
  -1   0  -7    0.43    0.08
  -1   0  -7    0.33    0.08
  -1   0  -7    0.52    0.10
   1   0   7    0.36    0.08
   1   0   7    0.48    0.09
   1   0   7    0.49    0.09
   1   0   7    0.50    0.09
  -2   0  -7    7.27    0.38
  -2   0  -7    7.00    0.44
  -2   0  -7    7.20    0.38
  -2   0  -7    7.29    0.45
  -2   0  -7    7.23    0.39
  -2   0  -7    7.44    0.39
   2   0   7    6.77    0.39
   2   0   7    6.77    0.38
   2   0   7    6.77    0.38
   2   0   7    6.73    0.39
  -3   0  -7    4.08    0.25
  -3   0  -7    3.55    0.24
  -3   0  -7    3.95    0.28
  -3   0  -7    4.05    0.25
  -3   0  -7    4.11    0.25
  -3   0  -7    4.40    0.28
   3   0   7    4.07    0.26
   3   0   7    4.14    0.26
   3   0   7    3.81    0.25
   3   0   7    4.05    0.25
  -4   0  -7    0.07    0.07
  -4   0  -7   -0.12    0.07
  -4   0  -7    0.06    0.07
  -4   0  -7    0.05    0.07
   4   0   7   -0.02    0.07
   4   0   7    0.09    0.07
   4   0   7   -0.02    0.08
   4   0   7    0.07    0.07
   4   0   7   -0.09    0.10
  -5   0  -7    3.45    0.24
  -5   0  -7    3.50    0.24
   5   0   7    3.55    0.24
   5   0   7    3.74    0.31
   5   0   7    3.34    0.23
  -6   0  -7    2.70    0.22
  -6   0  -7    3.46    0.23
   6   0   7    3.17    0.31
   6   0   7    3.29    0.22
   6   0   7    2.72    0.22
   6   0   7    3.11    0.22
   6   0   7    2.85    0.22
  -7   0  -7    6.53    0.38
  -7   0  -7    6.37    0.38
   7   0   7    6.39    0.37
   7   0   7    6.62    0.38
   7   0   7    6.12    0.51
   7   0   7    6.28    0.40
   7   0   7    6.15    0.39
  -8   0  -7    3.55    0.24
  -8   0  -7    3.26    0.24
   8   0   7    3.09    0.26
   8   0   7    3.19    0.26
   8   0   7    3.15    0.37
  -9   0  -7    0.57    0.11
   9   0   7    0.20    0.15
   9   0   7    0.17    0.14
   6  -1  -7    3.23    0.34
  -6   1   7    3.60    0.32
  -6   1   7    3.22    0.31
  -5   1   7    0.18    0.13
  -5   1   7    0.38    0.14
  -5   1   7    0.35    0.12
  -5   1   7    0.27    0.11
   4  -1  -7    1.64    0.14
   4  -1  -7    1.62    0.14
   4  -1  -7    2.10    0.20
   4  -1  -7    1.64    0.13
   4  -1  -7    1.66    0.13
  -4   1   7    1.66    0.19
  -4   1   7    1.72    0.19
  -4   1   7    1.24    0.18
  -4   1   7    1.89    0.19
   3  -1  -7   10.93    0.55
   3  -1  -7   10.96    0.55
   3  -1  -7   10.68    0.54
  -3   1   7   11.19    0.58
  -3   1   7   10.54    0.58
  -3   1   7   10.52    0.57
  -3   1   7   11.15    0.57
   2  -1  -7   18.73    0.94
   2  -1  -7   18.21    0.93
   2  -1  -7   19.18    1.13
  -2   1   7   20.81    0.97
  -2   1   7   18.38    0.96
  -2   1   7   18.62    0.95
  -2   1   7   19.25    0.95
   1  -1  -7   15.66    0.77
   1  -1  -7   15.40    0.76
   1  -1  -7   15.65    0.77
   1  -1  -7   15.82    0.76
   1  -1  -7   15.41    0.92
  -1   1   7   16.67    0.79
  -1   1   7   14.77    0.77
  -1   1   7   15.35    0.77
  -1   1   7   13.39    0.78
   0  -1  -7    0.92    0.11
   0  -1  -7    0.85    0.14
   0  -1  -7    0.86    0.11
   0  -1  -7    1.02    0.11
   0  -1  -7    0.88    0.10
   0   1   7    0.95    0.12
   0   1   7    0.92    0.12
   0   1   7    0.93    0.11
   0   1   7    0.83    0.11
  -1  -1  -7    0.13    0.06
  -1  -1  -7    0.16    0.06
  -1  -1  -7    0.18    0.06
  -1  -1  -7    0.24    0.07
  -1  -1  -7    0.15    0.08
   1   1   7    0.20    0.07
   1   1   7    0.18    0.07
  -2  -1  -7    2.61    0.18
  -2  -1  -7    2.75    0.18
  -2  -1  -7    2.51    0.22
  -2  -1  -7    2.70    0.18
  -2  -1  -7    2.64    0.18
   2   1   7    2.70    0.19
   2   1   7    3.06    0.22
   2   1   7    2.90    0.18
   2   1   7    2.60    0.18
   2   1   7    2.63    0.19
  -3  -1  -7   11.63    0.60
  -3  -1  -7   12.34    0.70
  -3  -1  -7   11.62    0.61
   3   1   7   11.16    0.61
   3   1   7   11.68    0.61
   3   1   7   12.41    0.62
   3   1   7   11.17    0.60
   3   1   7   12.43    0.70
  -4  -1  -7   -0.09    0.06
  -4  -1  -7    0.04    0.07
  -4  -1  -7   -0.01    0.07
  -4  -1  -7   -0.07    0.06
   4   1   7   -0.02    0.08
   4   1   7    0.03    0.07
   4   1   7    0.01    0.07
   4   1   7   -0.10    0.07
   4   1   7   -0.01    0.07
   4   1   7   -0.02    0.07
  -5  -1  -7    8.74    0.47
  -5  -1  -7    8.54    0.47
  -5  -1  -7    9.45    0.48
  -5  -1  -7    9.00    0.47
   5   1   7    7.94    0.60
   5   1   7    9.41    0.47
   5   1   7    7.91    0.52
   5   1   7    8.82    0.48
  -6  -1  -7    0.72    0.11
  -6  -1  -7    0.93    0.14
   6   1   7    0.92    0.13
   6   1   7    0.79    0.12
   6   1   7    0.61    0.09
   6   1   7    0.88    0.18
  -7  -1  -7    4.23    0.27
  -7  -1  -7    3.99    0.25
  -7  -1  -7    4.24    0.27
  -7  -1  -7    4.05    0.26
   7   1   7    3.33    0.26
   7   1   7    3.93    0.26
   7   1   7    3.84    0.26
   7   1   7    4.15    0.35
   7   1   7    3.21    0.26
  -8  -1  -7    4.31    0.30
  -8  -1  -7    4.56    0.30
   8   1   7    4.65    0.29
   8   1   7    4.47    0.30
  -9  -1  -7    0.93    0.15
  -9  -1  -7    1.38    0.16
   9   1   7    1.18    0.19
   9   1   7    1.03    0.15
   6  -2  -7   -0.08    0.15
  -6   2   7    0.15    0.15
  -6   2   7    0.06    0.15
   5  -2  -7    0.26    0.12
  -5   2   7   -0.23    0.14
  -5   2   7    0.07    0.15
   4  -2  -7   11.47    0.70
  -4   2   7   10.10    0.59
  -4   2   7   10.69    0.58
  -4   2   7   10.54    0.59
  -4   2   7   12.51    0.60
  -3   2   7   -0.12    0.07
  -3   2   7    0.05    0.08
  -3   2   7   -0.09    0.08
  -3   2   7   -0.09    0.07
   2  -2  -7    4.63    0.34
  -2   2   7    4.80    0.28
  -2   2   7    4.54    0.27
  -2   2   7    4.54    0.28
  -2   2   7    5.01    0.28
   1  -2  -7    0.91    0.08
   1  -2  -7    1.00    0.15
   1  -2  -7    0.92    0.08
  -1   2   7    0.93    0.11
  -1   2   7    0.82    0.10
  -1   2   7    1.01    0.12
  -1   2   7    1.04    0.12
  -1   2   7    1.16    0.12
   0  -2  -7    1.43    0.10
   0  -2  -7    1.55    0.11
   0  -2  -7    1.26    0.11
   0  -2  -7    1.31    0.10
   0  -2  -7    1.16    0.17
   0   2   7    1.41    0.17
   0   2   7    1.46    0.13
   0   2   7    1.49    0.13
   0   2   7    1.55    0.13
   0   2   7    1.50    0.13
  -1  -2  -7    1.56    0.12
  -1  -2  -7    1.63    0.12
  -1  -2  -7    1.37    0.16
  -1  -2  -7    1.41    0.12
  -1  -2  -7    1.61    0.11
   1   2   7    1.55    0.13
   1   2   7    1.41    0.13
   1   2   7    1.24    0.13
   1   2   7    1.64    0.13
  -2  -2  -7    0.59    0.09
  -2  -2  -7    0.69    0.10
  -2  -2  -7    0.73    0.11
  -2  -2  -7    0.63    0.10
  -2  -2  -7    0.73    0.09
   2   2   7    0.74    0.13
   2   2   7    0.75    0.11
   2   2   7    0.59    0.09
   2   2   7    0.76    0.10
   2   2   7    0.74    0.11
  -3  -2  -7    0.00    0.06
  -3  -2  -7    0.03    0.06
  -3  -2  -7    0.03    0.06
  -3  -2  -7    0.07    0.06
   3   2   7    0.06    0.07
   3   2   7   -0.04    0.06
   3   2   7   -0.02    0.06
   3   2   7   -0.02    0.06
   3   2   7    0.02    0.06
  -4  -2  -7   23.97    1.20
  -4  -2  -7   23.61    1.18
   4   2   7   23.32    1.19
   4   2   7   24.98    1.19
   4   2   7   24.34    1.20
   4   2   7   24.32    1.38
   4   2   7   23.59    1.20
  -5  -2  -7    8.96    0.46
  -5  -2  -7    8.71    0.46
  -5  -2  -7    8.66    0.45
  -5  -2  -7    8.63    0.46
   5   2   7    8.10    0.46
   5   2   7    8.89    0.58
   5   2   7    7.83    0.52
   5   2   7    8.59    0.46
  -6  -2  -7    1.35    0.15
  -6  -2  -7    1.34    0.15
   6   2   7    1.27    0.18
   6   2   7    1.21    0.15
   6   2   7    1.09    0.15
   6   2   7    1.15    0.16
  -7  -2  -7    2.01    0.17
  -7  -2  -7    1.51    0.16
  -7  -2  -7    2.07    0.17
   7   2   7    1.74    0.17
   7   2   7    2.14    0.17
   7   2   7    2.01    0.17
  -8  -2  -7    3.00    0.22
  -8  -2  -7    2.77    0.21
   8   2   7    2.55    0.24
   8   2   7    3.08    0.22
   8   2   7    3.11    0.21
   8   2   7    2.87    0.24
   8   2   7    2.74    0.24
  -9  -2  -7    2.53    0.21
  -9  -2  -7    2.13    0.21
   9   2   7    2.72    0.22
   9   2   7    2.42    0.22
 -10  -2  -7    0.95    0.14
 -10  -2  -7    0.91    0.14
  10   2   7    0.53    0.16
  10   2   7    0.80    0.15
   6  -3  -7    2.05    0.37
  -6   3   7    2.74    0.32
  -6   3   7    3.45    0.32
   5  -3  -7    5.94    0.44
  -5   3   7    5.21    0.40
  -5   3   7    5.65    0.41
  -5   3   7    6.16    0.36
  -5   3   7    4.78    0.36
   4  -3  -7    4.63    0.38
  -4   3   7    5.20    0.31
  -4   3   7    5.18    0.32
  -4   3   7    5.62    0.33
  -4   3   7    4.64    0.32
  -3   3   7    2.24    0.17
  -3   3   7    1.96    0.17
  -3   3   7    1.88    0.17
  -3   3   7    2.01    0.18
   2  -3  -7    7.76    0.49
  -2   3   7    8.36    0.40
  -2   3   7    6.61    0.49
  -2   3   7    7.52    0.39
  -2   3   7    7.20    0.39
  -2   3   7    6.29    0.39
   1  -3  -7    7.21    0.49
  -1   3   7    7.61    0.40
  -1   3   7    7.56    0.40
  -1   3   7    8.09    0.50
  -1   3   7    6.89    0.39
  -1   3   7    7.74    0.40
  -1   3   7    7.82    0.49
   0  -3  -7    2.21    0.20
   0   3   7    1.95    0.21
   0   3   7    2.19    0.15
   0   3   7    2.18    0.15
   0   3   7    2.02    0.15
   0   3   7    1.97    0.15
  -1  -3  -7    8.01    0.42
  -1  -3  -7    8.11    0.41
  -1  -3  -7    8.52    0.53
  -1  -3  -7    8.64    0.42
  -1  -3  -7    9.15    0.41
   1   3   7    8.00    0.43
   1   3   7    8.06    0.44
   1   3   7    8.28    0.43
   1   3   7    8.21    0.43
   1   3   7    8.68    0.52
  -2  -3  -7   11.98    0.62
  -2  -3  -7   12.97    0.62
  -2  -3  -7   12.76    0.62
  -2  -3  -7   11.98    0.62
  -2  -3  -7   11.00    0.78
   2   3   7   13.32    0.63
   2   3   7   12.59    0.63
   2   3   7   13.73    0.64
   2   3   7   12.47    0.64
  -3  -3  -7    9.35    0.50
  -3  -3  -7    9.34    0.50
  -3  -3  -7    9.67    0.49
  -3  -3  -7    9.58    0.49
   3   3   7   10.18    0.50
   3   3   7    9.84    0.51
   3   3   7    9.62    0.51
   3   3   7   10.58    0.60
   3   3   7    9.55    0.50
  -4  -3  -7    8.10    0.40
  -4  -3  -7    6.86    0.40
  -4  -3  -7    7.19    0.41
  -4  -3  -7    7.58    0.41
   4   3   7    7.91    0.41
   4   3   7    8.20    0.48
   4   3   7    7.76    0.41
   4   3   7    7.70    0.41
   4   3   7    7.73    0.41
  -5  -3  -7    6.08    0.34
  -5  -3  -7    6.09    0.34
  -5  -3  -7    6.00    0.34
  -5  -3  -7    5.98    0.34
   5   3   7    6.19    0.34
   5   3   7    5.86    0.34
   5   3   7    6.41    0.35
   5   3   7    5.86    0.35
   5   3   7    6.30    0.40
   5   3   7    6.04    0.42
  -6  -3  -7    0.22    0.08
  -6  -3  -7    0.31    0.08
  -6  -3  -7    0.30    0.08
  -6  -3  -7    0.18    0.08
   6   3   7    0.25    0.08
   6   3   7    0.27    0.08
   6   3   7    0.26    0.07
   6   3   7    0.27    0.10
   7   3   7    0.25    0.11
  -8  -3  -7    0.60    0.10
  -8  -3  -7    0.61    0.10
  -8  -3  -7    0.62    0.11
   8   3   7    0.39    0.09
   8   3   7    0.84    0.13
   8   3   7    0.52    0.10
   8   3   7    0.39    0.13
  -9  -3  -7    2.11    0.18
  -9  -3  -7    2.12    0.18
   9   3   7    1.96    0.18
   9   3   7    1.73    0.17
 -10  -3  -7    1.90    0.19
 -10  -3  -7    2.18    0.21
  10   3   7    2.06    0.23
  10   3   7    2.38    0.23
  -5   4   7    0.51    0.13
  -5   4   7    0.61    0.31
  -5   4   7    0.47    0.16
  -5   4   7    0.28    0.17
  -5   4   7    0.35    0.13
   4  -4  -7    1.56    0.21
  -4   4   7    1.23    0.18
  -4   4   7    1.35    0.16
  -4   4   7    1.32    0.15
  -4   4   7    1.43    0.18
  -4   4   7    1.82    0.34
   3  -4  -7    4.73    0.34
  -3   4   7    4.38    0.27
  -3   4   7    4.46    0.27
  -3   4   7    4.07    0.38
  -3   4   7    4.49    0.38
   2  -4  -7    0.55    0.12
  -2   4   7    0.43    0.07
  -2   4   7    0.46    0.11
  -2   4   7    0.50    0.07
  -2   4   7    0.41    0.12
  -2   4   7    0.35    0.07
  -2   4   7    0.43    0.07
   1  -4  -7    6.42    0.45
  -1   4   7    6.89    0.35
  -1   4   7    6.96    0.47
  -1   4   7    6.34    0.36
  -1   4   7    6.91    0.36
  -1   4   7    6.87    0.45
  -1   4   7    7.30    0.36
   0  -4  -7   -0.16    0.08
   0   4   7   -0.05    0.05
   0   4   7   -0.03    0.05
   0   4   7   -0.01    0.05
   0   4   7   -0.14    0.09
   0   4   7    0.00    0.07
   0   4   7   -0.02    0.05
   1   4   7   10.39    0.53
   1   4   7   10.58    0.53
   1   4   7   10.14    0.64
   1   4   7   10.82    0.53
   1   4   7   10.53    0.53
  -2  -4  -7   29.27    1.72
   2   4   7   27.63    1.35
   2   4   7   27.59    1.35
   2   4   7   29.38    1.37
   2   4   7   27.06    1.36
   2   4   7   25.27    1.59
  -3  -4  -7    9.56    0.47
  -3  -4  -7    8.80    0.46
  -3  -4  -7    8.84    0.46
  -3  -4  -7    8.94    0.46
  -3  -4  -7   10.41    0.59
   3   4   7    8.99    0.48
   3   4   7    9.06    0.57
   3   4   7    8.79    0.47
   3   4   7    9.14    0.47
   3   4   7    9.04    0.48
  -4  -4  -7    8.39    0.44
  -4  -4  -7    8.63    0.44
  -4  -4  -7    8.52    0.43
  -4  -4  -7    8.23    0.43
  -4  -4  -7    9.43    0.56
   4   4   7    8.55    0.45
   4   4   7    7.78    0.44
   4   4   7    7.80    0.44
  -5  -4  -7    0.95    0.13
  -5  -4  -7    0.92    0.12
  -5  -4  -7    0.84    0.12
  -5  -4  -7    1.00    0.12
   5   4   7    0.85    0.12
   5   4   7    0.87    0.12
   5   4   7    0.66    0.10
   5   4   7    0.68    0.10
  -6  -4  -7    1.35    0.15
  -6  -4  -7    1.63    0.15
  -6  -4  -7    1.17    0.14
  -6  -4  -7    1.32    0.15
   6   4   7    1.50    0.15
   6   4   7    1.31    0.15
   6   4   7    1.07    0.14
   6   4   7    1.03    0.14
   6   4   7    1.52    0.19
  -7  -4  -7    6.23    0.37
  -7  -4  -7    6.41    0.37
   7   4   7    6.61    0.44
  -8  -4  -7    0.19    0.10
  -8  -4  -7    0.28    0.10
  -8  -4  -7    0.25    0.08
  -8  -4  -7    0.24    0.08
   8   4   7    0.07    0.09
   8   4   7    0.19    0.08
   8   4   7    0.07    0.08
   8   4   7    0.01    0.09
  -9  -4  -7    1.26    0.15
   9   4   7    1.48    0.16
   9   4   7    1.25    0.16
  10   4   7    1.16    0.16
  10   4   7    1.07    0.16
  -4   5   7   -0.08    0.09
  -4   5   7    0.17    0.24
  -4   5   7   -0.18    0.12
  -4   5   7   -0.14    0.11
  -4   5   7   -0.02    0.09
   3  -5  -7   10.69    0.66
  -3   5   7    9.93    0.73
  -3   5   7   10.02    0.76
  -3   5   7   10.69    0.54
  -3   5   7    9.70    0.53
  -3   5   7   10.51    0.54
  -3   5   7   10.75    0.53
  -2   5   7   10.94    0.55
  -2   5   7   11.64    0.79
  -2   5   7   11.39    0.56
  -2   5   7    9.86    0.55
  -2   5   7   11.12    0.56
  -2   5   7   11.37    0.69
  -1   5   7    0.36    0.05
  -1   5   7    0.23    0.10
  -1   5   7    0.35    0.05
  -1   5   7    0.40    0.05
  -1   5   7    0.27    0.05
  -1   5   7    0.31    0.11
  -1   5   7    0.25    0.12
   0   5   7    0.91    0.16
   0   5   7    0.95    0.15
   0   5   7    1.14    0.10
   0   5   7    1.09    0.09
   0   5   7    1.05    0.16
   0   5   7    1.13    0.09
   0   5   7    1.05    0.09
   1   5   7   40.28    1.99
   1   5   7   41.33    2.01
   1   5   7   42.34    1.99
   1   5   7   45.79    2.65
   1   5   7   36.96    2.36
   1   5   7   40.81    2.01
  -2  -5  -7    6.25    0.48
  -2  -5  -7    6.93    0.50
  -2  -5  -7    7.09    0.44
   2   5   7    7.37    0.47
   2   5   7    7.26    0.37
   2   5   7    6.93    0.37
   2   5   7    7.58    0.50
   2   5   7    7.14    0.37
   2   5   7    7.37    0.37
  -3  -5  -7    7.47    0.53
  -3  -5  -7    7.97    0.48
  -3  -5  -7    8.05    0.52
   3   5   7    7.89    0.41
   3   5   7    7.84    0.41
   3   5   7    7.77    0.52
   3   5   7    7.89    0.41
   3   5   7    7.33    0.41
   3   5   7    8.34    0.50
  -4  -5  -7    5.46    0.29
  -4  -5  -7    6.01    0.30
  -4  -5  -7    5.74    0.30
  -4  -5  -7    5.01    0.40
  -4  -5  -7    5.68    0.29
   4   5   7    5.39    0.31
   4   5   7    5.36    0.36
   4   5   7    5.40    0.38
   4   5   7    5.88    0.31
  -5  -5  -7   -0.03    0.06
  -5  -5  -7   -0.03    0.06
  -5  -5  -7   -0.16    0.09
   5   5   7   -0.06    0.07
   5   5   7   -0.07    0.06
   5   5   7   -0.12    0.06
   5   5   7   -0.04    0.08
   5   5   7   -0.02    0.07
  -6  -5  -7    1.76    0.15
  -6  -5  -7    1.51    0.15
   6   5   7    1.04    0.14
   6   5   7    1.55    0.16
   6   5   7    1.43    0.16
   6   5   7    1.35    0.14
  -7  -5  -7    1.47    0.17
  -7  -5  -7    1.91    0.17
   7   5   7    1.95    0.18
   7   5   7    1.70    0.18
  -8  -5  -7    5.07    0.34
  -8  -5  -7    5.45    0.34
   8   5   7    5.13    0.34
   8   5   7    5.31    0.31
   8   5   7    4.82    0.34
   8   5   7    5.11    0.31
   9   5   7    2.31    0.20
   9   5   7    2.64    0.20
 -10  -5  -7    4.84    0.32
 -10  -5  -7    4.67    0.32
  10   5   7    4.75    0.31
  10   5   7    4.67    0.31
   4  -6  -7    0.09    0.15
   4  -6  -7    0.22    0.17
   3  -6  -7    3.27    0.30
   3  -6  -7    2.42    0.31
  -3   6   7    3.37    0.21
  -3   6   7    3.56    0.21
  -3   6   7    3.11    0.22
  -3   6   7    2.88    0.22
  -2   6   7    0.14    0.06
  -2   6   7    0.31    0.15
  -2   6   7    0.30    0.16
   1  -6  -7    3.61    0.32
   1  -6  -7    4.94    0.38
  -1   6   7    5.14    0.35
  -1   6   7    4.39    0.23
  -1   6   7    3.84    0.37
  -1   6   7    4.36    0.23
  -1   6   7    4.92    0.23
  -1   6   7    4.15    0.38
  -1   6   7    4.15    0.23
   0   6   7   13.84    0.65
   0   6   7   12.47    0.80
   0   6   7   12.92    0.66
   0   6   7   12.98    0.65
   0   6   7   14.25    0.66
  -1  -6  -7    5.91    0.47
  -1  -6  -7    6.60    0.42
   1   6   7    6.89    0.47
   1   6   7    6.50    0.34
   1   6   7    6.56    0.33
   1   6   7    5.93    0.48
   1   6   7    6.77    0.33
   1   6   7    6.85    0.34
   1   6   7    6.41    0.43
  -2  -6  -7   39.33    2.33
  -2  -6  -7   40.01    2.61
  -2  -6  -7   41.18    2.54
   2   6   7   40.01    1.99
   2   6   7   41.73    1.99
   2   6   7   41.26    2.61
   2   6   7   40.83    1.97
   2   6   7   42.18    1.97
  -3  -6  -7    0.52    0.11
  -3  -6  -7    0.54    0.10
  -3  -6  -7    0.43    0.11
   3   6   7    0.42    0.07
   3   6   7    0.49    0.08
   3   6   7    0.59    0.08
   3   6   7    0.43    0.07
   3   6   7    0.46    0.08
  -4  -6  -7    7.71    0.38
  -4  -6  -7    7.22    0.53
  -4  -6  -7    7.73    0.48
  -4  -6  -7    8.15    0.39
  -4  -6  -7    7.27    0.38
  -4  -6  -7    7.62    0.39
  -4  -6  -7    8.23    0.54
   4   6   7    7.95    0.41
   4   6   7    7.60    0.41
   4   6   7    7.67    0.50
  -5  -6  -7    1.44    0.13
  -5  -6  -7    1.46    0.13
  -5  -6  -7    1.31    0.13
  -5  -6  -7    1.39    0.13
  -5  -6  -7    1.92    0.22
   5   6   7    1.42    0.15
   5   6   7    1.34    0.14
   5   6   7    1.61    0.15
   5   6   7    1.40    0.15
  -6  -6  -7    0.00    0.07
  -6  -6  -7   -0.04    0.11
  -6  -6  -7   -0.05    0.06
   6   6   7    0.01    0.07
   6   6   7    0.02    0.07
   6   6   7    0.03    0.07
   6   6   7    0.02    0.07
  -7  -6  -7   -0.02    0.09
  -7  -6  -7    0.13    0.07
  -7  -6  -7    0.11    0.07
  -7  -6  -7    0.09    0.09
   7   6   7    0.00    0.07
   7   6   7    0.10    0.07
  -8  -6  -7    6.30    0.40
  -8  -6  -7    6.31    0.41
  -8  -6  -7    6.50    0.38
  -8  -6  -7    6.43    0.39
   8   6   7    6.68    0.38
   8   6   7    6.85    0.38
  -9  -6  -7    3.59    0.28
  -9  -6  -7    4.03    0.29
   9   6   7    4.34    0.28
   9   6   7    4.01    0.27
 -10  -6  -7    2.41    0.24
 -10  -6  -7    2.54    0.24
  10   6   7    2.53    0.22
  10   6   7    2.33    0.21
   3  -7  -7    2.73    0.33
   3  -7  -7    2.62    0.28
   2  -7  -7    1.05    0.19
   2  -7  -7    1.65    0.23
  -2   7   7    1.36    0.11
  -2   7   7    1.03    0.25
  -2   7   7    1.23    0.11
  -2   7   7    0.93    0.22
  -2   7   7    1.35    0.11
  -2   7   7    1.15    0.11
   1  -7  -7   12.55    0.84
   1  -7  -7   13.57    0.95
  -1   7   7   14.29    0.66
  -1   7   7   14.85    0.67
  -1   7   7   14.40    0.85
  -1   7   7   11.37    0.91
  -1   7   7   13.82    0.66
  -1   7   7   13.49    0.67
  -1   7   7   14.34    0.97
   0  -7  -7    7.20    0.45
   0   7   7    6.46    0.51
   0   7   7    6.01    0.33
   0   7   7    6.88    0.45
   0   7   7    7.00    0.49
   0   7   7    6.42    0.33
   0   7   7    6.34    0.32
   0   7   7    6.10    0.32
   1   7   7    0.03    0.04
   1   7   7   -0.02    0.11
   1   7   7    0.04    0.08
   1   7   7    0.00    0.04
   1   7   7   -0.10    0.12
   1   7   7    0.08    0.05
   1   7   7    0.04    0.05
  -2  -7  -7    0.25    0.11
  -2  -7  -7    0.14    0.11
  -2  -7  -7    0.32    0.10
   2   7   7    0.24    0.05
   2   7   7    0.34    0.10
   2   7   7    0.25    0.05
   2   7   7    0.32    0.06
   2   7   7    0.22    0.06
   2   7   7    0.26    0.11
  -3  -7  -7    0.63    0.13
  -3  -7  -7    0.80    0.14
  -3  -7  -7    0.57    0.11
   3   7   7    0.60    0.08
   3   7   7    0.52    0.10
   3   7   7    0.72    0.11
   3   7   7    0.60    0.08
   3   7   7    0.54    0.08
  -4  -7  -7    0.29    0.10
  -4  -7  -7    0.20    0.11
  -4  -7  -7    0.44    0.11
   4   7   7    0.16    0.08
   4   7   7    0.17    0.07
   4   7   7    0.29    0.08
   4   7   7    0.24    0.07
  -5  -7  -7    3.73    0.21
  -5  -7  -7    3.36    0.21
  -5  -7  -7    3.99    0.33
  -5  -7  -7    3.73    0.21
  -5  -7  -7    3.49    0.21
   5   7   7    3.83    0.25
   5   7   7    4.09    0.25
   5   7   7    4.14    0.25
   5   7   7    3.88    0.25
  -6  -7  -7    0.13    0.07
  -6  -7  -7    0.11    0.08
  -6  -7  -7    0.15    0.12
  -6  -7  -7    0.12    0.08
  -6  -7  -7    0.14    0.07
   6   7   7    0.11    0.08
   6   7   7    0.03    0.09
   6   7   7    0.04    0.08
   6   7   7    0.06    0.08
  -7  -7  -7    0.71    0.12
  -7  -7  -7    0.50    0.10
  -7  -7  -7    0.55    0.16
  -7  -7  -7    0.79    0.13
  -7  -7  -7    0.41    0.09
   7   7   7    0.71    0.11
   7   7   7    1.00    0.15
   7   7   7    0.64    0.10
   7   7   7    0.57    0.11
  -8  -7  -7   -0.19    0.13
  -8  -7  -7    0.16    0.09
  -8  -7  -7    0.03    0.09
   8   7   7    0.09    0.08
   8   7   7   -0.01    0.08
  -9  -7  -7    0.04    0.11
  -9  -7  -7   -0.02    0.19
  -9  -7  -7    0.10    0.10
  -9  -7  -7   -0.15    0.19
   9   7   7   -0.16    0.08
 -10  -7  -7    0.22    0.13
 -10  -7  -7    0.32    0.13
  10   7   7    0.09    0.11
  10   7   7   -0.13    0.10
   3  -8  -7    4.72    0.38
   3  -8  -7    3.80    0.41
   2  -8  -7    3.70    0.37
   2  -8  -7    3.98    0.35
   1  -8  -7    0.40    0.14
   1  -8  -7    0.35    0.15
  -1   8   7   -0.14    0.20
  -1   8   7    0.21    0.19
  -1   8   7    0.24    0.22
   0   8   7    1.30    0.09
   0   8   7    1.26    0.09
  -1  -8  -7    0.33    0.13
  -1  -8  -7    0.29    0.12
   1   8   7    0.42    0.17
   1   8   7    0.19    0.06
   1   8   7    0.23    0.05
   1   8   7    0.24    0.05
   1   8   7    0.23    0.06
   1   8   7    0.24    0.12
   1   8   7    0.04    0.15
  -2  -8  -7    6.36    0.47
  -2  -8  -7    5.95    0.41
   2   8   7    6.30    0.33
   2   8   7    6.28    0.42
   2   8   7    5.98    0.32
   2   8   7    6.41    0.33
   2   8   7    5.50    0.33
  -3  -8  -7    1.44    0.23
   3   8   7    1.67    0.14
   3   8   7    1.60    0.15
   3   8   7    1.63    0.14
   3   8   7    1.69    0.16
   3   8   7    1.53    0.20
  -4  -8  -7    0.46    0.12
  -4  -8  -7    0.34    0.12
  -4  -8  -7    0.43    0.13
   4   8   7    0.40    0.09
   4   8   7    0.42    0.08
   4   8   7    0.39    0.08
   4   8   7    0.36    0.09
  -5  -8  -7    0.11    0.12
   5   8   7    0.08    0.08
   5   8   7    0.12    0.08
   5   8   7    0.16    0.09
   5   8   7    0.10    0.09
  -6  -8  -7    8.69    0.42
  -6  -8  -7    7.58    0.43
  -6  -8  -7    8.16    0.43
  -6  -8  -7    7.68    0.43
  -6  -8  -7    8.50    0.60
   6   8   7    8.47    0.46
   6   8   7    8.16    0.46
   6   8   7    8.12    0.46
   6   8   7    8.09    0.47
  -7  -8  -7    0.68    0.17
  -7  -8  -7    0.74    0.11
  -7  -8  -7    0.61    0.10
   7   8   7    0.63    0.12
   7   8   7    0.54    0.11
   7   8   7    0.54    0.11
   7   8   7    0.66    0.12
   8   8   7    0.11    0.10
   8   8   7   -0.06    0.10
  -9  -8  -7    0.06    0.12
  -9  -8  -7    0.26    0.21
  -9  -8  -7   -0.11    0.15
  -9  -8  -7   -0.12    0.21
  -9  -8  -7   -0.20    0.12
   9   8   7    0.13    0.11
   9   8   7    0.14    0.10
 -10  -8  -7    3.11    0.42
 -10  -8  -7    3.89    0.33
 -10  -8  -7    3.38    0.34
   1  -9  -7    0.35    0.18
   1  -9  -7    0.34    0.16
   0  -9  -7    0.64    0.16
   0  -9  -7    0.53    0.17
   0   9   7    0.67    0.08
   0   9   7    0.61    0.08
   0   9   7    0.83    0.28
  -1  -9  -7    0.50    0.16
  -1  -9  -7    0.58    0.15
   1   9   7    0.84    0.10
   1   9   7    0.68    0.11
   1   9   7    0.70    0.09
   1   9   7    0.75    0.22
   1   9   7    0.65    0.09
   1   9   7    0.80    0.23
  -2  -9  -7    1.14    0.20
  -2  -9  -7    0.89    0.16
   2   9   7    0.81    0.11
   2   9   7    0.88    0.13
   2   9   7    0.77    0.11
   2   9   7    0.92    0.13
   2   9   7    0.91    0.21
  -3  -9  -7    2.62    0.25
  -3  -9  -7    2.29    0.26
  -3  -9  -7    2.43    0.30
   3   9   7    2.58    0.19
   3   9   7    2.48    0.25
   3   9   7    2.30    0.19
   3   9   7    2.71    0.22
   3   9   7    2.62    0.22
  -4  -9  -7    0.59    0.16
  -4  -9  -7    0.42    0.15
  -4  -9  -7    0.43    0.13
   4   9   7    0.25    0.12
   4   9   7    0.48    0.10
   4   9   7    0.45    0.10
   4   9   7    0.44    0.12
  -5  -9  -7    0.17    0.13
   5   9   7    0.13    0.12
   5   9   7    0.06    0.09
   5   9   7    0.05    0.09
   5   9   7    0.03    0.12
  -6  -9  -7    0.36    0.15
   6   9   7    0.46    0.13
   6   9   7    0.47    0.14
  -7  -9  -7    0.02    0.13
  -7  -9  -7    0.17    0.11
  -7  -9  -7    0.07    0.09
  -7  -9  -7    0.11    0.11
  -7  -9  -7    0.12    0.09
   7   9   7    0.11    0.11
   7   9   7    0.02    0.11
  -8  -9  -7    1.69    0.23
  -8  -9  -7    1.82    0.28
  -8  -9  -7    1.60    0.23
   8   9   7    1.76    0.23
   8   9   7    1.83    0.24
  -9  -9  -7    0.11    0.14
  -9  -9  -7   -0.11    0.17
  -9  -9  -7    0.06    0.14
   9   9   7   -0.03    0.12
   9   9   7    0.25    0.12
   0 -10  -7    4.09    0.37
   0 -10  -7    4.84    0.44
  -1 -10  -7    4.19    0.40
  -1 -10  -7    4.21    0.36
  -2 -10  -7    0.36    0.17
  -2 -10  -7    0.38    0.15
   2  10   7   -0.09    0.08
   2  10   7   -0.03    0.08
  -3 -10  -7    7.85    0.52
  -3 -10  -7    8.21    0.61
  -3 -10  -7    7.32    0.58
   3  10   7    6.73    0.46
   3  10   7    7.59    0.46
   3  10   7    7.98    0.42
   3  10   7    7.60    0.43
  -4 -10  -7    9.18    0.67
  -4 -10  -7    9.13    0.59
  -4 -10  -7    9.10    0.66
   4  10   7    8.35    0.53
   4  10   7    8.16    0.53
   4  10   7    9.51    0.50
   4  10   7    9.24    0.50
  -5 -10  -7    1.21    0.21
   5  10   7    1.03    0.19
   5  10   7    1.07    0.19
   5  10   7    1.33    0.21
   5  10   7    1.47    0.21
  -6 -10  -7    0.17    0.15
   6  10   7    0.34    0.13
   6  10   7    0.37    0.13
  -7 -10  -7    3.40    0.38
   7  10   7    4.04    0.32
   7  10   7    4.04    0.32
  -8 -10  -7   -0.02    0.17
   8  10   7    0.24    0.15
   8  10   7    0.46    0.16
  -2 -11  -7    0.38    0.19
  -2 -11  -7    0.41    0.16
  -3 -11  -7    1.31    0.23
  -3 -11  -7    1.32    0.25
  -4 -11  -7    6.86    0.58
   4  11   7    7.07    0.44
   4  11   7    7.47    0.44
  -5 -11  -7    6.87    0.57
   5  11   7    6.95    0.45
   5  11   7    6.73    0.45
  -6 -11  -7    2.25    0.33
   6  11   7    2.44    0.30
   6  11   7    1.84    0.29
   3   5  -8    2.50    0.32
   2   5  -8    0.21    0.18
   2   5  -8    0.39    0.11
  -2  -5   8    0.16    0.10
  -2  -5   8    0.10    0.11
   1   5  -8    0.20    0.18
   1   5  -8    0.25    0.10
   1   5  -8    0.27    0.10
  -1  -5   8    0.35    0.11
  -1  -5   8    0.15    0.10
   0   5  -8    2.45    0.33
   0   5  -8    2.76    0.20
   0   5  -8    2.28    0.20
   0  -5   8    1.74    0.23
   0  -5   8    2.11    0.23
  -1   5  -8    0.56    0.10
  -1   5  -8    0.44    0.11
   1  -5   8    0.28    0.13
   1  -5   8    0.48    0.14
  -2   5  -8    0.12    0.16
  -2   5  -8    0.16    0.10
  -2   5  -8    0.22    0.11
   2  -5   8   -0.06    0.14
   2  -5   8   -0.06    0.14
   2  -5   8   -0.01    0.14
  -3   5  -8    0.11    0.11
  -3   5  -8   -0.20    0.11
   3  -5   8   -0.21    0.17
   3  -5   8   -0.03    0.19
   3  -5   8   -0.01    0.15
   4   4  -8    0.39    0.14
   4   4  -8    0.23    0.14
   4   4  -8    0.19    0.14
  -4  -4   8   -0.10    0.12
   3   4  -8    1.65    0.26
   3   4  -8    1.78    0.21
   3   4  -8    1.99    0.21
  -3  -4   8    1.25    0.19
  -3  -4   8    1.85    0.19
  -3  -4   8    1.45    0.27
   2   4  -8    7.01    0.55
   2   4  -8    8.32    0.46
   2   4  -8    8.43    0.46
  -2  -4   8    7.93    0.46
  -2  -4   8    7.82    0.46
   1   4  -8    7.79    0.44
   1   4  -8    8.23    0.55
   1   4  -8    8.23    0.45
  -1  -4   8    7.55    0.46
  -1  -4   8    7.65    0.46
   0   4  -8    0.49    0.10
   0   4  -8    0.61    0.16
   0   4  -8    0.64    0.09
   0  -4   8    0.66    0.11
   0  -4   8    0.52    0.10
  -1   4  -8    0.08    0.08
  -1   4  -8   -0.10    0.12
  -1   4  -8   -0.15    0.08
  -2   4  -8    0.67    0.22
  -2   4  -8    0.90    0.12
  -2   4  -8    0.85    0.12
  -2   4  -8    0.85    0.15
   2  -4   8    0.60    0.15
   2  -4   8    0.85    0.13
   2  -4   8    0.63    0.13
  -3   4  -8    0.73    0.14
  -3   4  -8    0.86    0.14
  -3   4  -8    0.72    0.10
   3  -4   8    0.81    0.15
   3  -4   8    0.53    0.16
   3  -4   8    0.90    0.15
  -4   4  -8    0.05    0.09
  -4   4  -8    0.09    0.09
   4  -4   8    0.19    0.14
   4  -4   8    0.18    0.14
   4  -4   8   -0.08    0.14
  -5   4  -8    0.32    0.11
  -5   4  -8    0.30    0.11
   5  -4   8    0.26    0.18
   5  -4   8    0.14    0.16
   5  -4   8   -0.04    0.16
   5   3  -8    0.70    0.18
   4   3  -8    0.57    0.14
   4   3  -8    0.68    0.14
  -4  -3   8    0.40    0.10
   3   3  -8    5.99    0.43
   3   3  -8    5.57    0.36
   3   3  -8    5.26    0.36
  -3  -3   8    6.15    0.36
  -3  -3   8    5.66    0.42
  -3  -3   8    5.86    0.36
   2   3  -8    9.58    0.56
   2   3  -8   10.42    0.57
   2   3  -8   10.68    0.68
  -2  -3   8   10.48    0.57
  -2  -3   8   10.73    0.57
   1   3  -8    0.91    0.14
   1   3  -8    0.63    0.14
   1   3  -8    0.50    0.12
   1   3  -8    0.73    0.13
   1   3  -8    0.87    0.14
  -1  -3   8    0.80    0.12
  -1  -3   8    0.86    0.12
   0   3  -8    1.35    0.14
   0   3  -8    1.14    0.17
   0   3  -8    1.21    0.17
   0   3  -8    1.29    0.14
   0  -3   8    1.34    0.15
   0  -3   8    0.98    0.15
  -1   3  -8    4.50    0.29
  -1   3  -8    4.38    0.28
  -1   3  -8    4.42    0.34
  -1   3  -8    4.39    0.28
  -1   3  -8    4.05    0.29
   1  -3   8    4.35    0.28
   1  -3   8    4.31    0.28
   1  -3   8    4.36    0.28
   1  -3   8    4.21    0.28
  -2   3  -8    0.75    0.13
  -2   3  -8    0.61    0.10
  -2   3  -8    0.78    0.15
  -2   3  -8    0.72    0.11
   2  -3   8    0.52    0.11
   2  -3   8    0.43    0.11
   2  -3   8    0.57    0.10
   2  -3   8    0.56    0.11
  -3   3  -8    0.24    0.11
  -3   3  -8    0.28    0.09
  -3   3  -8    0.21    0.16
  -3   3  -8    0.22    0.08
   3  -3   8    0.25    0.10
   3  -3   8    0.16    0.13
   3  -3   8    0.15    0.13
   3  -3   8    0.17    0.09
   3  -3   8    0.31    0.13
  -4   3  -8    4.25    0.47
  -4   3  -8    5.85    0.33
  -4   3  -8    5.87    0.34
   4  -3   8    5.60    0.35
   4  -3   8    5.62    0.35
   4  -3   8    4.90    0.45
  -5   3  -8    1.79    0.32
  -5   3  -8    2.48    0.19
  -5   3  -8    2.39    0.19
   5  -3   8    2.24    0.32
   5  -3   8    1.91    0.24
   5  -3   8    1.87    0.23
  -6   3  -8    3.50    0.25
  -6   3  -8    3.29    0.26
   6  -3   8    3.24    0.32
   6  -3   8    3.27    0.43
   6  -3   8    3.16    0.31
   5   2  -8    2.87    0.29
   5   2  -8    2.69    0.29
  -5  -2   8    2.46    0.25
  -5  -2   8    2.91    0.26
   4   2  -8   22.79    1.20
   4   2  -8   24.15    1.40
   4   2  -8   24.01    1.18
  -4  -2   8   22.64    1.20
  -4  -2   8   24.36    1.48
  -4  -2   8   22.46    1.19
   3   2  -8    3.37    0.29
   3   2  -8    3.21    0.30
   3   2  -8    3.36    0.25
   3   2  -8    3.48    0.31
   3   2  -8    3.48    0.25
  -3  -2   8    3.04    0.26
  -3  -2   8    2.85    0.24
  -3  -2   8    2.96    0.24
   2   2  -8    0.81    0.14
   2   2  -8    1.02    0.15
   2   2  -8    0.94    0.15
   2   2  -8    0.81    0.14
   2   2  -8    0.96    0.15
  -2  -2   8    0.83    0.11
  -2  -2   8    0.81    0.11
   1   2  -8    0.17    0.10
   1   2  -8    0.14    0.10
   1   2  -8    0.21    0.08
   1   2  -8    0.23    0.08
   1   2  -8    0.22    0.10
  -1  -2   8    0.24    0.08
  -1  -2   8    0.24    0.08
  -1  -2   8    0.28    0.10
  -1  -2   8    0.33    0.10
   0   2  -8    1.34    0.16
   0   2  -8    1.40    0.14
   0   2  -8    1.34    0.15
   0   2  -8    1.28    0.20
   0   2  -8    1.44    0.17
   0  -2   8    1.56    0.16
   0  -2   8    1.91    0.17
   0  -2   8    1.40    0.15
   0  -2   8    1.39    0.15
  -1   2  -8   12.66    0.68
  -1   2  -8   12.80    0.68
  -1   2  -8   13.01    0.67
  -1   2  -8   12.41    0.78
  -1   2  -8   12.96    0.67
   1  -2   8   12.91    0.67
   1  -2   8   12.58    0.68
   1  -2   8   13.53    0.68
   1  -2   8   12.89    0.68
  -2   2  -8    0.51    0.09
  -2   2  -8    0.34    0.08
   2  -2   8    0.20    0.08
   2  -2   8    0.26    0.08
  -3   2  -8    1.04    0.18
  -3   2  -8    1.22    0.15
  -3   2  -8    1.56    0.20
  -3   2  -8    1.53    0.16
  -3   2  -8    1.38    0.16
  -3   2  -8    1.50    0.15
   3  -2   8    0.98    0.15
   3  -2   8    1.36    0.14
   3  -2   8    1.70    0.24
   3  -2   8    1.10    0.14
   3  -2   8    1.32    0.15
  -4   2  -8    4.83    0.29
  -4   2  -8    4.67    0.39
  -4   2  -8    4.57    0.29
   4  -2   8    4.65    0.32
   4  -2   8    4.89    0.30
   4  -2   8    4.04    0.39
   4  -2   8    4.93    0.30
   4  -2   8    4.63    0.32
  -5   2  -8    0.97    0.21
  -5   2  -8    1.10    0.14
  -5   2  -8    1.28    0.14
   5  -2   8    0.99    0.17
   5  -2   8    1.03    0.19
   5  -2   8    0.86    0.12
   5  -2   8    1.08    0.18
   5  -2   8    1.10    0.16
  -6   2  -8    0.15    0.25
  -6   2  -8    0.08    0.08
  -6   2  -8   -0.07    0.08
   6  -2   8   -0.05    0.16
   6  -2   8    0.06    0.11
   6  -2   8    0.07    0.11
  -7   2  -8    0.03    0.10
   7  -2   8   -0.04    0.14
   7  -2   8   -0.07    0.20
   7  -2   8   -0.10    0.14
   5   1  -8    1.91    0.24
   5   1  -8    1.75    0.25
   5   1  -8    1.22    0.20
  -5  -1   8    1.17    0.20
  -5  -1   8    1.64    0.22
   4   1  -8    9.20    0.62
  -4  -1   8    9.00    0.53
  -4  -1   8   10.26    0.64
  -4  -1   8    9.38    0.54
   3   1  -8    5.62    0.32
   3   1  -8    5.29    0.35
   3   1  -8    5.34    0.32
   3   1  -8    4.86    0.38
  -3  -1   8    5.27    0.33
  -3  -1   8    5.25    0.36
  -3  -1   8    5.14    0.33
   2   1  -8    4.15    0.26
   2   1  -8    4.37    0.27
   2   1  -8    4.40    0.32
  -2  -1   8    3.92    0.27
  -2  -1   8    3.90    0.26
   1   1  -8    2.21    0.18
   1   1  -8    2.08    0.19
   1   1  -8    2.07    0.18
   1   1  -8    1.96    0.19
   1   1  -8    2.33    0.21
  -1  -1   8    2.09    0.17
  -1  -1   8    1.97    0.17
   0   1  -8   50.45    2.90
   0   1  -8   50.63    2.47
   0   1  -8   53.95    2.51
   0   1  -8   49.25    2.47
   0   1  -8   48.52    2.50
   0  -1   8   52.22    2.51
   0  -1   8   51.17    2.48
  -1   1  -8    5.84    0.34
  -1   1  -8    5.82    0.35
  -1   1  -8    5.78    0.40
   1  -1   8    5.98    0.35
   1  -1   8    6.18    0.35
  -2   1  -8   21.50    1.26
  -2   1  -8   22.21    1.08
  -2   1  -8   22.60    1.10
   2  -1   8   21.11    1.08
   2  -1   8   20.74    1.10
  -3   1  -8    4.25    0.27
  -3   1  -8    3.91    0.30
  -3   1  -8    3.85    0.30
   3  -1   8    4.48    0.26
   3  -1   8    4.03    0.26
  -4   1  -8    2.49    0.18
  -4   1  -8    2.17    0.18
  -4   1  -8    2.07    0.18
  -4   1  -8    1.97    0.18
  -4   1  -8    2.09    0.23
   4  -1   8    2.04    0.18
   4  -1   8    2.23    0.18
   4  -1   8    1.81    0.18
   4  -1   8    1.90    0.26
   4  -1   8    2.14    0.19
  -5   1  -8    0.19    0.08
  -5   1  -8    0.08    0.14
  -5   1  -8    0.25    0.09
  -5   1  -8    0.36    0.10
  -5   1  -8    0.24    0.08
   5  -1   8    0.40    0.10
   5  -1   8    0.24    0.10
   5  -1   8    0.14    0.08
   5  -1   8    0.18    0.08
  -6   1  -8    3.03    0.24
  -6   1  -8    3.22    0.24
   6  -1   8    3.31    0.29
   6  -1   8    3.64    0.25
   6  -1   8    3.52    0.36
   6  -1   8    3.40    0.29
   6  -1   8    3.46    0.24
  -7   1  -8    1.72    0.17
  -7   1  -8    1.57    0.17
   7  -1   8    1.40    0.21
   7  -1   8    1.73    0.21
   7  -1   8    1.76    0.34
  -8   1  -8    0.40    0.11
   8  -1   8    0.15    0.15
   8  -1   8    0.30    0.16
   8  -1   8    0.30    0.23
   5   0  -8    0.33    0.11
   5   0  -8    0.25    0.11
   5   0  -8    0.42    0.11
  -5   0   8    0.23    0.14
  -5   0   8    0.29    0.14
   4   0  -8    1.97    0.19
   4   0  -8    2.01    0.19
   4   0  -8    1.99    0.22
  -4   0   8    2.28    0.21
  -4   0   8    2.10    0.21
   3   0  -8    0.59    0.10
   3   0  -8    0.54    0.11
   3   0  -8    0.64    0.10
  -3   0   8    0.63    0.10
  -3   0   8    0.68    0.12
  -3   0   8    0.45    0.11
  -3   0   8    0.48    0.12
  -3   0   8    0.55    0.11
   2   0  -8    2.08    0.17
   2   0  -8    1.99    0.17
   2   0  -8    2.05    0.20
   2   0  -8    2.06    0.21
   2   0  -8    1.96    0.19
  -2   0   8    2.00    0.18
  -2   0   8    1.81    0.17
  -2   0   8    2.03    0.17
  -2   0   8    1.87    0.17
   1   0  -8    0.28    0.08
   1   0  -8    0.24    0.09
   1   0  -8    0.18    0.07
   1   0  -8    0.01    0.08
   1   0  -8    0.15    0.09
  -1   0   8    0.13    0.08
  -1   0   8    0.09    0.06
  -1   0   8    0.12    0.07
  -1   0   8    0.18    0.08
   0   0  -8    1.55    0.15
   0   0  -8    1.56    0.15
   0   0  -8    1.62    0.16
   0   0  -8    1.76    0.19
   0   0  -8    1.78    0.17
   0   0   8    1.81    0.17
   0   0   8    1.70    0.16
   0   0   8    1.47    0.14
   0   0   8    1.38    0.14
  -1   0  -8   25.32    1.29
  -1   0  -8   23.11    1.31
  -1   0  -8   27.92    1.53
  -1   0  -8   27.08    1.29
  -1   0  -8   27.26    1.31
   1   0   8   27.02    1.32
   1   0   8   27.23    1.30
   1   0   8   26.42    1.31
   1   0   8   24.99    1.30
  -2   0  -8   22.26    1.12
  -2   0  -8   22.63    1.29
  -2   0  -8   22.11    1.10
  -2   0  -8   22.29    1.12
  -2   0  -8   22.30    1.10
   2   0   8   21.86    1.12
   2   0   8   21.92    1.11
  -3   0  -8   29.19    1.61
  -3   0  -8   30.76    1.74
  -3   0  -8   28.11    1.40
  -3   0  -8   26.71    1.40
  -3   0  -8   25.70    1.38
  -3   0  -8   29.00    1.39
   3   0   8   29.59    1.39
   3   0   8   25.23    1.40
  -4   0  -8    0.52    0.09
  -4   0  -8    0.49    0.10
  -4   0  -8    0.41    0.09
   4   0   8    0.49    0.09
   4   0   8    0.48    0.10
   4   0   8    0.36    0.13
  -5   0  -8    0.10    0.07
  -5   0  -8   -0.07    0.07
  -5   0  -8    0.16    0.08
  -5   0  -8    0.07    0.07
   5   0   8   -0.04    0.07
   5   0   8    0.14    0.07
   5   0   8    0.02    0.11
   5   0   8   -0.14    0.07
   5   0   8    0.00    0.07
  -6   0  -8    4.72    0.29
  -6   0  -8    4.29    0.27
  -6   0  -8    4.42    0.28
  -6   0  -8    4.60    0.28
   6   0   8    3.69    0.39
   6   0   8    4.12    0.28
   6   0   8    4.62    0.28
   6   0   8    4.38    0.28
   6   0   8    3.99    0.28
  -7   0  -8    0.56    0.11
  -7   0  -8    0.41    0.10
   7   0   8    0.64    0.11
   7   0   8    0.58    0.11
  -8   0  -8    0.20    0.10
  -8   0  -8    0.19    0.10
   8   0   8    0.24    0.20
   8   0   8   -0.02    0.11
   8   0   8   -0.05    0.11
   5  -1  -8    3.88    0.32
  -5   1   8    3.02    0.29
  -5   1   8    2.72    0.30
   4  -1  -8    0.54    0.12
   4  -1  -8    0.54    0.07
   4  -1  -8    0.46    0.07
  -4   1   8    0.44    0.12
  -4   1   8    0.59    0.14
  -4   1   8    0.34    0.12
  -4   1   8    0.37    0.13
   3  -1  -8    0.63    0.08
   3  -1  -8    0.78    0.10
   3  -1  -8    0.46    0.09
   3  -1  -8    0.72    0.12
   3  -1  -8    0.55    0.08
  -3   1   8    0.79    0.12
  -3   1   8    0.57    0.12
  -3   1   8    0.65    0.12
  -3   1   8    0.73    0.12
   2  -1  -8   10.94    0.57
   2  -1  -8   10.89    0.57
   2  -1  -8   11.58    0.70
  -2   1   8   12.14    0.60
  -2   1   8   10.39    0.60
  -2   1   8   11.11    0.59
  -2   1   8   11.47    0.60
   0  -1  -8   11.42    0.64
   0  -1  -8   12.83    0.63
   0  -1  -8   12.42    0.76
   0  -1  -8   12.52    0.64
   0  -1  -8   13.08    0.63
   0   1   8   12.52    0.65
   0   1   8   11.88    0.65
   0   1   8   12.48    0.64
   0   1   8   13.01    0.64
  -1  -1  -8   -0.07    0.06
  -1  -1  -8   -0.07    0.06
  -1  -1  -8   -0.04    0.07
  -1  -1  -8    0.01    0.08
  -1  -1  -8    0.01    0.06
   1   1   8    0.04    0.06
   1   1   8   -0.07    0.07
   1   1   8    0.00    0.07
   1   1   8    0.03    0.06
  -2  -1  -8    9.44    0.50
  -2  -1  -8    9.11    0.50
  -2  -1  -8    9.99    0.50
  -2  -1  -8    9.11    0.59
  -2  -1  -8    9.70    0.51
   2   1   8   10.30    0.52
   2   1   8    9.32    0.51
   2   1   8    9.32    0.50
   2   1   8    9.71    0.51
  -3  -1  -8    1.57    0.16
  -3  -1  -8    1.72    0.15
  -3  -1  -8    1.93    0.16
  -3  -1  -8    1.91    0.18
  -3  -1  -8    1.79    0.15
  -3  -1  -8    1.57    0.13
   3   1   8    1.27    0.14
   3   1   8    1.82    0.17
   3   1   8    1.94    0.17
  -4  -1  -8   21.21    1.08
  -4  -1  -8   21.52    1.10
  -4  -1  -8   20.78    1.09
  -4  -1  -8   21.70    1.08
   4   1   8   22.75    1.10
   4   1   8   22.35    1.09
  -5  -1  -8    0.44    0.09
  -5  -1  -8    0.60    0.10
   5   1   8    0.77    0.14
   5   1   8    0.53    0.13
   5   1   8    0.59    0.11
   5   1   8    0.60    0.10
  -6  -1  -8    0.10    0.08
  -6  -1  -8    0.03    0.07
  -6  -1  -8    0.04    0.07
  -6  -1  -8   -0.10    0.07
   6   1   8   -0.07    0.11
   6   1   8    0.20    0.07
   6   1   8    0.15    0.08
   6   1   8    0.15    0.07
  -7  -1  -8    0.06    0.08
  -7  -1  -8    0.15    0.09
   7   1   8    0.09    0.09
   7   1   8    0.19    0.08
   7   1   8    0.20    0.09
   7   1   8    0.20    0.08
   7   1   8    0.09    0.13
  -8  -1  -8    5.67    0.33
  -8  -1  -8    5.07    0.32
   8   1   8    5.03    0.46
   8   1   8    4.68    0.32
   8   1   8    4.85    0.33
  -9  -1  -8    0.35    0.11
   9   1   8    0.41    0.14
   9   1   8    0.54    0.14
   5  -2  -8    6.07    0.43
  -5   2   8    4.95    0.39
  -5   2   8    5.44    0.39
   4  -2  -8    3.89    0.31
  -4   2   8    3.56    0.30
  -4   2   8    2.83    0.29
   3  -2  -8    3.70    0.29
  -3   2   8    3.42    0.26
  -3   2   8    3.78    0.26
  -3   2   8    3.35    0.25
  -3   2   8    3.49    0.26
   2  -2  -8    0.19    0.09
  -2   2   8    0.07    0.08
  -2   2   8    0.12    0.07
  -2   2   8    0.22    0.08
  -2   2   8    0.13    0.08
  -2   2   8    0.04    0.08
   1  -2  -8   22.22    1.23
   1  -2  -8   19.39    1.01
   1  -2  -8   20.25    1.02
  -1   2   8   19.47    1.05
  -1   2   8   21.82    1.05
  -1   2   8   21.58    1.04
  -1   2   8   20.90    1.03
   0  -2  -8   26.11    1.46
   0  -2  -8   23.78    1.21
   0  -2  -8   25.32    1.23
   0  -2  -8   24.51    1.23
   0  -2  -8   24.47    1.22
   0   2   8   24.97    1.25
   0   2   8   25.16    1.25
   0   2   8   25.76    1.23
   0   2   8   25.08    1.23
  -1  -2  -8   22.03    1.30
  -1  -2  -8   23.61    1.10
  -1  -2  -8   20.62    1.10
  -1  -2  -8   22.38    1.09
   1   2   8   22.45    1.11
   1   2   8   21.92    1.10
   1   2   8   21.63    1.29
   1   2   8   22.65    1.11
   1   2   8   22.64    1.10
  -2  -2  -8    2.50    0.17
  -2  -2  -8    2.49    0.21
  -2  -2  -8    2.21    0.17
  -2  -2  -8    2.40    0.17
  -2  -2  -8    2.45    0.17
   2   2   8    2.43    0.18
   2   2   8    2.56    0.18
   2   2   8    2.22    0.18
   2   2   8    2.59    0.22
   2   2   8    2.50    0.18
  -3  -2  -8    0.55    0.09
  -3  -2  -8    0.73    0.09
  -3  -2  -8    0.84    0.12
  -3  -2  -8    0.61    0.09
   3   2   8    0.60    0.09
   3   2   8    0.56    0.08
   3   2   8    0.55    0.08
   3   2   8    0.55    0.09
  -4  -2  -8    0.35    0.08
  -4  -2  -8    0.34    0.09
  -4  -2  -8    0.25    0.08
  -4  -2  -8    0.34    0.08
   4   2   8    0.17    0.08
   4   2   8    0.20    0.07
   4   2   8    0.19    0.08
   4   2   8    0.32    0.08
   4   2   8    0.39    0.10
  -5  -2  -8    5.99    0.34
  -5  -2  -8    5.37    0.33
   5   2   8    5.88    0.34
   5   2   8    6.12    0.34
   6   2   8   12.96    0.78
   6   2   8   13.27    0.88
  -7  -2  -8    0.26    0.08
  -7  -2  -8    0.12    0.08
  -7  -2  -8    0.22    0.08
  -7  -2  -8    0.07    0.08
   7   2   8    0.07    0.08
   7   2   8    0.15    0.10
   7   2   8    0.09    0.08
   7   2   8    0.22    0.11
   7   2   8   -0.03    0.08
   7   2   8    0.21    0.08
  -8  -2  -8    0.13    0.08
  -8  -2  -8    0.04    0.08
   8   2   8   -0.12    0.08
   8   2   8    0.12    0.11
   8   2   8    0.12    0.08
  -9  -2  -8    1.54    0.16
  -9  -2  -8    1.48    0.17
   9   2   8    1.20    0.15
   9   2   8    1.03    0.14
   5  -3  -8    7.27    0.54
  -5   3   8    7.47    0.47
  -5   3   8    7.14    0.47
   4  -3  -8    3.97    0.32
  -4   3   8    3.73    0.31
  -4   3   8    2.63    0.30
  -4   3   8    2.99    0.27
  -4   3   8    3.30    0.28
  -4   3   8    3.82    0.40
   3  -3  -8    1.21    0.18
  -3   3   8    0.85    0.14
  -3   3   8    0.78    0.12
  -3   3   8    0.76    0.12
  -3   3   8    0.95    0.13
  -3   3   8    0.75    0.16
   2  -3  -8    1.62    0.18
  -2   3   8    1.22    0.15
  -2   3   8    1.31    0.15
  -2   3   8    1.18    0.15
  -2   3   8    1.46    0.16
  -1   3   8   -0.03    0.07
  -1   3   8    0.00    0.07
  -1   3   8    0.00    0.06
  -1   3   8   -0.03    0.07
  -1   3   8    0.13    0.07
   0  -3  -8    0.63    0.12
   0   3   8    0.80    0.12
   0   3   8    0.63    0.09
  -1  -3  -8    1.03    0.08
  -1  -3  -8    1.02    0.16
   1   3   8    0.72    0.13
  -2  -3  -8   16.65    0.79
  -2  -3  -8   16.05    0.95
  -2  -3  -8   13.67    0.80
  -2  -3  -8   16.77    0.79
  -2  -3  -8   17.02    0.80
   2   3   8   16.21    0.95
   2   3   8   17.45    0.81
   2   3   8   16.73    0.81
   2   3   8   14.61    0.82
   2   3   8   15.38    0.80
  -3  -3  -8    2.05    0.15
  -3  -3  -8    1.87    0.15
  -3  -3  -8    2.11    0.15
  -3  -3  -8    1.66    0.14
  -3  -3  -8    1.90    0.15
   3   3   8    1.79    0.16
   3   3   8    1.96    0.15
   3   3   8    1.95    0.16
   3   3   8    2.08    0.16
   3   3   8    2.01    0.19
  -4  -3  -8    1.74    0.15
  -4  -3  -8    1.88    0.16
  -4  -3  -8    1.78    0.15
  -4  -3  -8    1.82    0.16
   4   3   8    1.81    0.16
   4   3   8    1.80    0.15
   4   3   8    1.76    0.15
   4   3   8    1.91    0.16
  -5  -3  -8    6.46    0.37
  -5  -3  -8    6.71    0.37
  -5  -3  -8    6.72    0.37
  -5  -3  -8    6.55    0.37
   5   3   8    6.32    0.37
   5   3   8    6.25    0.46
   5   3   8    6.64    0.38
   5   3   8    7.10    0.37
   5   3   8    6.95    0.38
  -6  -3  -8   10.56    0.57
  -6  -3  -8   11.01    0.57
   6   3   8   11.53    0.57
   6   3   8   10.14    0.57
   6   3   8   10.37    0.71
  -7  -3  -8    6.80    0.38
  -7  -3  -8    6.57    0.39
  -7  -3  -8    7.13    0.38
  -7  -3  -8    6.86    0.40
   7   3   8    6.30    0.38
   7   3   8    6.09    0.39
   7   3   8    6.32    0.38
   7   3   8    6.69    0.39
   7   3   8    6.72    0.47
  -8  -3  -8    1.43    0.15
  -8  -3  -8    1.12    0.15
   8   3   8    1.62    0.16
   8   3   8    1.39    0.16
   8   3   8    1.34    0.25
  -9  -3  -8    1.78    0.17
   9   3   8    1.21    0.17
   9   3   8    1.45    0.17
 -10  -3  -8    1.38    0.20
 -10  -3  -8    2.03    0.21
  10   3   8    1.25    0.20
  10   3   8    1.46    0.20
   5  -4  -8    0.59    0.21
  -5   4   8    0.37    0.17
  -5   4   8    0.56    0.17
   4  -4  -8    0.07    0.13
  -4   4   8    0.06    0.12
  -4   4   8    0.08    0.15
  -4   4   8    0.22    0.23
  -4   4   8    0.10    0.14
  -4   4   8   -0.15    0.11
   3  -4  -8    4.95    0.37
  -3   4   8    5.17    0.31
  -3   4   8    4.31    0.30
  -3   4   8    4.97    0.32
  -3   4   8    4.84    0.42
  -3   4   8    5.05    0.31
   2  -4  -8   15.94    0.94
  -2   4   8   15.28    0.77
  -2   4   8   14.30    0.99
  -2   4   8   16.01    0.78
  -2   4   8   17.38    0.78
  -2   4   8   13.40    0.78
   1  -4  -8   19.26    1.12
  -1   4   8   18.24    1.11
  -1   4   8   19.48    0.93
  -1   4   8   17.65    0.92
  -1   4   8   18.87    0.93
  -1   4   8   18.62    0.92
  -1   4   8   18.27    1.17
   0  -4  -8    5.05    0.36
   0   4   8    5.24    0.29
   0   4   8    5.15    0.28
   0   4   8    5.04    0.35
   0   4   8    5.19    0.29
   0   4   8    5.02    0.29
  -1  -4  -8    1.44    0.18
   1   4   8    1.51    0.14
   1   4   8    1.57    0.13
   1   4   8    1.59    0.13
   1   4   8    1.57    0.14
  -2  -4  -8    7.37    0.35
  -2  -4  -8    6.97    0.35
   2   4   8    6.93    0.38
   2   4   8    7.25    0.38
   2   4   8    6.85    0.38
   2   4   8    7.01    0.38
   2   4   8    7.09    0.46
  -3  -4  -8    3.80    0.21
  -3  -4  -8    3.68    0.22
  -3  -4  -8    3.78    0.21
   3   4   8    4.01    0.24
   3   4   8    4.20    0.24
   3   4   8    3.52    0.23
   3   4   8    3.51    0.29
   3   4   8    3.85    0.24
  -4  -4  -8    0.22    0.07
  -4  -4  -8    0.12    0.07
  -4  -4  -8    0.12    0.06
  -4  -4  -8    0.12    0.06
  -4  -4  -8    0.03    0.08
   4   4   8    0.10    0.08
   4   4   8    0.15    0.09
   4   4   8    0.07    0.06
   4   4   8    0.10    0.07
   4   4   8    0.21    0.07
  -5  -4  -8    5.30    0.32
  -5  -4  -8    5.31    0.32
   5   4   8    5.91    0.38
   5   4   8    5.08    0.32
   5   4   8    6.15    0.33
   5   4   8    6.31    0.33
   5   4   8    5.30    0.33
   5   4   8    5.53    0.38
  -6  -4  -8   18.37    0.96
  -6  -4  -8   19.77    0.96
  -6  -4  -8   19.83    0.95
  -6  -4  -8   17.17    0.95
   6   4   8   19.06    0.95
   6   4   8   18.62    0.97
   6   4   8   18.94    1.12
   6   4   8   19.75    0.96
   6   4   8   19.06    0.97
   7   4   8    2.30    0.20
   7   4   8    1.87    0.18
   7   4   8    2.30    0.19
   7   4   8    2.07    0.20
  -8  -4  -8    3.49    0.25
  -8  -4  -8    3.53    0.25
  -8  -4  -8    3.69    0.28
  -8  -4  -8    3.76    0.28
   8   4   8    3.54    0.24
   8   4   8    3.35    0.34
   8   4   8    3.77    0.25
  -9  -4  -8    0.48    0.11
  -9  -4  -8    0.73    0.12
   9   4   8    0.75    0.12
   9   4   8    0.56    0.20
   9   4   8    0.70    0.11
  10   4   8   -0.16    0.10
  10   4   8    0.08    0.10
   4  -5  -8   -0.17    0.15
  -4   5   8   -0.16    0.11
  -4   5   8   -0.19    0.28
  -4   5   8   -0.11    0.12
   3  -5  -8    3.03    0.29
  -3   5   8    3.69    0.38
  -3   5   8    2.77    0.23
  -3   5   8    2.81    0.24
  -3   5   8    2.71    0.25
  -3   5   8    2.72    0.22
   2  -5  -8    0.72    0.13
  -2   5   8    0.76    0.10
  -2   5   8    0.79    0.09
  -2   5   8    0.98    0.13
  -2   5   8    0.78    0.17
  -2   5   8    0.58    0.14
  -2   5   8    0.79    0.11
  -2   5   8    0.77    0.17
  -1   5   8    0.15    0.12
  -1   5   8   -0.02    0.10
  -1   5   8    0.28    0.07
  -1   5   8    0.15    0.07
  -1   5   8    0.17    0.06
  -1   5   8    0.15    0.13
  -1   5   8    0.20    0.06
   0   5   8    0.56    0.12
   0   5   8    0.72    0.10
   0   5   8    0.80    0.10
   0   5   8    0.54    0.11
   0   5   8    0.72    0.10
   0   5   8    0.68    0.10
   1   5   8    0.69    0.10
   1   5   8    0.56    0.08
   1   5   8    0.64    0.08
   1   5   8    0.64    0.10
  -2  -5  -8    0.07    0.08
   2   5   8    0.11    0.06
   2   5   8    0.04    0.06
   2   5   8    0.10    0.06
   2   5   8    0.05    0.06
  -3  -5  -8   39.28    2.51
  -3  -5  -8   38.36    2.23
   3   5   8   38.22    2.25
   3   5   8   38.70    1.93
   3   5   8   42.01    1.91
  -4  -5  -8   30.35    1.48
  -4  -5  -8   30.25    1.46
   4   5   8   31.34    1.75
   4   5   8   31.47    1.50
   4   5   8   29.56    1.48
   4   5   8   29.61    1.50
   4   5   8   29.17    1.48
  -5  -5  -8    3.66    0.31
  -5  -5  -8    3.62    0.23
  -5  -5  -8    3.66    0.23
   5   5   8    3.60    0.24
   5   5   8    3.45    0.23
   5   5   8    3.71    0.24
   5   5   8    3.37    0.24
   5   5   8    3.82    0.29
  -6  -5  -8    8.43    0.47
  -6  -5  -8    8.59    0.48
   6   5   8    8.53    0.48
   6   5   8    9.28    0.57
   6   5   8    9.16    0.48
   6   5   8    8.96    0.49
  -7  -5  -8    0.20    0.09
  -7  -5  -8    0.18    0.08
   7   5   8    0.31    0.13
   7   5   8    0.16    0.07
   7   5   8    0.21    0.08
   7   5   8    0.16    0.08
   7   5   8    0.27    0.07
  -8  -5  -8    5.82    0.41
  -8  -5  -8    6.63    0.42
   8   5   8    6.66    0.38
   8   5   8    6.99    0.39
   9   5   8    0.59    0.10
   9   5   8    0.41    0.10
  10   5   8    0.17    0.11
  10   5   8    0.20    0.11
   4  -6  -8    2.08    0.27
  -3   6   8   -0.09    0.24
  -3   6   8   -0.06    0.09
  -3   6   8   -0.12    0.09
  -2   6   8   -0.02    0.08
  -2   6   8    0.09    0.07
  -2   6   8   -0.05    0.18
  -2   6   8    0.06    0.08
  -2   6   8    0.03    0.07
  -1   6   8    2.89    0.18
  -1   6   8    3.03    0.30
  -1   6   8    2.60    0.26
  -1   6   8    2.63    0.33
  -1   6   8    3.04    0.17
  -1   6   8    2.47    0.18
  -1   6   8    2.46    0.17
   0  -6  -8    1.95    0.21
   0   6   8    2.18    0.28
   0   6   8    2.06    0.14
   0   6   8    2.04    0.14
   0   6   8    1.98    0.14
   0   6   8    1.74    0.21
   0   6   8    2.06    0.14
  -1  -6  -8    0.08    0.07
  -1  -6  -8    0.11    0.08
   1   6   8   -0.04    0.05
   1   6   8    0.01    0.06
   1   6   8    0.00    0.05
   1   6   8    0.12    0.11
   1   6   8   -0.01    0.05
   1   6   8   -0.17    0.08
   1   6   8   -0.02    0.11
  -2  -6  -8   20.56    1.20
  -2  -6  -8   19.64    1.35
   2   6   8   20.56    1.01
   2   6   8   21.78    1.02
   2   6   8   19.86    1.34
   2   6   8   20.83    1.02
   2   6   8   20.81    1.01
  -3  -6  -8   19.45    1.31
  -3  -6  -8   20.54    1.35
  -3  -6  -8   21.92    1.20
   3   6   8   22.38    1.02
   3   6   8   19.43    1.34
   3   6   8   19.99    1.03
   3   6   8   20.35    1.02
   3   6   8   21.43    1.03
  -4  -6  -8   35.12    2.25
  -4  -6  -8   40.22    2.20
  -4  -6  -8   34.20    2.00
   4   6   8   32.85    1.73
   4   6   8   35.36    1.71
   4   6   8   34.36    1.71
   4   6   8   35.09    1.73
   4   6   8   33.67    2.22
  -5  -6  -8    0.93    0.12
  -5  -6  -8    1.09    0.19
  -5  -6  -8    0.89    0.12
  -5  -6  -8    0.81    0.11
  -5  -6  -8    0.86    0.12
   5   6   8    1.00    0.14
   5   6   8    1.02    0.14
   5   6   8    1.00    0.14
   5   6   8    0.88    0.14
  -6  -6  -8    0.37    0.13
  -6  -6  -8    0.45    0.08
  -6  -6  -8    0.34    0.08
   6   6   8    0.18    0.08
   6   6   8    0.33    0.09
   6   6   8    0.36    0.09
  -7  -6  -8    0.16    0.08
  -7  -6  -8    0.19    0.11
  -7  -6  -8    0.26    0.09
  -7  -6  -8    0.27    0.11
   7   6   8    0.14    0.08
   7   6   8    0.03    0.08
   7   6   8    0.15    0.08
   7   6   8    0.19    0.09
  -8  -6  -8    0.46    0.14
  -8  -6  -8    0.84    0.15
  -8  -6  -8    0.71    0.11
  -8  -6  -8    0.66    0.11
   8   6   8    0.86    0.13
   8   6   8    0.73    0.11
   9   6   8    1.14    0.16
   9   6   8    1.45    0.16
 -10  -6  -8    1.04    0.16
 -10  -6  -8    0.89    0.15
  10   6   8    1.34    0.18
  10   6   8    0.97    0.13
   3  -7  -8    1.16    0.24
   3  -7  -8    1.04    0.21
   2  -7  -8    0.53    0.16
   2  -7  -8    0.53    0.17
  -2   7   8    0.67    0.08
  -2   7   8    0.65    0.08
  -2   7   8    0.60    0.25
   1  -7  -8   -0.15    0.10
   1  -7  -8   -0.11    0.12
  -1   7   8    0.16    0.19
  -1   7   8    0.00    0.06
  -1   7   8   -0.04    0.05
  -1   7   8   -0.01    0.05
  -1   7   8    0.12    0.19
  -1   7   8   -0.03    0.05
   0  -7  -8    0.35    0.14
   0  -7  -8    0.32    0.13
   0   7   8    0.29    0.06
   0   7   8    0.53    0.18
   0   7   8    0.30    0.06
   0   7   8    0.33    0.15
   0   7   8    0.28    0.06
   0   7   8    0.50    0.12
   0   7   8    0.27    0.06
  -1  -7  -8    1.13    0.17
  -1  -7  -8    1.24    0.18
   1   7   8    1.14    0.18
   1   7   8    0.92    0.10
   1   7   8    0.85    0.17
   1   7   8    0.85    0.11
   1   7   8    0.79    0.11
   1   7   8    0.91    0.10
   1   7   8    0.75    0.13
   2   7   8    8.17    0.53
   2   7   8    7.94    0.42
   2   7   8    8.21    0.42
   2   7   8    8.39    0.42
   2   7   8    8.08    0.58
   2   7   8    7.86    0.43
  -3  -7  -8    0.62    0.13
  -3  -7  -8    0.62    0.12
  -3  -7  -8    0.71    0.14
   3   7   8    0.57    0.08
   3   7   8    0.59    0.09
   3   7   8    0.56    0.09
   3   7   8    0.66    0.08
   3   7   8    0.54    0.11
   4   7   8    0.05    0.07
   4   7   8    0.03    0.08
  -5  -7  -8    0.15    0.05
  -5  -7  -8    0.00    0.10
  -5  -7  -8    0.05    0.04
  -5  -7  -8    0.06    0.05
  -5  -7  -8    0.16    0.11
  -5  -7  -8    0.14    0.12
  -5  -7  -8    0.09    0.04
   5   7   8    0.14    0.08
   5   7   8    0.12    0.08
   5   7   8   -0.09    0.08
   5   7   8    0.11    0.09
   5   7   8    0.07    0.10
  -6  -7  -8   23.84    1.20
  -6  -7  -8   25.26    1.18
  -6  -7  -8   24.92    1.20
  -6  -7  -8   23.78    1.18
  -6  -7  -8   23.81    1.55
   6   7   8   23.88    1.20
   6   7   8   24.69    1.43
   6   7   8   25.19    1.22
   6   7   8   22.94    1.20
   6   7   8   23.05    1.22
  -7  -7  -8    0.49    0.10
  -7  -7  -8    0.69    0.13
  -7  -7  -8    0.66    0.13
  -7  -7  -8    0.54    0.10
   7   7   8    0.43    0.10
   7   7   8    0.40    0.10
   7   7   8    0.50    0.10
   7   7   8    0.50    0.10
  -8  -7  -8    5.19    0.36
  -8  -7  -8    6.82    0.50
  -8  -7  -8    5.72    0.37
   8   7   8    6.05    0.36
   8   7   8    5.85    0.36
  -9  -7  -8    2.52    0.35
  -9  -7  -8    2.22    0.36
  -9  -7  -8    2.26    0.25
  -9  -7  -8    2.13    0.25
   9   7   8    2.56    0.22
   9   7   8    3.01    0.22
 -10  -7  -8    1.26    0.19
 -10  -7  -8    1.73    0.27
  10   7   8    1.85    0.21
  10   7   8    1.92    0.22
   2  -8  -8    5.75    0.50
   2  -8  -8    5.93    0.45
   1  -8  -8   -0.03    0.13
   1  -8  -8   -0.02    0.14
  -1   8   8   -0.11    0.24
   0  -8  -8    2.63    0.27
   0  -8  -8    3.20    0.30
   0   8   8    2.24    0.39
   0   8   8    3.07    0.38
   0   8   8    2.69    0.16
   0   8   8    2.66    0.16
  -1  -8  -8    6.76    0.47
  -1  -8  -8    7.30    0.54
   1   8   8    7.40    0.36
   1   8   8    6.93    0.37
   1   8   8    7.87    0.57
   1   8   8    6.94    0.36
   1   8   8    6.35    0.48
   1   8   8    6.57    0.56
   1   8   8    6.98    0.36
  -2  -8  -8   16.03    1.09
  -2  -8  -8   16.14    0.97
   2   8   8   15.30    0.97
   2   8   8   14.96    0.81
   2   8   8   16.85    1.09
   2   8   8   15.70    0.80
   2   8   8   16.92    0.80
   2   8   8   16.75    0.79
  -3  -8  -8    0.18    0.13
   3   8   8    0.19    0.07
   3   8   8    0.13    0.07
   3   8   8    0.24    0.12
   3   8   8    0.34    0.12
  -4  -8  -8    0.17    0.13
  -4  -8  -8    0.15    0.10
  -4  -8  -8    0.07    0.12
   4   8   8    0.26    0.10
   4   8   8    0.31    0.10
   4   8   8    0.08    0.13
   4   8   8    0.16    0.08
   4   8   8    0.21    0.08
  -5  -8  -8    0.20    0.12
  -5  -8  -8    0.25    0.12
  -5  -8  -8    0.40    0.14
   5   8   8    0.32    0.13
   5   8   8    0.34    0.11
   5   8   8    0.35    0.11
   5   8   8    0.28    0.09
   5   8   8    0.30    0.10
  -6  -8  -8    0.98    0.12
  -6  -8  -8    0.97    0.12
  -6  -8  -8    0.95    0.11
  -6  -8  -8    1.03    0.11
   6   8   8    0.75    0.12
   6   8   8    0.67    0.13
   6   8   8    0.67    0.13
   6   8   8    1.35    0.17
  -7  -8  -8    7.38    0.41
  -7  -8  -8    7.46    0.41
  -7  -8  -8    6.03    0.56
   7   8   8    8.34    0.46
   7   8   8    7.70    0.44
   7   8   8    7.68    0.43
  -8  -8  -8    2.67    0.35
  -8  -8  -8    2.79    0.30
  -8  -8  -8    2.56    0.30
   8   8   8    2.71    0.24
   8   8   8    2.92    0.24
  -9  -8  -8    2.01    0.27
  -9  -8  -8    1.60    0.24
  -9  -8  -8    2.00    0.24
  -9  -8  -8    1.59    0.26
  -9  -8  -8    1.66    0.33
   9   8   8    1.92    0.20
   9   8   8    1.82    0.21
   1  -9  -8    0.22    0.16
   1  -9  -8    0.32    0.18
   0  -9  -8    3.02    0.31
   0  -9  -8    3.62    0.35
  -1  -9  -8    0.50    0.17
  -1  -9  -8    0.52    0.15
   1   9   8    0.62    0.08
   1   9   8    0.57    0.08
   1   9   8    0.35    0.24
   1   9   8    0.36    0.24
   1   9   8    0.47    0.07
   1   9   8    0.50    0.07
  -2  -9  -8    1.68    0.25
  -2  -9  -8    1.69    0.21
   2   9   8    2.07    0.35
   2   9   8    1.76    0.18
   2   9   8    1.90    0.16
   2   9   8    1.79    0.18
   2   9   8    1.91    0.16
  -3  -9  -8    3.33    0.30
  -3  -9  -8    3.61    0.35
  -3  -9  -8    3.61    0.33
   3   9   8    3.51    0.26
   3   9   8    3.95    0.24
   3   9   8    3.97    0.24
   3   9   8    3.67    0.26
  -4  -9  -8    5.90    0.48
  -4  -9  -8    6.35    0.48
  -4  -9  -8    5.71    0.41
   4   9   8    6.12    0.37
   4   9   8    6.14    0.38
   4   9   8    6.19    0.36
   4   9   8    6.34    0.36
  -5  -9  -8   -0.09    0.13
   5   9   8    0.08    0.10
   5   9   8   -0.04    0.12
   5   9   8    0.01    0.13
   5   9   8    0.00    0.10
  -6  -9  -8    0.16    0.14
   6   9   8    0.24    0.14
   6   9   8    0.27    0.14
  -7  -9  -8    3.25    0.38
   7   9   8    4.37    0.31
   7   9   8    4.44    0.31
  -8  -9  -8    6.85    0.40
  -8  -9  -8    6.58    0.56
  -8  -9  -8    6.66    0.40
   8   9   8    6.33    0.43
   8   9   8    6.54    0.43
  -9  -9  -8    0.10    0.15
  -9  -9  -8    0.07    0.20
  -9  -9  -8    0.26    0.16
   9   9   8    0.02    0.14
   9   9   8    0.05    0.14
  -1 -10  -8    2.69    0.32
  -1 -10  -8    2.62    0.28
  -2 -10  -8    2.31    0.27
  -2 -10  -8    2.51    0.29
  -3 -10  -8    0.31    0.16
  -3 -10  -8    0.19    0.13
   3  10   8    0.24    0.10
   3  10   8    0.28    0.14
   3  10   8    0.29    0.14
   3  10   8    0.18    0.10
  -4 -10  -8    0.72    0.16
  -4 -10  -8    0.67    0.18
  -4 -10  -8    0.60    0.18
   4  10   8    0.55    0.12
   4  10   8    0.52    0.16
   4  10   8    0.67    0.13
   4  10   8    0.58    0.16
  -5 -10  -8    0.85    0.21
   5  10   8    1.07    0.15
   5  10   8    0.81    0.19
   5  10   8    0.69    0.18
   5  10   8    0.85    0.15
  -6 -10  -8    0.68    0.18
   6  10   8    0.68    0.15
   6  10   8    0.62    0.15
  -7 -10  -8    0.47    0.18
   7  10   8    0.70    0.17
   7  10   8    0.64    0.16
  -8 -10  -8    2.76    0.41
   8  10   8    3.62    0.33
   8  10   8    3.70    0.35
  -3 -11  -8    0.51    0.17
  -3 -11  -8    0.27    0.18
  -4 -11  -8    0.30    0.18
  -4 -11  -8    0.28    0.20
  -4 -11  -8    0.42    0.16
   4  11   8    0.34    0.16
   4  11   8    0.09    0.15
  -5 -11  -8    0.37    0.21
   5  11   8    0.13    0.16
   5  11   8    0.29    0.16
  -6 -11  -8    0.62    0.23
   6  11   8    0.92    0.18
   6  11   8    0.56    0.18
   2   4  -9   14.73    0.93
   2   4  -9   14.33    0.78
   2   4  -9   14.91    0.78
  -2  -4   9   14.36    0.78
  -2  -4   9   14.09    0.78
   1   4  -9    3.95    0.26
   1   4  -9    3.15    0.37
   1   4  -9    2.95    0.26
  -1  -4   9    3.79    0.26
  -1  -4   9    3.16    0.26
   0   4  -9    0.23    0.18
   0   4  -9    0.45    0.10
   0   4  -9    0.44    0.10
   0  -4   9    0.46    0.11
   0  -4   9    0.49    0.11
  -1   4  -9    0.01    0.10
  -1   4  -9    0.24    0.17
  -1   4  -9   -0.18    0.10
   1  -4   9   -0.22    0.11
  -2   4  -9    4.88    0.41
  -2   4  -9    4.26    0.31
  -2   4  -9    5.23    0.32
   2  -4   9    4.30    0.43
   2  -4   9    4.59    0.33
   2  -4   9    4.76    0.33
  -3   4  -9    0.15    0.11
  -3   4  -9    0.38    0.10
   3  -4   9    0.49    0.14
   3  -4   9    0.42    0.16
   3  -4   9    0.35    0.15
   3   3  -9    3.07    0.32
   3   3  -9    3.12    0.29
   3   3  -9    2.96    0.29
  -3  -3   9    3.58    0.26
  -3  -3   9    2.76    0.25
   2   3  -9    7.04    0.52
   2   3  -9    7.10    0.43
   2   3  -9    7.26    0.43
  -2  -3   9    7.18    0.42
  -2  -3   9    6.92    0.42
   1   3  -9    3.22    0.24
   1   3  -9    2.69    0.24
   1   3  -9    3.16    0.32
  -1  -3   9    2.87    0.24
  -1  -3   9    2.94    0.24
   0   3  -9    2.94    0.30
   0   3  -9    3.17    0.22
   0   3  -9    2.72    0.23
   0  -3   9    2.87    0.23
   0  -3   9    3.18    0.23
  -1   3  -9   -0.08    0.08
  -1   3  -9   -0.04    0.08
  -1   3  -9    0.07    0.14
   1  -3   9   -0.18    0.08
   1  -3   9    0.03    0.09
  -2   3  -9    0.94    0.14
  -2   3  -9    0.97    0.13
  -2   3  -9    1.06    0.17
   2  -3   9    1.01    0.13
   2  -3   9    0.95    0.13
  -3   3  -9    2.73    0.22
  -3   3  -9    2.36    0.28
  -3   3  -9    2.55    0.23
   3  -3   9    3.04    0.24
   3  -3   9    3.34    0.24
   3  -3   9    2.63    0.33
  -4   3  -9    5.83    0.36
  -4   3  -9    5.89    0.36
   4  -3   9    6.66    0.54
   4  -3   9    6.07    0.40
   4  -3   9    6.00    0.39
  -5   3  -9    1.86    0.20
  -5   3  -9    2.15    0.20
   5  -3   9    2.21    0.34
   5  -3   9    1.76    0.26
   5  -3   9    1.80    0.26
   4   2  -9   12.48    0.67
   4   2  -9   10.07    0.76
   4   2  -9   12.08    0.67
  -4  -2   9   12.12    0.67
  -4  -2   9   12.57    0.66
   3   2  -9    1.06    0.16
   3   2  -9    0.85    0.15
  -3  -2   9    0.77    0.12
  -3  -2   9    0.51    0.12
   2   2  -9    1.97    0.23
   2   2  -9    2.37    0.22
   2   2  -9    1.56    0.23
   2   2  -9    2.69    0.22
  -2  -2   9    1.98    0.19
  -2  -2   9    2.42    0.20
   1   2  -9    2.06    0.20
   1   2  -9    2.64    0.21
   1   2  -9    2.02    0.25
   1   2  -9    2.32    0.27
   1   2  -9    1.76    0.27
  -1  -2   9    2.14    0.20
  -1  -2   9    1.83    0.19
   0   2  -9    3.75    0.31
   0   2  -9    4.93    0.35
   0   2  -9    4.10    0.28
   0   2  -9    4.35    0.28
   0   2  -9    3.84    0.31
   0  -2   9    4.25    0.28
   0  -2   9    4.46    0.28
  -1   2  -9   -0.07    0.11
  -1   2  -9    0.00    0.11
  -1   2  -9   -0.12    0.11
  -1   2  -9   -0.01    0.08
  -1   2  -9   -0.12    0.07
   1  -2   9    0.00    0.08
   1  -2   9   -0.11    0.08
  -2   2  -9    5.29    0.33
  -2   2  -9    5.53    0.40
  -2   2  -9    5.41    0.33
   2  -2   9    5.81    0.34
   2  -2   9    5.46    0.34
  -3   2  -9    4.21    0.35
  -3   2  -9    4.27    0.28
  -3   2  -9    4.23    0.28
  -3   2  -9    4.19    0.33
   3  -2   9    4.56    0.40
   3  -2   9    4.55    0.29
   3  -2   9    4.04    0.28
  -4   2  -9    4.26    0.28
  -4   2  -9    4.30    0.28
   4  -2   9    4.46    0.28
   4  -2   9    3.76    0.41
   4  -2   9    4.25    0.28
  -5   2  -9    0.50    0.23
  -5   2  -9    1.10    0.16
  -5   2  -9    0.84    0.12
   5  -2   9    0.97    0.14
   5  -2   9    0.83    0.21
   5  -2   9    0.87    0.13
  -6   2  -9    0.47    0.10
   6  -2   9    0.56    0.14
   6  -2   9    0.05    0.22
   6  -2   9    0.43    0.14
   4   1  -9    3.56    0.30
   4   1  -9    3.79    0.32
   4   1  -9    3.84    0.31
  -4  -1   9    3.95    0.31
  -4  -1   9    3.48    0.30
   3   1  -9    1.66    0.22
   3   1  -9    2.38    0.23
   3   1  -9    2.39    0.23
   3   1  -9    2.13    0.31
   3   1  -9    2.34    0.31
  -3  -1   9    1.92    0.21
  -3  -1   9    2.07    0.22
   2   1  -9    0.49    0.15
   2   1  -9    0.46    0.16
   2   1  -9    0.51    0.11
   2   1  -9    0.56    0.11
   2   1  -9    0.59    0.12
  -2  -1   9    0.66    0.11
  -2  -1   9    0.64    0.11
   1   1  -9    0.22    0.10
   1   1  -9    0.13    0.13
   1   1  -9    0.22    0.09
   1   1  -9    0.09    0.09
   1   1  -9    0.23    0.13
  -1  -1   9    0.13    0.08
  -1  -1   9    0.10    0.08
   0   1  -9   -0.09    0.10
   0   1  -9   -0.23    0.10
   0   1  -9   -0.09    0.08
   0   1  -9   -0.16    0.08
   0   1  -9   -0.04    0.09
   0  -1   9   -0.14    0.08
   0  -1   9    0.06    0.08
   0  -1   9   -0.11    0.07
  -1   1  -9   27.34    1.63
  -1   1  -9   28.32    1.39
  -1   1  -9   28.90    1.41
  -1   1  -9   28.09    1.41
  -1   1  -9   27.38    1.39
   1  -1   9   28.93    1.42
   1  -1   9   27.37    1.40
   1  -1   9   28.27    1.40
   1  -1   9   27.89    1.41
  -2   1  -9    2.32    0.20
  -2   1  -9    1.87    0.18
  -2   1  -9    2.20    0.23
  -2   1  -9    1.95    0.20
  -2   1  -9    2.20    0.18
   2  -1   9    1.99    0.18
   2  -1   9    1.94    0.19
   2  -1   9    1.96    0.19
   2  -1   9    1.85    0.18
  -3   1  -9    0.24    0.11
  -3   1  -9    0.16    0.09
  -3   1  -9    0.27    0.09
  -3   1  -9    0.27    0.08
  -3   1  -9    0.17    0.08
  -3   1  -9    0.26    0.09
   3  -1   9    0.20    0.09
   3  -1   9    0.16    0.09
   3  -1   9    0.10    0.09
   3  -1   9    0.12    0.09
  -4   1  -9    0.19    0.07
  -4   1  -9    0.11    0.07
  -4   1  -9   -0.08    0.11
   4  -1   9   -0.08    0.13
   4  -1   9   -0.02    0.07
   4  -1   9   -0.11    0.07
  -5   1  -9   -0.03    0.08
  -5   1  -9    0.11    0.08
  -5   1  -9    0.06    0.16
   5  -1   9    0.05    0.08
   5  -1   9   -0.14    0.14
   5  -1   9    0.03    0.08
  -6   1  -9   -0.02    0.09
  -6   1  -9    0.16    0.09
   6  -1   9    0.21    0.10
   6  -1   9    0.18    0.18
   6  -1   9    0.16    0.10
  -7   1  -9    0.64    0.12
   7  -1   9    0.88    0.23
   7  -1   9    0.85    0.15
   7  -1   9    0.94    0.15
   4   0  -9    0.22    0.12
   4   0  -9    0.02    0.12
  -4   0   9    0.01    0.12
  -4   0   9    0.32    0.13
   3   0  -9    3.03    0.24
   3   0  -9    3.18    0.25
   3   0  -9    3.18    0.27
  -3   0   9    2.87    0.25
  -3   0   9    3.30    0.26
   2   0  -9   12.07    0.61
   2   0  -9   11.81    0.61
   2   0  -9   10.96    0.72
   2   0  -9   11.82    0.63
   2   0  -9   11.74    0.62
  -2   0   9   11.24    0.63
  -2   0   9   11.32    0.61
  -2   0   9   11.64    0.62
  -2   0   9   11.09    0.62
   1   0  -9    4.29    0.28
   1   0  -9    4.33    0.30
   1   0  -9    3.48    0.30
   1   0  -9    4.31    0.33
   1   0  -9    4.55    0.28
  -1   0   9    4.77    0.29
  -1   0   9    4.59    0.27
  -1   0   9    3.90    0.27
  -1   0   9    4.59    0.29
   0   0  -9    0.50    0.11
   0   0  -9    0.45    0.10
   0   0  -9    0.40    0.10
   0   0  -9    0.62    0.10
   0   0   9    0.49    0.09
   0   0   9    0.46    0.09
  -1   0  -9    0.56    0.09
  -1   0  -9    0.71    0.11
  -1   0  -9    0.48    0.12
  -1   0  -9    0.57    0.10
  -1   0  -9    0.50    0.11
   1   0   9    0.41    0.09
   1   0   9    0.57    0.09
  -2   0  -9    4.72    0.33
  -2   0  -9    4.35    0.27
  -2   0  -9    4.70    0.28
   2   0   9    3.70    0.27
   2   0   9    4.04    0.27
  -3   0  -9    1.00    0.17
   3   0   9    0.93    0.12
   3   0   9    0.89    0.12
  -4   0  -9    0.65    0.10
  -4   0  -9    0.70    0.12
  -4   0  -9    0.91    0.12
  -4   0  -9    0.74    0.12
  -4   0  -9    0.66    0.11
   4   0   9    0.81    0.13
   4   0   9    0.87    0.11
   4   0   9    0.71    0.11
   4   0   9    0.76    0.16
   4   0   9    0.70    0.11
  -5   0  -9    1.01    0.13
  -5   0  -9    1.15    0.22
  -5   0  -9    0.87    0.14
  -5   0  -9    1.02    0.13
  -5   0  -9    0.93    0.12
   5   0   9    0.96    0.13
   5   0   9    1.13    0.15
   5   0   9    0.86    0.12
   5   0   9    1.14    0.15
   5   0   9    0.81    0.18
  -6   0  -9    0.09    0.08
  -6   0  -9   -0.09    0.07
   6   0   9    0.07    0.08
   6   0   9    0.03    0.08
  -7   0  -9    1.16    0.18
  -7   0  -9    1.58    0.18
   7   0   9    1.07    0.16
   7   0   9    2.04    0.33
   7   0   9    1.35    0.17
  -8   0  -9    0.12    0.10
  -8   0  -9    0.16    0.10
   8   0   9   -0.03    0.12
   8   0   9    0.39    0.23
   8   0   9    0.02    0.13
  -5   1   9    3.60    0.38
  -5   1   9    4.44    0.38
  -4   1   9    1.63    0.25
  -4   1   9    1.12    0.17
   3  -1  -9    5.86    0.32
   3  -1  -9    4.61    0.33
   3  -1  -9    5.52    0.31
   3  -1  -9    5.67    0.34
   3  -1  -9    6.01    0.41
  -3   1   9    5.85    0.37
  -3   1   9    5.82    0.37
  -3   1   9    5.84    0.38
   2  -1  -9    0.92    0.13
   2  -1  -9    0.56    0.09
   2  -1  -9    0.93    0.15
  -2   1   9    0.49    0.12
  -2   1   9    0.70    0.12
   1  -1  -9   10.85    0.55
   1  -1  -9    9.39    0.55
   1  -1  -9    9.18    0.55
   1  -1  -9   11.38    0.66
   1  -1  -9   10.53    0.54
  -1   1   9   11.25    0.57
  -1   1   9    9.35    0.56
  -1   1   9   11.17    0.56
  -1   1   9   10.66    0.56
   0  -1  -9    6.83    0.37
   0  -1  -9    6.82    0.37
   0   1   9    6.96    0.38
   0   1   9    6.60    0.38
   0   1   9    6.34    0.38
   0   1   9    6.51    0.38
  -1  -1  -9    1.12    0.14
  -1  -1  -9    1.10    0.15
  -1  -1  -9    1.09    0.17
  -1  -1  -9    1.17    0.16
  -1  -1  -9    1.20    0.14
   1   1   9    1.21    0.14
   1   1   9    1.20    0.14
   1   1   9    1.27    0.14
   1   1   9    1.21    0.15
  -2  -1  -9    1.85    0.21
  -2  -1  -9    1.76    0.16
  -2  -1  -9    1.81    0.17
  -2  -1  -9    1.90    0.16
  -2  -1  -9    1.83    0.18
   2   1   9    1.78    0.16
   2   1   9    1.83    0.17
   2   1   9    1.90    0.16
   2   1   9    1.79    0.17
  -3  -1  -9    1.64    0.16
  -3  -1  -9    1.73    0.16
  -3  -1  -9    1.85    0.20
  -3  -1  -9    1.84    0.18
  -3  -1  -9    1.64    0.18
   3   1   9    1.35    0.15
   3   1   9    2.14    0.17
   3   1   9    1.36    0.15
   3   1   9    1.70    0.17
  -4  -1  -9    0.60    0.12
  -4  -1  -9    0.60    0.10
  -4  -1  -9    0.66    0.10
  -5  -1  -9    3.13    0.27
  -5  -1  -9    3.62    0.27
  -5  -1  -9    4.01    0.25
  -5  -1  -9    3.74    0.25
   5   1   9    3.82    0.26
   5   1   9    3.95    0.26
   5   1   9    3.89    0.25
   5   1   9    4.02    0.26
   5   1   9    3.84    0.34
  -6  -1  -9    1.24    0.14
  -6  -1  -9    1.24    0.18
  -6  -1  -9    1.06    0.17
  -6  -1  -9    0.98    0.14
   6   1   9    1.23    0.16
   6   1   9    1.53    0.17
   6   1   9    1.57    0.25
   6   1   9    1.27    0.16
  -7  -1  -9   -0.07    0.08
  -7  -1  -9   -0.09    0.08
   7   1   9   -0.03    0.15
   7   1   9   -0.05    0.08
  -8  -1  -9    2.53    0.20
  -8  -1  -9    2.50    0.21
   8   1   9    2.56    0.22
   9   1   9    0.38    0.15
   9   1   9    0.19    0.14
   4  -2  -9    0.12    0.12
  -4   2   9   -0.10    0.13
  -4   2   9   -0.12    0.13
   3  -2  -9    0.62    0.12
  -3   2   9    0.42    0.16
  -3   2   9    0.70    0.15
  -3   2   9    0.49    0.13
   2  -2  -9    0.77    0.13
  -2   2   9    0.93    0.13
  -2   2   9    0.85    0.13
  -2   2   9    0.86    0.13
  -2   2   9    0.85    0.13
   1  -2  -9   21.61    1.12
   1  -2  -9   22.33    1.35
   1  -2  -9   22.86    1.11
  -1   2   9   23.44    1.14
  -1   2   9   23.11    1.14
  -1   2   9   23.71    1.16
  -1   2   9   22.96    1.15
   0  -2  -9   16.35    0.78
   0  -2  -9   17.02    0.79
   0  -2  -9   13.23    0.79
   0  -2  -9   14.49    0.96
   0  -2  -9   15.90    0.77
   0   2   9   16.13    0.81
   0   2   9   15.47    0.80
   0   2   9   16.32    0.81
   0   2   9   15.72    0.79
  -1  -2  -9    2.66    0.19
  -1  -2  -9    2.50    0.23
  -1  -2  -9    2.65    0.18
  -1  -2  -9    2.08    0.19
  -1  -2  -9    2.48    0.18
   1   2   9    2.91    0.21
   1   2   9    3.03    0.19
   1   2   9    2.61    0.19
   1   2   9    2.93    0.21
  -2  -2  -9   -0.06    0.07
  -2  -2  -9    0.04    0.08
  -2  -2  -9   -0.02    0.06
  -2  -2  -9   -0.07    0.08
  -2  -2  -9   -0.06    0.07
   2   2   9   -0.16    0.07
   2   2   9   -0.01    0.07
   2   2   9   -0.01    0.07
   2   2   9    0.04    0.09
   2   2   9   -0.08    0.07
  -3  -2  -9   11.94    0.60
  -3  -2  -9   11.30    0.60
  -3  -2  -9   11.74    0.60
  -3  -2  -9   11.89    0.59
   3   2   9    9.69    0.70
   3   2   9   12.63    0.61
   3   2   9   11.05    0.60
   3   2   9   11.35    0.61
   3   2   9   12.06    0.61
  -4  -2  -9    0.21    0.08
  -4  -2  -9    0.17    0.08
  -4  -2  -9    0.26    0.08
  -4  -2  -9    0.26    0.09
   4   2   9    0.25    0.07
   4   2   9    0.21    0.08
   4   2   9    0.15    0.08
   4   2   9    0.26    0.09
   4   2   9    0.13    0.12
  -5  -2  -9    0.03    0.07
  -5  -2  -9   -0.01    0.07
   5   2   9   -0.04    0.10
   5   2   9   -0.12    0.11
  -6  -2  -9    7.71    0.43
  -6  -2  -9    7.87    0.42
  -6  -2  -9    7.51    0.42
  -6  -2  -9    7.17    0.43
   6   2   9    7.42    0.42
   6   2   9    7.83    0.55
   6   2   9    7.41    0.42
   6   2   9    6.84    0.48
   6   2   9    6.82    0.42
   6   2   9    7.37    0.43
  -7  -2  -9   -0.05    0.07
   7   2   9    0.01    0.11
   7   2   9    0.05    0.13
   7   2   9   -0.06    0.07
   7   2   9    0.04    0.08
  -8  -2  -9   -0.05    0.08
  -8  -2  -9    0.23    0.09
   8   2   9    0.04    0.15
  -9  -2  -9    0.04    0.11
   9   2   9    0.09    0.11
   9   2   9   -0.10    0.11
   4  -3  -9    5.15    0.42
  -4   3   9    5.79    0.39
  -4   3   9    4.93    0.38
   3  -3  -9    3.70    0.32
  -3   3   9    3.94    0.33
  -3   3   9    4.07    0.30
  -3   3   9    3.26    0.34
  -3   3   9    4.49    0.32
  -3   3   9    4.44    0.30
   2  -3  -9    1.44    0.17
  -2   3   9    1.26    0.17
  -2   3   9    1.23    0.19
  -2   3   9    1.29    0.18
  -2   3   9    1.42    0.18
  -2   3   9    1.39    0.19
   1  -3  -9    0.46    0.11
  -1   3   9    0.37    0.09
  -1   3   9    0.42    0.10
  -1   3   9    0.51    0.10
  -1   3   9    0.49    0.10
   0   3   9   11.13    0.56
   0   3   9   11.00    0.56
   0   3   9   10.32    0.57
   0   3   9   10.68    0.57
  -1  -3  -9   11.76    0.56
  -1  -3  -9    9.76    0.68
   1   3   9   10.23    0.57
   1   3   9   10.61    0.58
   1   3   9   11.80    0.58
   1   3   9   11.73    0.58
  -2  -3  -9    7.84    0.41
  -2  -3  -9    7.96    0.41
  -2  -3  -9    8.33    0.41
  -2  -3  -9    7.28    0.40
  -2  -3  -9    7.76    0.51
   2   3   9    7.78    0.43
   2   3   9    8.09    0.42
   2   3   9    7.53    0.50
   2   3   9    7.36    0.42
   2   3   9    7.68    0.43
  -3  -3  -9    1.11    0.14
  -3  -3  -9    1.18    0.14
  -3  -3  -9    1.39    0.13
  -3  -3  -9    1.26    0.13
   3   3   9    1.11    0.18
   3   3   9    1.16    0.15
   3   3   9    0.98    0.14
   3   3   9    1.20    0.13
   3   3   9    1.26    0.13
  -4  -3  -9    0.19    0.09
  -4  -3  -9    0.13    0.07
  -4  -3  -9    0.20    0.09
  -4  -3  -9    0.13    0.07
  -4  -3  -9    0.18    0.07
   4   3   9    0.10    0.08
   4   3   9    0.18    0.07
   4   3   9    0.19    0.07
   4   3   9    0.06    0.10
   4   3   9    0.14    0.08
  -5  -3  -9   16.27    0.82
  -5  -3  -9   14.09    0.83
  -5  -3  -9   16.08    0.82
  -5  -3  -9   16.08    0.83
   5   3   9   17.29    0.97
   5   3   9   16.41    1.07
   5   3   9   16.88    0.84
   5   3   9   16.74    0.83
   5   3   9   15.64    0.83
   5   3   9   16.84    0.83
   6   3   9    9.83    0.53
   6   3   9   10.12    0.67
   6   3   9    9.14    0.53
   6   3   9   10.02    0.62
   6   3   9   10.39    0.54
   6   3   9    9.60    0.53
  -7  -3  -9    0.42    0.10
  -7  -3  -9    0.82    0.13
  -7  -3  -9    0.51    0.10
  -7  -3  -9    0.66    0.13
   7   3   9    0.65    0.12
   7   3   9    0.63    0.11
   7   3   9    0.31    0.14
   7   3   9    0.91    0.14
  -8  -3  -9    0.02    0.08
  -8  -3  -9   -0.01    0.08
   8   3   9   -0.04    0.09
   8   3   9   -0.15    0.08
  -9  -3  -9    1.90    0.20
  -9  -3  -9    1.69    0.20
   9   3   9    1.96    0.19
   9   3   9    2.05    0.19
   4  -4  -9    0.25    0.15
   3  -4  -9    9.55    0.65
  -3   4   9    9.69    0.57
  -3   4   9    9.97    0.54
  -3   4   9   11.13    0.55
  -3   4   9    8.61    0.69
  -3   4   9   10.24    0.56
   2  -4  -9    6.94    0.46
  -2   4   9    7.57    0.39
  -2   4   9    6.54    0.40
  -2   4   9    6.42    0.39
  -2   4   9    6.13    0.39
  -2   4   9    6.53    0.48
   1  -4  -9    0.92    0.16
  -1   4   9    1.28    0.16
  -1   4   9    1.01    0.16
  -1   4   9    0.97    0.16
  -1   4   9    1.10    0.15
  -1   4   9    0.87    0.16
  -1   4   9    1.17    0.16
   0  -4  -9    1.13    0.17
   0   4   9    1.41    0.15
   0   4   9    1.30    0.15
   0   4   9    1.26    0.14
   0   4   9    1.16    0.15
  -1  -4  -9   20.25    1.22
   1   4   9   21.18    1.03
   1   4   9   19.79    1.03
   1   4   9   21.41    1.02
   1   4   9   20.23    1.02
  -2  -4  -9   -0.10    0.04
   2   4   9   -0.08    0.07
   2   4   9   -0.17    0.07
  -3  -4  -9    2.64    0.20
  -3  -4  -9    3.22    0.20
  -3  -4  -9    3.19    0.20
  -3  -4  -9    3.30    0.20
   3   4   9    3.37    0.22
   3   4   9    3.18    0.22
   3   4   9    3.58    0.23
   3   4   9    3.22    0.26
   3   4   9    3.16    0.22
  -4  -4  -9   11.36    0.68
  -4  -4  -9   10.38    0.54
  -4  -4  -9   10.12    0.54
  -4  -4  -9    9.67    0.55
  -4  -4  -9   10.64    0.55
   4   4   9   10.79    0.56
   4   4   9   11.20    0.56
   4   4   9   10.97    0.56
   4   4   9   11.36    0.56
   4   4   9    9.43    0.65
  -5  -4  -9    0.30    0.09
  -5  -4  -9    0.21    0.11
  -5  -4  -9    0.37    0.09
  -5  -4  -9    0.34    0.09
  -5  -4  -9    0.45    0.09
   5   4   9    0.17    0.12
   5   4   9    0.55    0.09
   5   4   9    0.41    0.10
   5   4   9    0.32    0.09
   5   4   9    0.48    0.09
   5   4   9    0.33    0.08
  -6  -4  -9    0.69    0.11
  -6  -4  -9    0.67    0.10
  -6  -4  -9    0.53    0.11
  -6  -4  -9    0.91    0.15
   6   4   9    1.09    0.13
   6   4   9    0.69    0.13
   6   4   9    0.68    0.14
  -7  -4  -9    0.28    0.12
  -7  -4  -9    0.22    0.12
  -7  -4  -9    0.15    0.09
  -7  -4  -9    0.13    0.09
   7   4   9    0.37    0.09
   7   4   9    0.08    0.09
   7   4   9    0.26    0.10
   7   4   9    0.10    0.14
   7   4   9    0.20    0.08
  -8  -4  -9    0.25    0.17
  -8  -4  -9    0.25    0.10
  -8  -4  -9    0.18    0.10
   8   4   9    0.30    0.09
   8   4   9    0.33    0.09
   8   4   9    0.40    0.18
  -9  -4  -9    0.49    0.12
  -9  -4  -9    0.40    0.12
   9   4   9    0.41    0.11
 -10  -4  -9    0.02    0.13
   4  -5  -9   11.52    0.79
   3  -5  -9    0.13    0.14
  -3   5   9    0.34    0.12
  -3   5   9    0.38    0.16
  -3   5   9    0.33    0.12
  -3   5   9    0.30    0.15
   2  -5  -9    1.17    0.20
  -2   5   9    1.30    0.15
  -2   5   9    1.07    0.14
  -2   5   9    1.55    0.17
  -2   5   9    1.17    0.17
  -2   5   9    1.12    0.20
   1  -5  -9   11.81    0.72
  -1   5   9   11.52    0.75
  -1   5   9   10.55    0.72
  -1   5   9   12.06    0.59
  -1   5   9   11.30    0.59
  -1   5   9   11.43    0.59
  -1   5   9   10.98    0.59
   0   5   9    7.55    0.55
   0   5   9    8.80    0.44
   0   5   9    8.14    0.55
   0   5   9    8.36    0.44
   1   5   9    0.89    0.13
   1   5   9    0.96    0.13
  -3  -5  -9   42.59    2.63
  -3  -5  -9   40.25    2.42
  -3  -5  -9   41.59    2.72
   3   5   9   43.53    2.07
   3   5   9   43.67    2.10
   3   5   9   43.66    2.07
   3   5   9   42.97    2.10
  -4  -5  -9   10.36    0.52
  -4  -5  -9    9.57    0.52
  -4  -5  -9   10.74    0.67
   4   5   9   10.34    0.54
   4   5   9   10.22    0.54
   4   5   9    9.97    0.54
   4   5   9   10.22    0.54
  -5  -5  -9   16.32    0.86
  -5  -5  -9   18.21    1.10
  -5  -5  -9   15.96    0.85
   5   5   9   16.14    0.86
   5   5   9   18.42    0.87
   5   5   9   18.17    0.88
   5   5   9   16.50    0.88
  -6  -5  -9    0.08    0.10
  -6  -5  -9    0.14    0.08
  -6  -5  -9    0.06    0.12
  -6  -5  -9    0.07    0.08
  -6  -5  -9    0.12    0.10
   6   5   9    0.07    0.07
   6   5   9    0.18    0.08
   7   5   9    1.19    0.14
   7   5   9    1.37    0.15
   7   5   9    1.47    0.16
   7   5   9    1.29    0.15
  -8  -5  -9   -0.11    0.15
  -8  -5  -9    0.14    0.16
   8   5   9   -0.05    0.08
   8   5   9   -0.03    0.08
   9   5   9    0.37    0.10
   9   5   9    0.53    0.11
   9   5   9    0.34    0.25
  -2   6   9    0.26    0.10
  -2   6   9    0.39    0.11
  -2   6   9    0.25    0.12
  -2   6   9    0.13    0.09
  -2   6   9    0.27    0.21
  -1   6   9    7.06    0.37
  -1   6   9    6.55    0.51
  -1   6   9    6.53    0.37
  -1   6   9    6.64    0.37
  -1   6   9    6.80    0.57
  -1   6   9    6.29    0.36
   0   6   9   -0.14    0.07
   0   6   9   -0.02    0.07
   0   6   9   -0.03    0.08
   0   6   9   -0.07    0.07
   0   6   9   -0.01    0.10
   0   6   9    0.00    0.15
   1   6   9    2.58    0.18
   1   6   9    2.40    0.18
   1   6   9    2.39    0.18
   1   6   9    2.44    0.30
   1   6   9    2.36    0.18
   1   6   9    2.53    0.23
  -2  -6  -9    4.28    0.34
  -2  -6  -9    4.13    0.30
   2   6   9    4.10    0.25
   2   6   9    4.23    0.25
  -3  -6  -9    1.88    0.23
  -3  -6  -9    2.68    0.22
   3   6   9    2.85    0.20
   3   6   9    2.85    0.19
   3   6   9    2.33    0.24
   3   6   9    2.42    0.18
   3   6   9    2.25    0.25
   3   6   9    2.39    0.18
  -4  -6  -9    6.38    0.45
  -4  -6  -9    5.26    0.41
  -4  -6  -9    6.98    0.47
   4   6   9    7.31    0.36
   4   6   9    6.39    0.36
   4   6   9    6.44    0.36
   4   6   9    5.57    0.43
  -5  -6  -9    0.02    0.06
  -5  -6  -9   -0.01    0.10
  -5  -6  -9   -0.03    0.06
  -5  -6  -9    0.03    0.07
  -5  -6  -9   -0.01    0.07
   5   6   9   -0.03    0.08
   5   6   9    0.11    0.08
   5   6   9   -0.09    0.08
   5   6   9    0.00    0.07
   5   6   9    0.21    0.10
  -6  -6  -9    0.60    0.09
  -6  -6  -9    0.57    0.09
  -6  -6  -9    0.81    0.16
   6   6   9    0.68    0.10
   6   6   9    0.86    0.17
   6   6   9    0.80    0.13
   6   6   9    0.80    0.12
   6   6   9    0.62    0.11
  -7  -6  -9    0.15    0.09
  -7  -6  -9    0.26    0.15
  -7  -6  -9    0.25    0.09
  -7  -6  -9    0.06    0.12
  -7  -6  -9    0.03    0.12
   7   6   9    0.38    0.09
   7   6   9    0.13    0.09
   7   6   9    0.14    0.09
   7   6   9    0.31    0.16
   7   6   9    0.28    0.09
  -8  -6  -9   -0.04    0.10
  -8  -6  -9    0.34    0.17
  -8  -6  -9    0.06    0.17
  -8  -6  -9   -0.11    0.10
   8   6   9    0.16    0.09
   8   6   9    0.06    0.21
   8   6   9   -0.05    0.08
  -9  -6  -9    1.70    0.23
   9   6   9    1.79    0.18
   9   6   9    1.89    0.19
   9   6   9    1.57    0.30
 -10  -6  -9    1.86    0.27
 -10  -6  -9    2.16    0.27
   2  -7  -9    1.90    0.24
   2  -7  -9    2.02    0.29
   1  -7  -9    7.30    0.57
   1  -7  -9    7.65    0.51
  -1   7   9    6.66    0.39
  -1   7   9    7.82    0.39
  -1   7   9    7.41    0.60
  -1   7   9    6.91    0.39
  -1   7   9    7.64    0.39
   0  -7  -9    1.09    0.18
   0  -7  -9    1.00    0.21
   0   7   9    1.01    0.21
   0   7   9    1.12    0.14
   0   7   9    0.98    0.13
   0   7   9    1.13    0.14
   0   7   9    1.20    0.24
   0   7   9    0.91    0.13
  -1  -7  -9   26.57    1.54
  -1  -7  -9   22.84    1.36
   1   7   9   21.59    1.37
   1   7   9   21.94    1.13
   1   7   9   22.58    1.13
   1   7   9   21.92    1.14
   1   7   9   23.99    1.14
   2   7   9    5.45    0.47
   2   7   9    6.22    0.33
   2   7   9    5.94    0.33
   2   7   9    6.28    0.32
   2   7   9    6.11    0.33
   2   7   9    4.90    0.41
  -3  -7  -9    1.27    0.19
  -3  -7  -9    1.15    0.16
  -3  -7  -9    0.92    0.15
   3   7   9    1.21    0.15
   3   7   9    1.21    0.21
   3   7   9    1.19    0.14
   3   7   9    1.10    0.15
   3   7   9    1.35    0.14
   3   7   9    1.36    0.20
   4   7   9    2.88    0.22
  -5  -7  -9    3.16    0.29
  -5  -7  -9    2.69    0.25
  -5  -7  -9    3.38    0.29
   5   7   9    3.22    0.23
   5   7   9    2.72    0.27
   5   7   9    2.57    0.23
   5   7   9    2.55    0.23
   5   7   9    3.01    0.22
  -6  -7  -9    0.31    0.09
  -6  -7  -9    0.37    0.15
  -6  -7  -9    0.43    0.10
   6   7   9    0.44    0.14
   6   7   9    0.28    0.11
   6   7   9    0.60    0.13
   6   7   9    0.47    0.11
  -7  -7  -9    0.90    0.14
  -7  -7  -9    0.91    0.14
  -7  -7  -9    1.06    0.13
  -7  -7  -9    0.90    0.12
   7   7   9    1.55    0.28
   7   7   9    0.77    0.12
   7   7   9    0.72    0.12
  -8  -7  -9    3.78    0.40
  -8  -7  -9    3.68    0.28
  -8  -7  -9    4.00    0.29
   8   7   9    3.76    0.27
   8   7   9    3.90    0.27
  -9  -7  -9    0.57    0.23
  -9  -7  -9    0.87    0.16
  -9  -7  -9    0.72    0.16
   9   7   9    1.16    0.17
   9   7   9    0.94    0.13
   1  -8  -9    2.15    0.28
   1  -8  -9    2.07    0.26
  -1   8   9    1.50    0.34
   0  -8  -9    0.10    0.14
   0  -8  -9    0.03    0.13
   0   8   9    0.11    0.24
   0   8   9    0.16    0.06
   0   8   9    0.25    0.26
   0   8   9    0.03    0.06
  -1  -8  -9    5.29    0.39
  -1  -8  -9    5.61    0.43
   1   8   9    5.45    0.51
   1   8   9    4.94    0.30
   1   8   9    5.34    0.28
   1   8   9    4.64    0.49
   1   8   9    5.07    0.29
   1   8   9    4.86    0.29
  -2  -8  -9    3.74    0.29
  -2  -8  -9    3.27    0.31
   2   8   9    3.29    0.23
   2   8   9    3.34    0.23
   2   8   9    3.71    0.38
   2   8   9    3.16    0.22
   2   8   9    3.31    0.22
  -3  -8  -9    0.78    0.16
  -3  -8  -9    0.72    0.14
   3   8   9    0.69    0.11
   3   8   9    0.61    0.10
   3   8   9    0.57    0.15
   3   8   9    0.80    0.12
   3   8   9    0.65    0.10
  -4  -8  -9    0.11    0.10
  -4  -8  -9    0.04    0.11
  -4  -8  -9   -0.06    0.12
   4   8   9    0.07    0.09
   4   8   9    0.05    0.09
   4   8   9    0.05    0.10
   4   8   9    0.01    0.10
  -5  -8  -9    5.42    0.42
  -5  -8  -9    5.30    0.37
  -5  -8  -9    5.29    0.43
   5   8   9    5.55    0.33
   5   8   9    5.27    0.33
   5   8   9    5.01    0.34
   5   8   9    4.96    0.34
   6   8   9    0.16    0.12
   6   8   9    0.38    0.13
  -7  -8  -9    1.16    0.16
  -7  -8  -9    0.85    0.13
  -7  -8  -9    0.84    0.11
  -7  -8  -9    1.33    0.20
  -7  -8  -9    1.02    0.20
   7   8   9    0.93    0.14
   7   8   9    0.81    0.14
  -8  -8  -9    2.62    0.25
  -8  -8  -9    2.73    0.37
   8   8   9    2.00    0.24
   8   8   9    2.53    0.24
  -9  -8  -9    0.08    0.14
  -9  -8  -9   -0.07    0.21
  -9  -8  -9    0.12    0.14
   9   8   9   -0.22    0.12
   9   8   9    0.08    0.12
   0  -9  -9    1.27    0.23
   0  -9  -9    1.41    0.25
  -1  -9  -9    0.50    0.17
  -1  -9  -9    0.49    0.16
   1   9   9    0.64    0.28
   1   9   9    0.42    0.31
  -2  -9  -9    1.68    0.22
  -2  -9  -9    1.71    0.24
   2   9   9    1.58    0.19
   2   9   9    1.71    0.27
   2   9   9    1.41    0.19
   2   9   9    1.73    0.17
   2   9   9    1.68    0.16
  -3  -9  -9    1.53    0.21
  -3  -9  -9    1.46    0.24
   3   9   9    1.48    0.21
   3   9   9    1.58    0.17
   3   9   9    1.70    0.18
   3   9   9    1.28    0.21
  -4  -9  -9    3.25    0.28
  -4  -9  -9    2.69    0.34
  -4  -9  -9    3.32    0.33
   4   9   9    3.70    0.28
   4   9   9    3.37    0.25
   4   9   9    3.06    0.28
   4   9   9    3.32    0.25
  -5  -9  -9    0.41    0.17
   5   9   9    0.67    0.15
   5   9   9    0.49    0.15
   5   9   9    0.90    0.13
  -6  -9  -9    1.20    0.22
   6   9   9    0.83    0.18
   6   9   9    1.37    0.20
   6   9   9    1.06    0.15
   6   9   9    1.09    0.18
  -7  -9  -9    2.29    0.34
   7   9   9    1.95    0.25
   7   9   9    2.33    0.25
  -8  -9  -9    1.74    0.30
   8   9   9    2.00    0.25
   8   9   9    1.95    0.26
  -9  -9  -9    0.03    0.25
   9   9   9   -0.25    0.14
   9   9   9   -0.27    0.14
  -1 -10  -9    2.93    0.31
  -1 -10  -9    2.69    0.33
  -2 -10  -9    0.23    0.14
  -2 -10  -9    0.04    0.17
  -3 -10  -9    7.95    0.55
  -3 -10  -9    7.98    0.62
   3  10   9    7.93    0.44
   3  10   9    8.05    0.45
  -4 -10  -9   -0.14    0.15
  -4 -10  -9   -0.16    0.13
  -4 -10  -9   -0.30    0.18
   4  10   9    0.03    0.18
   4  10   9    0.00    0.11
   4  10   9    0.02    0.11
   4  10   9    0.09    0.17
  -5 -10  -9    9.17    0.69
  -5 -10  -9    9.39    0.59
  -5 -10  -9    8.80    0.66
   5  10   9    7.97    0.57
   5  10   9    9.39    0.52
   5  10   9    8.78    0.52
   5  10   9    8.21    0.56
  -6 -10  -9    2.31    0.36
   6  10   9    2.26    0.28
   6  10   9    2.31    0.28
  -7 -10  -9    0.46    0.22
   7  10   9    0.47    0.16
   7  10   9    0.41    0.16
  -8 -10  -9   -0.09    0.23
  -5 -11  -9    5.11    0.53
   5  11   9    5.13    0.39
   5  11   9    4.89    0.39
   1   3 -10    0.65    0.21
   1   3 -10    0.71    0.15
   1   3 -10    0.86    0.15
  -1  -3  10    0.47    0.12
   0   3 -10    4.27    0.31
   0   3 -10    3.87    0.31
   0   3 -10    4.99    0.43
   0  -3  10    4.20    0.29
   0  -3  10    4.07    0.30
  -1   3 -10    0.46    0.19
  -1   3 -10    0.31    0.11
   1  -3  10    0.28    0.11
   1  -3  10    0.43    0.11
  -2   3 -10   -0.21    0.10
  -2   3 -10    0.13    0.10
  -2   3 -10   -0.05    0.18
   2  -3  10   -0.16    0.11
  -3   3 -10    0.19    0.10
  -3   3 -10   -0.04    0.11
   3  -3  10    0.22    0.12
   3  -3  10   -0.12    0.13
   3  -3  10   -0.08    0.18
   2   2 -10    0.62    0.16
   2   2 -10    0.71    0.17
   2   2 -10    0.86    0.16
  -2  -2  10    0.77    0.13
  -2  -2  10    0.74    0.12
   1   2 -10    1.81    0.23
   1   2 -10    1.94    0.23
   1   2 -10    2.28    0.28
  -1  -2  10    1.54    0.17
  -1  -2  10    1.91    0.20
   0   2 -10    3.43    0.26
   0   2 -10    4.02    0.34
   0   2 -10    3.04    0.26
   0  -2  10    3.21    0.25
   0  -2  10    3.21    0.26
  -1   2 -10   -0.01    0.15
  -1   2 -10    0.05    0.10
  -1   2 -10   -0.19    0.10
   1  -2  10   -0.14    0.09
   1  -2  10   -0.22    0.09
  -2   2 -10    0.75    0.11
   2  -2  10    0.52    0.10
   2  -2  10    0.36    0.10
  -3   2 -10    3.64    0.25
  -3   2 -10    3.78    0.26
  -3   2 -10    3.42    0.33
   3  -2  10    2.97    0.25
   3  -2  10    3.14    0.38
   3  -2  10    3.91    0.25
  -4   2 -10    0.37    0.10
  -4   2 -10    0.35    0.09
   4  -2  10    0.25    0.11
   4  -2  10    0.15    0.18
   4  -2  10    0.24    0.11
  -5   2 -10    0.09    0.10
   5  -2  10    0.22    0.13
   5  -2  10   -0.04    0.20
   5  -2  10    0.23    0.12
   3   1 -10    4.02    0.35
   3   1 -10    4.63    0.35
   3   1 -10    4.33    0.35
  -3  -1  10    4.15    0.31
  -3  -1  10    3.69    0.31
   2   1 -10    2.46    0.38
   2   1 -10    3.18    0.40
   2   1 -10    3.53    0.29
   2   1 -10    3.42    0.29
   2   1 -10    3.64    0.29
  -2  -1  10    3.36    0.26
  -2  -1  10    3.20    0.27
   1   1 -10    2.23    0.23
   1   1 -10    1.73    0.22
   1   1 -10    1.99    0.25
   1   1 -10    1.42    0.22
   1   1 -10    1.73    0.23
  -1  -1  10    2.28    0.21
  -1  -1  10    1.85    0.20
   0   1 -10   -0.24    0.15
   0   1 -10    0.04    0.12
   0   1 -10    0.03    0.10
   0   1 -10   -0.07    0.10
   0   1 -10   -0.17    0.15
   0  -1  10   -0.08    0.08
  -1   1 -10    1.28    0.22
  -1   1 -10    0.90    0.13
  -1   1 -10    0.60    0.15
  -1   1 -10    1.15    0.16
  -1   1 -10    0.67    0.16
   1  -1  10    0.93    0.14
   1  -1  10    0.98    0.15
  -2   1 -10   22.84    1.14
  -2   1 -10   22.66    1.16
   2  -1  10   22.46    1.15
   2  -1  10   22.59    1.16
  -3   1 -10    4.16    0.28
  -3   1 -10    3.89    0.34
  -3   1 -10    4.37    0.28
   3  -1  10    4.12    0.28
   3  -1  10    3.83    0.28
  -4   1 -10    4.45    0.29
  -4   1 -10    4.13    0.29
   4  -1  10    4.48    0.29
   4  -1  10    4.29    0.42
   4  -1  10    4.74    0.30
  -5   1 -10    1.56    0.16
  -5   1 -10    1.36    0.15
   5  -1  10    1.45    0.18
   5  -1  10    0.89    0.14
   5  -1  10    1.15    0.24
  -6   1 -10    1.10    0.15
  -6   1 -10    1.88    0.19
   6  -1  10    1.95    0.39
   6  -1  10    1.61    0.20
   6  -1  10    1.42    0.20
   3   0 -10    3.53    0.31
  -3   0  10    3.41    0.31
  -3   0  10    3.45    0.31
   2   0 -10    3.47    0.34
   2   0 -10    2.44    0.34
   2   0 -10    3.90    0.31
  -2   0  10    3.32    0.28
  -2   0  10    3.63    0.28
   1   0 -10    0.08    0.10
  -1   0  10   -0.08    0.09
  -1   0  10   -0.08    0.09
   0   0 -10    0.93    0.13
   0   0 -10    0.75    0.14
   0   0  10    0.76    0.12
   0   0  10    0.56    0.12
  -1   0 -10    0.27    0.09
  -1   0 -10    0.21    0.13
  -1   0 -10    0.31    0.13
  -1   0 -10    0.24    0.09
  -1   0 -10    0.23    0.12
   1   0  10    0.40    0.09
   1   0  10    0.40    0.09
  -2   0 -10    0.61    0.14
  -2   0 -10    0.69    0.13
  -2   0 -10    0.68    0.13
   2   0  10    0.94    0.14
  -3   0 -10    9.35    0.59
  -3   0 -10    9.40    0.51
  -3   0 -10    9.47    0.51
  -3   0 -10    9.01    0.52
  -3   0 -10    7.87    0.51
   3   0  10    9.64    0.51
   3   0  10    9.34    0.51
  -4   0 -10    3.63    0.30
  -4   0 -10    4.26    0.28
  -4   0 -10    3.93    0.31
  -4   0 -10    4.37    0.28
   4   0  10    4.22    0.27
   4   0  10    4.18    0.39
   4   0  10    4.32    0.28
  -5   0 -10    3.53    0.24
  -5   0 -10    3.63    0.24
  -5   0 -10    3.26    0.31
   5   0  10    2.81    0.36
   5   0  10    3.10    0.24
   5   0  10    3.31    0.24
  -6   0 -10    0.53    0.10
   6   0  10    0.39    0.09
   6   0  10    0.75    0.21
   6   0  10    0.38    0.09
  -7   0 -10   -0.07    0.10
  -7   0 -10   -0.09    0.10
   7   0  10    0.07    0.10
   7   0  10    0.22    0.23
   7   0  10    0.03    0.10
  -4   1  10    2.29    0.33
  -4   1  10    2.27    0.34
   3  -1 -10    1.26    0.19
  -3   1  10    0.91    0.17
  -3   1  10    0.83    0.17
   2  -1 -10   -0.03    0.09
   2  -1 -10    0.18    0.10
   2  -1 -10    0.09    0.09
  -2   1  10    0.20    0.12
  -2   1  10   -0.11    0.11
   1  -1 -10    3.30    0.24
   1  -1 -10    3.40    0.24
   1  -1 -10    3.13    0.28
  -1   1  10    3.12    0.26
  -1   1  10    3.70    0.26
   0  -1 -10    3.60    0.28
   0  -1 -10    4.04    0.31
   0  -1 -10    3.98    0.26
   0  -1 -10    4.15    0.26
   0  -1 -10    3.60    0.29
   0   1  10    3.11    0.26
   0   1  10    3.80    0.26
   0   1  10    3.80    0.27
   0   1  10    4.23    0.27
  -1  -1 -10    1.02    0.15
  -1  -1 -10    0.93    0.14
  -1  -1 -10    1.45    0.16
  -1  -1 -10    1.68    0.20
   1   1  10    1.25    0.15
   1   1  10    1.42    0.16
   1   1  10    1.21    0.16
   1   1  10    1.54    0.16
  -2  -1 -10    0.12    0.10
  -2  -1 -10    0.10    0.10
  -2  -1 -10    0.06    0.08
  -2  -1 -10    0.09    0.08
  -2  -1 -10    0.09    0.10
   2   1  10    0.08    0.07
   2   1  10    0.08    0.08
   2   1  10    0.07    0.07
   2   1  10    0.06    0.08
  -3  -1 -10    6.41    0.44
   3   1  10    6.64    0.38
   3   1  10    6.80    0.38
   3   1  10    6.10    0.37
   3   1  10    6.20    0.37
  -4  -1 -10    4.28    0.30
  -4  -1 -10    4.18    0.27
  -4  -1 -10    3.22    0.29
  -4  -1 -10    4.47    0.28
   4   1  10    4.52    0.28
   4   1  10    4.63    0.28
   4   1  10    3.53    0.28
   4   1  10    3.96    0.28
  -5  -1 -10    0.06    0.11
  -5  -1 -10    0.05    0.08
  -5  -1 -10    0.23    0.08
  -5  -1 -10    0.04    0.12
  -5  -1 -10    0.06    0.11
   5   1  10   -0.21    0.14
   5   1  10   -0.05    0.08
   5   1  10   -0.12    0.09
  -6  -1 -10    2.65    0.20
  -6  -1 -10    2.94    0.21
   6   1  10    2.56    0.22
   6   1  10    2.69    0.22
   6   1  10    2.50    0.34
  -7  -1 -10    2.46    0.21
  -7  -1 -10    2.37    0.21
   7   1  10    2.33    0.21
   7   1  10    2.08    0.21
  -8  -1 -10    0.49    0.12
  -8  -1 -10    0.21    0.11
   8   1  10    0.02    0.11
   8   1  10   -0.13    0.11
   8   1  10    0.35    0.22
  -4   2  10    0.71    0.20
  -4   2  10    0.75    0.20
   3  -2 -10    1.70    0.23
  -3   2  10    1.56    0.20
  -3   2  10    1.41    0.19
  -2   2  10   -0.02    0.12
  -2   2  10   -0.18    0.12
   1  -2 -10   -0.08    0.09
   1  -2 -10   -0.03    0.07
   1  -2 -10   -0.02    0.07
  -1   2  10    0.02    0.11
  -1   2  10   -0.09    0.11
  -1   2  10    0.00    0.11
  -1   2  10   -0.03    0.10
   0  -2 -10    0.09    0.09
   0  -2 -10    0.26    0.10
   0  -2 -10    0.17    0.08
   0  -2 -10    0.19    0.08
   0  -2 -10    0.20    0.09
   0   2  10    0.22    0.11
   0   2  10    0.13    0.10
  -1  -2 -10    6.16    0.35
  -1  -2 -10    6.47    0.44
  -1  -2 -10    6.91    0.38
  -1  -2 -10    6.25    0.35
   1   2  10    6.41    0.37
   1   2  10    5.72    0.37
   1   2  10    5.48    0.36
   1   2  10    6.76    0.38
  -2  -2 -10    1.14    0.17
  -2  -2 -10    1.22    0.14
  -2  -2 -10    1.12    0.15
  -2  -2 -10    1.07    0.14
  -2  -2 -10    1.52    0.18
   2   2  10    1.24    0.16
   2   2  10    1.17    0.16
   2   2  10    1.15    0.14
   2   2  10    1.42    0.14
  -3  -2 -10    0.06    0.09
  -3  -2 -10    0.09    0.08
  -3  -2 -10    0.02    0.08
  -3  -2 -10    0.02    0.09
   3   2  10    0.08    0.07
   3   2  10    0.04    0.07
  -4  -2 -10    1.71    0.17
  -4  -2 -10    1.44    0.17
   4   2  10    1.69    0.17
   4   2  10    1.62    0.15
   4   2  10    1.65    0.16
   4   2  10    2.07    0.18
   4   2  10    1.33    0.24
  -5  -2 -10    0.32    0.12
  -5  -2 -10    0.59    0.11
  -5  -2 -10    0.32    0.12
   5   2  10    0.47    0.10
   5   2  10    0.27    0.09
   5   2  10    0.38    0.10
   5   2  10    0.21    0.13
   5   2  10    0.44    0.14
   5   2  10    0.26    0.09
  -6  -2 -10    0.35    0.14
  -6  -2 -10    0.67    0.11
  -6  -2 -10    0.39    0.14
  -6  -2 -10    0.52    0.10
   6   2  10    0.47    0.15
   6   2  10    0.34    0.15
   6   2  10    0.60    0.11
   6   2  10    0.52    0.10
  -7  -2 -10    0.53    0.12
  -7  -2 -10    0.48    0.11
   7   2  10    0.65    0.12
   7   2  10    0.70    0.17
   7   2  10    0.66    0.11
  -8  -2 -10    0.58    0.12
  -8  -2 -10    0.60    0.12
   8   2  10    0.48    0.11
   8   2  10    0.68    0.20
   8   2  10    0.43    0.11
   3  -3 -10    9.03    0.61
  -3   3  10    9.27    0.55
  -3   3  10    8.96    0.54
   2  -3 -10    0.04    0.10
  -2   3  10    0.15    0.15
  -2   3  10   -0.08    0.15
   1  -3 -10    0.48    0.12
  -1   3  10    0.62    0.13
  -1   3  10    0.45    0.12
  -1   3  10    0.41    0.12
  -1   3  10    0.45    0.11
   0  -3 -10    1.15    0.17
   0   3  10    0.94    0.13
   0   3  10    0.59    0.12
   0   3  10    1.09    0.16
   0   3  10    0.78    0.12
  -1  -3 -10    6.12    0.32
  -1  -3 -10    5.58    0.40
  -1  -3 -10    5.21    0.32
  -1  -3 -10    5.41    0.31
  -1  -3 -10    6.06    0.31
   1   3  10    5.83    0.40
   1   3  10    6.35    0.35
   1   3  10    6.03    0.35
   1   3  10    5.58    0.35
   1   3  10    5.25    0.34
  -2  -3 -10    0.63    0.10
  -2  -3 -10    0.80    0.12
  -2  -3 -10    1.00    0.13
  -2  -3 -10    1.05    0.15
   2   3  10    0.78    0.12
   2   3  10    0.97    0.12
   2   3  10    0.95    0.12
   2   3  10    0.89    0.14
   2   3  10    0.83    0.11
  -3  -3 -10    1.19    0.14
  -3  -3 -10    1.09    0.14
   3   3  10    1.29    0.14
   3   3  10    1.34    0.15
   3   3  10    1.11    0.16
   3   3  10    1.06    0.16
  -4  -3 -10    0.30    0.09
  -4  -3 -10    0.16    0.10
  -4  -3 -10    0.18    0.10
   4   3  10    0.16    0.07
   4   3  10    0.19    0.07
   4   3  10   -0.09    0.11
  -5  -3 -10    1.77    0.17
  -5  -3 -10    1.73    0.17
   5   3  10    1.12    0.15
   5   3  10    1.63    0.14
   5   3  10    0.99    0.22
   5   3  10    1.56    0.15
   5   3  10    1.27    0.15
  -6  -3 -10    1.34    0.23
  -6  -3 -10    2.02    0.19
  -6  -3 -10    1.91    0.23
  -6  -3 -10    2.22    0.19
   6   3  10    1.93    0.17
   6   3  10    1.54    0.27
   6   3  10    2.18    0.18
  -7  -3 -10    0.85    0.12
  -7  -3 -10    0.42    0.16
  -7  -3 -10    0.58    0.11
   7   3  10    0.68    0.10
   7   3  10    0.64    0.15
   7   3  10    1.05    0.13
   7   3  10    0.50    0.17
  -8  -3 -10    0.78    0.13
  -8  -3 -10    0.98    0.14
   8   3  10    0.64    0.12
   8   3  10    0.72    0.12
   8   3  10    0.61    0.16
  -9  -3 -10    0.08    0.12
   9   3  10    0.24    0.11
   9   3  10    0.10    0.11
   3  -4 -10    6.39    0.49
  -3   4  10    7.14    0.45
  -3   4  10    6.06    0.51
  -3   4  10    7.13    0.45
   2  -4 -10    0.01    0.10
  -2   4  10    0.04    0.12
  -2   4  10   -0.25    0.15
  -2   4  10   -0.02    0.15
  -2   4  10    0.01    0.12
   1  -4 -10    1.10    0.17
  -1   4  10    1.19    0.19
  -1   4  10    1.03    0.14
  -1   4  10    1.39    0.16
  -1   4  10    1.17    0.15
   0  -4 -10    0.54    0.12
   0   4  10    0.72    0.12
   0   4  10    0.57    0.11
   0   4  10    0.61    0.14
   0   4  10    0.83    0.13
   0   4  10    0.71    0.11
  -1  -4 -10   -0.03    0.09
   1   4  10    0.11    0.11
   1   4  10    0.03    0.08
   1   4  10   -0.07    0.08
   1   4  10    0.02    0.09
   1   4  10    0.03    0.09
  -2  -4 -10    2.64    0.16
  -2  -4 -10    2.87    0.16
  -2  -4 -10    2.78    0.16
   2   4  10    2.65    0.21
   2   4  10    2.67    0.21
   2   4  10    2.63    0.22
   2   4  10    2.69    0.21
  -3  -4 -10    0.15    0.07
  -3  -4 -10    0.17    0.08
  -3  -4 -10    0.10    0.08
  -3  -4 -10    0.16    0.07
   3   4  10    0.30    0.09
   3   4  10    0.11    0.09
   3   4  10    0.11    0.09
   3   4  10    0.38    0.09
  -4  -4 -10    1.26    0.15
  -4  -4 -10    1.20    0.16
  -4  -4 -10    1.43    0.15
  -4  -4 -10    1.00    0.13
   4   4  10    1.34    0.17
   4   4  10    1.34    0.16
   4   4  10    1.65    0.17
   4   4  10    1.24    0.16
  -5  -4 -10    1.01    0.14
  -5  -4 -10    1.03    0.15
  -5  -4 -10    0.91    0.13
  -5  -4 -10    1.27    0.18
  -5  -4 -10    0.84    0.16
   5   4  10    0.95    0.14
   6   4  10    6.83    0.38
   6   4  10    6.57    0.39
   6   4  10    6.48    0.38
   6   4  10    6.47    0.47
   6   4  10    6.74    0.38
  -7  -4 -10    4.76    0.38
  -7  -4 -10    5.77    0.34
  -7  -4 -10    4.69    0.38
  -7  -4 -10    5.54    0.34
   7   4  10    5.27    0.33
   7   4  10    5.92    0.34
  -8  -4 -10    4.75    0.34
  -8  -4 -10    4.78    0.34
   8   4  10    5.26    0.32
   8   4  10    4.71    0.31
  -9  -4 -10   -0.07    0.12
  -9  -4 -10    0.04    0.13
   9   4  10    0.06    0.11
   9   4  10   -0.19    0.10
   3  -5 -10    0.36    0.17
   2  -5 -10    4.26    0.37
  -2   5  10    4.95    0.33
  -2   5  10    5.05    0.33
  -2   5  10    4.35    0.36
  -2   5  10    4.69    0.37
   1  -5 -10    9.13    0.58
  -1   5  10    9.26    0.49
  -1   5  10    9.56    0.49
  -1   5  10    7.32    0.60
  -1   5  10    9.10    0.50
  -1   5  10    8.60    0.50
   0   5  10    0.54    0.11
   0   5  10    0.66    0.12
   0   5  10    0.58    0.12
   0   5  10    0.62    0.11
   1   5  10    2.19    0.18
   1   5  10    1.55    0.22
   1   5  10    2.06    0.20
   1   5  10    2.23    0.19
   1   5  10    1.82    0.18
   2   5  10    2.20    0.19
   2   5  10    2.53    0.23
   2   5  10    2.10    0.20
   2   5  10    2.26    0.20
   2   5  10    2.37    0.20
   3   5  10    5.21    0.32
   3   5  10    4.84    0.38
   3   5  10    5.45    0.33
   3   5  10    5.80    0.33
   3   5  10    5.66    0.33
  -4  -5 -10    0.09    0.07
  -4  -5 -10    0.09    0.08
  -4  -5 -10    0.09    0.08
  -4  -5 -10    0.19    0.14
  -4  -5 -10    0.03    0.13
   4   5  10   -0.02    0.12
   4   5  10   -0.07    0.09
   4   5  10    0.22    0.10
   4   5  10    0.03    0.09
   4   5  10    0.28    0.10
  -5  -5 -10   25.75    1.20
  -5  -5 -10   22.85    1.21
  -5  -5 -10   27.27    1.53
  -5  -5 -10   24.04    1.21
   5   5  10   22.56    1.43
   5   5  10   24.16    1.21
   5   5  10   22.88    1.23
   5   5  10   24.38    1.23
   5   5  10   24.70    1.22
  -6  -5 -10    2.20    0.20
  -6  -5 -10    2.39    0.21
  -6  -5 -10    2.26    0.24
  -6  -5 -10    2.02    0.27
  -6  -5 -10    2.65    0.23
   6   5  10    2.46    0.21
   6   5  10    2.43    0.21
   6   5  10    2.34    0.30
   6   5  10    3.08    0.22
   6   5  10    2.63    0.21
  -7  -5 -10    0.18    0.11
  -7  -5 -10    0.09    0.14
  -7  -5 -10    0.11    0.11
  -7  -5 -10    0.23    0.14
   7   5  10    0.29    0.09
   7   5  10   -0.08    0.18
   7   5  10    0.24    0.09
  -8  -5 -10   -0.09    0.18
  -8  -5 -10    0.52    0.13
  -8  -5 -10    0.27    0.19
  -8  -5 -10    0.34    0.13
   8   5  10    0.22    0.22
   8   5  10    0.43    0.11
   8   5  10    0.66    0.11
   9   5  10   -0.05    0.10
   9   5  10    0.18    0.10
  -1   6  10    5.94    0.36
  -1   6  10    6.68    0.37
  -1   6  10    5.74    0.38
  -1   6  10    6.43    0.38
   0   6  10    0.03    0.11
   0   6  10    0.10    0.20
   0   6  10    0.03    0.10
   0   6  10   -0.03    0.09
   0   6  10    0.10    0.09
   1   6  10    0.60    0.10
   1   6  10    0.72    0.20
   1   6  10    0.89    0.12
   1   6  10    0.64    0.10
   1   6  10    0.88    0.12
   2   6  10    0.02    0.11
   2   6  10    0.08    0.09
   2   6  10    0.03    0.09
   2   6  10    0.06    0.09
   2   6  10    0.07    0.09
  -3  -6 -10    0.48    0.13
  -3  -6 -10    0.32    0.11
   3   6  10    0.47    0.10
   3   6  10    0.65    0.11
   3   6  10    0.62    0.10
   3   6  10    0.55    0.11
  -4  -6 -10    0.36    0.11
  -4  -6 -10    0.53    0.14
  -4  -6 -10    0.47    0.13
   4   6  10    0.61    0.12
   4   6  10    0.42    0.10
   4   6  10    0.34    0.13
   4   6  10    0.50    0.11
   4   6  10    0.72    0.12
   4   6  10    0.48    0.10
  -5  -6 -10   10.30    0.52
  -5  -6 -10   10.09    0.53
  -5  -6 -10   10.04    0.53
  -5  -6 -10    9.20    0.52
   5   6  10   11.02    0.67
   5   6  10    9.97    0.67
   5   6  10   10.71    0.57
   5   6  10   10.35    0.56
   5   6  10   10.75    0.56
   5   6  10   10.47    0.55
  -6  -6 -10   11.89    0.77
  -6  -6 -10   11.00    0.58
  -6  -6 -10   10.91    0.59
   6   6  10   10.80    0.73
   6   6  10   10.91    0.61
   6   6  10   12.12    0.62
   6   6  10   11.33    0.61
   6   6  10   11.23    0.62
  -7  -6 -10    0.09    0.14
  -7  -6 -10    0.10    0.14
  -7  -6 -10   -0.24    0.15
   7   6  10   -0.05    0.09
   7   6  10   -0.04    0.09
   7   6  10    0.32    0.19
  -8  -6 -10    0.58    0.19
  -8  -6 -10    0.39    0.19
   8   6  10    0.72    0.12
   8   6  10    0.81    0.26
   8   6  10    1.03    0.16
   9   6  10    0.54    0.11
   9   6  10    0.58    0.11
   1  -7 -10    2.07    0.28
   1  -7 -10    2.41    0.27
   0  -7 -10    5.50    0.45
   0  -7 -10    4.69    0.38
   0   7  10    4.72    0.57
   0   7  10    5.34    0.31
   0   7  10    4.91    0.32
   0   7  10    5.39    0.31
  -1  -7 -10    0.12    0.14
  -1  -7 -10    0.13    0.12
   1   7  10    0.17    0.09
   1   7  10    0.10    0.09
   1   7  10    0.14    0.20
   1   7  10    0.20    0.10
   1   7  10    0.03    0.10
  -2  -7 -10    0.30    0.13
  -2  -7 -10    0.20    0.12
   2   7  10    0.06    0.10
   2   7  10    0.35    0.09
   2   7  10    0.20    0.09
   2   7  10    0.03    0.10
   2   7  10    0.10    0.17
   3   7  10   -0.09    0.13
   3   7  10    0.19    0.11
   3   7  10    0.11    0.10
   3   7  10   -0.03    0.09
   3   7  10    0.07    0.09
  -4  -7 -10    0.05    0.13
  -4  -7 -10   -0.08    0.11
  -4  -7 -10   -0.15    0.11
   4   7  10    0.05    0.11
   4   7  10    0.06    0.11
   4   7  10    0.01    0.09
   4   7  10    0.06    0.09
   4   7  10   -0.03    0.10
  -5  -7 -10    0.53    0.14
  -5  -7 -10    0.36    0.17
  -5  -7 -10    0.59    0.16
   5   7  10    0.79    0.15
   5   7  10    0.45    0.11
   5   7  10    0.49    0.11
   5   7  10    0.46    0.12
   5   7  10    0.65    0.13
  -6  -7 -10    0.81    0.13
  -6  -7 -10    0.62    0.16
  -6  -7 -10    0.61    0.09
  -6  -7 -10    0.58    0.10
  -6  -7 -10    0.67    0.10
   6   7  10    0.77    0.14
   6   7  10    0.85    0.13
   6   7  10    0.95    0.13
   6   7  10    0.92    0.14
  -7  -7 -10   -0.01    0.10
  -7  -7 -10    0.05    0.13
  -7  -7 -10   -0.10    0.10
  -7  -7 -10   -0.02    0.14
   7   7  10    0.01    0.10
   7   7  10   -0.05    0.10
  -8  -7 -10    2.67    0.25
  -8  -7 -10    2.45    0.38
  -8  -7 -10    2.32    0.25
   8   7  10    3.07    0.25
   8   7  10    2.63    0.24
  -9  -7 -10   -0.02    0.15
  -9  -7 -10   -0.12    0.15
  -9  -7 -10   -0.35    0.23
   9   7  10    0.23    0.12
   9   7  10    0.16    0.12
   1  -8 -10    0.17    0.17
   1  -8 -10    0.20    0.16
   0  -8 -10    1.34    0.23
   0  -8 -10    1.40    0.25
  -1  -8 -10    0.66    0.16
  -1  -8 -10    0.51    0.17
   1   8  10    0.61    0.10
   1   8  10    0.64    0.10
   1   8  10    0.35    0.26
  -2  -8 -10    6.91    0.47
  -2  -8 -10    7.14    0.54
   2   8  10    6.79    0.38
   2   8  10    6.54    0.40
   2   8  10    7.08    0.59
   2   8  10    6.74    0.40
   2   8  10    6.72    0.38
  -3  -8 -10    3.41    0.32
  -3  -8 -10    3.20    0.28
   3   8  10    3.18    0.24
   3   8  10    3.15    0.26
   3   8  10    3.18    0.24
   3   8  10    3.38    0.27
  -4  -8 -10    4.47    0.39
   4   8  10    4.15    0.29
   4   8  10    4.53    0.29
   4   8  10    4.12    0.32
   4   8  10    4.61    0.35
   4   8  10    4.48    0.32
  -5  -8 -10    0.46    0.14
  -5  -8 -10    0.40    0.16
  -5  -8 -10    0.50    0.16
   5   8  10    0.48    0.12
   5   8  10    0.52    0.14
   5   8  10    0.53    0.13
   5   8  10    0.39    0.15
   6   8  10    0.31    0.16
   6   8  10    0.41    0.13
   6   8  10    0.25    0.12
   6   8  10    0.62    0.16
  -7  -8 -10   -0.01    0.08
  -7  -8 -10    0.00    0.09
   7   8  10   -0.10    0.12
   7   8  10   -0.06    0.12
  -8  -8 -10    0.19    0.13
  -8  -8 -10    0.14    0.20
  -8  -8 -10    0.26    0.13
   8   8  10   -0.01    0.12
   8   8  10   -0.04    0.12
  -9  -8 -10    1.82    0.29
  -9  -8 -10    2.12    0.35
  -9  -8 -10    1.22    0.19
   9   8  10    1.70    0.20
   9   8  10    1.59    0.19
  -1  -9 -10    0.04    0.15
  -1  -9 -10    0.01    0.14
  -2  -9 -10    0.19    0.17
  -2  -9 -10    0.22    0.14
   2   9  10    0.12    0.10
   2   9  10    0.11    0.10
  -3  -9 -10    4.21    0.39
  -3  -9 -10    4.21    0.35
   3   9  10    4.19    0.28
   3   9  10    4.34    0.32
   3   9  10    4.35    0.33
   3   9  10    4.22    0.29
  -4  -9 -10    0.59    0.16
  -4  -9 -10    0.49    0.18
  -4  -9 -10    0.51    0.17
   4   9  10    0.51    0.16
   4   9  10    0.38    0.12
   4   9  10    0.32    0.12
   4   9  10    0.57    0.16
  -5  -9 -10    1.19    0.21
  -5  -9 -10    1.62    0.26
  -5  -9 -10    1.77    0.31
   5   9  10    1.10    0.19
   5   9  10    1.38    0.22
   5   9  10    1.59    0.20
   5   9  10    1.29    0.16
  -6  -9 -10    0.28    0.19
   6   9  10    0.06    0.13
   6   9  10   -0.03    0.13
  -7  -9 -10    0.15    0.19
   7   9  10    0.42    0.15
   7   9  10    0.29    0.15
  -8  -9 -10   -0.26    0.22
   8   9  10    0.09    0.15
   8   9  10    0.16    0.15
  -2 -10 -10    0.21    0.16
  -2 -10 -10    0.07    0.14
  -3 -10 -10    0.36    0.18
  -3 -10 -10    0.34    0.15
  -4 -10 -10    2.39    0.30
  -4 -10 -10    2.12    0.26
   4  10  10    2.66    0.26
   4  10  10    2.36    0.26
  -5 -10 -10    0.36    0.23
  -5 -10 -10    0.38    0.16
  -5 -10 -10    0.52    0.18
  -6 -10 -10    0.20    0.22
   6  10  10    0.12    0.15
   6  10  10    0.02    0.15
  -7 -10 -10    0.11    0.24
   7  10  10    0.04    0.17
   7  10  10    0.09    0.17
   0   2 -11    0.26    0.20
   0   2 -11    0.18    0.14
   0   2 -11    0.23    0.15
  -1   2 -11    1.38    0.25
  -1   2 -11    1.05    0.17
   1  -2  11    0.77    0.14
   1  -2  11    1.06    0.15
  -2   2 -11    1.03    0.15
  -2   2 -11    0.38    0.21
  -2   2 -11    1.47    0.20
   2  -2  11    0.90    0.14
   2  -2  11    0.86    0.13
  -3   2 -11   -0.04    0.11
  -3   2 -11    0.08    0.18
  -3   2 -11    0.25    0.11
   3  -2  11   -0.01    0.21
   1   1 -11    0.27    0.16
   1   1 -11    0.31    0.16
   1   1 -11    0.48    0.17
  -1  -1  11    0.16    0.12
  -1  -1  11   -0.09    0.12
   0   1 -11    0.36    0.17
   0   1 -11    0.46    0.14
   0   1 -11    0.26    0.14
   0  -1  11    0.29    0.11
   0  -1  11    0.26    0.10
  -1   1 -11    0.03    0.17
  -1   1 -11    0.30    0.13
  -1   1 -11    0.44    0.14
   1  -1  11    0.04    0.10
   1  -1  11    0.36    0.10
  -2   1 -11    1.06    0.21
  -2   1 -11    0.86    0.13
  -2   1 -11    0.97    0.14
   2  -1  11    1.03    0.14
   2  -1  11    0.95    0.13
  -3   1 -11    5.23    0.43
  -3   1 -11    5.72    0.35
  -3   1 -11    5.28    0.35
   3  -1  11    5.10    0.33
   3  -1  11    5.00    0.33
  -4   1 -11    6.10    0.39
  -4   1 -11    5.95    0.38
   4  -1  11    7.03    0.39
   4  -1  11    5.63    0.56
   4  -1  11    6.05    0.38
  -5   1 -11    3.07    0.23
  -5   1 -11    3.04    0.24
   5  -1  11    2.49    0.24
   5  -1  11    2.27    0.41
   5  -1  11    2.86    0.24
   2   0 -11    4.55    0.35
   2   0 -11    3.85    0.35
   2   0 -11    3.64    0.34
  -2   0  11    4.73    0.34
  -2   0  11    4.15    0.33
   1   0 -11    0.99    0.16
   1   0 -11    0.98    0.17
   1   0 -11    0.70    0.15
  -1   0  11    1.39    0.21
  -1   0  11    1.17    0.16
   0   0 -11    2.52    0.36
   0   0 -11    2.80    0.25
   0   0 -11    2.44    0.29
   0   0 -11    2.68    0.25
   0   0  11    2.57    0.22
   0   0  11    2.54    0.23
  -1   0 -11    3.33    0.26
  -1   0 -11    2.46    0.31
  -1   0 -11    3.00    0.26
  -1   0 -11    2.66    0.34
   1   0  11    3.28    0.23
   1   0  11    3.20    0.24
  -3   0 -11    1.39    0.26
  -3   0 -11    1.32    0.20
  -3   0 -11    1.42    0.20
   3   0  11    1.70    0.17
   3   0  11    1.37    0.16
  -4   0 -11    1.90    0.21
  -4   0 -11    2.09    0.21
   4   0  11    2.10    0.19
   4   0  11    1.78    0.19
  -5   0 -11    0.56    0.11
  -5   0 -11    0.27    0.10
   5   0  11    0.15    0.10
   5   0  11    0.03    0.21
   5   0  11    0.34    0.11
  -6   0 -11    0.08    0.11
   6   0  11    0.10    0.22
   6   0  11   -0.17    0.11
   6   0  11    0.05    0.11
   2  -1 -11    1.12    0.17
  -2   1  11    0.93    0.18
  -2   1  11    0.95    0.18
   1  -1 -11    9.10    0.52
   1  -1 -11    9.34    0.53
   1  -1 -11    9.72    0.63
  -1   1  11    9.86    0.56
  -1   1  11   10.03    0.55
   0  -1 -11    0.02    0.15
   0  -1 -11    0.16    0.11
   0  -1 -11    0.09    0.11
   0  -1 -11    0.10    0.16
   0  -1 -11    0.09    0.12
   0   1  11   -0.07    0.10
   0   1  11    0.07    0.11
  -1  -1 -11    0.92    0.17
   1   1  11    0.73    0.12
   1   1  11    0.81    0.13
  -2  -1 -11   -0.06    0.14
  -2  -1 -11   -0.21    0.10
  -2  -1 -11    0.14    0.15
  -2  -1 -11   -0.11    0.11
  -2  -1 -11    0.04    0.10
   2   1  11    0.08    0.09
   2   1  11    0.05    0.09
  -3  -1 -11    1.86    0.28
  -3  -1 -11    2.23    0.22
  -3  -1 -11    2.43    0.22
  -3  -1 -11    2.41    0.27
  -3  -1 -11    2.34    0.28
   3   1  11    2.74    0.21
   3   1  11    2.57    0.21
  -4  -1 -11    1.77    0.22
  -4  -1 -11    1.64    0.22
  -4  -1 -11    2.21    0.22
  -4  -1 -11    2.19    0.22
   4   1  11    2.05    0.20
   4   1  11    2.69    0.20
  -5  -1 -11    0.23    0.10
  -5  -1 -11    0.17    0.10
   5   1  11   -0.02    0.17
   5   1  11    0.24    0.09
   5   1  11    0.19    0.09
  -6  -1 -11    0.33    0.11
  -6  -1 -11    0.20    0.11
   6   1  11    0.10    0.10
   6   1  11    0.18    0.20
   6   1  11    0.25    0.11
  -7  -1 -11    0.33    0.12
  -7  -1 -11    0.30    0.12
   7   1  11   -0.09    0.23
   2  -2 -11    1.30    0.19
  -2   2  11    1.45    0.20
  -2   2  11    1.29    0.19
   1  -2 -11    0.25    0.12
   1  -2 -11    0.08    0.08
  -1   2  11    0.61    0.15
  -1   2  11    0.52    0.15
   0  -2 -11    0.91    0.11
   0  -2 -11    0.49    0.12
   0  -2 -11    0.79    0.14
   0  -2 -11    0.86    0.12
   0  -2 -11    0.52    0.13
   0   2  11    0.70    0.14
   0   2  11    0.68    0.14
  -1  -2 -11   20.53    1.01
  -1  -2 -11   20.17    1.02
  -1  -2 -11   18.87    1.03
  -1  -2 -11   17.53    1.01
  -1  -2 -11   20.66    1.22
   1   2  11   21.82    1.04
   1   2  11   21.63    1.03
  -2  -2 -11    5.89    0.42
  -2  -2 -11    4.84    0.36
  -2  -2 -11    6.00    0.35
  -2  -2 -11    5.57    0.34
  -2  -2 -11    5.00    0.37
   2   2  11    6.44    0.36
   2   2  11    5.99    0.36
   3   2  11    1.68    0.19
   3   2  11    2.02    0.19
  -4  -2 -11   -0.10    0.13
  -4  -2 -11   -0.09    0.09
  -4  -2 -11    0.11    0.10
   4   2  11    0.08    0.08
   4   2  11   -0.07    0.08
  -5  -2 -11    5.31    0.33
  -5  -2 -11    5.29    0.33
  -5  -2 -11    4.42    0.37
  -5  -2 -11    4.84    0.37
   5   2  11    5.15    0.32
   5   2  11    5.27    0.32
   5   2  11    4.83    0.45
  -6  -2 -11    0.26    0.11
  -6  -2 -11    0.18    0.12
   6   2  11    0.15    0.17
   6   2  11    0.00    0.09
  -7  -2 -11    0.19    0.12
  -7  -2 -11    0.28    0.12
   7   2  11    0.02    0.10
   7   2  11   -0.13    0.19
   7   2  11   -0.13    0.10
  -8  -2 -11    0.42    0.14
  -8  -2 -11    0.34    0.14
   2  -3 -11    2.17    0.25
  -2   3  11    2.23    0.29
  -2   3  11    1.87    0.29
  -1   3  11    0.14    0.13
  -1   3  11    0.06    0.12
   0  -3 -11    0.95    0.16
   0   3  11    0.96    0.14
   0   3  11    0.66    0.16
   0   3  11    0.97    0.15
   0   3  11    0.69    0.15
  -1  -3 -11    5.41    0.35
  -1  -3 -11    6.25    0.34
  -1  -3 -11    5.98    0.36
  -1  -3 -11    7.30    0.46
   1   3  11    6.45    0.39
   1   3  11    6.71    0.40
   1   3  11    6.36    0.40
   1   3  11    6.50    0.39
  -2  -3 -11   10.42    0.66
  -2  -3 -11    9.35    0.54
  -2  -3 -11   10.03    0.53
  -2  -3 -11    9.70    0.55
  -2  -3 -11   10.39    0.53
   2   3  11   10.77    0.56
   2   3  11    9.85    0.56
   2   3  11    9.53    0.56
   2   3  11   11.33    0.57
  -3  -3 -11    1.39    0.20
  -3  -3 -11    1.17    0.16
  -3  -3 -11    0.99    0.14
   3   3  11    1.16    0.15
   3   3  11    1.22    0.17
   3   3  11    1.60    0.18
   3   3  11    1.28    0.20
   3   3  11    1.27    0.15
  -4  -3 -11    2.69    0.27
  -4  -3 -11    3.31    0.25
  -4  -3 -11    3.24    0.28
  -4  -3 -11    3.47    0.24
   4   3  11    3.33    0.34
   4   3  11    3.69    0.25
   4   3  11    3.55    0.25
  -5  -3 -11    0.20    0.14
  -5  -3 -11    0.24    0.14
  -5  -3 -11    0.39    0.11
  -5  -3 -11    0.28    0.11
   5   3  11    0.00    0.09
   5   3  11    0.12    0.09
  -6  -3 -11   -0.13    0.17
  -6  -3 -11    0.14    0.11
  -6  -3 -11    0.06    0.10
  -6  -3 -11   -0.11    0.16
   6   3  11   -0.04    0.15
   6   3  11   -0.06    0.08
  -7  -3 -11    3.05    0.26
  -7  -3 -11    3.17    0.26
   7   3  11    2.67    0.23
   7   3  11    3.22    0.35
   7   3  11    2.75    0.23
   7   3  11    3.10    0.40
  -8  -3 -11    1.76    0.23
   8   3  11    1.89    0.20
   8   3  11    1.47    0.20
   2  -4 -11    1.88    0.23
  -2   4  11    1.80    0.22
  -2   4  11    1.73    0.21
   1  -4 -11    4.22    0.34
  -1   4  11    3.79    0.36
  -1   4  11    3.86    0.37
   0   4  11    1.23    0.18
   0   4  11    1.21    0.17
  -1  -4 -11    0.09    0.09
   1   4  11    0.19    0.12
   1   4  11    0.25    0.12
   1   4  11    0.23    0.11
   1   4  11    0.17    0.11
   2   4  11    0.79    0.14
   2   4  11    0.86    0.14
   2   4  11    0.82    0.13
   2   4  11    0.86    0.13
  -3  -4 -11    7.68    0.45
  -3  -4 -11    8.05    0.43
  -3  -4 -11    8.30    0.44
  -3  -4 -11    9.13    0.44
   3   4  11    7.82    0.56
   3   4  11    8.24    0.47
   3   4  11    8.51    0.48
  -4  -4 -11   -0.08    0.09
  -4  -4 -11    0.09    0.09
   4   4  11    0.10    0.10
   4   4  11   -0.13    0.16
   4   4  11    0.29    0.10
   4   4  11    0.18    0.10
   4   4  11   -0.01    0.09
  -5  -4 -11    0.34    0.11
  -5  -4 -11    0.51    0.11
  -5  -4 -11    0.26    0.07
  -5  -4 -11    0.18    0.12
  -5  -4 -11    0.34    0.13
   5   4  11    0.43    0.19
   5   4  11    0.37    0.10
   5   4  11    0.32    0.10
  -6  -4 -11    1.01    0.15
  -6  -4 -11    0.93    0.17
  -6  -4 -11    0.88    0.14
  -6  -4 -11    0.78    0.17
  -6  -4 -11    1.31    0.20
   6   4  11    0.74    0.22
   6   4  11    0.88    0.13
   6   4  11    1.21    0.23
   6   4  11    1.18    0.16
  -7  -4 -11    1.81    0.25
  -7  -4 -11    2.01    0.23
  -7  -4 -11    1.58    0.24
  -7  -4 -11    2.28    0.23
   7   4  11    2.30    0.20
   7   4  11    1.93    0.26
   7   4  11    2.08    0.20
   7   4  11    1.98    0.37
  -8  -4 -11    4.45    0.34
  -8  -4 -11    4.25    0.34
   8   4  11    4.04    0.28
   8   4  11    4.95    0.29
   2  -5 -11    4.87    0.44
  -2   5  11    5.65    0.43
   1  -5 -11    4.33    0.34
  -1   5  11    4.64    0.33
  -1   5  11    3.58    0.37
  -1   5  11    4.56    0.33
  -1   5  11    3.80    0.38
   0   5  11    1.73    0.22
   0   5  11    1.51    0.19
   0   5  11    1.54    0.19
   0   5  11    1.58    0.22
   1   5  11    0.48    0.14
   1   5  11    0.50    0.12
   1   5  11    0.65    0.14
   1   5  11    0.46    0.12
   2   5  11    1.12    0.18
   2   5  11    1.19    0.15
   2   5  11    1.09    0.18
   2   5  11    1.18    0.15
   3   5  11    3.68    0.33
   3   5  11    3.84    0.29
   3   5  11    3.61    0.27
   3   5  11    3.79    0.28
   3   5  11    4.00    0.27
  -4  -5 -11    2.08    0.18
  -4  -5 -11    2.21    0.19
   4   5  11    1.83    0.27
   4   5  11    2.49    0.23
   4   5  11    2.09    0.22
  -5  -5 -11    8.15    0.58
  -5  -5 -11    8.88    0.49
  -5  -5 -11    8.45    0.48
   5   5  11    9.93    0.51
   5   5  11    8.75    0.62
   5   5  11    9.49    0.51
   5   5  11    9.08    0.51
   5   5  11    9.16    0.52
  -6  -5 -11    0.92    0.16
  -6  -5 -11    0.86    0.13
  -6  -5 -11    0.76    0.13
  -6  -5 -11    0.78    0.14
  -6  -5 -11    0.75    0.15
   6   5  11    0.65    0.12
   6   5  11    0.57    0.11
   6   5  11    0.62    0.12
   6   5  11    0.33    0.20
  -7  -5 -11   18.61    0.99
  -7  -5 -11   20.54    0.99
  -7  -5 -11   19.17    0.97
  -7  -5 -11   16.99    1.00
   7   5  11   19.70    0.99
   7   5  11   18.59    1.18
   7   5  11   19.27    0.98
  -8  -5 -11   -0.22    0.14
   8   5  11   -0.24    0.27
   8   5  11    0.05    0.10
   8   5  11   -0.07    0.10
  -9  -5 -11    0.20    0.18
  -9  -5 -11    0.54    0.19
  -1   6  11    0.28    0.14
  -1   6  11    0.13    0.14
   0   6  11    0.03    0.12
   0   6  11   -0.01    0.15
   0   6  11    0.09    0.15
   0   6  11    0.26    0.12
   1   6  11    0.78    0.15
   1   6  11    0.59    0.13
   1   6  11    0.71    0.13
   1   6  11    0.68    0.15
  -2  -6 -11    0.00    0.12
   2   6  11    0.05    0.11
   2   6  11    0.14    0.12
   2   6  11    0.14    0.12
   2   6  11    0.03    0.10
  -3  -6 -11   -0.14    0.10
  -3  -6 -11    0.01    0.11
   3   6  11    0.05    0.11
   3   6  11    0.10    0.10
   3   6  11   -0.08    0.11
   3   6  11   -0.05    0.11
  -4  -6 -11    0.90    0.17
  -4  -6 -11    1.29    0.23
   4   6  11    1.39    0.19
   4   6  11    1.54    0.22
   4   6  11    1.27    0.15
   4   6  11    1.33    0.17
  -5  -6 -11    7.64    0.43
  -5  -6 -11    7.81    0.43
  -5  -6 -11    6.93    0.55
  -5  -6 -11    8.72    0.43
   5   6  11    8.34    0.49
   5   6  11    8.94    0.47
   5   6  11    8.46    0.47
   5   6  11    8.57    0.48
  -6  -6 -11    0.23    0.13
   6   6  11    0.28    0.11
   6   6  11    0.23    0.11
  -7  -6 -11    0.29    0.18
   7   6  11    0.43    0.12
   7   6  11    0.46    0.12
  -8  -6 -11    0.08    0.24
  -8  -6 -11    0.03    0.24
  -8  -6 -11   -0.32    0.20
   8   6  11   -0.06    0.11
   8   6  11    0.16    0.11
   0  -7 -11   -0.03    0.14
   0  -7 -11   -0.10    0.13
   0   7  11   -0.09    0.13
  -1  -7 -11    8.92    0.68
  -1  -7 -11    9.26    0.61
   1   7  11    9.20    0.51
   1   7  11    9.27    0.50
   1   7  11    8.94    0.77
   1   7  11    9.34    0.53
   1   7  11    8.85    0.52
  -2  -7 -11    0.06    0.12
  -2  -7 -11    0.14    0.13
   2   7  11    0.14    0.13
   2   7  11    0.23    0.11
   2   7  11    0.04    0.11
   2   7  11    0.15    0.13
   2   7  11   -0.16    0.21
  -3  -7 -11    5.29    0.43
  -3  -7 -11    4.98    0.38
   3   7  11    5.07    0.36
   3   7  11    6.09    0.35
   3   7  11    5.03    0.36
   3   7  11    5.55    0.34
   3   7  11    4.56    0.47
  -4  -7 -11    0.27    0.15
  -4  -7 -11    0.22    0.13
   4   7  11    0.07    0.11
   4   7  11    0.19    0.13
   4   7  11    0.33    0.15
   4   7  11    0.12    0.11
   4   7  11    0.27    0.14
  -5  -7 -11    3.59    0.34
   5   7  11    4.25    0.31
   5   7  11    4.26    0.30
   5   7  11    4.12    0.34
   5   7  11    3.57    0.33
  -6  -7 -11    0.15    0.08
  -6  -7 -11    0.36    0.16
   6   7  11    0.43    0.13
   6   7  11    0.29    0.13
  -7  -7 -11    0.58    0.12
  -7  -7 -11    0.58    0.12
   7   7  11    1.00    0.15
   7   7  11    0.98    0.15
  -8  -7 -11    0.17    0.14
  -8  -7 -11    0.23    0.14
  -8  -7 -11    0.43    0.23
   8   7  11    0.25    0.13
   8   7  11   -0.07    0.12
  -1  -8 -11    0.27    0.16
  -1  -8 -11    0.23    0.16
   1   8  11    0.61    0.36
  -2  -8 -11    3.56    0.36
  -2  -8 -11    3.57    0.32
   2   8  11    3.79    0.28
   2   8  11    3.72    0.28
   2   8  11    3.84    0.52
  -3  -8 -11    7.09    0.48
  -3  -8 -11    6.90    0.53
   3   8  11    6.76    0.45
   3   8  11    6.91    0.41
   3   8  11    6.92    0.59
   3   8  11    6.46    0.45
   3   8  11    7.23    0.41
  -4  -8 -11    3.82    0.32
  -4  -8 -11    3.82    0.36
   4   8  11    4.02    0.35
   4   8  11    3.85    0.29
   4   8  11    4.42    0.36
   4   8  11    3.78    0.29
  -5  -8 -11    0.68    0.19
  -5  -8 -11    0.73    0.17
  -5  -8 -11    0.76    0.18
   5   8  11    0.92    0.20
   5   8  11    0.62    0.15
   5   8  11    0.69    0.18
   5   8  11    0.61    0.15
  -6  -8 -11    2.83    0.34
   6   8  11    2.82    0.29
   6   8  11    2.87    0.28
  -7  -8 -11    2.65    0.36
   7   8  11    2.11    0.27
   7   8  11    1.91    0.28
  -8  -8 -11    0.30    0.24
   8   8  11    0.29    0.15
   8   8  11    0.18    0.15
  -2  -9 -11    0.39    0.17
  -2  -9 -11    0.12    0.13
  -3  -9 -11    1.60    0.23
  -3  -9 -11    1.53    0.26
   3   9  11    1.42    0.23
   3   9  11    1.79    0.23
  -4  -9 -11    0.54    0.18
  -4  -9 -11    0.20    0.14
   4   9  11   -0.01    0.13
   4   9  11    0.16    0.20
   4   9  11    0.17    0.13
  -5  -9 -11    0.35    0.17
  -5  -9 -11    0.13    0.20
  -5  -9 -11    0.34    0.15
   5   9  11    0.01    0.15
   5   9  11    0.18    0.15
   6   9  11    1.64    0.21
   6   9  11    1.65    0.21
  -7  -9 -11    0.66    0.24
   7   9  11    0.64    0.18
   7   9  11    0.50    0.18
  -5 -10 -11    2.60    0.45
  -5 -10 -11    2.37    0.32
   5  10  11    3.08    0.32
   5  10  11    2.70    0.32
   0   0 -12   -0.10    0.16
   0   0 -12   -0.18    0.18
   0   0 -12    0.16    0.17
   0   0  12    0.33    0.13
   0   0  12    0.51    0.13
  -1   0 -12    0.10    0.18
  -1   0 -12    0.27    0.16
  -1   0 -12    0.17    0.16
   1   0  12    0.10    0.12
   1   0  12   -0.11    0.12
  -2   0 -12    2.37    0.28
  -2   0 -12    2.42    0.28
  -2   0 -12    2.41    0.36
   2   0  12    2.65    0.24
   2   0  12    2.65    0.24
  -3   0 -12    0.72    0.16
  -3   0 -12    0.79    0.21
  -3   0 -12    0.89    0.17
   3   0  12    0.91    0.13
   3   0  12    1.39    0.18
  -4   0 -12    0.28    0.14
   4   0  12    0.43    0.12
   4   0  12   -0.06    0.23
   0  -1 -12    0.31    0.17
   0  -1 -12    0.22    0.15
   0  -1 -12    0.33    0.15
   0   1  12    0.17    0.14
   0   1  12    0.41    0.14
  -1  -1 -12    0.42    0.14
  -1  -1 -12    0.20    0.16
  -1  -1 -12    0.26    0.15
   1   1  12    0.21    0.13
   1   1  12    0.60    0.13
  -2  -1 -12   -0.09    0.13
  -2  -1 -12   -0.05    0.20
  -2  -1 -12   -0.19    0.13
  -2  -1 -12    0.17    0.15
  -2  -1 -12   -0.14    0.20
   2   1  12   -0.11    0.11
   2   1  12    0.02    0.11
  -3  -1 -12   -0.25    0.12
  -3  -1 -12   -0.12    0.16
  -3  -1 -12   -0.19    0.13
   3   1  12    0.02    0.10
   3   1  12    0.07    0.10
  -4  -1 -12    0.16    0.13
  -4  -1 -12   -0.07    0.13
   4   1  12    0.07    0.10
   4   1  12   -0.05    0.11
  -5  -1 -12    2.60    0.26
  -5  -1 -12    2.91    0.27
   5   1  12    2.18    0.21
   5   1  12    2.11    0.43
   5   1  12    2.54    0.21
  -6  -1 -12    0.42    0.14
  -6  -1 -12    0.45    0.15
   6   1  12    0.21    0.27
   1  -2 -12   -0.06    0.13
  -1   2  12    0.24    0.19
  -1   2  12    0.35    0.19
   0  -2 -12   -0.09    0.13
   0   2  12   -0.24    0.14
   0   2  12    0.11    0.14
  -1  -2 -12    1.57    0.22
  -1  -2 -12    1.77    0.22
  -1  -2 -12    2.17    0.27
   1   2  12    1.58    0.22
   1   2  12    1.50    0.22
  -2  -2 -12    0.26    0.14
   2   2  12    0.23    0.12
   2   2  12    0.26    0.12
  -3  -2 -12    0.54    0.19
  -3  -2 -12    0.34    0.19
  -3  -2 -12    0.25    0.12
  -3  -2 -12    0.36    0.13
   3   2  12    0.27    0.12
   3   2  12    0.36    0.11
  -4  -2 -12    0.59    0.20
  -4  -2 -12    0.62    0.14
  -4  -2 -12    0.24    0.20
  -4  -2 -12    0.47    0.13
   4   2  12    0.76    0.12
   4   2  12    0.68    0.12
  -5  -2 -12    4.71    0.34
  -5  -2 -12    4.51    0.34
   5   2  12    4.42    0.32
   5   2  12    5.27    0.50
   5   2  12    4.90    0.32
  -6  -2 -12    0.50    0.14
  -6  -2 -12    0.48    0.14
   6   2  12    0.27    0.11
   6   2  12    0.62    0.12
   6   2  12    0.64    0.24
   1  -3 -12    1.95    0.23
  -1   3  12    2.16    0.32
  -1   3  12    1.59    0.23
   0  -3 -12    1.97    0.22
   0   3  12    1.67    0.26
   0   3  12    1.64    0.21
  -1  -3 -12    2.39    0.24
   1   3  12    2.10    0.26
   1   3  12    2.11    0.26
  -2  -3 -12    0.70    0.15
  -2  -3 -12    0.57    0.12
  -2  -3 -12    0.72    0.12
   2   3  12    0.65    0.14
   2   3  12    0.66    0.14
  -3  -3 -12    1.27    0.20
  -3  -3 -12    0.98    0.18
  -3  -3 -12    1.46    0.21
  -3  -3 -12    1.18    0.18
   3   3  12    1.75    0.20
   3   3  12    1.26    0.20
  -4  -3 -12    3.36    0.28
  -4  -3 -12    3.20    0.28
   4   3  12    3.55    0.28
   4   3  12    4.25    0.28
  -5  -3 -12   -0.25    0.18
  -5  -3 -12   -0.17    0.18
  -5  -3 -12    0.00    0.12
  -5  -3 -12    0.20    0.13
   5   3  12   -0.07    0.10
   5   3  12   -0.11    0.10
  -6  -3 -12    0.14    0.13
  -6  -3 -12    0.20    0.14
   6   3  12    0.17    0.19
   6   3  12    0.00    0.11
   6   3  12   -0.01    0.10
  -7  -3 -12    0.96    0.17
  -7  -3 -12    0.62    0.17
  -1   4  12   11.82    0.69
  -1   4  12   11.92    0.69
   0  -4 -12   -0.03    0.11
   0   4  12    0.02    0.14
   0   4  12    0.12    0.15
  -1  -4 -12    0.07    0.11
   1   4  12    0.01    0.14
   1   4  12   -0.06    0.14
   2   4  12    0.96    0.16
   2   4  12    0.98    0.16
  -3  -4 -12    2.78    0.21
  -3  -4 -12    2.57    0.21
   3   4  12    2.56    0.26
   3   4  12    2.62    0.26
  -4  -4 -12    0.53    0.12
  -4  -4 -12    0.58    0.16
  -4  -4 -12    0.56    0.12
  -4  -4 -12    0.57    0.16
   4   4  12    0.43    0.12
   4   4  12    0.34    0.12
  -6  -4 -12   -0.03    0.20
  -6  -4 -12   -0.05    0.13
  -6  -4 -12    0.09    0.13
  -6  -4 -12    0.06    0.20
   6   4  12   -0.14    0.10
   6   4  12   -0.49    0.24
   6   4  12   -0.04    0.16
  -7  -4 -12    1.89    0.26
  -7  -4 -12    2.30    0.27
   7   4  12    1.50    0.21
   7   4  12    1.29    0.20
   0   5  12    6.23    0.44
   0   5  12    6.72    0.44
   1   5  12    2.47    0.27
   1   5  12    2.41    0.28
   1   5  12    2.80    0.37
   2   5  12    0.10    0.13
   2   5  12   -0.05    0.12
   3   5  12   -0.06    0.13
   3   5  12   -0.13    0.13
   4   5  12    1.77    0.23
   4   5  12    1.60    0.23
  -5  -5 -12    1.74    0.21
  -5  -5 -12    2.08    0.21
   5   5  12    2.06    0.23
   5   5  12    1.82    0.23
   6   5  12   -0.01    0.13
   6   5  12   -0.06    0.11
   6   5  12   -0.17    0.11
  -7  -5 -12    7.83    0.50
  -7  -5 -12    7.97    0.49
   7   5  12    8.06    0.48
   7   5  12    8.46    0.49
  -8  -5 -12   -0.29    0.17
  -8  -5 -12    0.11    0.18
   8   5  12   -0.13    0.12
   8   5  12    0.16    0.12
   1   6  12    9.06    0.57
   1   6  12    8.88    0.57
   2   6  12    0.29    0.19
   2   6  12    0.13    0.18
  -3  -6 -12    0.00    0.14
  -3  -6 -12    0.00    0.14
   3   6  12   -0.03    0.13
   3   6  12    0.18    0.14
   3   6  12    0.29    0.17
   3   6  12    0.21    0.17
  -4  -6 -12    2.50    0.31
  -4  -6 -12    2.67    0.28
   4   6  12    2.93    0.28
   4   6  12    2.99    0.28
   5   6  12    1.35    0.18
   5   6  12    1.36    0.18
  -6  -6 -12    0.09    0.12
   6   6  12    0.00    0.13
   6   6  12    0.26    0.13
   7   6  12    1.16    0.16
   8   6  12    0.51    0.14
  -1  -7 -12    0.00    0.13
  -1  -7 -12    0.16    0.15
   1   7  12   -0.06    0.15
   1   7  12   -0.02    0.15
  -2  -7 -12    3.91    0.40
  -2  -7 -12    4.15    0.36
   2   7  12    4.89    0.35
   2   7  12    4.32    0.41
   2   7  12    5.42    0.34
   2   7  12    4.27    0.42
  -3  -7 -12    0.24    0.15
  -3  -7 -12    0.38    0.15
   3   7  12    0.27    0.18
   3   7  12    0.35    0.18
   4   7  12    0.09    0.14
   4   7  12    0.13    0.14
   5   7  12    0.13    0.15
   5   7  12    0.10    0.14
   6   7  12    0.81    0.16
   6   7  12    0.81    0.17
  -7  -7 -12    0.22    0.21
   7   7  12    0.22    0.15
   7   7  12    0.32    0.15
  -2  -8 -12    0.12    0.15
  -2  -8 -12    0.17    0.16
  -3  -8 -12    1.79    0.24
  -3  -8 -12    1.73    0.28
   3   8  12    1.67    0.26
   3   8  12    1.85    0.27
  -4  -8 -12    2.64    0.32
  -4  -8 -12    2.62    0.28
   4   8  12    2.47    0.29
   4   8  12    2.73    0.29
   5   8  12   -0.12    0.15
   5   8  12   -0.09    0.14
  -6  -8 -12    0.06    0.21
   6   8  12   -0.07    0.16
   6   8  12   -0.20    0.16
   7   8  12    1.56    0.22
   7   8  12    1.69    0.22
  -4  -9 -12    2.36    0.31
  -4  -9 -12    2.45    0.28
   4   9  12    2.55    0.30
  -5  -9 -12    2.81    0.34
  -5  -9 -12    2.90    0.29
   5   9  12    2.10    0.31
   5   9  12    2.11    0.24
  -2  -2 -13    0.14    0.18
  -2  -2 -13   -0.07    0.16
  -2  -2 -13    0.04    0.18
   2   2  13   -0.02    0.14
   2   2  13    0.17    0.14
  -3  -2 -13    1.98    0.30
  -3  -2 -13    2.70    0.31
   3   2  13    2.60    0.27
   3   2  13    2.72    0.27
  -4  -2 -13   -0.02    0.17
  -4  -2 -13    0.12    0.17
   4   2  13    0.03    0.13
   4   2  13    0.25    0.13
  -1  -3 -13    0.61    0.16
   1   3  13    0.38    0.18
   1   3  13    0.09    0.19
   2   3  13    1.70    0.21
   2   3  13    1.50    0.21
   3   3  13    3.42    0.30
   3   3  13    3.10    0.30
  -4  -3 -13    2.19    0.28
  -4  -3 -13    1.74    0.28
   4   3  13    2.13    0.25
   4   3  13    1.99    0.25
  -5  -3 -13    0.27    0.17
  -5  -3 -13    0.34    0.17
   5   3  13    0.06    0.13
   5   3  13   -0.05    0.12
   1   4  13    0.80    0.21
   1   4  13    0.95    0.20
   2   4  13    0.99    0.19
   2   4  13    0.73    0.19
   3   4  13    0.70    0.18
   3   4  13    1.03    0.18
  -4  -4 -13   -0.03    0.14
  -4  -4 -13    0.02    0.14
   4   4  13   -0.11    0.13
   4   4  13   -0.29    0.13
  -5  -4 -13    0.57    0.16
  -5  -4 -13    0.44    0.16
   5   4  13    0.32    0.15
   5   4  13    0.12    0.15
  -6  -4 -13    0.01    0.17
  -6  -4 -13   -0.11    0.17
   1   5  13    1.20    0.22
   1   5  13    1.09    0.22
   2   5  13    0.04    0.17
   2   5  13    0.29    0.17
   3   5  13    0.15    0.16
   3   5  13   -0.26    0.16
   4   5  13    0.06    0.15
   4   5  13    0.22    0.16
   5   5  13    1.58    0.20
   5   5  13    1.65    0.21
  -6  -5 -13    0.39    0.18
  -6  -5 -13    0.52    0.17
   6   5  13   -0.02    0.14
   6   5  13   -0.22    0.14
   2   6  13    0.11    0.18
   2   6  13    0.18    0.18
  -3  -6 -13    1.03    0.20
  -3  -6 -13    1.04    0.19
   3   6  13    1.28    0.20
   3   6  13    1.27    0.21
   4   6  13   -0.28    0.16
   4   6  13   -0.21    0.16
   5   6  13    0.11    0.16
   5   6  13    0.12    0.16
   6   6  13    0.05    0.15
   6   6  13   -0.02    0.15
  -3  -7 -13    2.73    0.33
   3   7  13    3.11    0.35
   3   7  13    3.15    0.34
  -4  -7 -13   -0.04    0.16
  -4  -7 -13    0.07    0.18
   4   7  13   -0.03    0.17
   4   7  13    0.25    0.17
   5   7  13    0.29    0.18
   5   7  13    0.30    0.18
   6   7  13    0.46    0.19
   6   7  13    0.79    0.19
   0   0   0    0.00    0.00
;
_shelx_hkl_checksum              20647
loop_
_space_group_symop_operation_xyz
'x, y, z'
'-x, -y, -z'
loop_
_atom_site_label
_atom_site_type_symbol
_atom_site_fract_x
_atom_site_fract_y
_atom_site_fract_z
_atom_site_U_iso_or_equiv
_atom_site_adp_type
_atom_site_occupancy
_atom_site_site_symmetry_order
_atom_site_calc_flag
C0 C 0.9514(7) 0.9491(7) 0.7873(6) 0.0159(9) Uani 1 1 d
S1 S 1.2362(2) 1.02058(19) 0.56243(17) 0.0224(3) Uani 1 1 d
C1 C 0.8324(7) 0.8259(7) 0.9167(6) 0.0154(9) Uani 1 1 d
N1 N 1.1183(7) 0.8694(6) 0.6996(5) 0.0212(9) Uani 1 1 d
S2 S 1.0292(2) 1.25561(19) 0.62296(18) 0.0261(4) Uani 1 1 d
F2 F 0.7179(5) 1.0190(4) 1.0799(4) 0.0232(7) Uani 1 1 d
N2 N 0.8848(7) 1.1340(6) 0.7654(6) 0.0221(10) Uani 1 1 d
C2 C 0.7200(8) 0.8667(7) 1.0553(6) 0.0178(10) Uani 1 1 d
F3 F 0.5051(5) 0.7982(5) 1.3059(4) 0.0271(8) Uani 1 1 d
C3 C 0.6086(8) 0.7518(7) 1.1752(6) 0.0182(10) Uani 1 1 d
C4 C 0.6021(7) 0.5899(7) 1.1602(6) 0.0172(10) Uani 1 1 d
F5 F 0.7117(5) 0.3941(4) 1.0006(4) 0.0240(7) Uani 1 1 d
C5 C 0.7135(7) 0.5472(7) 1.0202(6) 0.0147(9) Uani 1 1 d
F6 F 0.9297(5) 0.6085(5) 0.7736(4) 0.0236(7) Uani 1 1 d
C6 C 0.8264(7) 0.6605(7) 0.9032(6) 0.0164(10) Uani 1 1 d
C7 C 0.4809(8) 0.4741(7) 1.2791(6) 0.0206(11) Uani 1 1 d
N3 N 0.3824(7) 0.3807(7) 1.3714(6) 0.0273(11) Uani 1 1 d
loop_
_atom_site_aniso_label
_atom_site_aniso_U_11
_atom_site_aniso_U_22
_atom_site_aniso_U_33
_atom_site_aniso_U_23
_atom_site_aniso_U_13
_atom_site_aniso_U_12
C0 0.014(2) 0.014(2) 0.019(2) -0.0029(18) -0.0024(18) -0.0068(18)
S1 0.0184(6) 0.0188(6) 0.0234(7) -0.0061(5) 0.0043(5) -0.0075(5)
C1 0.015(2) 0.016(2) 0.015(2) -0.0035(18) -0.0027(18) -0.0065(18)
N1 0.020(2) 0.019(2) 0.022(2) -0.0048(18) 0.0010(18) -0.0098(18)
S2 0.0253(7) 0.0145(6) 0.0269(7) -0.0024(5) 0.0042(5) -0.0076(5)
F2 0.0316(17) 0.0189(15) 0.0240(16) -0.0125(13) 0.0023(13) -0.0142(13)
N2 0.021(2) 0.015(2) 0.022(2) -0.0045(17) 0.0038(18) -0.0072(17)
C2 0.020(2) 0.014(2) 0.019(2) -0.0057(19) -0.0029(19) -0.0062(19)
F3 0.0288(17) 0.0339(19) 0.0188(16) -0.0133(14) 0.0052(13) -0.0137(15)
C3 0.018(2) 0.019(2) 0.018(2) -0.0071(19) -0.0020(19) -0.0059(19)
C4 0.014(2) 0.016(2) 0.019(2) -0.0034(19) -0.0022(18) -0.0043(18)
F5 0.0298(18) 0.0165(15) 0.0283(17) -0.0080(13) -0.0037(14) -0.0109(13)
C5 0.016(2) 0.011(2) 0.016(2) -0.0034(18) -0.0031(18) -0.0055(18)
F6 0.0284(17) 0.0253(16) 0.0192(15) -0.0128(13) 0.0047(13) -0.0129(14)
C6 0.017(2) 0.016(2) 0.015(2) -0.0059(19) -0.0022(18) -0.0043(19)
C7 0.022(3) 0.017(2) 0.019(2) -0.001(2) -0.006(2) -0.006(2)
N3 0.023(2) 0.024(2) 0.026(3) 0.000(2) -0.003(2) -0.010(2)
loop_
_atom_type_symbol
_atom_type_description
_atom_type_scat_dispersion_real
_atom_type_scat_dispersion_imag
_atom_type_scat_source
C C 0.0033 0.0016 'International Tables Vol C Tables 4.2.6.8 and 6.1.1.4'
N N 0.0061 0.0033 'International Tables Vol C Tables 4.2.6.8 and 6.1.1.4'
F F 0.0171 0.0103 'International Tables Vol C Tables 4.2.6.8 and 6.1.1.4'
S S 0.1246 0.1234 'International Tables Vol C Tables 4.2.6.8 and 6.1.1.4'
loop_
_geom_angle_atom_site_label_1
_geom_angle_atom_site_label_2
_geom_angle_atom_site_label_3
_geom_angle
N2 C0 N1 123.5(5)
N2 C0 C1 117.8(4)
N1 C0 C1 118.7(4)
N1 S1 S2 94.38(18)
C2 C1 C6 116.3(4)
C2 C1 C0 122.5(5)
C6 C1 C0 121.2(4)
C0 N1 S1 113.7(4)
N2 S2 S1 94.59(17)
C0 N2 S2 113.8(4)
F2 C2 C1 120.7(4)
F2 C2 C3 117.1(5)
C1 C2 C3 122.2(5)
F3 C3 C2 119.3(5)
F3 C3 C4 119.6(5)
C2 C3 C4 121.2(5)
C3 C4 C5 117.4(5)
C3 C4 C7 122.1(5)
C5 C4 C7 120.4(5)
F5 C5 C6 119.5(4)
F5 C5 C4 119.5(4)
C6 C5 C4 120.9(5)
F6 C6 C5 117.1(4)
F6 C6 C1 120.9(4)
C5 C6 C1 122.0(5)
N3 C7 C4 178.2(6)
loop_
_geom_bond_atom_site_label_1
_geom_bond_atom_site_label_2
_geom_bond_distance
C0 N2 1.328(7)
C0 N1 1.331(7)
C0 C1 1.485(7)
S1 N1 1.637(5)
S1 S2 2.0866(19)
C1 C2 1.382(7)
C1 C6 1.408(7)
S2 N2 1.632(5)
F2 C2 1.333(6)
C2 C3 1.384(7)
F3 C3 1.327(6)
C3 C4 1.389(7)
C4 C5 1.398(7)
C4 C7 1.429(7)
F5 C5 1.327(6)
C5 C6 1.375(7)
F6 C6 1.338(6)
C7 N3 1.146(7)
