#------------------------------------------------------------------------------
#$Date: 2016-08-05 06:25:42 +0300 (Fri, 05 Aug 2016) $
#$Revision: 184931 $
#$URL: file:///home/coder/svn-repositories/cod/cif/4/12/51/4125104.cif $
#------------------------------------------------------------------------------
#
# This file is available in the Crystallography Open Database (COD),
# http://www.crystallography.net/
#
# All data on this site have been placed in the public domain by the
# contributors.
#
data_4125104
loop_
_publ_author_name
'Lau, Genevieve P. S.'
'Schreier, Marcel'
'Vasilyev, Dmitry'
'Scopelliti, Rosario'
'Gr\"atzel, Michael'
'Dyson, Paul J.'
_publ_section_title
;
 New Insights Into the Role of Imidazolium-Based Promoters for the
 Electroreduction of CO2 on a Silver Electrode.
;
_journal_issue                   25
_journal_name_full               'Journal of the American Chemical Society'
_journal_page_first              7820
_journal_page_last               7823
_journal_paper_doi               10.1021/jacs.6b03366
_journal_volume                  138
_journal_year                    2016
_chemical_formula_moiety         'C12 H12 N3, B F4'
_chemical_formula_sum            'C12 H12 B F4 N3'
_chemical_formula_weight         285.06
_space_group_IT_number           2
_symmetry_cell_setting           triclinic
_symmetry_space_group_name_Hall  '-P 1'
_symmetry_space_group_name_H-M   'P -1'
_atom_sites_solution_hydrogens   geom
_atom_sites_solution_primary     direct
_atom_sites_solution_secondary   difmap
_audit_creation_method           SHELXL-97
_audit_update_record
;
2016-02-16 # Formatted by publCIF

;
_cell_angle_alpha                93.681(6)
_cell_angle_beta                 98.829(4)
_cell_angle_gamma                91.890(5)
_cell_formula_units_Z            2
_cell_length_a                   6.6104(4)
_cell_length_b                   9.5196(7)
_cell_length_c                   10.5103(7)
_cell_measurement_reflns_used    129
_cell_measurement_temperature    120(2)
_cell_measurement_theta_max      22
_cell_measurement_theta_min      3
_cell_volume                     651.60(8)
_computing_cell_refinement
'Dirax/lsq (Duisenberg & Schreurs, 1989-2000)'
_computing_data_collection       'Collect (Bruker AXS BV, 1997-2004)'
_computing_data_reduction        'EvalCCD (Duisenberg & Schreurs, 1990-2000)'
_computing_molecular_graphics    'Bruker SHELXTL'
_computing_publication_material  'Bruker SHELXTL'
_computing_structure_refinement  'SHELXL-97 (Sheldrick, 1997)'
_computing_structure_solution    'SHELXS-97 (Sheldrick, 1990)'
_diffrn_ambient_temperature      120(2)
_diffrn_measured_fraction_theta_full 0.975
_diffrn_measured_fraction_theta_max 0.975
_diffrn_measurement_device_type  'Bruker APEX II CCD'
_diffrn_measurement_method       'phi and omega scans'
_diffrn_radiation_monochromator  graphite
_diffrn_radiation_source         'fine-focus sealed tube'
_diffrn_radiation_type           MoK\a
_diffrn_radiation_wavelength     0.71073
_diffrn_reflns_av_R_equivalents  0.0191
_diffrn_reflns_av_sigmaI/netI    0.0245
_diffrn_reflns_limit_h_max       8
_diffrn_reflns_limit_h_min       -9
_diffrn_reflns_limit_k_max       13
_diffrn_reflns_limit_k_min       -13
_diffrn_reflns_limit_l_max       14
_diffrn_reflns_limit_l_min       -14
_diffrn_reflns_number            10465
_diffrn_reflns_theta_full        29.99
_diffrn_reflns_theta_max         29.99
_diffrn_reflns_theta_min         2.81
_exptl_absorpt_coefficient_mu    0.128
_exptl_absorpt_correction_T_max  0.7460
_exptl_absorpt_correction_T_min  0.6950
_exptl_absorpt_correction_type   multi-scan
_exptl_absorpt_process_details   'SADABS 2008, Bruker AXS, 2008'
_exptl_crystal_colour            colourless
_exptl_crystal_density_diffrn    1.453
_exptl_crystal_density_method    'not measured'
_exptl_crystal_description       prism
_exptl_crystal_F_000             292
_exptl_crystal_size_max          0.45
_exptl_crystal_size_mid          0.42
_exptl_crystal_size_min          0.33
_refine_diff_density_max         0.419
_refine_diff_density_min         -0.254
_refine_diff_density_rms         0.045
_refine_ls_extinction_method     none
_refine_ls_goodness_of_fit_ref   1.053
_refine_ls_hydrogen_treatment    constr
_refine_ls_matrix_type           full
_refine_ls_number_parameters     220
_refine_ls_number_reflns         3712
_refine_ls_number_restraints     114
_refine_ls_restrained_S_all      1.104
_refine_ls_R_factor_all          0.0638
_refine_ls_R_factor_gt           0.0488
_refine_ls_shift/su_max          0.000
_refine_ls_shift/su_mean         0.000
_refine_ls_structure_factor_coef Fsqd
_refine_ls_weighting_details
'calc w=1/[\s^2^(Fo^2^)+(0.0481P)^2^+0.3527P] where P=(Fo^2^+2Fc^2^)/3'
_refine_ls_weighting_scheme      calc
_refine_ls_wR_factor_gt          0.1130
_refine_ls_wR_factor_ref         0.1237
_reflns_number_gt                3032
_reflns_number_total             3712
_reflns_threshold_expression     >2sigma(I)
_iucr_refine_instructions_details
;
TITL DV2 in P-1
CELL 0.71073   6.6104   9.5196  10.5103  93.6806  98.8292  91.8902
ZERR    2.00   0.0004   0.0007   0.0007   0.0057   0.0042   0.0052
LATT  1
SFAC C H B N F
UNIT 24 24 2 6 8
REM   ------------------------------------------------------------
REM   Data collection: Bruker Nonius APEX II CCD
REM   Absorption correction: SADABS
REM   Crystal habit: prism; Crystal colour: colourless
REM   Mole 1 is the imidazolium cation
REM   Mole 2 is disordered BF4 anion
REM   ------------------------------------------------------------
L.S.  10
ACTA
OMIT     0   0   1
OMIT     0   1   0
CONF
SIZE  0.447 0.418 0.330
BOND  $H
WPDB -2
FMAP  2
PLAN  10
TEMP -153
SIMU  0.01 $B $F
SADI  B1 F1A B1 F2A B1 F3A B1 F4A B1 F1A B1 F2A B1 F3A B1 F4A
SADI  F1A F2A F1A F3A F1A F4A F2A F3A F2A F4A F3A F4A
SADI  F1B F2B F1B F3B F1B F4B F2B F3B F2B F4B F3B F4B
WGHT    0.048100    0.352700
FVAR       2.92418   0.52581
MOLE  1
N1    4    0.629210    0.322380    0.215949    11.00000    0.02252    0.01983 =
         0.02094    0.00344    0.00499   -0.00185
N2    4    0.349582    0.236296    0.096212    11.00000    0.02307    0.02653 =
         0.01684    0.00203    0.00491    0.00030
N3    4    0.208171   -0.001386    0.772121    11.00000    0.03048    0.03903 =
         0.02501    0.00765    0.00941    0.00302
C1    1    0.794644    0.354964    0.325618    11.00000    0.02566    0.02941 =
         0.02680    0.00362    0.00116   -0.00727
AFIX 137
H1A   2    0.799388    0.455979    0.351241    11.00000   -1.50000
H1B   2    0.925940    0.329363    0.300253    11.00000   -1.50000
H1C   2    0.768775    0.301249    0.398395    11.00000   -1.50000
AFIX   0
C2    1    0.448491    0.253716    0.218332    11.00000    0.02001    0.01702 =
         0.01826    0.00144    0.00423    0.00124
C3    1    0.143203    0.171801    0.053709    11.00000    0.02514    0.05691 =
         0.02041    0.00122    0.00041   -0.00789
AFIX 137
H3A   2    0.154015    0.075346    0.017566    11.00000   -1.50000
H3B   2    0.068814    0.227113   -0.012357    11.00000   -1.50000
H3C   2    0.069168    0.169940    0.127576    11.00000   -1.50000
AFIX   0
C4    1    0.470071    0.295379    0.015273    11.00000    0.03240    0.03277 =
         0.02032    0.00591    0.00935    0.00051
AFIX  43
H4    2    0.436617    0.298036   -0.075708    11.00000   -1.20000
AFIX   0
C5    1    0.644396    0.348680    0.089713    11.00000    0.03003    0.02770 =
         0.02441    0.00670    0.01015   -0.00186
AFIX  43
H5    2    0.756275    0.395413    0.060732    11.00000   -1.20000
AFIX   0
C6    1    0.374272    0.203332    0.333519    11.00000    0.01741    0.02032 =
         0.01674    0.00188    0.00360    0.00051
C7    1    0.374690    0.296012    0.443073    11.00000    0.03140    0.02058 =
         0.02171   -0.00109    0.00747   -0.00182
AFIX  43
H7    2    0.411501    0.392989    0.440546    11.00000   -1.20000
AFIX   0
C8    1    0.321189    0.245716    0.555215    11.00000    0.03145    0.02718 =
         0.01926   -0.00138    0.00776    0.00216
AFIX  43
H8    2    0.323083    0.307760    0.629923    11.00000   -1.20000
AFIX   0
C9    1    0.264607    0.103239    0.557246    11.00000    0.01651    0.02936 =
         0.01883    0.00529    0.00448    0.00256
C10   1    0.254970    0.011476    0.446509    11.00000    0.01609    0.02213 =
         0.02169    0.00439    0.00219   -0.00064
AFIX  43
H10   2    0.211056   -0.084394    0.447722    11.00000   -1.20000
AFIX   0
C11   1    0.310346    0.062055    0.334625    11.00000    0.01588    0.02129 =
         0.01772    0.00049    0.00168    0.00025
AFIX  43
H11   2    0.304653    0.000575    0.259182    11.00000   -1.20000
AFIX   0
C12   1    0.228930    0.047115    0.677184    11.00000    0.01950    0.03179 =
         0.02283    0.00396    0.00554    0.00271
MOLE  2
B1    3    0.840221    0.365801   -0.241677    11.00000    0.04877    0.02319 =
         0.01885    0.00296    0.00262   -0.00130
PART   1
F1A   5    0.755851    0.240223   -0.195225    21.00000    0.03547    0.02120 =
         0.02923    0.00567    0.01101   -0.00856
F2A   5    0.878492    0.339454   -0.361803    21.00000    0.08016    0.06311 =
         0.04119   -0.00324    0.04018   -0.01753
F3A   5    0.659912    0.452369   -0.250853    21.00000    0.09966    0.04062 =
         0.08846    0.00276    0.00921    0.03711
F4A   5    0.979546    0.426504   -0.152091    21.00000    0.09724    0.09134 =
         0.04027    0.02085   -0.02968   -0.07234
PART   2
F1B   5    0.754394    0.256130   -0.206594   -21.00000    0.07544    0.04501 =
         0.04250    0.01297    0.01419   -0.02037
F2B   5    0.831354    0.369109   -0.374147   -21.00000    0.07631    0.09018 =
         0.01827    0.01187   -0.00995   -0.03447
F3B   5    0.800380    0.492948   -0.191670   -21.00000    0.09259    0.03209 =
         0.08626    0.00249    0.04714    0.02110
F4B   5    1.068432    0.358330   -0.201435   -21.00000    0.03123    0.05599 =
         0.04760    0.02517    0.00102    0.00026
PART   0
MOLE  0
HKLF  4
 
REM  DV2 in P-1
REM R1 =  0.0488 for   3032 Fo > 4sig(Fo)  and  0.0638 for all   3712 data
REM    220 parameters refined using    114 restraints
 
END  
     
WGHT      0.0481      0.3524 
REM Highest difference peak  0.419,  deepest hole -0.254,  1-sigma level  0.045
Q1    1   0.4120  0.2259  0.2780  11.00000  0.05    0.42
Q2    1   0.2929  0.0464  0.3932  11.00000  0.05    0.33
Q3    1   1.0055  0.3090 -0.2625  11.00000  0.05    0.32
Q4    1   0.4022  0.2432  0.3954  11.00000  0.05    0.31
Q5    1   0.2489  0.0588  0.5015  11.00000  0.05    0.29
Q6    1   0.3570  0.2693  0.4963  11.00000  0.05    0.28
Q7    1   0.6371  0.3452  0.1519  11.00000  0.05    0.27
Q8    1   0.2500  0.1781  0.5469  11.00000  0.05    0.27
Q9    1   0.3443  0.1360  0.3403  11.00000  0.05    0.27
Q10   1   0.7433  0.3898  0.3932  11.00000  0.05    0.26
;
_cod_data_source_file            ja6b03366_si_002.cif
_cod_data_source_block           dv2
_cod_depositor_comments
'Adding full bibliography for 4125103--4125106.cif.'
_cod_original_cell_volume        651.59(8)
_cod_database_code               4125104
_publcif_datablock.id            {aa784495-d49f-41e5-ba4f-94edb33716e6}
_iucr_refine_reflections_details
;
  -3   0   0 695.266  12.143   1
  -3   0   0 717.735  19.784   3
  -3   0   0 710.440  12.535   1
  -3   0   0 703.510  12.068   5
   3   0   0 697.995  12.052   1
   3   0   0 701.231  12.007   5
   3   0   0 701.330  12.292   1
  -4   0   0 116.565   9.900   3
  -4   0   0 116.867   5.267   1
  -4   0   0 124.685   5.694   1
   4   0   0 129.568   5.633   1
   4   0   0 117.293   5.250   5
  -5   0   0 506.913  12.353   1
  -5   0   0 519.637  22.712   3
   5   0   0 504.507  11.668   5
   5   0   0 499.785  11.937   1
  -6   0   0 39.0298 11.0181   3
  -6   0   0 18.3859  3.5745   1
   6   0   0 10.2240  2.5153   5
  -7   0   0 617.758  29.456   3
  -8   0   0 196.314  20.065   3
  -9   0   0 16.6835 13.8028   3
  -9   1   0 85.2128 17.4320   3
  -8   1   0  0.7532 11.8819   3
  -7   1   0 351.503  12.887   1
  -7   1   0 381.296  24.721   3
   6  -1   0 1367.16   23.11   5
  -6   1   0 1345.93   39.55   3
  -6   1   0 1369.32   26.55   1
   5  -1   0 78.9698  6.0765   1
   5  -1   0 66.6601  5.0686   5
  -5   1   0 69.6095  4.9307   5
  -5   1   0 77.5800  5.9188   1
  -5   1   0 61.4735 10.2280   3
  -5   1   0 70.2227  6.2883   1
   4  -1   0 5400.49   62.22   1
   4  -1   0 5417.06   58.04   5
  -4   1   0 5469.76   62.86   1
  -4   1   0 5520.49   58.36   5
  -4   1   0 5359.65   61.60   1
  -4   1   0 5425.96   76.72   3
   3  -1   0 3524.61   39.40   5
   3  -1   0 3490.83   42.73   1
  -3   1   0 3560.32   52.11   3
  -3   1   0 3573.34   42.50   1
  -3   1   0 3550.79   43.20   1
  -3   1   0 3558.16   39.62   5
   1  -1   0 -10.557   6.270   4
   1  -1   0 -8.3733  2.5302   5
  -1   1   0 0.26802 2.60095   5
  -1   1   0 -8.8512  2.3347   1
   0   1   0 86.7759  5.6483   1
  -1  -1   0 955.145  15.851   3
  -1  -1   0 961.483  15.222   2
   1   1   0 919.565  15.399   3
   1   1   0 932.325  14.870   2
  -2  -1   0 17.7060  4.8715   2
  -2  -1   0 10.2970  3.9446   3
   2   1   0 14.9196  4.3269   3
   2   1   0 21.6380  2.5222   5
   2   1   0 17.4833  3.9379   2
  -3  -1   0 5008.04   67.24   3
  -4  -1   0 496.658  19.798   3
   4   1   0 511.539  11.065   5
  -5  -1   0 186.269  15.633   3
   5   1   0 200.757   7.210   5
  -6  -1   0 11.6194  9.4091   3
  -7  -1   0 -2.7179 10.7592   3
  -8  -1   0 76.6776 13.1440   3
  -9  -1   0 -17.962  14.583   3
  -9   2   0 89.5177 17.6689   3
  -8   2   0 -1.4257  8.7699   3
  -7   2   0  7.0685 10.8476   3
  -7   2   0 1.23579 4.92188   1
  -6   2   0 66.9180  7.2743   1
  -6   2   0 74.1969 12.0467   3
   5  -2   0 814.208  17.850   5
   5  -2   0 797.311  20.243   1
  -5   2   0 773.630  27.957   3
  -5   2   0 786.460  19.658   1
  -5   2   0 785.312  20.597   1
   4  -2   0 3256.47   41.36   5
   4  -2   0 3350.89   46.20   1
  -4   2   0 3268.02   45.12   1
  -4   2   0 3184.12   54.57   3
  -4   2   0 3298.37   46.16   1
   3  -2   0 3014.88   41.41   1
   3  -2   0 3056.61   37.70   5
  -3   2   0 3129.27   48.39   3
  -3   2   0 2955.80   41.03   1
  -3   2   0 3081.13   37.67   5
  -3   2   0 2957.70   40.56   1
   2  -2   0 3667.80   46.95   4
   2  -2   0 3580.73   44.22   2
   2  -2   0 3557.39   44.28   1
   2  -2   0 3592.45   41.15   5
  -2   2   0 3621.60   44.19   1
  -2   2   0 3643.01   41.18   5
  -2   2   0 3627.97   44.67   1
  -2   2   0 3650.35   47.68   4
  -2  -2   0 5372.85   66.26   3
  -2  -2   0 5399.94   64.53   2
   2   2   0 5468.75   64.22   2
  -3  -2   0 74.3006  7.6949   2
  -3  -2   0 74.4586  8.3155   3
  -4  -2   0 4469.12   67.07   2
  -4  -2   0 4528.89   69.05   3
   4   2   0 4590.64   50.28   5
  -5  -2   0 1119.37   33.59   3
   5   2   0 1134.65   19.33   5
  -6  -2   0 448.085  23.678   3
  -7  -2   0 168.631  18.566   3
  -8  -2   0 62.6795 14.7425   3
  -8   3   0 103.430  15.384   3
  -8   3   0 104.538  10.087   1
  -7   3   0 1534.91   35.28   1
  -7   3   0 1541.26   47.51   3
   6  -3   0 130.376  10.060   1
  -6   3   0 114.914  15.061   3
  -6   3   0 106.487   9.787   1
   5  -3   0 2943.66   47.61   1
  -5   3   0 3003.94   58.39   3
  -5   3   0 2899.69   47.61   1
   4  -3   0 391.078  14.914   1
  -4   3   0 402.726  18.727   3
  -4   3   0 394.829  15.268   1
   3  -3   0 8344.08   93.43   1
  -3   3   0 8213.66   99.06   4
  -3   3   0 8323.63   93.61   1
   2  -3   0 640.886  16.293   1
  -2   3   0 634.086  16.278   1
  -2   3   0 656.117  17.607   4
  -2   3   0 618.040  15.982   1
   1  -3   0 1469.38   24.85   1
   1  -3   0 1456.03   25.15   4
   1  -3   0 1422.49   24.01   1
  -1   3   0 1426.99   23.87   1
  -1   3   0 1486.34   25.73   4
  -1   3   0 1437.98   22.80   5
  -1   3   0 1416.86   24.42   1
  -1  -3   0 64.4220  5.3919   4
  -1  -3   0 56.2529  4.3547   2
  -1  -3   0 56.6830  4.1522   1
  -1  -3   0 54.1357  3.8535   1
   1   3   0 63.3905  3.9940   1
   1   3   0 65.4296  6.4171   4
   1   3   0 55.9873  3.9423   1
   1   3   0 52.8817  4.0010   2
  -3  -3   0 4420.74   64.30   3
  -3  -3   0 4407.38   62.03   2
   3   3   0 4560.64   62.62   4
  -4  -3   0 83.9379  8.9630   2
  -4  -3   0 68.3602  9.0396   3
   4   3   0 78.5610  5.6105   5
  -5  -3   0 486.093  22.100   3
   5   3   0 516.111  13.427   5
  -6  -3   0 23.1967  8.7582   3
  -7  -3   0 -1.9701 10.8967   3
  -8  -3   0 126.094  17.292   3
   8   3   0 129.992  14.197   4
  -8   4   0 2.23411 6.53277   1
  -8   4   0 2.84512 8.40685   3
  -7   4   0  9.8981 11.1857   3
   6  -4   0 386.592  17.636   1
  -6   4   0 382.644  22.173   3
  -6   4   0 377.908  17.864   1
   5  -4   0 1984.70   39.60   1
  -5   4   0 1852.66   38.63   1
  -5   4   0 1865.16   46.13   3
   4  -4   0 1459.35   32.08   1
  -4   4   0 1460.40   34.35   4
  -4   4   0 1420.56   32.11   1
   3  -4   0 424.012  16.131   1
  -3   4   0 424.531  16.265   1
  -3   4   0 425.302  17.029   4
   2  -4   0 3526.75   49.75   1
  -2   4   0 3482.40   52.25   4
  -2   4   0 3531.36   49.90   1
   1  -4   0 3946.85   52.20   1
  -1   4   0 3966.73   51.99   1
  -1   4   0 3888.00   54.53   4
   0  -4   0 5310.90   62.47   1
   0  -4   0 5322.09   61.92   1
   0   4   0 5284.74   67.15   4
   0   4   0 5234.74   61.88   1
  -2  -4   0 1030.40   17.29   1
  -2  -4   0 1007.26   17.35   1
  -2  -4   0 998.351  21.594   2
   2   4   0 1016.85   24.49   4
   2   4   0 1019.28   17.13   1
  -3  -4   0 3014.21   48.10   2
  -3  -4   0 3022.47   33.10   1
  -3  -4   0 2799.71   32.50   1
   3   4   0 3098.82   32.90   1
   3   4   0 2970.19   48.91   4
  -4  -4   0 282.289  15.880   2
   4   4   0 301.450  15.370   4
  -5  -4   0 1512.08   38.80   2
  -5  -4   0 1557.55   42.12   3
   5   4   0 1569.36   37.68   4
   5   4   0 1595.74   27.83   5
  -6  -4   0 22.3421  9.5138   3
   6   4   0 0.70633 6.35941   4
  -7  -4   0 132.632  17.054   3
   7   4   0 155.344  13.615   4
  -8  -4   0 -2.3164 12.2713   3
   8   4   0 4.81939 7.83566   4
  -8   5   0 204.543  22.139   3
  -8   5   0 149.706  14.438   1
  -7   5   0 75.5201 10.8589   1
  -7   5   0 63.0976 14.7336   3
   6  -5   0 5.86442 5.96302   1
  -6   5   0 15.6947  8.7177   3
  -6   5   0 9.79948 5.98211   1
   5  -5   0 48.5395  7.5071   1
  -5   5   0 54.4734  9.0706   1
  -5   5   0 46.4085 10.9232   3
   4  -5   0 65.6575  9.7028   1
  -4   5   0 59.0784 10.5136   4
  -4   5   0 43.8998  9.2560   1
   3  -5   0 -1.2997  6.9027   1
  -3   5   0 -1.4483  7.1888   1
   2  -5   0 3860.67   57.27   1
  -2   5   0 4010.79   58.00   1
  -2   5   0 3942.64   60.13   4
   1  -5   0 9989.91  111.58   1
  -1   5   0 9999.99  111.19   1
   0  -5   0 39.0439  3.4376   2
   0  -5   0 38.3954  6.4341   1
   0   5   0 36.1110  6.3471   4
   0   5   0 46.7142  6.1442   1
  -1  -5   0 517.732  14.993   1
  -1  -5   0 503.350  13.049   2
  -1  -5   0 518.067  14.316   1
   1   5   0 515.803  17.898   4
   1   5   0 515.199  14.569   1
  -2  -5   0 852.635  17.780   1
  -2  -5   0 817.837  20.035   2
  -2  -5   0 858.231  17.564   1
   2   5   0 847.313  17.483   1
   2   5   0 859.393  24.044   4
  -3  -5   0 326.778  15.016   2
  -3  -5   0 348.482   9.671   1
   3   5   0 326.672  16.401   4
   3   5   0 356.562   9.454   1
  -4  -5   0 142.300  12.186   2
   4   5   0 151.783  11.698   4
  -5  -5   0 1594.54   40.99   2
   5   5   0 1592.46   39.78   4
   6   5   0 11.0464  5.8918   4
   7   5   0 247.912  17.708   4
   8   5   0 290.018  20.395   4
  -8   6   0 50.2433 11.2230   1
  -8   6   0 33.5652 14.4700   3
  -7   6   0 274.164  18.772   1
  -7   6   0 287.122  23.852   3
   6  -6   0 101.976  12.068   1
  -6   6   0 83.0718 12.5598   1
  -6   6   0 94.4870 14.6540   3
   5  -6   0 288.704  17.565   1
  -5   6   0 261.315  17.854   4
  -5   6   0 268.717  16.774   1
   4  -6   0 36.3379  9.6165   1
  -4   6   0 38.5224 10.3611   4
  -4   6   0 31.6023  9.4239   1
   3  -6   0 956.185  28.128   1
  -3   6   0 944.675  29.353   4
  -3   6   0 928.222  27.907   1
   2  -6   0 504.076  19.173   1
  -2   6   0 516.341  21.176   4
  -2   6   0 507.501  19.189   1
   1  -6   0 1910.07   37.11   1
  -1   6   0 2002.16   37.63   1
  -1   6   0 1940.87   39.96   4
   0  -6   0 113.359   9.466   1
   0  -6   0 114.817   5.616   2
   0   6   0 119.263   9.428   1
   0   6   0 110.645   9.987   4
  -1  -6   0 239.094  11.525   1
  -1  -6   0 237.898   9.365   2
   1   6   0 238.255  13.642   4
   1   6   0 248.829  11.425   1
  -2  -6   0 189.024   9.119   1
  -2  -6   0 195.615  10.501   2
  -2  -6   0 174.976   9.691   1
   2   6   0 193.725  14.007   4
   2   6   0 175.388   9.214   1
  -3  -6   0 1028.89   20.36   1
  -3  -6   0 1017.33   26.56   2
  -3  -6   0 1006.65   19.65   1
   3   6   0 1044.19   19.94   1
   3   6   0 1063.00   30.80   4
  -4  -6   0 3363.73   59.13   2
   4   6   0 3381.29   61.96   4
  -5  -6   0 223.345  16.009   2
   5   6   0 220.735  16.085   4
   6   6   0 19.3139  7.6158   4
   7   6   0 40.9676  9.2111   4
   8   6   0 104.741  14.289   4
  -8   7   0 73.0732 12.3976   1
  -7   7   0 8.72537 7.83024   1
  -7   7   0 -24.412  13.831   3
   6  -7   0 46.9535 11.2378   1
  -6   7   0 66.5879 12.3968   1
   5  -7   0 97.4113 11.4456   1
  -5   7   0 61.9074 10.2799   1
  -5   7   0 83.5636 13.1947   4
   4  -7   0 1.43629 6.16886   1
  -4   7   0 -1.3265  6.1217   1
  -4   7   0 16.0909  7.3491   4
   3  -7   0 884.024  28.876   1
  -3   7   0 842.939  28.027   1
  -3   7   0 867.740  29.960   4
   2  -7   0 3501.62   60.47   1
  -2   7   0 3457.02   59.41   1
  -2   7   0 3482.57   62.35   4
   1  -7   0 313.214  15.699   1
   1  -7   0 314.941   8.761   2
  -1   7   0 304.304  15.279   1
  -1   7   0 316.143  16.857   4
   0  -7   0 1083.04   19.01   2
   0  -7   0 1077.51   28.16   1
   0   7   0 1075.97   30.94   4
   0   7   0 1087.12   27.78   1
  -1  -7   0 61.2528  8.1819   1
  -1  -7   0 74.3401  6.1149   2
   1   7   0 67.5083  8.0332   1
  -2  -7   0 55.1953  7.0412   2
  -2  -7   0 43.6073  6.8196   1
   2   7   0 41.0182  8.5495   4
   2   7   0 44.3488  6.2879   1
  -3  -7   0 535.185  19.720   2
  -3  -7   0 545.147  16.067   1
   3   7   0 539.535  15.378   1
   3   7   0 567.914  23.851   4
  -4  -7   0 1274.34   34.05   2
  -4  -7   0 1342.40   22.59   1
   4   7   0 1343.41   37.92   4
   5   7   0 112.131  13.986   4
   6   7   0 120.059  14.078   4
   7   7   0 298.489  21.446   4
  -7   8   0 41.0737 12.8257   3
   6  -8   0 1.67067 9.01058   1
  -6   8   0 6.67514 9.87493   1
  -6   8   0 15.8846 11.2281   4
   5  -8   0 -10.671  10.552   1
  -5   8   0 -8.8892 10.6025   1
  -5   8   0  3.1243 10.2173   4
   4  -8   0 69.3440 12.5129   1
  -4   8   0 49.0364 11.2053   4
   3  -8   0 454.989  22.062   1
  -3   8   0 452.541  23.408   4
  -3   8   0 455.290  21.511   1
   2  -8   0 561.365  23.737   1
  -2   8   0 596.822  24.015   1
  -2   8   0 563.611  24.355   4
   1  -8   0 1752.73   40.78   1
   1  -8   0 1721.81   24.56   2
  -1   8   0 1746.39   40.13   1
  -1   8   0 1713.27   43.06   4
   0  -8   0 693.167  14.879   2
   0  -8   0 715.705  24.289   1
   0   8   0 676.431  23.034   1
   0   8   0 682.538  27.157   4
  -1  -8   0 369.412  12.430   2
  -1  -8   0 383.339  17.418   1
   1   8   0 371.688  16.539   1
   1   8   0 384.876  20.735   4
  -2  -8   0 1060.93   26.94   1
  -2  -8   0 1046.50   25.07   2
   2   8   0 1032.76   25.77   1
   2   8   0 1047.96   33.64   4
  -3  -8   0 495.605  17.016   1
  -3  -8   0 499.937  19.375   2
   3   8   0 488.517  24.066   4
  -4  -8   0 1368.50   36.38   2
  -4  -8   0 1356.48   25.60   1
   4   8   0 1364.10   41.24   4
   6   8   0 105.137  14.893   4
   7   8   0 -13.286   9.497   4
  -7   9   0 73.7579 17.0398   3
   6  -9   0 137.835  16.728   1
  -6   9   0 126.342  17.300   1
  -6   9   0 151.659  18.739   4
   5  -9   0 186.629  17.825   1
  -5   9   0 184.994  17.793   1
  -5   9   0 151.293  17.916   4
   4  -9   0 6.53434 7.62176   1
  -4   9   0 11.7639 10.6622   4
  -4   9   0 2.65522 7.38577   1
   3  -9   0 586.919  27.035   1
  -3   9   0 617.615  28.599   4
  -3   9   0 638.892  28.139   1
   2  -9   0 309.509  19.690   1
  -2   9   0 325.245  21.472   4
  -2   9   0 346.735  20.133   1
   1  -9   0 711.500  27.257   1
  -1   9   0 665.355  28.444   4
  -1   9   0 669.987  25.963   1
   0  -9   0 358.859  18.900   1
   0   9   0 363.721  21.872   4
   0   9   0 359.788  18.405   1
  -1  -9   0 256.529  15.856   1
   1   9   0 265.389  14.964   1
   1   9   0 216.555  16.673   4
  -2  -9   0 24.0672  5.2996   2
   2   9   0 12.5976  9.3273   4
  -3  -9   0 89.8191  9.2935   2
  -3  -9   0 72.3046  8.2036   1
   3   9   0 56.2451 12.9410   4
  -4  -9   0 209.819  14.484   2
  -4  -9   0 203.842  10.394   1
   4   9   0 199.135  17.176   4
   5   9   0 -8.0879  9.6558   4
   6   9   0 15.3552  9.5289   4
   6 -10   0 50.0336 12.1647   1
  -6  10   0 50.2286 11.9840   4
  -6  10   0 55.3389 13.6298   1
   5 -10   0 93.7452 14.9487   1
  -5  10   0 71.2273 14.8344   4
  -5  10   0 82.8459 15.4194   1
  -4  10   0 -20.122  11.251   1
   3 -10   0 286.676  21.656   1
  -3  10   0 272.357  21.355   4
  -3  10   0 256.068  20.031   1
   2 -10   0 149.061  15.491   1
  -2  10   0 158.701  17.350   4
  -2  10   0 155.059  15.236   1
   1 -10   0 7.36659 9.04755   1
  -1  10   0 2.73019 8.14778   1
  -1  10   0 19.1088  8.6785   4
   0 -10   0 311.975  19.434   1
   0  10   0 278.478  17.856   1
   0  10   0 310.909  21.736   4
  -1 -10   0 37.8428  9.2028   1
   1  10   0 11.2974 11.6386   4
   1  10   0 29.1233  7.9455   1
  -2 -10   0 9.97380 7.57151   1
   2  10   0 17.8090  9.0058   4
  -3 -10   0 88.3922  9.8650   1
   3  10   0 99.6840 15.0528   4
   4  10   0 18.9545  9.1028   4
   5  10   0 45.6064 12.1029   4
   5 -11   0 9.05316 8.92406   1
  -5  11   0 -21.470   9.917   1
   4 -11   0  1.9658 11.2668   1
  -4  11   0 13.1393 12.9273   4
  -4  11   0 -7.5221 11.3767   1
   3 -11   0 122.560  16.767   1
  -3  11   0 134.890  17.761   4
  -3  11   0 105.001  15.797   1
   2 -11   0 79.1020 12.0788   1
  -2  11   0 67.4088 14.2479   4
  -2  11   0 84.3811 11.8969   1
   1 -11   0 304.197  21.246   1
  -1  11   0 280.717  22.312   4
  -1  11   0 302.893  20.124   1
   0 -11   0 48.4613 10.6355   1
   0  11   0 34.7860 13.0426   4
   0  11   0 26.1940  8.3316   1
  -1 -11   0 21.5973  9.6602   1
   1  11   0 4.54305 8.35993   4
  -2 -11   0 -5.0925  7.3768   1
   2  11   0  7.6445 11.5885   4
  -3 -11   0 198.887  14.087   1
   3  11   0 220.917  21.078   4
   4  11   0 64.9600 13.9859   4
   4 -12   0 -7.9370 12.2850   1
  -4  12   0 -9.1380 11.8752   1
  -4  12   0 -4.5128 12.8093   4
   3 -12   0 34.5156 13.2606   1
  -3  12   0 22.0162 10.3415   4
  -2  12   0 13.1292  9.4394   1
   1 -12   0 32.4782  9.5603   1
  -1  12   0  7.1251 12.4631   4
   0 -12   0 92.0460 13.5499   1
   0  12   0 78.3938 13.8196   4
  -1 -12   0 50.5295  9.7821   1
  -2 -12   0 77.5783 11.9845   1
   2  12   0 87.5441 16.9537   4
   3  12   0 26.6529 13.0489   4
  -2  13   0 13.2334 11.0647   1
   1 -13   0 31.6480 12.2706   1
  -1  13   0 44.5299 15.6777   4
  -1  13   0 31.8142 11.0964   1
   0 -13   0 14.5169 10.8800   1
   0  13   0 13.6533 12.5718   4
  -1 -13   0 14.8412  9.8670   1
   1  13   0  1.1189 11.6362   4
   1  13  -1 87.2534 16.7189   4
  -1 -13   1 82.4338 13.7654   1
   0  13  -1 13.0941 13.5896   4
   0 -13   1 -7.5198 10.9040   1
  -1  13  -1 69.0235 13.1581   1
  -1  13  -1 66.2727 15.8445   4
   1 -13   1 71.5061 14.9853   1
  -2  13  -1 21.9965 11.8743   1
   2 -13   1 50.2960 13.8662   1
   3  12  -1 146.053  17.005   4
  -3 -12   1 155.050  13.648   1
   2  12  -1 30.0256 12.8475   4
   1  12  -1 -10.323   9.013   4
  -1 -12   1 -14.471   9.775   1
   0  12  -1 -6.8912 12.2288   4
   0 -12   1 27.3766 10.9382   1
  -1  12  -1 10.4127 13.1418   4
  -1  12  -1 -9.4101  9.0821   1
   1 -12   1  6.9783 10.3475   1
  -2  12  -1 48.2292 12.1445   1
  -2  12  -1 27.3993 13.9138   4
   2 -12   1 58.7532 13.4524   1
  -3  12  -1 -0.6661 10.1743   1
   3 -12   1 20.4459 11.5463   1
  -4  12  -1 -2.4116 11.4147   1
  -4  12  -1  6.9270 12.1460   4
   4 -12   1  7.0750 12.0261   1
   5  11  -1 10.9980 11.1044   4
   4  11  -1 44.7531 13.0871   4
   3  11  -1 69.0752 14.4863   4
  -3 -11   1 64.8080  9.0057   1
   2  11  -1 16.4983 11.3941   4
  -2 -11   1 -6.8888  6.5949   1
   1  11  -1 106.002  15.652   4
  -1 -11   1 93.9935 12.9126   1
   0  11  -1 88.8354 12.1768   1
   0  11  -1 79.2281 15.5241   4
   0 -11   1 67.9001 11.8774   1
  -1  11  -1 2.04003 8.19812   1
  -2  11  -1 61.4654 12.8043   1
  -2  11  -1 77.6471 15.3018   4
   2 -11   1 72.0622 13.4176   1
  -3  11  -1 40.0515 13.2694   4
  -3  11  -1 23.1920  8.9707   1
   3 -11   1 24.0100  9.1532   1
  -4  11  -1  0.6832 10.9297   4
  -4  11  -1 -10.907   8.472   1
   4 -11   1 36.2619 11.8413   1
  -5  11  -1 17.3687 12.3724   1
   5  10  -1 24.5672 11.0787   4
   4  10  -1 51.6393 12.5962   4
   3  10  -1 145.084  16.808   4
  -3 -10   1 123.733  10.806   1
   2  10  -1 72.5225 13.3949   4
  -2 -10   1 85.0652  9.5145   1
   1  10  -1 -5.2840  6.8862   1
   1  10  -1 -4.2563 10.4815   4
  -1 -10   1 5.08618 7.79445   1
   0  10  -1 -3.0242 10.6903   4
   0  10  -1 -5.2928  7.5703   1
  -1  10  -1 2.53048 9.65306   4
  -1  10  -1 -7.1824  8.1682   1
   1 -10   1 9.41582 8.57149   1
  -2  10  -1 12.9746 11.0664   4
  -2  10  -1 15.4849  9.6814   1
   2 -10   1 -1.4460  9.8428   1
  -3  10  -1 32.4465 10.9899   1
  -3  10  -1 54.1469 11.3715   4
   3 -10   1 63.5418 12.3682   1
  -4  10  -1 -8.5649 10.6747   1
  -4  10  -1 -15.627  11.134   4
   4 -10   1 -0.5566  9.1226   1
  -5  10  -1 -4.3842 12.0827   1
   5 -10   1 -9.7038 11.5492   1
  -6  10  -1 -11.378  10.737   4
   6 -10   1 32.9595 12.7218   1
   6   9  -1 -6.3566  9.9923   4
   5   9  -1 432.042  25.205   4
  -5  -9   1 420.774  22.825   2
   4   9  -1 33.5857 11.0254   4
  -4  -9   1 17.1279  4.9174   1
  -4  -9   1 19.4230  7.2657   2
   3   9  -1 3.19769 9.91810   4
  -3  -9   1 14.6967  5.9767   1
   2   9  -1 506.734  24.924   4
   2   9  -1 489.847  18.984   1
  -2  -9   1 502.157  18.166   2
  -2  -9   1 516.693  20.032   1
   1   9  -1 529.564  21.033   1
   1   9  -1 497.119  24.830   4
  -1  -9   1 478.095  15.880   2
  -1  -9   1 502.493  21.444   1
   0   9  -1 552.953  25.539   4
   0   9  -1 581.846  23.502   1
   0  -9   1 537.765  23.219   1
  -1   9  -1 -6.1388  8.4706   1
  -1   9  -1 1.34418 9.56420   4
   1  -9   1 3.95319 8.55010   1
  -2   9  -1 127.767  15.028   4
  -2   9  -1 144.350  14.540   1
   2  -9   1 135.860  14.801   1
  -3   9  -1 174.792  17.449   4
  -3   9  -1 217.217  17.860   1
   3  -9   1 221.652  18.080   1
  -4   9  -1 53.3910 12.1714   1
  -4   9  -1 42.7705 11.8790   4
   4  -9   1 71.1443 13.3958   1
  -5   9  -1 28.3159  9.5984   4
   5  -9   1 10.1971  9.6449   1
  -6   9  -1 133.814  17.936   4
  -6   9  -1 129.306  15.141   1
   6  -9   1 145.642  15.569   1
   6   8  -1 -3.2172  8.1345   4
   5   8  -1 -1.9180  6.4543   4
   4   8  -1 611.609  26.728   4
  -4  -8   1 596.827  15.835   1
  -4  -8   1 573.825  23.158   2
   3   8  -1 69.0376 12.0905   4
  -3  -8   1 100.062   9.268   2
  -3  -8   1 96.8492  8.1129   1
   2   8  -1 21.0189  9.6220   4
   2   8  -1 32.9501  6.4095   1
  -2  -8   1 25.3852  6.2349   2
  -2  -8   1 29.6399  7.0342   1
   1   8  -1 341.519  16.151   1
   1   8  -1 347.105  18.978   4
  -1  -8   1 347.725  16.755   1
  -1  -8   1 362.832  13.598   2
   0   8  -1 23.4024  7.5977   1
   0   8  -1 7.58130 9.81129   4
   0  -8   1 13.2610  3.8758   2
   0  -8   1 31.1191  9.0227   1
  -1   8  -1 27.3757  8.3308   4
   1  -8   1 5.52241 9.01321   1
  -2   8  -1 38.2741  8.0052   1
   2  -8   1 59.2246  9.1149   1
  -3   8  -1 26.8628 10.6101   4
  -3   8  -1 25.1677  8.0983   1
  -4   8  -1 121.276  14.970   4
  -4   8  -1 154.675  15.419   1
   4  -8   1 132.141  14.278   1
  -5   8  -1 119.115  13.319   1
  -5   8  -1 110.410  14.495   4
   5  -8   1 131.848  13.857   1
  -6   8  -1 24.4915  9.2996   1
   6  -8   1 30.4164  9.9750   1
  -7   8  -1 50.4649 15.3319   3
   7   7  -1 -5.7167  8.7578   4
   6   7  -1 718.002  29.515   4
  -6  -7   1 761.461  31.687   2
   5   7  -1 144.001  13.807   4
  -5  -7   1 128.949  12.487   2
   4   7  -1 210.107  15.569   4
  -4  -7   1 226.600  15.243   2
  -4  -7   1 225.405   8.204   1
   3   7  -1 45.0063  5.0286   1
  -3  -7   1 45.0358  6.9291   2
  -3  -7   1 40.5601  5.6404   1
   2   7  -1 1280.07   34.38   4
   2   7  -1 1251.02   26.45   1
  -2  -7   1 1281.57   27.78   1
  -2  -7   1 1276.69   28.35   2
   1   7  -1 59.6428 10.6749   4
   1   7  -1 88.5101  8.6812   1
  -1  -7   1 71.0479  6.7637   2
  -1  -7   1 74.5947  9.0583   1
   0   7  -1 479.255  18.485   1
   0   7  -1 443.225  19.491   4
   0  -7   1 485.007  19.035   1
   0  -7   1 461.132  13.575   2
  -1   7  -1 539.901  22.834   4
  -1   7  -1 574.897  21.454   1
   1  -7   1 556.647  21.526   1
  -2   7  -1 112.649  12.469   1
  -2   7  -1 156.479  14.383   4
   2  -7   1 140.474  13.496   1
  -3   7  -1 434.753  22.142   4
  -3   7  -1 451.672  21.277   1
   3  -7   1 413.784  20.821   1
  -4   7  -1 22.6067  9.9353   4
  -4   7  -1 -2.9349  6.1091   1
  -5   7  -1 55.8008  9.9879   1
  -5   7  -1 64.3745 11.6643   4
   5  -7   1 69.6385 11.2089   1
  -6   7  -1 92.8473 12.0605   1
   6  -7   1 116.668  12.435   1
  -7   7  -1 85.0579 13.7764   1
  -7   7  -1 126.943  18.541   3
   7   6  -1 7.34480 7.72689   4
   6   6  -1 60.8577 10.2638   4
   6   6  -1 58.4993  7.4997   5
  -6  -6   1 75.7926 13.3648   2
   5   6  -1 152.839  13.684   4
  -5  -6   1 188.380  16.091   2
   4   6  -1 123.328  11.840   4
  -4  -6   1 112.499  11.853   2
   3   6  -1 632.008  22.478   4
   3   6  -1 631.339  14.841   1
  -3  -6   1 624.394  15.244   1
  -3  -6   1 680.431  22.027   2
  -3  -6   1 635.778  14.903   1
   2   6  -1 53.2236  5.6597   1
   2   6  -1 63.6637  9.8668   4
  -2  -6   1 51.3090  5.5433   1
  -2  -6   1 55.2481  6.2984   1
  -2  -6   1 49.9823  7.1786   2
   1   6  -1 5307.41   75.11   4
   1   6  -1 5335.24   67.08   1
  -1  -6   1 5102.06   67.06   1
  -1  -6   1 5278.79   65.36   2
   0   6  -1 143.444  10.332   1
   0  -6   1 162.023  11.028   1
   0  -6   1 200.598   8.522   2
  -1   6  -1 209.047  12.796   1
  -1   6  -1 199.359  13.740   4
   1  -6   1 207.117  12.901   1
  -2   6  -1 1526.67   36.37   4
  -2   6  -1 1544.43   34.53   1
   2  -6   1 1494.43   34.26   1
  -3   6  -1 1530.97   38.70   4
  -3   6  -1 1527.29   36.79   1
   3  -6   1 1516.03   36.59   1
  -4   6  -1 107.100  10.620   1
  -4   6  -1 134.732  14.221   4
   4  -6   1 105.671  10.482   1
  -5   6  -1 238.094  16.059   1
  -5   6  -1 225.842  18.029   4
   5  -6   1 208.999  14.900   1
  -6   6  -1 902.115  36.497   3
  -6   6  -1 934.812  32.162   1
   6  -6   1 926.791  31.724   1
  -7   6  -1 29.6897 10.0119   1
  -7   6  -1 34.0760 13.4550   3
  -8   6  -1 105.218  16.898   3
  -8   6  -1 98.7133 13.3487   1
   7   5  -1 94.6041 11.5758   4
   6   5  -1 35.2587  6.2293   5
   6   5  -1 42.2300  9.1927   4
  -6  -5   1 28.9754 10.2999   2
   5   5  -1 631.433  23.854   4
   5   5  -1 603.372  18.584   5
  -5  -5   1 626.315  25.660   2
   4   5  -1 593.701  21.841   4
  -4  -5   1 612.858  23.015   2
   3   5  -1 7.44260 2.35534   1
   3   5  -1 -3.9648  5.5533   4
  -3  -5   1 5.38365 2.51589   1
  -3  -5   1 5.16478 6.27755   2
   2   5  -1 1592.02   25.62   1
   2   5  -1 1640.62   33.66   4
  -2  -5   1 1651.18   26.14   1
  -2  -5   1 1633.06   26.49   1
  -2  -5   1 1661.13   30.87   2
   1   5  -1 4558.93   56.97   1
   1   5  -1 4554.23   63.80   4
  -1  -5   1 4547.53   56.95   2
  -1  -5   1 4752.77   57.42   1
  -1  -5   1 4506.73   57.28   1
   0   5  -1 281.969  11.528   1
   0   5  -1 293.446  13.610   4
   0  -5   1 269.802  11.582   1
  -1   5  -1 266.013  12.529   1
  -1   5  -1 262.668  13.808   4
   1  -5   1 243.654  12.052   1
  -2   5  -1 907.214  25.656   4
  -2   5  -1 907.167  24.019   1
   2  -5   1 923.144  24.340   1
  -3   5  -1 19.6942  8.1759   1
  -3   5  -1 13.5108  8.3299   4
   3  -5   1 32.2380  8.1738   1
  -4   5  -1 1168.18   30.89   1
  -4   5  -1 1202.85   34.17   4
   4  -5   1 1215.70   31.36   1
  -5   5  -1 218.507  14.920   1
  -5   5  -1 194.469  17.196   3
   5  -5   1 217.246  14.554   1
  -6   5  -1 116.241  12.443   1
  -6   5  -1 115.384  15.990   3
   6  -5   1 103.038  11.435   1
  -7   5  -1 835.211  36.840   3
  -7   5  -1 879.745  30.548   1
  -8   5  -1 447.674  22.933   1
  -8   5  -1 413.058  28.498   3
   8   4  -1 159.001  14.556   4
  -8  -4   1 149.946  17.014   3
   7   4  -1 233.870  16.121   4
  -7  -4   1 220.162  20.377   3
   6   4  -1 309.582  17.160   4
   6   4  -1 322.103  12.768   5
  -6  -4   1 334.667  21.755   3
  -6  -4   1 287.340  20.071   2
   5   4  -1 175.471   9.700   5
   5   4  -1 176.280  11.849   4
  -5  -4   1 177.291  14.168   3
  -5  -4   1 164.539  14.281   2
   4   4  -1 1259.52   29.98   4
  -4  -4   1 1318.75   33.05   2
   3   4  -1 54.6165  2.6939   1
   3   4  -1 53.4379  7.3161   4
   3   4  -1 60.6507  2.9431   1
  -3  -4   1 41.7156  7.5483   2
  -3  -4   1 58.0702  3.0582   1
  -3  -4   1 52.9603  3.0146   1
   2   4  -1 6597.65   81.08   4
  -2  -4   1 6588.66   79.27   2
   1   4  -1 4431.50   58.85   4
   1   4  -1 4460.87   52.21   1
  -1  -4   1 4395.52   54.09   2
  -1  -4   1 4450.76   51.93   1
  -1  -4   1 4451.58   52.63   1
   0   4  -1 1870.03   29.97   1
   0   4  -1 1869.52   32.66   4
   0  -4   1 1904.05   30.54   1
   0  -4   1 1821.99   29.45   1
  -2   4  -1 4053.27   55.60   1
  -2   4  -1 3918.11   57.92   4
   2  -4   1 4033.36   55.71   1
  -3   4  -1 232.876  12.441   1
  -3   4  -1 234.189  13.108   4
   3  -4   1 229.812  12.062   1
  -4   4  -1 431.336  19.075   3
  -4   4  -1 416.001  18.300   4
  -4   4  -1 411.467  17.330   1
   4  -4   1 395.031  16.624   1
  -5   4  -1 3.55766 6.85075   1
  -5   4  -1 6.94989 7.29354   3
  -6   4  -1 6.33179 7.30045   1
   6  -4   1 -6.8021  5.8587   1
  -7   4  -1 94.7517 10.9634   1
  -7   4  -1 106.244  15.979   3
  -8   4  -1 28.2775  8.1837   1
   8   3  -1 19.0741  7.5220   4
  -7  -3   1 -5.3713 11.1537   3
   6   3  -1 2170.26   34.40   5
   6   3  -1 2112.01   44.83   4
  -6  -3   1 2112.10   50.47   2
  -6  -3   1 2141.69   52.21   3
   5   3  -1 11.1640  4.2174   5
   5   3  -1 4.18080 5.28308   4
  -5  -3   1 11.5052  8.8866   3
   4   3  -1 1644.12   33.21   4
   4   3  -1 1648.89   27.93   5
  -4  -3   1 1598.88   35.75   2
  -4  -3   1 1656.23   37.15   3
   3   3  -1 224.255  10.260   4
  -3  -3   1 239.273  12.149   2
  -3  -3   1 214.885  11.514   3
   2   3  -1 7.94838 1.63655   1
   2   3  -1 8.29864 1.73795   1
  -2  -3   1 6.96591 1.84065   1
  -1   3  -1 1468.47   26.62   4
  -1   3  -1 1524.34   25.26   1
  -1   3  -1 1503.96   25.52   1
   1  -3   1 1533.44   25.29   1
   1  -3   1 1542.61   25.91   1
   1  -3   1 1486.00   26.23   4
  -2   3  -1 97.2586  7.7392   1
  -2   3  -1 106.506   6.084   5
  -2   3  -1 99.6817  8.2867   4
   2  -3   1 103.058   7.659   1
  -3   3  -1 576.631  19.061   4
  -3   3  -1 579.628  17.206   1
   3  -3   1 572.240  17.046   1
  -4   3  -1 233.472  12.549   1
  -4   3  -1 226.824  15.025   3
   4  -3   1 226.657  12.003   1
  -5   3  -1 1106.44   33.62   3
  -5   3  -1 1139.69   28.01   1
   5  -3   1 1120.80   27.29   1
  -6   3  -1 2561.39   57.93   3
  -6   3  -1 2599.04   47.09   1
   6  -3   1 2589.97   46.33   1
  -7   3  -1 30.4357  7.2433   1
  -7   3  -1 59.0425 13.9485   3
  -8   3  -1 398.243  18.099   1
  -8   3  -1 392.673  26.139   3
  -9  -2   1 373.093  27.603   3
  -8  -2   1 42.8202 13.4960   3
  -7  -2   1 382.357  24.108   3
  -6  -2   1 -19.199   9.626   3
  -5  -2   1 -7.9631  8.9936   3
  -5  -2   1 -16.122   8.703   2
   4   2  -1 39.3701  4.7217   5
  -4  -2   1 55.5968  9.3071   3
  -4  -2   1 32.0546  8.2426   2
   3   2  -1 23.4123  3.9292   5
  -3  -2   1 25.5150  4.9708   2
  -3  -2   1 21.9523  6.0218   3
   2   2  -1 3459.81   45.81   3
   2   2  -1 3379.69   45.19   2
   2   2  -1 3477.52   43.60   4
  -2  -2   1 3459.26   46.35   3
  -2  -2   1 3485.55   46.29   2
   1   2  -1 4624.23   52.53   3
   0   2  -1 476.129  10.393   1
   0   2  -1 484.375  11.265   4
   0   2  -1 472.810  10.210   1
   0  -2   1 479.943  10.244   1
   0  -2   1 462.229  10.290   1
   0  -2   1 481.244  10.941   4
  -2   2  -1 1659.64   22.46   5
  -2   2  -1 1635.39   26.28   1
  -2   2  -1 1647.31   25.89   1
  -2   2  -1 1643.59   29.04   4
   2  -2   1 1659.85   26.40   1
  -3   2  -1 1044.97   21.87   1
  -3   2  -1 1086.03   21.52   1
  -3   2  -1 1065.24   17.50   5
  -3   2  -1 1107.69   26.17   3
   3  -2   1 1052.37   21.71   1
  -4   2  -1 6526.41   67.40   5
  -4   2  -1 6344.63   87.47   3
  -4   2  -1 6348.00   75.49   1
  -4   2  -1 6549.12   77.42   1
   4  -2   1 6481.66   76.57   1
  -5   2  -1 203.186  11.339   1
  -5   2  -1 208.797  14.500   3
   5  -2   1 205.939  10.691   1
  -6   2  -1 1129.37   27.17   1
  -6   2  -1 1103.32   36.84   3
  -7   2  -1 13.3186 10.1552   3
  -7   2  -1 9.49185 5.36767   1
  -8   2  -1 506.398  28.999   3
  -9  -1   1 17.0822 12.5292   3
  -8  -1   1 10.1490 12.4035   3
  -7  -1   1 503.772  26.752   3
   6   1  -1 1247.78   23.33   5
  -6  -1   1 1226.43   38.41   3
   5   1  -1 274.084   9.947   5
  -5  -1   1 246.576  16.470   3
  -5  -1   1 275.198  15.643   2
   4   1  -1 318.014   9.817   5
  -4  -1   1 321.414  14.828   2
  -4  -1   1 309.681  15.406   3
   3   1  -1 53.8721  4.2963   5
  -3  -1   1 44.1171  5.5072   3
  -3  -1   1 37.1241  6.3664   2
   2   1  -1 5923.04   67.92   2
   2   1  -1 5952.05   67.83   3
  -2  -1   1 5989.13   68.72   2
  -2  -1   1 5788.95   67.67   3
   0   1  -1 1866.05   23.25   4
   0   1  -1 1979.10   23.25   1
   0   1  -1 1946.61   24.40   1
   0  -1   1 1704.01   23.33   4
   0  -1   1 1616.21   22.64   1
  -3   1  -1 5.96784 3.30023   1
  -3   1  -1 -0.8404  3.7291   1
  -3   1  -1 -2.7401  5.8567   3
  -3   1  -1 -0.3271  1.7185   5
   3  -1   1 -5.5173  2.7415   1
  -5   1  -1 1093.43   32.81   3
  -5   1  -1 1086.86   22.16   1
  -5   1  -1 1082.24   16.86   5
  -5   1  -1 1118.49   23.18   1
   5  -1   1 1095.86   22.58   1
  -6   1  -1 280.436  19.876   3
  -6   1  -1 277.178  11.784   1
  -7   1  -1 -9.9517 10.8952   3
  -7   1  -1 -2.3885  3.6580   1
  -8   1  -1 75.3600 16.8128   3
  -9   0   1 152.185  19.717   3
  -8   0   1 46.1735 15.2333   3
  -7   0   1 23.4372  8.9534   3
   6   0  -1 161.979   8.189   5
  -6   0   1 142.131   6.417   1
  -6   0   1 146.098  14.759   3
   5   0  -1 143.116   7.528   5
   5   0  -1 144.322   6.124   1
  -5   0   1 145.099   6.445   1
  -5   0   1 164.732  14.317   3
   4   0  -1 319.232   9.903   5
   4   0  -1 304.602   8.388   1
  -4   0   1 312.518   8.684   1
  -4   0   1 316.848  15.505   3
  -4   0   1 315.105  14.330   2
  -4   0   1 304.721   9.658   5
   3   0  -1 2.61500 1.47851   1
  -3   0   1 4.40637 5.11455   3
  -3   0   1 15.9091  5.1827   2
  -3   0   1 5.94490 2.00643   1
   2   0  -1 6093.72   68.83   3
   2   0  -1 5873.18   67.52   2
  -2   0   1 6059.55   69.05   3
   0   0   1 14.5789  1.7248   1
   0   0   1 6.79803 6.14871   1
   0   0   1 22.3221  3.3991   5
  -1   0  -1 3900.84   40.75   1
  -1   0  -1 4054.66   44.67   3
   1   0   1 3978.57   40.73   1
   1   0   1 3962.97   44.14   3
  -3   0  -1 1471.74   29.77   3
  -3   0  -1 1360.15   20.92   1
  -3   0  -1 1378.34   20.64   1
   3   0   1 1408.47   21.02   1
  -4   0  -1 394.383  17.877   3
  -4   0  -1 392.355  10.955   1
  -4   0  -1 375.667  10.372   1
   4   0   1 396.058  10.733   1
  -5   0  -1 181.557   8.031   1
  -5   0  -1 192.259  14.121   3
  -5   0  -1 186.717   7.648   1
   5   0   1 183.467   7.678   1
  -6   0  -1 2180.36   52.37   3
  -6   0  -1 2182.67   32.28   1
  -7   0  -1 93.4760 13.2494   3
  -8   0  -1 187.814  19.894   3
  -9   1   1 27.0918 14.2729   3
  -8   1   1 129.096  17.561   3
  -7   1   1 695.220  18.023   1
  -7   1   1 707.562  31.965   3
   6  -1  -1 459.366  14.037   5
  -6   1   1 435.853  22.272   3
  -6   1   1 459.549  14.232   1
   5  -1  -1 195.445   8.665   1
   5  -1  -1 198.945   8.884   5
  -5   1   1 196.763   9.028   1
  -5   1   1 191.667   8.496   1
  -5   1   1 192.767  15.314   3
   4  -1  -1 353.804  11.120   5
   4  -1  -1 364.895  11.007   1
  -4   1   1 352.897  11.109   1
  -4   1   1 348.668  10.472   1
  -4   1   1 384.719  17.357   3
   3  -1  -1 26.1283  3.6587   5
   3  -1  -1 25.2003  3.6713   1
   3  -1  -1 28.6460  4.0537   4
  -3   1   1 25.4414  3.5310   5
  -3   1   1 31.1991  3.6122   1
  -3   1   1 20.2377  4.9932   3
  -3   1   1 32.4061  4.0822   1
  -3   1   1 23.0594  4.9718   2
   2  -1  -1 1014.97   16.98   4
   2  -1  -1 1016.49   16.52   5
   2  -1  -1 1002.25   17.96   2
   2  -1  -1 992.398  16.114   1
   2  -1  -1 1003.19   16.50   1
  -2   1   1 1030.52   16.57   5
  -2   1   1 999.176  16.395   1
  -2   1   1 1022.65   18.29   2
  -2   1   1 999.546  16.540   1
  -2   1   1 1007.38   17.17   4
  -2  -1  -1 1596.56   27.81   3
  -2  -1  -1 1628.48   19.56   1
   2   1   1 1577.74   19.34   1
   2   1   1 1532.82   26.80   3
   2   1   1 1586.39   19.23   1
   2   1   1 1572.46   26.20   2
  -4  -1  -1 15.1707  2.5407   1
  -4  -1  -1 26.3059  8.4305   3
   4   1   1 18.1617  2.4082   1
  -5  -1  -1 12.9276  2.5367   1
   5   1   1 13.8767  2.2892   1
  -6  -1  -1 410.317  22.739   3
  -7  -1  -1 -14.136  11.294   3
  -8  -1  -1 43.5704 11.6693   3
  -9   2   1  0.0781 12.3967   3
  -8   2   1 80.1185 13.6781   3
  -7   2   1 42.3499  6.3294   1
   6  -2  -1 2.33803 3.69147   5
   6  -2  -1 2.73829 3.78260   1
  -6   2   1 6.27050 4.60704   1
  -6   2   1 -0.2872  6.4722   3
   5  -2  -1 369.832  13.691   1
   5  -2  -1 351.656  12.441   5
  -5   2   1 370.146  13.995   1
  -5   2   1 364.204  12.962   1
  -5   2   1 390.294  19.279   3
   4  -2  -1 1420.17   26.51   1
   4  -2  -1 1421.07   25.27   5
  -4   2   1 1416.42   26.74   1
  -4   2   1 1385.23   25.75   1
  -4   2   1 1451.65   34.44   3
   3  -2  -1 3485.64   45.15   1
   3  -2  -1 3400.01   42.81   5
  -3   2   1 3385.43   44.93   1
  -3   2   1 3392.51   47.15   4
  -3   2   1 3424.59   44.68   1
   2  -2  -1 2755.75   36.73   4
   2  -2  -1 2739.01   34.69   5
   2  -2  -1 2724.39   36.26   1
   2  -2  -1 2654.28   34.24   2
  -2   2   1 2598.66   35.67   1
  -2   2   1 2713.59   35.92   1
  -2   2   1 2669.34   36.74   4
  -2   2   1 2758.32   34.67   5
  -1  -2  -1 1203.52   17.10   1
  -1  -2  -1 1224.68   17.42   1
   1   2   1 1202.85   18.43   2
   1   2   1 1245.03   22.15   4
   1   2   1 1203.17   17.03   1
   1   2   1 1212.94   17.21   1
   1   2   1 1233.35   21.48   3
  -2  -2  -1 675.412  10.929   1
  -2  -2  -1 653.491  17.568   3
   2   2   1 653.794  10.633   1
   2   2   1 642.692  15.637   2
   2   2   1 663.397  10.664   1
  -3  -2  -1 882.513  12.548   1
  -3  -2  -1 895.758  23.790   3
   3   2   1 867.833  12.321   1
   3   2   1 889.156  12.580   1
  -4  -2  -1 2848.02   52.24   3
  -5  -2  -1 4896.03   80.02   3
  -6  -2  -1 18.5581 10.3128   3
  -7  -2  -1 530.969  28.722   3
  -8  -2  -1 53.6197 15.5269   3
  -9   3   1 92.2697 18.3809   3
  -8   3   1 382.983  25.678   3
  -8   3   1 378.916  17.202   1
  -7   3   1 68.3057 14.9296   3
  -7   3   1 71.5154  8.7082   1
   6  -3  -1 594.101  19.922   1
   6  -3  -1 608.835  18.477   5
  -6   3   1 594.661  20.222   1
  -6   3   1 611.853  27.739   3
   5  -3  -1 14.5029  4.8717   5
   5  -3  -1 2.65191 5.11545   1
  -5   3   1 -2.5801  6.1540   1
  -5   3   1 -10.267   9.462   3
   4  -3  -1 233.419  10.714   5
   4  -3  -1 239.701  11.857   1
  -4   3   1 247.513  12.233   1
  -4   3   1 244.041  12.351   4
   3  -3  -1 785.375  18.477   5
   3  -3  -1 771.250  19.638   1
  -3   3   1 763.309  20.285   4
  -3   3   1 758.725  19.587   1
   0  -3  -1 191.450   7.985   1
   0  -3  -1 186.018   7.395   1
   0  -3  -1 199.736   4.227   2
   0  -3  -1 191.452   8.649   4
   0   3   1 167.145   8.618   4
   0   3   1 185.761   7.585   5
   0   3   1 183.705   7.793   1
   0   3   1 194.537   7.415   1
  -1  -3  -1 1050.75   17.63   2
  -1  -3  -1 1087.30   17.94   1
  -1  -3  -1 1037.06   17.74   1
   1   3   1 1033.44   22.14   4
   1   3   1 1050.06   17.45   1
   1   3   1 1064.14   17.55   2
   1   3   1 1069.66   17.83   1
  -2  -3  -1 2845.16   33.30   1
  -2  -3  -1 2753.43   40.09   2
   2   3   1 2756.84   43.38   4
   2   3   1 2845.50   32.98   1
   2   3   1 2716.77   32.47   1
  -3  -3  -1 692.817  21.710   3
  -3  -3  -1 696.039  11.431   1
   3   3   1 699.131  11.298   1
   3   3   1 695.549  11.234   1
  -4  -3  -1 394.157  18.581   3
  -5  -3  -1 743.186  27.871   3
   5   3   1 723.419  14.048   5
  -6  -3  -1 869.850  32.937   3
  -7  -3  -1 215.769  20.029   3
  -8  -3  -1 180.071  19.526   3
  -8   4   1 21.3942  7.0533   1
  -7   4   1 -7.3302  9.4432   3
  -7   4   1 20.6963  7.2179   1
   6  -4  -1 129.021  10.929   1
  -6   4   1 121.970  11.480   1
  -6   4   1 141.960  15.201   3
   5  -4  -1 1395.41   32.72   1
  -5   4   1 1366.03   38.63   3
  -5   4   1 1324.81   31.92   1
   4  -4  -1 189.125  11.990   1
  -4   4   1 158.983  11.983   4
  -4   4   1 184.367  12.253   1
   3  -4  -1 2303.65   40.00   1
  -3   4   1 2290.16   39.87   1
  -3   4   1 2246.66   40.60   4
   2  -4  -1 629.450  12.343   2
   2  -4  -1 653.330  18.550   1
  -2   4   1 622.605  18.281   1
  -2   4   1 637.585  18.612   4
   1  -4  -1 2395.52   37.37   1
  -1   4   1 2421.43   37.21   1
  -1   4   1 2478.20   39.60   4
   0  -4  -1 231.714   5.080   2
   0  -4  -1 229.741   9.561   1
   0  -4  -1 235.954   9.357   1
   0   4   1 221.694   9.391   1
   0   4   1 211.817  11.092   4
  -1  -4  -1 210.606   8.586   1
  -1  -4  -1 217.705   7.659   2
  -1  -4  -1 213.221   8.512   1
   1   4   1 222.159   7.425   2
   1   4   1 230.169  11.783   4
   1   4   1 221.956   8.535   1
  -2  -4  -1 540.891  15.344   2
  -2  -4  -1 546.922  12.792   1
  -2  -4  -1 519.429  12.348   1
   2   4   1 533.472  18.128   4
   2   4   1 563.783  12.598   1
  -3  -4  -1 5077.81   69.62   2
   3   4   1 5188.56   73.84   4
   4   4   1 122.982  11.945   4
   5   4   1 1021.19   31.96   4
   5   4   1 1042.98   19.91   5
  -6  -4  -1 237.721  18.426   3
   6   4   1 223.055  16.848   4
  -7  -4  -1 -5.1808  8.4351   3
   7   4   1 12.4916  8.0232   4
   8   4   1 113.103  14.654   4
  -8   5   1 193.162  21.703   3
  -8   5   1 161.365  14.529   1
  -7   5   1 546.693  30.362   3
  -7   5   1 540.777  23.227   1
   6  -5  -1 20.3598  8.0025   1
  -6   5   1 37.4921  9.3490   1
  -6   5   1 14.9880 11.1165   3
   5  -5  -1 10.9480  7.4633   1
  -5   5   1 -0.6202  8.0185   1
  -5   5   1 7.64031 5.89027   4
   4  -5  -1 190.118  13.270   1
  -4   5   1 206.058  14.617   4
  -4   5   1 181.101  13.485   1
   3  -5  -1 4262.44   63.51   1
   3  -5  -1 4222.94   53.46   2
  -3   5   1 4349.76   63.77   1
  -3   5   1 4397.65   66.34   4
   1  -5  -1 379.627  14.413   1
  -1   5   1 392.080  14.561   1
  -1   5   1 388.566  16.236   4
   0  -5  -1 935.308  22.152   1
   0  -5  -1 956.213  13.658   2
   0   5   1 953.212  24.678   4
   0   5   1 975.905  22.182   1
  -1  -5  -1 1978.02   32.24   1
  -1  -5  -1 1988.36   28.99   2
  -1  -5  -1 1952.10   32.44   1
   1   5   1 1984.24   32.07   1
   1   5   1 2028.61   28.74   2
   1   5   1 2001.54   38.71   4
  -2  -5  -1 111.305   6.620   1
  -2  -5  -1 107.661   7.668   2
  -2  -5  -1 109.334   6.950   1
   2   5   1 110.682   6.730   1
   2   5   1 110.980  10.792   4
  -3  -5  -1 18.1970  3.0961   1
  -3  -5  -1 9.49811 3.44326   1
  -3  -5  -1 18.6752  6.6940   2
   3   5   1 4.96338 5.79332   4
   3   5   1 13.7667  3.0936   1
   4   5   1 25.8397  7.9515   4
   5   5   1 1381.09   38.17   4
   6   5   1 211.218  17.033   4
   7   5   1 11.1550  8.0918   4
   8   5   1 170.573  17.288   4
  -8   6   1 145.514  19.914   3
  -8   6   1 168.022  15.766   1
  -7   6   1 43.5433 14.5819   3
   6  -6  -1 -4.3495  7.9689   1
  -6   6   1 17.6890  9.5734   1
   5  -6  -1 209.440  15.768   1
  -5   6   1 216.697  16.176   4
  -5   6   1 234.189  16.244   1
   4  -6  -1 9.26316 7.58787   1
  -4   6   1 27.7576  8.5737   4
  -4   6   1 8.92533 8.43713   1
   3  -6  -1 490.838  19.849   1
   3  -6  -1 503.225  13.098   2
  -3   6   1 547.593  21.220   4
  -3   6   1 519.304  20.272   1
   2  -6  -1 2124.08   41.76   1
   2  -6  -1 2080.43   26.39   2
  -2   6   1 2152.18   43.39   4
  -2   6   1 2142.96   41.76   1
   1  -6  -1 357.138  16.161   1
  -1   6   1 330.524  15.828   4
  -1   6   1 337.919  15.495   1
   0   6   1 6.94859 7.79839   4
  -1  -6  -1 2130.44   31.28   2
  -1  -6  -1 2143.65   37.03   1
   1   6   1 2157.44   43.31   4
   1   6   1 2172.63   36.89   1
  -2  -6  -1 1469.33   27.36   1
  -2  -6  -1 1436.21   28.20   2
  -2  -6  -1 1457.71   28.03   1
   2   6   1 1495.02   27.68   1
   2   6   1 1460.31   36.10   4
  -3  -6  -1 657.786  16.430   1
  -3  -6  -1 653.146  20.781   2
   3   6   1 684.340  25.423   4
   3   6   1 658.503  15.967   1
  -4  -6  -1 257.393   8.317   1
   4   6   1 257.535  17.561   4
   5   6   1 59.9298 10.7655   4
   6   6   1 105.908  13.397   4
   7   6   1 189.190  17.504   4
  -8   7   1 150.129  15.808   1
  -7   7   1 29.8809 10.9345   1
  -7   7   1  6.0236 11.9204   3
   6  -7  -1 145.474  15.375   1
  -6   7   1 123.377  14.436   4
  -6   7   1 142.915  15.573   1
   5  -7  -1 124.863  12.768   1
  -5   7   1 134.359  14.769   4
  -5   7   1 129.302  12.937   1
   4  -7  -1 530.380  23.705   1
  -4   7   1 564.910  24.916   4
  -4   7   1 554.532  23.634   1
   3  -7  -1 773.041  26.405   1
  -3   7   1 785.223  27.704   4
  -3   7   1 796.721  26.642   1
   2  -7  -1 1126.29   31.86   1
  -2   7   1 1151.23   33.27   4
  -2   7   1 1166.30   31.92   1
   1  -7  -1 159.357  12.806   1
  -1   7   1 128.819  11.654   1
  -1   7   1 151.306  14.126   4
   0  -7  -1 201.915  13.296   1
   0   7   1 240.469  16.435   4
   0   7   1 221.397  13.102   1
  -1  -7  -1 291.511  14.488   1
  -1  -7  -1 306.144  10.106   2
   1   7   1 313.419  18.400   4
   1   7   1 340.079  14.760   1
  -2  -7  -1 330.211  13.076   2
  -2  -7  -1 335.471  14.392   1
   2   7   1 355.598  14.031   1
   2   7   1 371.881  18.989   4
  -3  -7  -1 571.757  16.818   1
   3   7   1 564.841  24.628   4
  -4  -7  -1 54.1091  5.0072   1
   5   7   1 628.106  28.122   4
   6   7   1 157.698  16.451   4
   7   7   1 82.8425 14.1559   4
  -7   8   1 335.886  26.821   3
  -7   8   1 305.332  22.196   1
   6  -8  -1 -9.3138  8.5440   1
  -6   8   1 6.75103 9.93018   4
  -6   8   1 2.61500 8.02091   1
   5  -8  -1 865.548  33.275   1
  -5   8   1 843.501  33.109   1
  -5   8   1 822.707  32.975   4
   4  -8  -1 1245.27   38.03   1
  -4   8   1 1280.78   38.40   1
  -4   8   1 1213.43   38.64   4
   3  -8  -1 293.837  18.470   1
  -3   8   1 303.493  18.629   1
  -3   8   1 314.004  19.904   4
   2  -8  -1 -13.233   8.766   1
  -2   8   1 -3.5010  7.0603   4
  -2   8   1 -3.6984  8.2400   1
   1  -8  -1 20.9033  8.4645   1
  -1   8   1 27.1915  7.9032   1
  -1   8   1 33.3100 10.8505   4
   0  -8  -1 -3.3863  7.6677   1
   0   8   1 -4.5733  9.4383   4
   0   8   1 6.37248 7.09616   1
  -1  -8  -1 672.099  22.917   1
  -1  -8  -1 652.841  15.391   2
   1   8   1 672.318  26.907   4
   1   8   1 671.320  22.143   1
  -2  -8  -1 20.7757  6.3735   1
   2   8   1 11.4679 10.0113   4
   2   8   1 9.49426 4.54870   1
  -3  -8  -1 442.525  16.233   1
   3   8   1 407.299  23.076   4
   4   8   1 -9.1652  7.2295   4
   5   8   1 129.528  15.290   4
   6   8   1 208.633  18.789   4
  -7   9   1 433.574  31.704   3
  -7   9   1 442.232  27.362   1
   6  -9  -1 271.147  21.647   1
  -6   9   1 302.152  22.683   1
  -6   9   1 325.462  24.033   4
   5  -9  -1 -15.944  11.318   1
  -5   9   1  1.5116 10.0293   4
   4  -9  -1 222.616  19.249   1
  -4   9   1 261.488  19.792   1
  -4   9   1 231.855  18.063   4
   3  -9  -1 832.167  31.584   1
  -3   9   1 829.977  31.655   1
  -3   9   1 817.329  32.268   4
   2  -9  -1 295.228  18.234   1
  -2   9   1 250.902  16.916   1
  -2   9   1 283.779  20.171   4
   1  -9  -1 161.673  14.788   1
  -1   9   1 165.519  14.374   1
  -1   9   1 155.498  16.182   4
   0  -9  -1 263.715  16.231   1
   0   9   1 239.817  18.487   4
   0   9   1 255.118  15.765   1
   1   9   1 63.5246  9.3115   1
   1   9   1 63.3485 12.9227   4
  -2  -9  -1 99.2398 10.5479   1
   2   9   1 115.815  15.283   4
  -3  -9  -1 90.5208  9.0631   1
   3   9   1 64.1049 11.2659   4
  -4  -9  -1 431.722  15.353   1
   4   9   1 452.793  26.122   4
   5   9   1 -2.3656 10.2545   4
   6   9   1 25.9410 11.3533   4
   6 -10  -1 288.967  21.999   1
  -6  10   1 345.494  23.621   1
  -6  10   1 344.524  24.330   4
   5 -10  -1 371.180  23.961   1
  -5  10   1 338.216  23.492   1
  -5  10   1 371.063  24.512   4
   4 -10  -1 412.162  25.342   1
  -4  10   1 449.257  26.360   4
  -4  10   1 398.548  25.355   1
   3 -10  -1 85.2508 14.2423   1
  -3  10   1 103.044  14.570   1
  -3  10   1 120.404  15.281   4
   2 -10  -1 9.92939 9.59848   1
  -2  10   1 27.2388 10.1938   1
  -2  10   1 15.6394  8.6282   4
   1 -10  -1 -1.4911  8.3157   1
  -1  10   1 -15.602  11.382   4
  -1  10   1 -6.3091  8.3303   1
   0 -10  -1 346.498  20.338   1
   0  10   1 338.082  22.219   4
   0  10   1 336.049  19.385   1
  -1 -10  -1 334.207  18.821   1
   1  10   1 366.520  18.942   1
   1  10   1 338.858  22.465   4
  -2 -10  -1 179.792  13.929   1
   2  10   1 167.991  18.081   4
  -3 -10  -1 338.821  16.720   1
   3  10   1 374.710  24.737   4
   4  10   1 162.835  19.471   4
   5 -11  -1 100.414  15.134   1
  -5  11   1 93.9030 16.4857   4
  -5  11   1 73.6743 13.3818   1
   4 -11  -1 -24.993  12.929   1
  -4  11   1 11.2469  9.0646   4
  -4  11   1 12.1072 11.3934   1
   3 -11  -1 16.0343 11.3649   1
  -3  11   1 -12.717  12.263   4
  -3  11   1 13.1412 10.7408   1
   2 -11  -1 1.77450 9.49339   1
  -2  11   1 30.6021 12.7032   4
  -2  11   1 8.07121 9.55994   1
   1 -11  -1 73.9673 13.4357   1
  -1  11   1 65.0339 11.8883   1
   0  11   1 -0.0204 10.5954   4
   0  11   1 -13.489   8.614   1
  -1 -11  -1 0.34497 5.95555   1
  -2 -11  -1 159.059  14.160   1
   2  11   1 120.687  16.460   4
  -3 -11  -1 78.0069  9.8255   1
   3  11   1 93.9241 16.2852   4
   4  11   1 42.9971 13.3645   4
   4 -12  -1 619.853  34.225   1
  -4  12   1 650.939  34.547   1
  -4  12   1 625.683  34.694   4
   3 -12  -1 49.9944 14.3626   1
  -3  12   1 75.6754 16.1222   4
  -3  12   1 80.6893 14.7624   1
   2 -12  -1 128.995  15.452   1
  -2  12   1 148.498  15.772   1
  -2  12   1 174.560  19.828   4
   1 -12  -1 143.416  16.499   1
  -1  12   1 103.032  17.363   4
  -1  12   1 104.293  14.843   1
   0 -12  -1 63.4827 11.6216   1
   0  12   1 36.2028 13.1969   4
  -1 -12  -1 2.29037 8.50236   1
   1  12   1 5.63646 8.97355   4
  -2 -12  -1 104.826  12.463   1
   2  12   1 96.7270 15.8420   4
  -3 -12  -1 241.086  16.257   1
   3  12   1 268.832  23.449   4
   2 -13  -1 123.341  18.468   1
  -2  13   1 157.383  20.462   4
  -2  13   1 129.900  17.219   1
   1 -13  -1 -1.2135 10.3957   1
  -1  13   1 -17.119  13.862   4
   0  13   1 12.9566 13.0712   4
  -1 -13  -1 -1.9545  9.1050   1
   1  13  -2 513.879  30.803   4
  -1 -13   2 484.305  26.295   1
   0  13  -2 321.785  26.124   4
   0 -13   2 355.390  23.409   1
  -1  13  -2 -18.888  13.978   4
  -1  13  -2 -6.3770  9.5424   1
   1 -13   2  0.7898 11.2861   1
  -2  13  -2 -16.894  11.442   1
   2 -13   2 13.1640 11.8005   1
   3  12  -2 577.676  31.888   4
  -3 -12   2 590.465  24.996   1
   2  12  -2 735.699  35.237   4
  -2 -12   2 694.288  28.537   1
   1  12  -2 79.4634 15.9384   4
  -1 -12   2 86.7069 12.9769   1
   0  12  -2  7.5357 11.3854   4
   0 -12   2 26.1240  8.7019   1
  -1  12  -2 21.1569 10.1265   4
  -1  12  -2 42.7558 11.4867   1
  -2  12  -2 80.7771 14.1565   1
  -2  12  -2 54.1838 12.9647   4
   2 -12   2 76.1774 14.4918   1
  -3  12  -2 101.687  15.678   4
  -3  12  -2 61.9614 12.5815   1
   3 -12   2 85.0113 13.7524   1
  -4  12  -2 -4.1716  9.6430   4
  -4  12  -2  5.6347 11.6694   1
   4 -12   2 37.2997 13.6378   1
   5  11  -2 186.309  19.368   4
   4  11  -2 533.174  29.036   4
   3  11  -2 -8.8260 10.7834   4
  -3 -11   2 0.86589 5.79538   1
   2  11  -2 10.2197 11.0465   4
  -2 -11   2 -10.409   6.203   1
   1  11  -2 -12.816  11.133   4
  -1 -11   2 -22.566   9.720   1
   0  11  -2 120.747  13.417   1
   0  11  -2 130.061  17.000   4
   0 -11   2 132.044  14.476   1
  -1  11  -2 234.534  18.591   1
  -1  11  -2 235.166  21.274   4
   1 -11   2 235.909  19.303   1
  -2  11  -2 155.007  16.964   1
  -2  11  -2 159.562  18.427   4
   2 -11   2 164.630  17.801   1
  -3  11  -2 -25.938  12.153   1
  -3  11  -2 -4.0279 12.2056   4
  -4  11  -2 175.423  19.096   4
  -4  11  -2 219.365  20.608   1
   4 -11   2 183.891  19.129   1
  -5  11  -2 56.6477 15.6775   4
   5  10  -2 170.623  18.475   4
   4  10  -2 73.5582 13.2899   4
  -4 -10   2 60.5333 10.4449   2
  -3 -10   2 4.16546 6.22377   1
   2  10  -2 133.525  15.455   4
  -2 -10   2 150.082  13.015   1
   1  10  -2 1031.58   31.73   1
   1  10  -2 1006.06   36.39   4
  -1 -10   2 994.692  32.063   1
   0  10  -2 1206.74   40.44   4
   0  10  -2 1177.99   35.73   1
   0 -10   2 1233.53   37.37   1
  -1  10  -2 41.8783  9.0121   1
  -1  10  -2 34.8220 11.9623   4
   1 -10   2 44.7188  9.5938   1
  -2  10  -2 636.304  30.450   4
  -2  10  -2 599.345  27.418   1
   2 -10   2 591.317  27.476   1
  -3  10  -2  6.6015 10.0574   1
   3 -10   2  1.9936 10.3102   1
  -4  10  -2 45.3840 13.2627   1
  -4  10  -2 61.8028 14.5583   4
   4 -10   2 32.2570 12.0047   1
  -5  10  -2 50.8794 14.0130   4
  -5  10  -2 23.0196  9.6446   1
  -6  10  -2 66.1792 15.0927   1
  -6  10  -2 72.0269 15.8703   3
   6   9  -2 3.95597 8.95284   4
  -6  -9   2 -17.922  10.946   2
   5   9  -2 3.21377 9.05998   4
   4   9  -2 1.60516 7.95885   4
  -4  -9   2 7.22906 7.32027   2
  -4  -9   2 9.25448 4.25291   1
   3   9  -2 1675.68   44.91   4
  -3  -9   2 1702.53   35.60   1
  -3  -9   2 1682.07   39.55   2
   2   9  -2 361.510  21.403   4
   2   9  -2 369.344  16.833   1
  -2  -9   2 364.450  17.599   1
  -2  -9   2 370.624  16.927   2
   1   9  -2 776.747  30.045   4
   1   9  -2 775.940  25.741   1
  -1  -9   2 786.196  26.857   1
  -1  -9   2 779.905  22.101   2
   0   9  -2 18.1442  8.2541   1
   0   9  -2 12.7272  8.3329   4
   0  -9   2 12.7589  4.6226   2
  -1   9  -2 50.2607 12.0529   4
  -1   9  -2 49.5991 10.3672   1
   1  -9   2 41.4584 10.5196   1
  -2   9  -2 176.347  16.994   4
  -2   9  -2 204.209  16.536   1
   2  -9   2 169.826  15.990   1
  -3   9  -2 9.08456 9.68571   1
  -3   9  -2 5.60947 7.97304   4
   3  -9   2 -14.885  10.203   1
  -4   9  -2 101.658  16.120   4
  -4   9  -2 84.8200 13.8206   1
   4  -9   2 64.7293 13.1044   1
  -5   9  -2 231.072  21.557   4
  -5   9  -2 248.250  20.393   1
   5  -9   2 194.934  18.939   1
  -6   9  -2 158.425  18.573   3
  -6   9  -2 188.272  19.432   1
   6   8  -2 12.8227  8.4589   4
  -6  -8   2 -13.641   9.970   2
   5   8  -2 80.2233 11.8484   4
  -5  -8   2 96.6778 13.1951   2
   4   8  -2 23.4881  8.4628   4
  -4  -8   2 17.8111  8.7419   2
  -4  -8   2 19.6393  3.9741   1
   3   8  -2 41.8386  9.7567   4
  -3  -8   2 30.5803  7.6387   2
  -3  -8   2 30.8108  6.0644   1
   2   8  -2 768.951  27.327   4
   2   8  -2 788.509  22.608   1
  -2  -8   2 797.413  23.859   2
  -2  -8   2 771.673  23.265   1
   1   8  -2 962.924  27.020   1
   1   8  -2 896.933  30.295   4
  -1  -8   2 958.968  27.388   1
  -1  -8   2 918.432  23.639   2
   0   8  -2 528.092  20.968   1
   0   8  -2 528.607  23.497   4
   0  -8   2 512.339  16.583   2
   0  -8   2 532.882  21.650   1
  -1   8  -2 1291.98   34.26   1
  -1   8  -2 1364.98   38.29   4
   1  -8   2 1351.62   35.72   1
  -2   8  -2 328.565  19.979   4
  -2   8  -2 324.524  18.919   1
   2  -8   2 372.019  19.777   1
  -3   8  -2 1001.14   35.56   4
  -3   8  -2 1004.69   32.81   1
   3  -8   2 997.155  32.748   1
  -4   8  -2 104.664  13.422   1
  -4   8  -2 93.4119 15.0613   4
   4  -8   2 102.071  12.192   1
  -5   8  -2 50.0980 12.5756   1
  -5   8  -2 41.6258 12.9989   4
   5  -8   2 65.5382 12.5475   1
  -6   8  -2 24.5267 11.1431   3
   6  -8   2 12.2784  9.8751   1
  -7   8  -2 76.0938 16.9971   3
  -7   8  -2 94.2054 15.0766   1
   7   7  -2 5.41576 7.48967   4
  -7  -7   2 -8.0813 11.6971   2
   6   7  -2 178.178  12.522   5
   6   7  -2 146.665  14.176   4
  -6  -7   2 165.502  15.473   2
   5   7  -2 6.43825 7.86136   4
  -5  -7   2 -9.3309  6.7678   2
   4   7  -2 883.886  29.038   4
  -4  -7   2 861.101  17.118   1
  -4  -7   2 838.883  28.564   2
   3   7  -2 977.711  29.890   4
   3   7  -2 962.869  21.510   1
  -3  -7   2 1038.07   28.56   2
  -3  -7   2 1013.62   22.76   1
   2   7  -2 22.5249  5.4107   1
   2   7  -2 2.02437 8.49855   4
  -2  -7   2 21.6103  7.0918   2
  -2  -7   2 16.0086  6.1655   1
   1   7  -2 353.055  15.371   1
   1   7  -2 366.821  18.477   4
  -1  -7   2 344.985  14.107   2
  -1  -7   2 357.781  15.809   1
   0   7  -2 605.060  20.462   1
   0   7  -2 610.569  22.617   4
   0  -7   2 608.001  20.933   1
  -1   7  -2 225.205  16.178   4
  -1   7  -2 249.348  14.968   1
   1  -7   2 220.785  14.451   1
  -2   7  -2 13.8675  6.7007   1
  -2   7  -2 -5.8329  6.8142   4
   2  -7   2 -1.7323  5.9797   1
  -3   7  -2 380.507  19.317   1
  -3   7  -2 373.974  21.013   4
   3  -7   2 363.348  19.320   1
  -4   7  -2 468.903  24.523   4
  -4   7  -2 430.997  21.841   1
   4  -7   2 454.846  22.196   1
  -5   7  -2 141.676  14.831   1
  -5   7  -2 191.235  18.379   4
   5  -7   2 144.035  14.703   1
  -6   7  -2 5.48956 8.80151   1
  -6   7  -2 -2.8921 11.8469   3
   6  -7   2 -1.0125  8.1664   1
  -7   7  -2 11.7603 12.2806   3
   7   6  -2 273.757  18.152   4
  -7  -6   2 302.067  22.850   2
   6   6  -2 36.5541  6.5063   5
   6   6  -2 45.8267  8.2826   4
  -6  -6   2 55.8647 12.3709   2
   5   6  -2 0.47188 6.33576   4
   4   6  -2 37.8639  8.3934   4
   3   6  -2 4.62854 6.35394   4
  -3  -6   2 21.3023  4.5591   1
  -3  -6   2 11.8302  3.3781   1
  -3  -6   2 20.3072  7.6193   2
   2   6  -2 18.6399  6.0157   4
   2   6  -2 9.13886 4.33756   1
  -2  -6   2 7.43222 5.09915   1
   1   6  -2 501.488  16.623   1
   1   6  -2 454.145  18.471   4
  -1  -6   2 494.083  16.863   1
  -1  -6   2 475.802  15.827   2
   0   6  -2 113.456   8.706   1
   0   6  -2 108.635  10.896   4
   0  -6   2 127.502   9.420   1
  -1   6  -2 123.784  10.750   4
  -1   6  -2 157.784  11.604   1
   1  -6   2 143.952  11.498   1
  -2   6  -2 424.283  18.938   4
  -2   6  -2 390.974  17.588   1
   2  -6   2 394.561  17.443   1
  -3   6  -2 411.221  18.900   1
  -3   6  -2 420.694  20.767   4
   3  -6   2 438.274  19.092   1
  -4   6  -2 44.1779  9.7170   1
  -4   6  -2 33.0001 10.9705   4
  -5   6  -2 32.1917  9.7257   1
  -5   6  -2 22.6356 11.1166   3
   5  -6   2 33.3524  9.2357   1
  -6   6  -2 -13.964   8.463   3
  -6   6  -2 -15.976   9.660   1
   6  -6   2 -4.8835  7.3149   1
  -7   6  -2 -2.0264  6.2166   1
  -8   6  -2 -20.525  12.373   3
   7   5  -2 45.9073  8.8340   4
  -7  -5   2 48.8352 13.3043   2
   6   5  -2 54.3973  7.5256   5
   6   5  -2 48.2330  7.8383   4
  -6  -5   2 56.6209 12.4651   2
   5   5  -2 553.187  18.713   5
   5   5  -2 566.144  21.177   4
  -5  -5   2 537.555  24.248   2
   4   5  -2 505.180  19.222   4
  -4  -5   2 497.102  20.553   2
   3   5  -2 1721.65   35.41   4
   3   5  -2 1754.02   25.50   1
  -3  -5   2 1781.24   37.05   2
  -3  -5   2 1798.87   26.37   1
   2   5  -2 91.7015  9.0465   4
   2   5  -2 88.8439  6.1811   1
  -2  -5   2 77.7837  5.6053   1
  -2  -5   2 81.5820  6.1058   1
  -2  -5   2 86.2535  7.6683   2
   1   5  -2 1183.50   23.90   1
   1   5  -2 1214.51   27.04   4
  -1  -5   2 1191.32   23.62   1
  -1  -5   2 1181.09   24.21   1
  -1  -5   2 1196.70   24.52   2
   0   5  -2 2935.64   44.37   1
   0   5  -2 2898.01   46.83   4
   0  -5   2 2851.30   44.20   1
  -1   5  -2 513.004  18.065   4
  -1   5  -2 533.171  17.870   1
   1  -5   2 532.638  17.920   1
  -2   5  -2 24.2901  7.3600   1
   2  -5   2 35.6013  7.8282   1
  -3   5  -2 399.929  19.306   4
  -3   5  -2 385.422  17.774   1
   3  -5   2 395.821  17.680   1
  -4   5  -2 565.376  22.027   1
  -4   5  -2 563.704  23.973   4
   4  -5   2 527.265  21.117   1
  -5   5  -2 267.360  16.566   1
  -5   5  -2 265.596  18.722   3
   5  -5   2 258.622  15.689   1
  -6   5  -2  1.0340 10.2040   3
   6  -5   2 3.16803 6.77137   1
  -7   5  -2 173.626  18.429   3
  -7   5  -2 168.635  15.142   1
  -8   5  -2  2.9746 12.4350   3
  -8   5  -2 4.21170 8.67277   1
  -8  -4   2 26.5760 13.0387   3
   7   4  -2 31.6031  7.6612   4
  -7  -4   2 21.7110  9.4786   3
   6   4  -2 -4.6911  4.6983   5
  -6  -4   2 -11.863   7.629   3
  -6  -4   2 -9.5086  9.7523   2
   5   4  -2 106.750   8.767   5
   5   4  -2 117.539  10.003   4
  -5  -4   2 111.357  13.154   3
  -5  -4   2 112.744  12.775   2
   4   4  -2 7.29077 5.93872   4
  -4  -4   2 18.1427  7.9697   3
   3   4  -2 652.680  18.736   4
   3   4  -2 664.120  11.762   1
  -3  -4   2 625.401  20.504   2
  -3  -4   2 632.774  11.748   1
   2   4  -2 4506.58   59.43   4
  -2  -4   2 4494.69   51.95   1
  -2  -4   2 4514.31   60.74   2
  -2  -4   2 4467.98   51.17   1
   1   4  -2 4153.18   50.47   1
   1   4  -2 4119.84   54.82   4
  -1  -4   2 3966.91   52.65   2
  -1  -4   2 4086.68   50.55   1
  -1  -4   2 4050.18   49.85   1
   0   4  -2 1.92692 3.20563   1
   0   4  -2 3.50912 3.57806   4
   0  -4   2 -0.7100  3.2128   1
   0  -4   2 2.96950 2.90768   1
  -1   4  -2 859.767  21.712   4
  -1   4  -2 911.484  21.578   1
   1  -4   2 866.673  21.197   1
  -2   4  -2 660.102  19.705   1
  -2   4  -2 656.663  20.918   4
   2  -4   2 679.039  19.873   1
  -3   4  -2 307.091  14.118   1
  -3   4  -2 321.497  16.514   4
   3  -4   2 309.810  14.258   1
  -4   4  -2 1792.34   40.73   3
  -4   4  -2 1857.89   38.53   1
   4  -4   2 1802.57   37.48   1
  -5   4  -2 183.285  16.176   3
  -5   4  -2 169.808  12.824   1
   5  -4   2 194.326  13.003   1
  -6   4  -2 84.5965 10.6294   1
   6  -4   2 76.2846  9.2384   1
  -7   4  -2 753.659  26.609   1
  -7   4  -2 790.318  34.440   3
  -8   4  -2 415.073  28.457   3
  -8   4  -2 417.240  20.767   1
  -8  -3   2 114.815  15.340   3
   7   3  -2 1.37628 4.95702   4
  -7  -3   2 12.6739 10.1896   2
   6   3  -2 190.583  12.195   4
   6   3  -2 197.191  10.610   5
  -6  -3   2 220.006  16.719   2
  -6  -3   2 209.100  17.428   3
   5   3  -2 402.534  14.548   5
   5   3  -2 400.878  15.890   4
  -5  -3   2 395.543  20.074   2
  -5  -3   2 383.646  20.285   3
   4   3  -2 708.998  18.546   5
   4   3  -2 704.274  19.312   4
  -4  -3   2 696.475  23.378   3
  -4  -3   2 717.793  23.800   2
   3   3  -2 2910.28   42.17   4
  -3  -3   2 2885.84   47.18   2
  -3  -3   2 2914.18   46.83   3
   2   3  -2 1709.76   22.88   1
   2   3  -2 1710.41   27.84   4
   2   3  -2 1749.27   23.14   1
  -2  -3   2 1737.77   27.81   4
  -2  -3   2 1722.41   23.05   1
  -2  -3   2 1681.11   30.53   2
  -2  -3   2 1714.40   23.31   1
   0   3  -2 3208.09   43.04   4
   0   3  -2 3155.50   41.31   1
   0  -3   2 3252.53   43.04   4
   0  -3   2 3176.01   40.80   1
   0  -3   2 3025.13   40.72   1
  -1   3  -2 58.2275  6.5325   4
  -1   3  -2 72.9707  6.6395   1
   1  -3   2 62.8264  6.2086   1
  -2   3  -2 45.8080  6.1451   4
  -2   3  -2 36.4609  6.0016   1
   2  -3   2 50.0789  6.3417   1
  -3   3  -2 377.882  14.819   1
  -3   3  -2 421.913  16.595   3
  -3   3  -2 396.955  11.169   5
   3  -3   2 397.826  14.668   1
  -4   3  -2 243.752  13.125   1
  -4   3  -2 255.521  15.697   3
   4  -3   2 276.510  13.321   1
  -5   3  -2 -7.9839  6.0555   1
   5  -3   2 5.67879 5.47563   1
  -6   3  -2 1083.88   36.70   3
  -6   3  -2 1066.87   29.25   1
   6  -3   2 1097.49   28.94   1
  -7   3  -2 13.8105  9.6984   3
  -7   3  -2 -10.772   6.644   1
  -8   3  -2 967.469  28.879   1
  -8   3  -2 982.045  41.831   3
  -9  -2   2 41.7836 15.0163   3
  -8  -2   2 39.5976 13.3917   3
  -7  -2   2 -4.0153  7.1473   3
   6   2  -2 93.9235  7.5194   5
  -6  -2   2 92.4655 12.1868   3
  -6  -2   2 101.422  13.480   2
   5   2  -2 83.3447  7.1889   5
  -5  -2   2 89.4289 11.8182   3
  -5  -2   2 99.7057 12.2158   2
   4   2  -2 424.300  13.537   5
  -4  -2   2 381.448  16.614   2
  -4  -2   2 396.957  17.344   3
   3   2  -2 1161.12   21.81   5
   3   2  -2 1162.97   21.15   4
  -3  -2   2 1144.07   26.14   2
  -3  -2   2 1188.89   26.03   3
   2   2  -2 19.5000  4.0906   3
   2   2  -2 26.6260  3.2109   4
   2   2  -2 24.5290  2.2923   1
   2   2  -2 24.1184  2.4035   1
  -2  -2   2 20.1697  2.4005   1
  -2  -2   2 16.3829  4.4554   3
  -2  -2   2 26.9419  5.4533   2
   1   2  -2 1775.32   24.00   3
   1   2  -2 1768.69   23.83   1
   1   2  -2 1808.03   24.39   4
   1   2  -2 1723.69   23.38   1
  -1  -2   2 1812.00   24.46   4
  -1  -2   2 1788.15   24.07   1
  -1  -2   2 1758.84   23.67   1
   0   2  -2 1803.66   26.03   4
   0   2  -2 1836.87   26.13   1
   0  -2   2 1747.57   25.28   1
   0  -2   2 1792.13   25.96   1
   0  -2   2 1763.70   25.60   4
  -1   2  -2 2949.64   40.65   4
  -1   2  -2 2908.68   38.31   1
  -1   2  -2 3004.13   39.10   1
   1  -2   2 2938.36   38.73   1
   1  -2   2 2942.02   38.41   1
   1  -2   2 2953.58   40.38   4
  -2   2  -2 1166.21   22.47   1
  -2   2  -2 1197.50   22.89   1
  -2   2  -2 1226.01   23.73   3
   2  -2   2 1163.50   22.38   1
  -3   2  -2 3555.29   52.97   3
  -3   2  -2 3490.25   47.51   1
  -3   2  -2 3443.30   48.19   1
  -3   2  -2 3457.02   38.78   5
   3  -2   2 3483.80   48.13   1
  -4   2  -2 5337.69   68.83   1
  -4   2  -2 5227.71   66.93   1
  -4   2  -2 5394.59   77.51   3
   4  -2   2 5424.57   68.58   1
  -5   2  -2 886.105  23.429   1
  -5   2  -2 925.172  30.261   3
   5  -2   2 903.206  23.247   1
  -6   2  -2 4199.13   61.84   1
  -6   2  -2 4254.06   77.82   3
  -7   2  -2 282.441  14.119   1
  -7   2  -2 263.548  21.274   3
  -8   2  -2 74.5901 16.9081   3
  -9  -1   2 13.2164 12.4627   3
  -7  -1   2 76.8399 11.9939   3
   6   1  -2 123.058   8.115   5
  -6  -1   2 133.337  14.510   3
  -6  -1   2 114.488  13.308   2
   5   1  -2 294.614  11.758   5
  -5  -1   2 294.118  17.080   2
  -5  -1   2 313.739  17.661   3
   4   1  -2 1484.18   18.71   1
   4   1  -2 1524.40   26.47   5
  -4  -1   2 1459.04   32.36   2
  -4  -1   2 1499.85   33.66   3
  -4  -1   2 1431.11   18.72   1
  -4  -1   2 1502.48   18.97   1
   3   1  -2 2529.25   28.37   1
   3   1  -2 2611.66   28.65   1
   3   1  -2 2563.19   34.89   5
  -3  -1   2 2517.60   28.44   1
  -3  -1   2 2504.81   40.62   3
  -3  -1   2 2601.01   41.55   2
   2   1  -2 8.85148 1.91940   1
   2   1  -2 7.86415 1.90199   1
   2   1  -2 2.72057 3.92665   5
   2   1  -2 7.44469 2.69804   3
   2   1  -2 5.72863 1.96425   4
  -2  -1   2 10.4187  2.1244   1
  -2  -1   2 0.51245 3.52802   3
  -2   1  -2 1150.91   20.41   1
  -2   1  -2 1146.71   22.10   3
  -2   1  -2 1108.87   20.57   1
   2  -1   2 1148.47   20.56   1
  -3   1  -2 906.522  23.108   3
  -3   1  -2 961.669  20.125   1
  -3   1  -2 933.036  19.443   1
  -3   1  -2 950.536  12.220   5
   3  -1   2 963.998  19.812   1
  -4   1  -2 1062.27   22.10   1
  -4   1  -2 998.247  28.357   3
  -4   1  -2 1020.15   22.26   1
   4  -1   2 1028.54   22.04   1
  -5   1  -2 1035.44   32.19   3
  -5   1  -2 1023.42   23.36   1
   5  -1   2 1054.04   23.22   1
  -6   1  -2 79.0674  7.6747   1
  -6   1  -2 62.7549 11.1741   3
  -7   1  -2 280.770  12.642   1
  -7   1  -2 273.866  21.744   3
  -8   1  -2 120.774  17.809   3
  -9   0   2 39.7345 11.7335   3
   7   0  -2 533.797  16.867   5
  -7   0   2 520.897  27.071   3
   6   0  -2 -6.9902  3.9398   5
  -6   0   2 -11.828   8.936   2
  -6   0   2 -5.3946  2.5329   1
  -6   0   2 -15.730   9.516   3
   5   0  -2 49.9102  5.1258   5
   5   0  -2 52.6985  4.2696   1
  -5   0   2 58.0095  8.3071   2
  -5   0   2 52.3798  4.5932   1
  -5   0   2 39.1101 10.0192   3
   4   0  -2 671.718  16.581   5
   4   0  -2 662.102  13.388   1
   4   0  -2 650.957  16.098   4
  -4   0   2 670.510  21.092   2
  -4   0   2 634.651  20.757   3
  -4   0   2 663.737  13.645   1
  -4   0   2 636.666  13.215   1
   3   0  -2 2011.94   29.48   5
   3   0  -2 1939.42   25.67   1
   3   0  -2 2033.06   27.75   4
  -3   0   2 1960.40   26.06   1
  -3   0   2 1899.84   25.56   1
  -3   0   2 1974.32   33.76   2
  -3   0   2 1978.84   34.56   3
   2   0  -2 7264.03   80.95   2
  -2   0   2 7425.85   74.93   5
   1   0  -2 427.908   9.267   1
   1   0  -2 420.852   9.812   5
   1   0  -2 431.470   9.217   1
  -1   0   2 424.220   9.101   1
  -1   0   2 413.453   9.147   1
  -1   0   2 427.002   9.598   5
  -1   0   2 430.923  10.250   2
  -1   0  -2 3356.49   38.81   1
  -1   0  -2 3308.51   39.37   3
  -1   0  -2 3387.94   39.03   1
   1   0   2 3361.69   38.81   1
   1   0   2 3337.07   39.49   3
   1   0   2 3407.80   38.76   1
  -2   0  -2 3.49041 4.10898   3
  -2   0  -2 1.99644 2.65927   1
  -2   0  -2 11.5219  3.5097   1
   2   0   2 8.22256 3.00459   1
   2   0   2 6.47267 3.53932   3
   2   0   2 7.23142 3.04723   1
  -3   0  -2 4025.81   57.80   3
  -3   0  -2 3971.48   48.14   1
  -3   0  -2 4066.27   48.69   1
   3   0   2 4099.46   48.43   1
  -4   0  -2 94.2480  5.8754   1
  -4   0  -2 82.0943  6.1854   1
  -4   0  -2 89.4432 10.2996   3
   4   0   2 86.9023  5.8758   1
  -5   0  -2 3111.62   43.37   1
  -5   0  -2 3285.37   61.35   3
   5   0   2 3107.12   42.71   1
  -6   0  -2 139.210   7.971   1
  -6   0  -2 138.292  14.051   3
  -7   0  -2 39.3976 12.7082   3
  -8   0  -2 319.500  25.368   3
  -9   1   2 -5.2891 12.3267   3
  -8   1   2 -0.8392 11.3667   3
   7  -1  -2 62.4107  6.8473   5
  -7   1   2 58.9240  6.1681   1
  -7   1   2 62.3349 14.0777   3
   6  -1  -2 298.845  12.626   5
  -6   1   2 303.157  11.605   1
  -6   1   2 317.727  18.837   3
   5  -1  -2 120.271   7.278   1
   5  -1  -2 141.828   8.796   5
  -5   1   2 129.695  13.430   3
  -5   1   2 137.320   7.547   1
  -5   1   2 139.935   8.006   1
  -5   1   2 115.907  10.893   2
   4  -1  -2 485.369  14.164   5
   4  -1  -2 434.652  12.466   1
  -4   1   2 442.761  12.922   1
  -4   1   2 441.838  18.171   3
  -4   1   2 446.714  12.470   1
  -4   1   2 472.192  17.474   2
   3  -1  -2 132.264   6.892   5
   3  -1  -2 125.087   5.947   4
   3  -1  -2 140.759   6.777   1
  -3   1   2 141.731   7.124   1
  -3   1   2 134.626   7.889   2
  -3   1   2 139.336   6.603   1
  -3   1   2 146.582  10.060   3
   2  -1  -2 202.002   7.142   1
   2  -1  -2 210.024   6.084   4
   2  -1  -2 199.214   7.479   1
   2  -1  -2 206.243   7.752   2
   2  -1  -2 225.178   7.969   5
  -2   1   2 207.757   7.581   1
  -2   1   2 207.923   7.389   1
  -2   1   2 204.631   6.285   4
  -2   1   2 206.432   7.559   5
  -2   1   2 217.159   7.862   2
   0  -1  -2 135.418   5.396   1
   0  -1  -2 133.748   5.221   5
   0  -1  -2 134.796   5.454   1
   0   1   2 131.155   5.285   1
   0   1   2 135.424   4.952   5
   0   1   2 137.359   5.472   1
  -1  -1  -2 4732.19   50.22   1
  -1  -1  -2 4526.44   49.84   1
   1   1   2 4658.61   53.65   3
   1   1   2 4598.57   49.77   1
  -2  -1  -2 12.7765  2.7494   1
  -2  -1  -2 10.2486  4.4527   3
   2   1   2 18.5748  2.9828   1
   2   1   2 12.4287  2.5625   1
  -3  -1  -2 9.96901 2.64705   1
  -3  -1  -2 5.13720 6.35932   3
  -3  -1  -2 10.5552  2.9541   1
   3   1   2 4.79508 2.42411   1
  -4  -1  -2 803.334  16.049   1
  -4  -1  -2 835.442  25.509   3
  -4  -1  -2 808.754  16.029   1
   4   1   2 811.785  15.823   1
  -5  -1  -2 1008.80   18.73   1
  -5  -1  -2 1015.99   32.55   3
   5   1   2 1030.69   18.51   1
  -6  -1  -2 613.184  13.643   1
  -6  -1  -2 583.656  26.636   3
  -7  -1  -2 221.320  18.524   3
  -8  -1  -2 41.9372 11.7455   3
  -9   2   2 -11.748  13.223   3
  -8   2   2 375.532  26.330   3
   7  -2  -2 55.0507  6.8372   5
  -7   2   2 55.6161 13.6290   3
  -7   2   2 52.1279  6.9504   1
   6  -2  -2 47.9993  6.5545   5
   6  -2  -2 42.8866  5.7610   1
  -6   2   2 48.2986  9.7261   3
  -6   2   2 56.8684  6.8948   1
  -5   2   2 13.0521  9.8548   3
  -5   2   2 4.88323 3.77893   1
  -5   2   2 11.5788  4.5867   1
   4  -2  -2 186.702   9.450   1
   4  -2  -2 189.985   9.694   5
  -4   2   2 181.876   9.863   1
  -4   2   2 189.155  12.279   3
  -4   2   2 175.972   8.749   1
  -4   2   2 199.203  11.399   2
   3  -2  -2 1201.01   22.07   4
   3  -2  -2 1207.37   23.12   5
   3  -2  -2 1185.06   23.05   1
  -3   2   2 1161.93   22.60   1
  -3   2   2 1206.48   23.40   1
  -3   2   2 1190.24   23.65   2
  -3   2   2 1166.33   22.09   4
   2  -2  -2 4936.47   56.22   2
   2  -2  -2 5033.98   58.88   1
   2  -2  -2 5076.93   57.82   5
   2  -2  -2 5188.25   58.11   4
  -2   2   2 5018.55   59.07   1
  -2   2   2 5004.86   57.95   4
  -2   2   2 5023.35   58.78   1
   0  -2  -2 3527.67   43.32   4
   0  -2  -2 3396.79   41.33   1
   0  -2  -2 3344.11   39.01   5
   0  -2  -2 3478.13   41.18   1
   0   2   2 3398.07   39.21   5
   0   2   2 3376.49   43.04   4
   0   2   2 3404.75   41.32   1
  -1  -2  -2 986.441  16.997   1
  -1  -2  -2 991.035  17.062   1
   1   2   2 969.254  16.829   1
   1   2   2 981.874  19.542   3
   1   2   2 976.257  16.725   1
   1   2   2 998.390  15.417   5
  -2  -2  -2 1949.54   26.55   1
  -2  -2  -2 1934.25   26.39   1
   2   2   2 1960.23   26.40   1
   2   2   2 1939.42   23.15   5
  -3  -2  -2 342.654   9.350   1
  -3  -2  -2 343.900  15.286   3
  -3  -2  -2 339.176   9.100   1
   3   2   2 337.382   8.922   1
   3   2   2 345.909   6.711   5
  -4  -2  -2 533.032  11.582   1
  -4  -2  -2 560.238  22.150   3
   4   2   2 540.452  11.461   1
  -5  -2  -2 156.865  14.601   3
  -5  -2  -2 153.348   5.714   1
  -6  -2  -2 301.259  19.709   3
  -7  -2  -2 522.805  28.803   3
  -8  -2  -2 -9.5683 12.0235   3
  -9   3   2 12.0645 12.9630   3
  -8   3   2 37.4530 13.7509   3
  -8   3   2 20.1552  6.4930   1
  -7   3   2 62.0869 13.8997   3
   6  -3  -2 176.496  11.269   1
   6  -3  -2 169.853  10.666   5
  -6   3   2 178.437  16.967   3
  -6   3   2 151.491  10.713   1
   5  -3  -2 70.0156  7.7839   1
   5  -3  -2 74.3756  7.8834   5
  -5   3   2 69.9239 12.1905   3
  -5   3   2 68.8742  8.4964   1
   4  -3  -2 1321.34   28.16   1
   4  -3  -2 1269.48   26.64   5
  -4   3   2 1312.38   28.42   1
  -4   3   2 1296.78   28.20   4
   3  -3  -2 2191.68   36.43   1
   3  -3  -2 2209.37   35.37   5
  -3   3   2 2140.71   35.77   4
  -3   3   2 2187.66   36.39   1
   2  -3  -2 3478.27   45.77   4
   2  -3  -2 3299.61   46.31   1
   2  -3  -2 3353.60   44.80   5
   2  -3  -2 3286.42   39.39   2
  -2   3   2 3367.21   46.61   1
  -2   3   2 3485.75   46.71   4
  -2   3   2 3418.51   39.87   2
   0  -3  -2 729.951  16.093   1
   0  -3  -2 718.640  15.662   5
   0  -3  -2 730.060  16.415   1
   0   3   2 733.087  16.294   1
   0   3   2 723.707  17.831   4
   0   3   2 703.693  15.314   5
   0   3   2 731.374  10.282   2
  -1  -3  -2 2086.29   29.65   1
  -1  -3  -2 2163.25   30.29   1
  -1  -3  -2 2124.27   30.34   1
   1   3   2 2131.28   30.13   1
   1   3   2 2070.95   28.53   5
   1   3   2 2067.71   35.16   4
   1   3   2 2053.06   28.49   2
  -2  -3  -2 2644.29   34.46   1
  -2  -3  -2 2678.45   34.69   1
   2   3   2 2638.40   32.97   5
   2   3   2 2600.84   43.76   4
   2   3   2 2651.04   34.32   1
  -3  -3  -2 3261.14   39.21   1
   3   3   2 3244.48   37.47   5
   3   3   2 3229.14   38.80   1
  -4  -3  -2 1293.09   34.74   3
  -4  -3  -2 1258.51   19.05   1
   4   3   2 1280.58   18.92   1
   4   3   2 1283.77   18.30   5
  -5  -3  -2 1391.68   39.76   3
  -6  -3  -2 223.525  17.883   3
  -7  -3  -2  8.6042 11.9257   3
  -8  -3  -2 127.901  17.938   3
  -8   4   2 420.237  28.440   3
  -8   4   2 436.455  20.288   1
  -7   4   2 82.2428 15.3059   3
  -7   4   2 90.5543 10.5419   1
   6  -4  -2 863.023  24.715   5
   6  -4  -2 818.426  25.913   1
  -6   4   2 837.436  26.293   1
  -6   4   2 841.924  32.929   3
   5  -4  -2 1401.23   31.23   5
   5  -4  -2 1409.10   32.55   1
  -5   4   2 1408.06   38.92   3
  -5   4   2 1365.84   32.72   1
   4  -4  -2 816.839  23.376   1
   4  -4  -2 830.990  22.317   5
  -4   4   2 809.382  23.701   4
  -4   4   2 824.472  23.664   1
   3  -4  -2 3216.50   49.46   1
   3  -4  -2 3173.55   42.14   2
   3  -4  -2 3177.36   47.29   5
  -3   4   2 3157.30   49.22   4
  -3   4   2 3096.35   48.91   1
   2  -4  -2 68.6854  6.6316   5
   2  -4  -2 79.3861  3.7405   2
   2  -4  -2 75.9600  7.9948   1
  -2   4   2 82.4895  8.4394   1
  -2   4   2 67.7895  7.5556   4
   1  -4  -2 2409.24   38.42   1
  -1   4   2 2393.68   38.11   1
  -1   4   2 2412.84   39.22   4
   0  -4  -2 2661.62   39.54   1
   0   4   2 2712.77   39.73   1
   0   4   2 2705.22   42.89   4
  -1  -4  -2 1178.36   22.84   1
  -1  -4  -2 1225.82   22.71   1
   1   4   2 1202.07   27.41   4
   1   4   2 1198.17   22.71   1
   1   4   2 1187.42   19.71   2
  -2  -4  -2 2713.98   37.29   1
  -2  -4  -2 2730.94   37.17   1
   2   4   2 2725.72   47.37   4
   2   4   2 2774.18   37.21   1
  -3  -4  -2 219.908   8.314   1
  -3  -4  -2 221.284   8.237   1
   3   4   2 227.509   8.153   1
   3   4   2 219.973  14.547   4
  -4  -4  -2 403.214   9.784   1
   4   4   2 431.000  11.335   5
   4   4   2 402.944  19.905   4
   4   4   2 416.908   9.794   1
   5   4   2 110.638  12.812   4
   6   4   2 59.8703 11.6581   4
   7   4   2 -8.8065  9.0469   4
   8   4   2 -1.9487  7.2249   4
  -8   5   2 -19.411   8.595   1
  -7   5   2 327.686  18.932   1
  -7   5   2 358.095  25.459   3
   6  -5  -2 73.8913 10.4055   1
  -6   5   2 52.1156 12.8472   3
  -6   5   2 64.5476 10.4251   1
   5  -5  -2 874.576  26.801   1
  -5   5   2 920.923  27.839   1
  -5   5   2 923.065  28.658   4
   4  -5  -2 522.575  20.059   1
  -4   5   2 541.306  20.453   1
  -4   5   2 531.422  20.621   4
   3  -5  -2 387.415  10.884   2
   3  -5  -2 387.260  17.231   1
  -3   5   2 407.366  16.700   4
  -3   5   2 408.974  17.536   1
   2  -5  -2 1479.26   32.38   1
  -2   5   2 1457.32   31.89   1
  -2   5   2 1522.37   32.62   4
   1  -5  -2 403.226  15.765   1
  -1   5   2 426.086  16.972   4
  -1   5   2 403.250  15.907   1
   0   5   2 -0.5226  6.5399   4
   0   5   2 6.68903 5.10163   1
  -1  -5  -2 444.325  14.313   1
  -1  -5  -2 453.810  14.938   1
   1   5   2 472.680  14.880   1
   1   5   2 459.290  11.305   2
   1   5   2 431.708  18.025   4
  -2  -5  -2 159.562   8.839   1
  -2  -5  -2 163.949   8.548   1
   2   5   2 170.818   8.686   1
   2   5   2 178.948  13.024   4
  -3  -5  -2 100.968   6.325   1
  -3  -5  -2 114.884   6.921   1
   3   5   2 98.7675  6.3423   1
   3   5   2 115.435  12.079   4
  -4  -5  -2 2387.03   31.91   1
   4   5   2 2380.45   51.25   4
   5   5   2 40.3167  8.4438   4
   6   5   2 -11.813   9.370   4
   7   5   2 178.338  16.651   4
   8   5   2 116.486  16.290   4
  -8   6   2 82.0489 15.0582   3
  -8   6   2 126.125  14.461   1
  -7   6   2 866.139  32.334   1
  -7   6   2 883.035  39.390   3
   6  -6  -2 581.497  25.022   1
  -6   6   2 591.881  29.814   3
  -6   6   2 616.623  25.809   1
   5  -6  -2 316.502  18.253   1
  -5   6   2 298.340  18.279   1
  -5   6   2 306.200  18.210   4
   4  -6  -2 24.1430  6.9279   1
  -4   6   2 33.0252  8.5920   4
  -4   6   2 43.9929  8.3785   1
   3  -6  -2 308.688   9.011   2
   3  -6  -2 311.983  17.125   1
  -3   6   2 323.068  17.353   1
  -3   6   2 293.473  16.329   4
   2  -6  -2 5553.90   78.17   1
  -2   6   2 5675.90   78.45   1
  -2   6   2 5582.29   80.23   4
   1  -6  -2 5181.70   72.34   1
  -1   6   2 5163.65   71.47   1
  -1   6   2 5216.27   75.80   4
   0  -6  -2 156.135  11.301   1
   0   6   2 140.930  12.956   4
   0   6   2 126.340  10.139   1
  -1  -6  -2 1870.82   35.15   1
   1   6   2 1909.33   34.95   1
   1   6   2 1949.80   28.05   2
   1   6   2 1910.00   41.26   4
  -2  -6  -2 1777.67   32.05   1
  -2  -6  -2 1813.13   33.06   1
   2   6   2 1831.66   42.15   4
   2   6   2 1852.59   32.68   1
  -3  -6  -2 144.767   8.385   1
   3   6   2 164.807   8.404   1
   3   6   2 173.412  15.013   4
  -4  -6  -2 1805.73   28.34   1
   4   6   2 1796.12   45.02   4
   5   6   2 41.0493  8.9331   4
   6   6   2 -19.963   9.903   4
   7   6   2 17.1014 10.0331   4
  -8   7   2 5.23748 7.10784   1
  -7   7   2 118.127  14.932   1
   6  -7  -2 57.2346 10.8792   1
  -6   7   2 57.6917 10.0401   1
  -6   7   2 52.7539 10.5784   4
   5  -7  -2 331.534  20.330   1
  -5   7   2 340.050  19.867   4
  -5   7   2 348.423  21.039   1
   4  -7  -2 14.6105  7.2093   1
  -4   7   2 -0.6971  6.1750   1
  -4   7   2 0.73646 8.25594   4
   3  -7  -2 2898.81   55.38   1
  -3   7   2 2863.14   56.18   4
  -3   7   2 2853.04   54.75   1
   2  -7  -2 503.291  21.477   1
  -2   7   2 515.619  22.445   4
  -2   7   2 501.613  21.462   1
   1  -7  -2 879.539  26.508   1
  -1   7   2 909.283  29.147   4
  -1   7   2 847.514  25.806   1
   0  -7  -2 1401.12   32.69   1
   0   7   2 1410.91   32.37   1
   0   7   2 1452.57   37.04   4
  -1  -7  -2 17.5629  6.3762   1
   1   7   2 30.2145 10.3540   4
   1   7   2 18.4805  5.9616   1
  -2  -7  -2 -3.2584  5.6266   1
   2   7   2 0.70936 8.40122   4
   2   7   2 7.06828 5.06303   1
  -3  -7  -2 1814.15   33.44   1
   3   7   2 1841.20   46.72   4
  -4  -7  -2 34.6079  4.7593   1
   4   7   2 26.2434  8.5439   4
   5   7   2 34.6000  9.8808   4
   6   7   2 68.6039 13.9291   4
   7   7   2 82.8405 14.9000   4
  -7   8   2 16.3006  9.5340   1
  -7   8   2 19.6475 14.4077   3
   6  -8  -2 36.1838 10.8427   1
  -6   8   2 46.6984 11.9972   1
   5  -8  -2 807.988  31.891   1
  -5   8   2 828.579  32.360   4
  -5   8   2 789.726  31.797   1
   4  -8  -2 76.9244 11.2720   1
  -4   8   2 84.5624 11.6771   1
  -4   8   2 93.5187 11.7794   4
   3  -8  -2 5696.81   89.31   1
  -3   8   2 5638.56   88.38   1
  -3   8   2 5404.22   89.11   4
   2  -8  -2 1369.26   37.34   1
  -2   8   2 1348.55   38.02   4
  -2   8   2 1345.44   36.54   1
   1  -8  -2 58.8600 10.1414   1
  -1   8   2 28.8479 10.6961   4
  -1   8   2 39.3439  8.9255   1
   0  -8  -2 -3.4263  7.6075   1
   0   8   2 -4.1875  9.7209   4
   0   8   2 -8.5217  7.2692   1
  -1  -8  -2 839.083  25.851   1
   1   8   2 820.396  30.578   4
   1   8   2 829.895  25.181   1
  -2  -8  -2 609.468  21.070   1
   2   8   2 572.287  19.729   1
   2   8   2 562.968  25.968   4
  -3  -8  -2 1440.92   31.26   1
   3   8   2 1408.20   42.43   4
  -4  -8  -2 456.527  15.467   1
   4   8   2 459.885  25.489   4
   5   8   2 -11.545  10.973   4
   6   8   2 49.3744 11.3697   4
  -7   9   2 337.389  24.575   1
   6  -9  -2 296.238  21.931   1
  -6   9   2 352.542  23.909   4
  -6   9   2 290.401  22.117   1
   5  -9  -2 308.223  20.856   1
  -5   9   2 278.118  20.880   4
  -5   9   2 282.160  19.910   1
   4  -9  -2 2460.83   58.81   1
  -4   9   2 2424.29   59.21   4
  -4   9   2 2447.38   58.16   1
   3  -9  -2 1655.98   45.39   1
  -3   9   2 1701.86   45.58   1
  -3   9   2 1705.86   46.88   4
   2  -9  -2 172.731  16.755   1
  -2   9   2 197.349  17.280   1
  -2   9   2 178.087  16.830   4
   1  -9  -2 1019.82   33.31   1
  -1   9   2 1032.47   35.44   4
  -1   9   2 998.919  32.270   1
   0  -9  -2 258.194  16.877   1
   0   9   2 260.396  16.212   1
   0   9   2 301.226  20.374   4
  -1  -9  -2 66.6811 10.2198   1
   1   9   2 48.0457  8.6528   1
   1   9   2 74.0807 13.4483   4
  -2  -9  -2 399.692  18.540   1
   2   9   2 413.537  24.360   4
  -3  -9  -2 114.922  10.267   1
   3   9   2 119.338  15.654   4
  -4  -9  -2 220.045  11.713   1
   4   9   2 226.257  19.365   4
   5   9   2 54.1945 11.5062   4
   6   9   2 253.614  22.523   4
   6 -10  -2 488.559  28.324   1
  -6  10   2 454.374  27.256   4
  -6  10   2 456.468  27.183   1
   5 -10  -2 -3.7562  7.8192   1
  -5  10   2 -15.892  10.925   4
  -5  10   2 5.05443 8.19710   1
   4 -10  -2 989.157  38.291   1
  -4  10   2 941.694  37.805   4
  -4  10   2 983.372  38.010   1
   3 -10  -2 228.888  18.245   1
  -3  10   2 227.991  17.939   1
  -3  10   2 234.844  19.834   4
   2 -10  -2 5.41699 6.57536   1
  -2  10   2 -7.4010  6.7874   1
   1 -10  -2 132.511  14.250   1
  -1  10   2 163.215  15.227   1
  -1  10   2 136.557  16.338   4
   0 -10  -2 191.690  15.543   1
   0  10   2 157.707  17.688   4
   0  10   2 156.775  14.066   1
  -1 -10  -2 81.4616 11.0874   1
   1  10   2 63.0293 13.7543   4
   1  10   2 80.9882 10.6931   1
  -2 -10  -2 38.6421  9.1357   1
   2  10   2 66.2090 12.7750   4
  -3 -10  -2 312.547  16.604   1
   3  10   2 290.285  22.198   4
   4  10   2 30.5547 12.2529   4
   5  10   2  2.5593 11.6754   4
   5 -11  -2 239.726  21.085   1
  -5  11   2 324.398  24.766   4
  -5  11   2 296.282  22.753   1
   4 -11  -2 190.665  20.131   1
  -4  11   2 204.284  19.888   1
  -4  11   2 201.898  20.465   4
   3 -11  -2 272.101  21.908   1
  -3  11   2 293.841  21.674   4
  -3  11   2 273.968  21.542   1
  -2  11   2 37.3155 13.1700   4
   1 -11  -2 227.875  17.914   1
  -1  11   2 232.944  19.874   4
  -1  11   2 202.200  16.451   1
   0 -11  -2 225.391  17.127   1
   0  11   2 220.373  16.303   1
   0  11   2 213.685  20.443   4
  -1 -11  -2 140.708  14.833   1
   1  11   2 107.823  15.585   4
  -2 -11  -2 -6.5132  7.8678   1
   2  11   2 21.3747 12.6541   4
  -3 -11  -2 85.0385 10.4321   1
   3  11   2 83.0998 13.8788   4
   4  11   2 89.7185 16.7956   4
  -4  12   2  1.4980 11.0019   1
   3 -12  -2 21.5342 12.6421   1
  -3  12   2 -21.576  12.993   4
  -3  12   2 -10.104  10.665   1
   2 -12  -2 52.3527 11.1563   1
  -2  12   2 72.3591 15.6338   4
  -2  12   2 63.1030 11.5632   1
   1 -12  -2 314.986  22.696   1
  -1  12   2 325.275  22.102   1
  -1  12   2 331.984  24.091   4
   0 -12  -2 -9.2355  9.4703   1
   0  12   2  5.4713 11.8990   4
   1  12   2 16.3266 13.7607   4
  -2 -12  -2 50.0516 10.9612   1
  -3 -12  -2 37.2781  8.4074   1
   3  12   2 44.4107 12.4315   4
   1 -13  -2 140.144  17.617   1
  -1  13   2 153.368  21.140   4
   0 -13  -2 94.0926 14.7095   1
   1  13  -3 569.367  33.036   4
  -1 -13   3 540.689  28.426   1
   0  13  -3 435.315  27.977   4
   0 -13   3 423.856  26.552   1
  -1  13  -3 57.2405 13.3243   1
  -1  13  -3 72.9771 17.0008   4
   1 -13   3 80.5393 15.4666   1
   3  12  -3 128.159  17.706   4
  -3 -12   3 121.173  12.959   1
   2  12  -3 269.683  23.018   4
  -2 -12   3 275.875  19.781   1
   1  12  -3 661.018  33.840   4
  -1 -12   3 666.502  29.609   1
   0  12  -3 436.308  27.487   4
   0 -12   3 430.006  25.407   1
  -1  12  -3 39.3250  9.7455   1
   1 -12   3 16.9420  8.8247   1
  -2  12  -3 23.8955 10.5651   1
  -2  12  -3  3.7716 12.3632   4
   2 -12   3 14.1577 11.0177   1
  -3  12  -3 204.161  20.565   1
  -3  12  -3 187.928  21.663   4
   3 -12   3 182.746  19.862   1
   5  11  -3 385.699  25.136   4
   4  11  -3 -12.472  11.085   4
   3  11  -3 576.348  29.427   4
  -3 -11   3 569.415  22.904   1
   2  11  -3 556.693  28.819   4
  -2 -11   3 518.985  23.671   1
  -1 -11   3 92.5930 11.7326   1
   0  11  -3 15.4812 10.8908   4
   0 -11   3 24.5154 10.5086   1
  -1  11  -3 15.0414 12.0580   4
  -1  11  -3 27.9459 10.0777   1
   1 -11   3 33.7310 11.7780   1
  -2  11  -3 18.0107 12.7997   4
  -2  11  -3 44.5140 12.0955   1
  -3  11  -3 296.758  23.010   1
  -3  11  -3 272.604  23.292   4
   3 -11   3 276.937  22.184   1
  -4  11  -3 103.561  18.381   4
  -4  11  -3 132.364  18.150   1
   4 -11   3 89.6270 16.2757   1
  -5  11  -3 34.8536 14.3721   4
   5 -11   3 48.6362 13.6815   1
   5  10  -3 69.6740 12.9591   4
  -5 -10   3 41.5522 11.3178   2
   3  10  -3 13.4854  9.6490   4
  -3 -10   3 19.4526  6.5870   1
  -3 -10   3 29.1458  8.2790   2
   2  10  -3 34.0790 10.5768   4
  -2 -10   3 46.2718  9.5799   1
  -2 -10   3 27.5235  6.8621   2
   1  10  -3 24.4366 10.4180   4
  -1 -10   3 8.30842 5.68259   2
  -1 -10   3 26.4313 10.1132   1
   0  10  -3 131.527  13.817   1
   0  10  -3 100.176  14.831   4
   0 -10   3 100.853  13.505   1
  -1  10  -3 1029.01   35.18   1
  -1  10  -3 1037.52   36.98   4
   1 -10   3 1068.63   36.61   1
  -2  10  -3 957.353  37.599   4
  -2  10  -3 950.329  34.993   1
   2 -10   3 931.341  35.776   1
  -3  10  -3 32.6447 11.8466   1
  -3  10  -3 33.4100 12.9835   4
  -4  10  -3 -12.166   9.160   4
  -4  10  -3 -11.617   9.300   1
   4 -10   3 4.86238 7.41289   1
  -5  10  -3 -3.6649 12.4541   4
  -5  10  -3  0.5400 10.6111   1
   5 -10   3 28.7027 12.4454   1
   6   9  -3 22.4051  8.5752   5
  -6  -9   3 23.8535  9.4269   2
   5   9  -3 4.52540 8.74375   4
  -5  -9   3 29.4432  8.6368   2
   4   9  -3 237.337  18.096   4
  -4  -9   3 247.276  11.672   1
  -4  -9   3 266.122  17.553   2
   3   9  -3 269.937  18.657   4
  -3  -9   3 297.856  17.324   2
  -3  -9   3 253.228  13.566   1
   2   9  -3 79.8208 10.8196   4
   2   9  -3 74.3456  9.1513   1
  -2  -9   3 89.9748 10.4189   1
  -2  -9   3 85.2973  9.0425   2
   1   9  -3 547.233  24.448   4
   1   9  -3 552.384  22.159   1
  -1  -9   3 541.983  19.713   2
  -1  -9   3 554.703  22.796   1
   0   9  -3 2.53379 5.43583   1
   0   9  -3 -0.6226  9.2743   4
   0  -9   3 5.88211 5.19850   2
   0  -9   3 18.9760  7.8235   1
  -1   9  -3 -2.6353  8.3918   4
  -1   9  -3 0.13200 7.67228   1
   1  -9   3 9.97084 9.14654   1
  -2   9  -3  1.0321 10.7951   4
   2  -9   3 -13.548   9.818   1
  -3   9  -3 62.9702 11.5481   4
  -3   9  -3 67.1681 10.9800   1
   3  -9   3 80.3377 11.7942   1
  -4   9  -3 24.5536  8.9887   1
   4  -9   3 34.0642  9.6929   1
  -5   9  -3 52.5777 11.9442   4
  -5   9  -3 39.9047 12.3829   1
   5  -9   3 22.5585 11.0922   1
  -6   9  -3  0.4118 10.9736   1
   6  -9   3 5.27425 9.90808   1
  -7  -8   3 -3.1639  8.9807   2
   6   8  -3 71.5368 10.6742   5
   6   8  -3 71.0673 11.7051   4
  -6  -8   3 77.6870 13.7257   2
   5   8  -3 21.1633  8.4854   4
  -5  -8   3 35.2484  9.4191   2
   4   8  -3 -9.1815  8.0732   4
   3   8  -3 59.4870  9.1481   4
  -3  -8   3 57.2289  7.5835   1
  -3  -8   3 65.0966 10.1832   2
   2   8  -3 32.5994  7.9353   4
   2   8  -3 32.0205  6.5377   1
  -2  -8   3 26.2543  7.4839   2
  -2  -8   3 31.4858  7.4140   1
   1   8  -3 95.8964 12.2631   4
   1   8  -3 100.624  10.136   1
  -1  -8   3 92.9843 10.2904   1
  -1  -8   3 99.0676  9.5095   2
   0   8  -3 1700.26   41.97   4
   0   8  -3 1699.60   39.22   1
   0  -8   3 1737.58   40.57   1
  -1   8  -3 803.100  28.676   4
  -1   8  -3 816.669  27.869   1
   1  -8   3 775.719  27.847   1
  -2   8  -3 444.130  23.124   4
  -2   8  -3 453.460  22.241   1
   2  -8   3 458.851  22.509   1
  -3   8  -3 -17.237  10.608   4
  -3   8  -3 0.66238 6.43513   1
  -4   8  -3 138.673  14.181   1
  -4   8  -3 116.970  16.091   4
   4  -8   3 151.834  14.277   1
  -5   8  -3 178.677  17.885   4
  -5   8  -3 179.563  16.251   3
  -5   8  -3 165.945  17.383   1
   5  -8   3 154.021  16.339   1
  -6   8  -3 322.378  24.431   3
  -6   8  -3 307.241  21.303   1
   6  -8   3 325.623  21.553   1
  -7   8  -3 148.163  17.275   3
  -7   8  -3 102.070  15.744   1
  -7  -7   3 37.5567 13.2021   2
   6   7  -3 9.36177 6.60139   5
   6   7  -3 3.23189 6.93819   4
  -6  -7   3 4.22399 9.24346   2
   5   7  -3 274.062  16.953   4
  -5  -7   3 217.976  17.432   2
   4   7  -3 8.32602 7.34704   4
  -4  -7   3 12.8245  8.7335   2
   3   7  -3 1259.86   25.93   1
   3   7  -3 1268.24   33.56   4
  -3  -7   3 1293.81   34.04   2
  -3  -7   3 1234.86   26.37   1
   2   7  -3 1192.06   31.96   4
   2   7  -3 1175.42   26.92   1
  -2  -7   3 1165.10   27.84   1
  -2  -7   3 1206.30   30.14   2
   1   7  -3 23.6213  6.8943   1
   1   7  -3 1.95213 7.55433   4
  -1  -7   3 9.37962 7.18678   1
  -1  -7   3 17.2436  6.5558   2
   0   7  -3 90.2411  8.9680   1
   0   7  -3 96.2214 10.4392   4
   0  -7   3 85.3173  9.3289   1
  -1   7  -3 95.0699 11.0342   1
  -1   7  -3 118.512  12.783   4
   1  -7   3 113.898  12.044   1
  -2   7  -3 24.7979  9.3181   1
   2  -7   3 25.5217  9.3898   1
  -3   7  -3 45.7948 10.3150   1
  -3   7  -3 40.6738 11.4776   4
   3  -7   3 50.5824  9.8359   1
  -4   7  -3 456.413  24.999   4
  -4   7  -3 442.168  22.871   1
   4  -7   3 500.555  23.614   1
  -5   7  -3 392.249  22.645   1
  -5   7  -3 358.309  22.721   3
   5  -7   3 383.678  21.731   1
  -6   7  -3 60.4873 12.3879   1
  -6   7  -3 56.0495 11.2655   3
   6  -7   3 49.9112 11.2975   1
  -7   7  -3 354.143  23.447   1
  -7   7  -3 364.644  26.448   3
  -8  -6   3 28.3472 10.1591   2
  -7  -6   3 58.1984 11.9792   2
   6   6  -3 235.503  14.599   5
   6   6  -3 223.898  14.915   4
  -6  -6   3 225.033  18.680   2
   5   6  -3 707.396  24.513   4
   5   6  -3 725.927  23.780   5
  -5  -6   3 743.184  29.067   2
   4   6  -3 27.1807  7.4053   4
  -4  -6   3 41.1551  3.9670   1
  -4  -6   3 42.2298  9.7101   2
   3   6  -3 79.8758  6.2320   1
   3   6  -3 95.5098  9.9911   4
  -3  -6   3 86.8071  6.8415   1
  -3  -6   3 77.9562 10.5330   2
   2   6  -3 576.548  20.076   4
   2   6  -3 565.170  16.992   1
  -2  -6   3 553.066  19.702   2
  -2  -6   3 569.855  17.632   1
  -2  -6   3 571.296  16.602   1
   1   6  -3 1992.50   39.49   4
   1   6  -3 1979.87   36.33   1
  -1  -6   3 2000.99   36.99   2
  -1  -6   3 1932.58   36.35   1
   0   6  -3 1548.37   35.11   4
   0   6  -3 1574.43   33.53   1
   0  -6   3 1553.38   33.48   1
  -1   6  -3 444.673  19.423   4
  -1   6  -3 425.685  17.546   1
   1  -6   3 431.925  17.893   1
  -2   6  -3 934.569  29.075   4
  -2   6  -3 914.953  27.213   1
   2  -6   3 957.394  27.890   1
  -3   6  -3 35.9819  9.2442   1
  -3   6  -3 44.7187 10.6485   4
   3  -6   3 46.7846 10.1434   1
  -4   6  -3 424.158  21.854   4
  -4   6  -3 457.141  21.088   1
   4  -6   3 412.867  20.271   1
  -5   6  -3 799.139  29.605   1
  -5   6  -3 752.745  30.467   3
   5  -6   3 761.598  28.674   1
  -6   6  -3 60.8560 13.0230   3
  -6   6  -3 53.1433 11.5734   1
   6  -6   3 68.4847 11.4474   1
  -7   6  -3 -13.032  11.507   3
  -7   6  -3 10.9289  9.6950   1
  -8  -5   3 739.251  35.256   2
  -7  -5   3 198.288  17.974   2
   6   5  -3 579.538  21.849   4
   6   5  -3 635.069  21.764   5
  -6  -5   3 594.754  27.099   2
   5   5  -3 318.450  15.447   4
   5   5  -3 334.861  15.801   5
  -5  -5   3 295.872  19.497   2
   4   5  -3 546.577  18.885   4
  -4  -5   3 552.327  22.807   2
   3   5  -3 165.069  10.606   4
   3   5  -3 163.650   7.280   1
  -3  -5   3 165.445   7.346   1
  -3  -5   3 168.165   7.780   1
  -3  -5   3 188.852  12.160   2
   2   5  -3 4648.43   64.20   4
   2   5  -3 4553.89   57.08   1
  -2  -5   3 4660.34   58.20   1
  -2  -5   3 4631.76   65.72   2
  -2  -5   3 4636.37   57.12   1
   1   5  -3 1426.11   27.57   1
   1   5  -3 1393.15   29.47   4
  -1  -5   3 1427.81   28.13   1
  -1  -5   3 1428.36   27.73   1
   0   5  -3 338.836  14.809   4
   0   5  -3 320.264  13.636   1
   0  -5   3 319.241  13.867   1
  -1   5  -3 0.95703 6.89998   4
   1  -5   3 5.24621 4.72350   1
  -2   5  -3 958.014  28.132   4
  -2   5  -3 944.374  26.100   1
   2  -5   3 960.814  26.104   1
  -3   5  -3 753.877  24.888   1
  -3   5  -3 730.224  26.215   4
   3  -5   3 713.018  24.047   1
  -4   5  -3 207.844  15.318   3
  -4   5  -3 190.418  13.258   1
   4  -5   3 204.518  13.528   1
  -5   5  -3 361.252  21.332   3
  -5   5  -3 378.561  19.700   1
   5  -5   3 363.417  19.428   1
  -6   5  -3 17.9070  9.0424   1
   6  -5   3 4.87217 7.45772   1
  -7   5  -3 103.558  13.026   1
  -7   5  -3 106.649  16.234   3
  -8   5  -3 156.925  14.664   1
  -8   5  -3 169.323  19.080   3
  -7  -4   3 705.128  32.207   3
  -7  -4   3 656.263  30.106   2
   6   4  -3 525.784  18.933   5
   6   4  -3 545.186  19.930   4
  -6  -4   3 535.258  25.140   2
  -6  -4   3 547.834  26.042   3
   5   4  -3 502.729  17.778   4
   5   4  -3 498.379  18.233   5
  -5  -4   3 538.861  23.233   3
  -5  -4   3 513.891  23.744   2
   4   4  -3 5.99661 6.02212   5
   4   4  -3 -8.7956  5.1283   4
  -4  -4   3 -2.8350  7.5014   3
  -4  -4   3 -13.728   8.431   2
   3   4  -3 1182.92   19.16   1
   3   4  -3 1137.79   24.28   4
  -3  -4   3 1196.16   19.67   1
  -3  -4   3 1159.68   19.27   1
  -3  -4   3 1183.23   29.35   2
   2   4  -3 7690.89   82.00   1
  -2  -4   3 7470.40   81.40   1
  -2  -4   3 7615.15   82.57   1
  -2  -4   3 7599.04   92.95   2
   1   4  -3 158.062   8.513   1
   1   4  -3 164.351   8.584   4
  -1  -4   3 161.470   8.794   1
  -1  -4   3 161.017   8.282   1
   0   4  -3 7222.24   83.31   1
   0   4  -3 7112.80   85.98   4
   0  -4   3 7207.39   83.69   1
  -1   4  -3 170.504  10.537   1
  -1   4  -3 156.192  10.661   4
   1  -4   3 164.856  10.324   1
  -2   4  -3 2557.40   43.74   1
  -2   4  -3 2546.22   45.90   4
   2  -4   3 2496.64   42.94   1
  -3   4  -3 569.968  21.764   4
  -3   4  -3 583.261  20.564   1
  -3   4  -3 555.553  19.596   3
   3  -4   3 570.523  19.971   1
  -4   4  -3 20.0862  9.1244   3
  -4   4  -3 4.06446 7.06649   1
   4  -4   3 8.99265 7.03565   1
  -5   4  -3 40.5890 10.8052   3
  -5   4  -3 45.7463  9.0597   1
   5  -4   3 53.2587  8.3258   1
  -6   4  -3 540.875  22.839   1
  -6   4  -3 558.695  27.074   3
   6  -4   3 515.096  21.732   1
  -7   4  -3 222.770  20.494   3
  -7   4  -3 229.008  15.950   1
  -8   4  -3 16.2691  8.3195   1
  -8   4  -3 13.7361 12.7040   3
  -8  -3   3 697.618  34.119   3
   7   3  -3 303.167  14.560   5
   7   3  -3 284.431  14.856   4
  -7  -3   3 300.219  21.613   3
  -7  -3   3 246.449  20.293   2
   6   3  -3 886.864  24.218   4
   6   3  -3 887.434  23.853   5
  -6  -3   3 919.608  32.619   3
  -6  -3   3 858.769  31.913   2
   5   3  -3 445.880  15.402   4
   5   3  -3 421.536  15.615   5
  -5  -3   3 428.584  20.303   2
  -5  -3   3 439.990  21.015   3
   4   3  -3 12.1656  5.9377   5
   4   3  -3 3.54713 4.35598   4
  -4  -3   3 7.95657 5.63751   3
  -4  -3   3 22.0130  8.4723   2
   3   3  -3 5201.49   54.51   1
   3   3  -3 5129.65   62.01   4
  -3  -3   3 5060.50   70.79   2
  -3  -3   3 5128.68   68.14   3
  -3  -3   3 5140.81   54.77   1
   2   3  -3 729.275  15.695   4
   2   3  -3 723.499  14.765   1
   2   3  -3 709.506  16.734   3
  -2  -3   3 708.233  14.901   1
  -2  -3   3 708.975  19.747   2
  -2  -3   3 718.063  14.780   1
  -2  -3   3 693.929  15.195   4
   1   3  -3 5861.87   64.50   3
   1   3  -3 5801.05   65.93   1
  -1  -3   3 5773.43   65.82   1
  -1  -3   3 5942.90   66.66   1
  -1  -3   3 5973.14   68.00   4
   0   3  -3 107.245   7.283   4
   0   3  -3 86.2199  6.7306   1
   0  -3   3 107.254   7.401   1
   0  -3   3 93.0457  6.7502   1
   0  -3   3 96.7487  6.7682   4
  -1   3  -3 3972.71   54.69   4
  -1   3  -3 3871.60   52.51   1
   1  -3   3 3848.26   52.57   1
  -2   3  -3 34.2866  5.3714   1
  -2   3  -3 36.4647  6.2458   4
   2  -3   3 27.0279  5.1280   1
  -3   3  -3 223.113  12.696   3
  -3   3  -3 224.921  12.634   1
   3  -3   3 218.931  12.183   1
  -4   3  -3 1106.12   28.29   1
  -4   3  -3 1114.03   30.69   3
  -4   3  -3 1074.82   19.30   5
   4  -3   3 1052.62   26.98   1
  -5   3  -3 1390.01   38.12   3
  -5   3  -3 1408.35   33.70   1
   5  -3   3 1384.33   32.73   1
  -6   3  -3 130.635  14.834   3
  -6   3  -3 161.501  12.491   1
  -7   3  -3 785.850  34.820   3
  -7   3  -3 759.338  26.002   1
  -8   3  -3 390.562  27.304   3
  -8   3  -3 368.839  18.540   1
  -9  -2   3 138.910  19.193   3
  -8  -2   3 48.1888 13.8129   3
   7   2  -3 29.2914  6.1268   5
  -7  -2   3 23.5979 10.9661   3
  -7  -2   3 38.6850 10.5866   2
   6   2  -3 231.797  11.913   4
   6   2  -3 244.911  12.547   5
  -6  -2   3 252.798  16.979   2
  -6  -2   3 263.663  18.247   3
   5   2  -3 2023.10   35.83   5
   5   2  -3 2001.32   34.52   4
  -5  -2   3 1963.59   43.23   3
  -5  -2   3 2062.13   45.25   2
   4   2  -3 376.109  13.598   5
   4   2  -3 374.594   7.741   1
   4   2  -3 375.621  11.619   4
  -4  -2   3 357.686   7.706   1
  -4  -2   3 373.809  16.429   3
  -4  -2   3 373.752   8.129   1
  -4  -2   3 336.961  16.939   2
   3   2  -3 1558.14   23.46   4
   3   2  -3 1552.79   21.28   1
   3   2  -3 1580.63   28.22   5
  -3  -2   3 1561.63   31.69   2
  -3  -2   3 1534.16   21.49   1
  -3  -2   3 1552.12   29.72   3
   2   2  -3 1863.72   28.49   3
   2   2  -3 1921.84   26.21   1
   2   2  -3 1962.57   25.45   4
   2   2  -3 1929.77   30.45   5
  -2  -2   3 1955.26   29.36   3
  -2  -2   3 1931.82   25.43   4
  -2  -2   3 1936.91   33.47   2
  -2  -2   3 1933.93   26.51   1
  -2  -2   3 1934.77   26.50   1
   1   2  -3 3242.11   38.55   4
   1   2  -3 3197.67   36.50   3
   1   2  -3 3300.11   40.44   1
  -1  -2   3 3178.76   39.95   1
  -1  -2   3 3263.38   38.66   4
  -1  -2   3 3170.51   40.20   1
   0   2  -3 329.310  10.967   1
   0   2  -3 339.379  10.419   4
   0   2  -3 331.349  10.615   1
   0  -2   3 336.386  10.577   1
   0  -2   3 334.515  11.035   1
   0  -2   3 343.508  10.184   4
  -1   2  -3 1502.34   27.24   4
  -1   2  -3 1526.83   26.81   1
  -1   2  -3 1415.65   21.93   3
   1  -2   3 1522.61   26.96   1
  -2   2  -3 83.7595  6.5500   3
  -2   2  -3 65.8233  7.0075   1
   2  -2   3 91.7383  7.4816   1
  -3   2  -3 2422.30   41.75   3
  -3   2  -3 2506.78   40.58   1
  -3   2  -3 2469.31   29.76   5
   3  -2   3 2471.09   39.93   1
  -4   2  -3 97.7928 11.0924   3
  -4   2  -3 69.7870  8.1089   1
  -4   2  -3 80.2428  3.9025   5
   4  -2   3 79.2795  7.4089   1
  -5   2  -3 1713.66   42.52   3
  -5   2  -3 1711.18   35.67   1
   5  -2   3 1750.82   35.45   1
  -6   2  -3 350.860  22.006   3
  -6   2  -3 355.673  16.381   1
  -7   2  -3 -5.7509 10.7725   3
  -7   2  -3 0.88698 5.35379   1
  -8   2  -3 72.5004 16.6043   3
  -9  -1   3 80.1352 17.1942   3
  -8  -1   3 -2.3008  8.3936   3
   7   1  -3 37.8440  6.4865   5
  -7  -1   3 38.9823  9.6826   2
  -7  -1   3 35.7187 12.5542   3
   6   1  -3 328.738  13.937   5
  -6  -1   3 334.583  19.716   2
  -6  -1   3 329.784  18.771   3
   5   1  -3 4.13248 4.99770   5
   5   1  -3 7.15713 2.22695   1
  -5  -1   3 7.35196 2.52527   1
  -5  -1   3 9.68536 8.76214   3
  -5  -1   3 17.2611  8.9650   2
   4   1  -3 1690.00   23.58   1
   4   1  -3 1746.32   30.90   5
  -4  -1   3 1764.28   36.39   3
  -4  -1   3 1650.98   35.72   2
  -4  -1   3 1706.99   23.91   1
   3   1  -3 998.536  15.337   4
   3   1  -3 939.403  20.584   5
   3   1  -3 998.085  16.578   1
  -3  -1   3 962.886  16.483   1
  -3  -1   3 975.282  23.511   2
  -3  -1   3 967.958  22.356   3
  -3  -1   3 981.338  16.613   1
   2   1  -3 1451.01   21.64   1
   2   1  -3 1486.77   23.66   3
   2   1  -3 1494.98   21.87   1
   2   1  -3 1431.45   24.55   5
  -2  -1   3 1488.63   21.98   1
  -2  -1   3 1469.68   21.95   1
  -2  -1   3 1439.39   23.59   3
  -2  -1   3 1458.51   26.89   2
   1   1  -3 2952.09   36.84   1
   1   1  -3 3059.31   37.30   1
   1   1  -3 3054.34   32.78   4
   1   1  -3 2970.05   37.73   5
  -1  -1   3 2911.43   36.87   1
  -1  -1   3 2951.90   36.90   1
   0   1  -3 7462.31   79.06   1
   0  -1   3 7577.05   79.23   1
  -1   1  -3 895.202  18.202   1
  -1   1  -3 920.172  15.468   3
  -1   1  -3 911.975  18.407   1
   1  -1   3 899.742  18.420   1
   1  -1   3 835.239  14.829   3
   1  -1   3 887.603  18.833   4
  -2   1  -3 1931.91   31.01   1
  -2   1  -3 1950.19   31.33   3
  -2   1  -3 1893.48   30.31   1
   2  -1   3 1922.46   30.55   1
   2  -1   3 1894.51   30.74   3
  -3   1  -3 3564.45   48.94   1
  -3   1  -3 3688.46   50.10   1
  -3   1  -3 3667.74   54.50   3
   3  -1   3 3598.22   48.94   1
  -4   1  -3 239.551  14.987   3
  -4   1  -3 254.733  11.215   1
  -4   1  -3 273.940  12.320   1
   4  -1   3 233.082  11.100   1
  -5   1  -3 38.3681  8.4040   3
  -5   1  -3 35.4366  6.6183   1
   5  -1   3 29.4873  5.9213   1
  -6   1  -3 134.320  15.594   3
  -6   1  -3 148.323  10.265   1
  -7   1  -3 382.310  24.859   3
  -7   1  -3 379.131  15.374   1
  -8   1  -3 101.376  16.603   3
  -9   0   3 67.7905 15.6394   3
  -8   0   3 69.3184 15.1691   3
   7   0  -3 88.4569  8.2431   5
  -7   0   3 67.7394 10.7040   2
  -7   0   3 87.8535 14.5511   3
   6   0  -3 1843.49   35.08   5
  -6   0   3 1840.96   28.44   1
  -6   0   3 1793.35   45.81   3
  -6   0   3 1815.90   43.82   2
   5   0  -3 730.326  19.829   5
   5   0  -3 755.787  16.118   1
  -5   0   3 712.115  15.883   1
  -5   0   3 709.641  25.255   3
  -5   0   3 733.553  25.108   2
  -5   0   3 719.572  16.106   1
   4   0  -3 1073.26   23.09   5
   4   0  -3 1057.10   19.21   4
   4   0  -3 1086.59   19.47   1
  -4   0   3 1023.99   26.58   3
  -4   0   3 1066.20   19.51   1
  -4   0   3 1096.00   19.82   1
  -4   0   3 1072.68   27.13   2
   3   0  -3 62.5806  4.7624   1
   3   0  -3 66.4434  3.4471   4
   3   0  -3 61.8727  6.2615   5
  -3   0   3 52.4497  7.0330   2
  -3   0   3 63.5770  4.7133   1
  -3   0   3 49.5892  6.7046   3
  -3   0   3 57.8129  5.1126   1
   2   0  -3 2148.60   29.63   1
   2   0  -3 2258.16   32.02   5
  -2   0   3 2170.61   29.74   1
  -2   0   3 2241.94   33.62   2
  -2   0   3 2186.20   31.71   3
  -2   0   3 2176.28   29.98   1
   1   0  -3 193.609   7.324   1
   1   0  -3 170.361   7.380   1
   1   0  -3 176.304   7.706   5
  -1   0   3 201.662   7.563   5
  -1   0   3 186.768   7.748   1
  -1   0   3 175.863   7.139   1
   0   0  -3 140.221   7.142   1
   0   0  -3 143.879   6.587   1
   0   0  -3 142.820   6.136   5
   0   0   3 142.731   6.585   1
   0   0   3 147.607   6.068   5
   0   0   3 147.749   7.257   1
  -1   0  -3 535.618  13.154   1
  -1   0  -3 538.306  13.181   1
  -1   0  -3 539.037  11.859   3
  -1   0  -3 540.307   9.801   5
   1   0   3 543.784  13.202   1
   1   0   3 534.490  11.760   3
  -2   0  -3 1619.69   26.67   1
  -2   0  -3 1641.95   28.39   3
  -2   0  -3 1652.20   26.94   1
   2   0   3 1648.69   26.71   1
  -3   0  -3 5842.77   67.98   1
  -3   0  -3 5763.51   76.17   3
   3   0   3 5725.61   67.03   1
  -4   0  -3 95.0245  7.5824   1
  -4   0  -3 113.864   7.201   1
  -4   0  -3 105.280  10.450   3
   4   0   3 108.618   7.389   1
  -5   0  -3 106.190   7.893   1
  -5   0  -3 119.683  13.306   3
   5   0   3 110.382   7.635   1
  -6   0  -3 55.4198 12.0890   3
  -6   0  -3 53.9745  6.2623   1
  -7   0  -3 54.6864  6.0504   1
  -7   0  -3 65.2714 14.2699   3
  -8   0  -3 5.05781 8.38027   3
  -9   1   3 219.436  22.290   3
  -8   1   3 327.312  23.372   3
   7  -1  -3 22.1351  5.8547   5
  -7   1   3 -10.097  10.990   3
   6  -1  -3 85.1220  8.0808   5
  -6   1   3 106.772  13.310   3
  -6   1   3 100.389   7.676   1
  -6   1   3 107.472  12.642   2
   5  -1  -3 129.766   7.969   1
   5  -1  -3 148.540   9.240   5
  -5   1   3 132.669   8.412   1
  -5   1   3 135.036  12.090   2
  -5   1   3 140.231   7.843   1
  -5   1   3 135.706  13.249   3
   4  -1  -3 308.753   9.863   4
   4  -1  -3 284.840  12.278   5
   4  -1  -3 303.264  11.016   1
  -4   1   3 324.150  15.549   3
  -4   1   3 325.731  11.738   1
  -4   1   3 291.922  10.804   1
  -4   1   3 308.128  14.302   2
   3  -1  -3 449.067  12.787   1
   3  -1  -3 457.851  10.153   4
   3  -1  -3 447.566  13.691   5
  -3   1   3 442.362  12.658   1
  -3   1   3 439.720  12.703   1
  -3   1   3 444.615  15.817   3
  -3   1   3 451.148  14.695   2
   2  -1  -3 17.3983  1.9747   4
   2  -1  -3 15.0822  3.9541   5
  -2   1   3 8.18533 3.85488   1
  -2   1   3 11.4763  1.8274   4
  -2   1   3 14.0777  2.7370   1
   1  -1  -3 5193.91   58.86   1
   1  -1  -3 5348.34   59.56   1
   1  -1  -3 5125.27   57.32   5
  -1   1   3 5227.30   57.35   5
  -1   1   3 5268.38   59.37   1
   0  -1  -3 235.581   8.542   1
   0  -1  -3 241.641   8.594   1
   0  -1  -3 245.294   7.937   5
   0   1   3 256.575   8.831   1
   0   1   3 255.546   7.789   5
   0   1   3 258.387   8.898   1
  -1  -1  -3 4862.99   56.16   1
  -1  -1  -3 4969.15   56.56   1
   1   1   3 4812.57   57.37   3
   1   1   3 4863.24   49.73   5
   1   1   3 5036.78   56.60   1
  -2  -1  -3 3863.44   47.50   1
  -2  -1  -3 3828.58   52.25   3
  -2  -1  -3 3772.61   46.84   1
   2   1   3 3804.85   46.73   1
  -3  -1  -3 3517.20   45.13   1
  -3  -1  -3 3401.63   53.82   3
  -3  -1  -3 3532.21   45.35   1
   3   1   3 3528.23   44.75   1
  -4  -1  -3 522.284  14.334   1
  -4  -1  -3 515.693  20.471   3
  -4  -1  -3 544.923  14.741   1
   4   1   3 541.235  14.309   1
  -5  -1  -3 -1.4490  3.4520   1
  -5  -1  -3 -4.5307  6.7170   3
  -6  -1  -3 38.8392  4.8209   1
  -6  -1  -3 51.9233 12.0522   3
  -7  -1  -3 206.403  19.732   3
  -8  -1  -3 97.3642 17.5197   3
  -9   2   3 69.6711 15.9580   3
  -8   2   3 148.147  18.824   3
   7  -2  -3 2.44340 4.62723   5
  -7   2   3 13.2674  5.1120   1
  -7   2   3 -10.723   8.653   3
   6  -2  -3 59.0512  7.5824   5
   6  -2  -3 58.4962  6.8150   1
  -6   2   3 54.8879 11.7465   3
  -6   2   3 38.9429  6.7407   1
   5  -2  -3 458.949  15.843   1
   5  -2  -3 436.208  16.437   5
  -5   2   3 455.424  20.797   3
  -5   2   3 448.816  18.200   2
  -5   2   3 475.731  16.420   1
   4  -2  -3 113.142   8.396   1
   4  -2  -3 101.924   8.145   5
  -4   2   3 113.216   9.353   2
  -4   2   3 112.854   8.824   1
  -4   2   3 87.4479  7.1941   1
  -4   2   3 122.811  11.289   3
   3  -2  -3 128.654   7.782   1
   3  -2  -3 125.638   6.242   4
   3  -2  -3 127.136   8.356   5
  -3   2   3 125.272   7.524   2
  -3   2   3 126.349   6.578   4
  -3   2   3 132.496   7.992   1
  -3   2   3 146.722   8.394   1
   2  -2  -3 439.331  13.473   5
   2  -2  -3 391.107  12.522   1
   2  -2  -3 428.309  10.636   4
  -2   2   3 428.985  11.180   2
  -2   2   3 430.327  13.029   1
  -2   2   3 397.606  10.489   4
  -2   2   3 409.844  13.049   1
   1  -2  -3 684.664  14.225   4
   1  -2  -3 680.142  16.357   1
   1  -2  -3 670.654  15.562   5
  -1   2   3 698.023  14.555   4
  -1   2   3 670.722  16.394   1
   0  -2  -3 906.043  16.870   5
   0  -2  -3 910.924  18.168   1
   0  -2  -3 902.612  18.424   1
   0   2   3 897.694  18.528   4
   0   2   3 888.317  18.338   1
   0   2   3 910.272  16.800   5
  -3  -2  -3 7489.15   81.02   1
  -3  -2  -3 7451.37   95.59   3
  -3  -2  -3 7466.42   81.14   1
   3   2   3 7543.97   80.68   1
  -4  -2  -3 1161.33   21.54   1
  -4  -2  -3 1176.98   22.00   1
  -4  -2  -3 1145.97   31.88   3
   4   2   3 1160.46   21.16   1
  -5  -2  -3 1208.97   21.78   1
  -5  -2  -3 1248.36   37.17   3
  -6  -2  -3 36.6367  3.6351   1
  -6  -2  -3 35.7534 11.9821   3
  -7  -2  -3 82.7104 14.8568   3
  -8  -2  -3 39.8923 14.1813   3
  -8   3   3 30.8817  7.0076   1
  -8   3   3 38.8348 13.3421   3
   7  -3  -3 1.09927 5.15422   5
  -7   3   3 -2.9023  6.1172   1
  -7   3   3  0.1749 11.2739   3
   6  -3  -3 32.9439  6.2625   5
   6  -3  -3 39.2708  6.7986   1
  -6   3   3 42.5286  7.4779   1
  -6   3   3 30.9860 11.3854   3
   5  -3  -3 32.9311  6.8844   1
   5  -3  -3 30.7126  6.8198   5
  -5   3   3 51.3467 11.4809   3
  -5   3   3 33.6730  7.7134   1
   4  -3  -3 2023.16   36.74   5
   4  -3  -3 2007.26   36.84   1
  -4   3   3 1994.01   35.14   4
  -4   3   3 1989.32   35.97   2
  -4   3   3 2009.27   37.07   1
   3  -3  -3 2132.91   36.93   1
   3  -3  -3 2172.09   36.65   5
  -3   3   3 2122.98   34.51   4
  -3   3   3 2152.32   32.99   2
  -3   3   3 2138.16   37.07   1
   2  -3  -3 4053.20   53.60   5
   2  -3  -3 4226.58   53.03   4
   2  -3  -3 4070.54   55.18   1
  -2   3   3 4144.07   55.63   1
  -2   3   3 4153.56   53.27   4
   1  -3  -3 6049.45   68.90   5
   1  -3  -3 5890.67   70.65   1
   1  -3  -3 6091.01   71.17   4
  -1   3   3 6004.89   71.34   1
  -1   3   3 6125.98   72.00   4
   0  -3  -3 686.935  15.976   5
   0  -3  -3 673.841  16.897   1
   0   3   3 685.440  16.988   1
   0   3   3 707.428  18.318   4
  -1  -3  -3 40.0975  4.8069   1
  -1  -3  -3 32.2724  4.8899   1
   1   3   3 31.1980  5.4085   4
  -2  -3  -3 167.001   7.953   1
  -2  -3  -3 170.308   8.164   1
   2   3   3 170.737   8.071   1
   2   3   3 184.129   7.058   5
  -3  -3  -3 357.352  11.277   1
  -3  -3  -3 354.800  11.269   1
   3   3   3 346.416  10.937   1
   3   3   3 352.602   8.907   5
  -4  -3  -3 488.651  13.298   1
  -4  -3  -3 473.290  12.730   1
   4   3   3 488.584  12.661   1
  -5  -3  -3 110.724  14.462   3
  -5  -3  -3 116.108   5.814   1
  -6  -3  -3 28.9770 11.7813   3
  -7  -3  -3  8.8691 11.6290   3
  -8  -3  -3 2.53363 9.82232   3
  -8   4   3 -7.8493  6.9099   1
  -8   4   3 -5.1061 12.2919   3
  -7   4   3 24.0585  7.2716   1
  -7   4   3 43.3768 13.4980   3
   6  -4  -3 56.4165  8.3076   1
   6  -4  -3 48.3633  8.0404   5
  -6   4   3 47.2336 10.3742   3
  -6   4   3 47.0094  7.9564   1
   5  -4  -3 169.312  11.590   1
   5  -4  -3 184.054  11.478   5
  -5   4   3 171.885  11.693   4
  -5   4   3 167.493  11.863   1
   4  -4  -3 249.642  14.047   1
   4  -4  -3 248.509  13.514   5
  -4   4   3 260.171  13.219   4
  -4   4   3 279.856  14.847   1
   3  -4  -3 102.076   9.298   5
   3  -4  -3 104.020   6.104   2
   3  -4  -3 113.952  10.197   1
  -3   4   3 92.7873  9.7395   1
  -3   4   3 119.939   8.991   4
   2  -4  -3 -5.1737  5.9985   1
   2  -4  -3 5.47825 4.02901   5
  -2   4   3 7.53626 1.71779   2
  -2   4   3 -0.2647  6.1174   1
   1  -4  -3 50.0833  7.2399   1
   1  -4  -3 50.4215  6.4196   5
  -1   4   3 50.7010  6.7245   4
  -1   4   3 55.5957  7.2318   1
   0  -4  -3 998.907  21.516   5
   0  -4  -3 963.418  22.111   1
   0   4   3 1005.69   24.55   4
   0   4   3 970.370  14.031   2
   0   4   3 963.850  22.028   1
  -1  -4  -3 235.969  10.193   1
  -1  -4  -3 262.354  10.899   1
   1   4   3 263.603   8.708   2
   1   4   3 251.723  10.419   1
   1   4   3 259.600  13.380   4
  -2  -4  -3 4785.50   59.00   1
  -2  -4  -3 4784.76   59.53   1
   2   4   3 4755.30   59.04   1
  -3  -4  -3 2425.85   35.97   1
  -3  -4  -3 2431.38   35.96   1
   3   4   3 2380.77   35.38   1
   3   4   3 2454.86   49.21   4
  -4  -4  -3 451.621  12.547   1
   4   4   3 473.091  22.211   4
   4   4   3 474.396  12.586   1
  -5  -4  -3 48.8072  3.9137   1
   6   4   3 8.99304 7.12039   4
   7   4   3 13.0495 10.4152   4
   8   4   3 213.737  20.850   4
  -8   5   3 -2.1621  8.8562   3
  -8   5   3 22.3873  8.0469   1
  -7   5   3 -1.0645  6.4718   1
  -7   5   3 11.2495 12.6822   3
   6  -5  -3 51.9346  9.2811   1
   6  -5  -3 56.1398  8.6642   5
  -6   5   3 75.3197 12.3857   3
   5  -5  -3 2015.85   43.43   1
   5  -5  -3 1919.05   40.86   5
  -5   5   3 2015.57   43.78   1
  -5   5   3 1978.82   42.41   4
   4  -5  -3 1112.56   29.21   5
   4  -5  -3 1082.45   29.93   1
  -4   5   3 1078.58   28.77   4
  -4   5   3 1094.22   30.40   1
   3  -5  -3 4071.11   62.40   1
   3  -5  -3 4008.01   59.84   5
   3  -5  -3 3792.07   47.44   2
  -3   5   3 4087.75   62.48   1
  -3   5   3 4086.13   61.75   4
   2  -5  -3 4376.83   61.83   5
   2  -5  -3 4363.29   63.48   1
  -2   5   3 4326.71   63.39   1
  -2   5   3 4360.07   63.59   4
   1  -5  -3 4469.11   63.39   1
  -1   5   3 4560.61   63.73   1
  -1   5   3 4582.82   65.53   4
   0  -5  -3 42.2872  6.8408   1
   0   5   3 45.8587  7.4413   1
   0   5   3 46.5562  8.5018   4
  -1  -5  -3 4474.59   60.62   1
   1   5   3 4500.52   60.35   1
   1   5   3 4462.02   53.24   2
   1   5   3 4568.57   68.79   4
  -2  -5  -3 1320.03   26.30   1
  -2  -5  -3 1324.16   26.59   1
   2   5   3 1308.73   34.10   4
   2   5   3 1315.57   26.28   1
  -3  -5  -3 1882.58   31.96   1
   3   5   3 1891.85   43.97   4
   3   5   3 1828.29   31.16   1
  -4  -5  -3 831.313  18.093   1
   4   5   3 806.755  29.610   4
   5   5   3 610.715  27.461   4
   6   5   3 23.5336  8.6523   4
   7   5   3 28.3392 11.5129   4
  -8   6   3 -10.213   9.422   1
  -8   6   3 -9.6326 13.0397   3
  -7   6   3 98.3295 11.8319   1
  -7   6   3 103.706  15.378   3
   6  -6  -3 10.0517  7.9643   1
  -6   6   3 -7.2124  7.0288   4
  -6   6   3 -8.1240  8.9417   1
   5  -6  -3 160.226  14.069   1
  -5   6   3 113.666  12.089   4
  -5   6   3 134.180  13.745   1
   4  -6  -3 -1.3790  5.3638   1
  -4   6   3 3.59111 6.20214   1
   3  -6  -3 530.616  21.789   1
  -3   6   3 493.650  20.427   4
  -3   6   3 528.070  21.657   1
   2  -6  -3 6.31664 7.95089   1
  -2   6   3 10.7569  7.9077   4
  -2   6   3 5.92373 8.23811   1
   1  -6  -3 2050.57   41.08   1
  -1   6   3 2095.55   42.31   4
  -1   6   3 2065.14   40.75   1
   0  -6  -3 7.91210 4.86088   1
   0   6   3 2.53399 8.29365   4
   0   6   3 9.40152 4.92886   1
  -1  -6  -3 2329.51   41.10   1
   1   6   3 2270.49   40.27   1
   1   6   3 2227.86   46.72   4
   1   6   3 2235.55   31.30   2
  -2  -6  -3 540.732  17.818   1
   2   6   3 559.864  17.711   1
   2   6   3 518.391  22.828   4
  -3  -6  -3 60.0085  6.8037   1
   3   6   3 69.3379 12.3076   4
   3   6   3 73.6023  6.7134   1
  -4  -6  -3 66.8014  6.0192   1
   4   6   3 58.6750  9.7623   4
   5   6   3 3.59616 8.93319   4
   6   6   3 63.6553 12.4046   4
   7   6   3 286.303  22.066   4
  -8   7   3 11.9709  9.6844   1
  -7   7   3 10.5059  9.9836   1
  -7   7   3 17.9765 13.1382   3
   6  -7  -3 125.949  14.638   1
  -6   7   3 122.703  14.801   1
  -6   7   3 99.5566 11.7071   4
   5  -7  -3 -8.4772  9.2837   1
  -5   7   3 8.72784 9.37934   1
  -5   7   3 24.0476  9.3469   4
   4  -7  -3 276.230  18.099   1
  -4   7   3 285.873  17.327   4
  -4   7   3 264.901  17.676   1
   3  -7  -3 184.598  14.782   1
  -3   7   3 144.537  13.788   1
  -3   7   3 142.675  13.210   4
  -2   7   3 46.1058 10.7284   4
   1  -7  -3 2010.27   42.94   1
  -1   7   3 2080.43   43.16   1
  -1   7   3 2153.48   46.68   4
   0  -7  -3 1411.89   33.99   1
   0   7   3 1410.11   33.78   1
   0   7   3 1442.96   38.36   4
  -1  -7  -3 1025.23   27.75   1
   1   7   3 1088.31   27.96   1
   1   7   3 981.130  32.448   4
  -2  -7  -3 1246.29   29.67   1
   2   7   3 1245.76   37.17   4
   2   7   3 1271.15   29.41   1
  -3  -7  -3 98.6701  8.5406   1
   3   7   3 112.431  14.181   4
   4   7   3 5.93532 7.96353   4
   5   7   3 -8.8107  7.8134   4
   6   7   3 11.7535 10.8448   4
   7   7   3 59.4778 13.9301   4
  -7   8   3 42.6077 15.0958   3
  -7   8   3 30.4961 10.9653   1
   6  -8  -3 118.532  14.567   1
  -6   8   3 132.054  15.183   4
  -6   8   3 128.111  15.539   1
   5  -8  -3 253.994  19.054   1
  -5   8   3 271.002  19.012   4
  -5   8   3 240.851  18.791   1
   4  -8  -3 301.378  20.142   1
  -4   8   3 290.637  19.079   4
  -4   8   3 310.023  20.360   1
   3  -8  -3 71.9477 14.3722   1
  -3   8   3 77.7707 13.9840   1
  -3   8   3 68.3450 12.1170   4
   2  -8  -3 2000.05   46.63   1
  -2   8   3 1971.05   46.33   1
  -2   8   3 1994.94   47.34   4
  -1   8   3 16.6714  9.9160   4
   0  -8  -3 2108.48   45.15   1
   0   8   3 2127.82   44.60   1
   0   8   3 2094.24   49.22   4
  -1  -8  -3 283.011  15.951   1
   1   8   3 291.610  15.610   1
   1   8   3 286.049  18.416   4
  -2  -8  -3 3.45671 5.70779   1
   2   8   3 -11.222  10.507   4
  -3  -8  -3 444.880  17.559   1
   3   8   3 429.243  23.561   4
  -4  -8  -3 127.793   9.187   1
   4   8   3 125.644  16.332   4
   5   8   3 13.0816 10.8553   4
   6   8   3 123.862  17.243   4
   6  -9  -3 84.6226 12.7063   1
  -6   9   3 68.9102 12.3539   1
  -6   9   3 71.6508 13.2670   4
   5  -9  -3 104.513  14.648   1
  -5   9   3 125.664  14.487   4
  -5   9   3 139.836  15.783   1
   4  -9  -3 253.080  19.318   1
  -4   9   3 212.797  17.685   1
  -4   9   3 266.306  19.791   4
   3  -9  -3 560.496  27.276   1
  -3   9   3 574.865  27.431   4
  -3   9   3 587.410  27.468   1
   2  -9  -3 1857.79   47.10   1
  -2   9   3 1867.16   48.67   4
  -2   9   3 1805.14   45.86   1
  -1   9   3 74.7399 10.9074   1
  -1   9   3 83.0618 11.9056   4
   0  -9  -3 821.575  28.998   1
   0   9   3 826.237  32.608   4
   0   9   3 797.740  28.127   1
  -1  -9  -3 33.2780  8.5857   1
   1   9   3 38.1018  8.3877   1
  -2  -9  -3 254.129  15.663   1
   2   9   3 252.450  20.468   4
  -3  -9  -3 -4.3273  5.7837   1
  -4  -9  -3 95.5198  8.5704   1
   4   9   3 88.9353 13.5046   4
   5   9   3 -10.941  10.300   4
   6 -10  -3 227.207  20.029   1
  -6  10   3 200.209  19.008   1
  -6  10   3 199.975  19.000   4
   5 -10  -3 49.9710 11.0624   1
  -5  10   3 49.8853 11.5140   1
  -5  10   3 53.0644 13.3204   4
   4 -10  -3 549.260  29.145   1
  -4  10   3 492.985  27.757   1
  -4  10   3 532.113  28.389   4
   3 -10  -3 127.774  15.121   1
  -3  10   3 102.595  13.215   1
  -3  10   3 97.0713 15.0379   4
   2 -10  -3 14.0892  9.5098   1
  -2  10   3 11.4779  9.0932   4
  -2  10   3 11.9733  9.1645   1
   1 -10  -3 22.1863  7.4961   1
  -1  10   3 35.0677  9.0625   1
   0 -10  -3 33.4036  9.9088   1
   0  10   3 24.5310  9.8470   4
   0  10   3 36.2320  9.0692   1
  -1 -10  -3 498.283  22.758   1
   1  10   3 540.899  23.045   1
   1  10   3 463.803  25.894   4
  -2 -10  -3 1026.95   32.00   1
   2  10   3 1076.99   40.98   4
   3  10   3 51.7029 13.9016   4
   4  10   3  4.7886 11.7850   4
   5 -11  -3 141.156  18.122   1
  -5  11   3 180.601  20.060   1
  -5  11   3 174.536  19.602   4
   4 -11  -3 372.346  26.714   1
  -4  11   3 421.954  27.230   1
  -4  11   3 403.477  26.589   4
  -3  11   3 31.5735 12.6631   4
  -3  11   3 44.1812 12.7860   1
   2 -11  -3 66.9508 13.4596   1
  -2  11   3 58.6773 11.7814   4
  -2  11   3 56.7217 12.3331   1
   1 -11  -3 -3.5016  7.3815   1
  -1  11   3  1.5270 11.5161   4
   0 -11  -3 21.4077  9.9166   1
   0  11   3 40.9946 14.1485   4
   0  11   3 47.9098 10.2489   1
  -1 -11  -3 210.458  16.882   1
   1  11   3 206.036  19.370   4
  -2 -11  -3 170.324  15.022   1
   2  11   3 177.756  20.089   4
  -3 -11  -3 -4.4878  6.5840   1
   3  11   3 15.6383 10.1228   4
   3 -12  -3 17.3609  9.1328   1
   2 -12  -3 162.725  17.726   1
  -2  12   3 159.098  17.945   1
  -2  12   3 136.273  16.920   4
   1 -12  -3 -4.3571  9.7126   1
  -1  12   3 10.7190  9.3395   4
  -1  12   3 -2.4735  9.6596   1
   0 -12  -3 423.347  25.025   1
   0  12   3 429.947  28.433   4
  -1 -12  -3 395.087  23.481   1
   1  12   3 371.359  27.845   4
  -2 -12  -3 -2.7311  8.1008   1
   2  12   3 30.8257 14.9556   4
   1  13  -4 -8.2507 12.4520   4
  -1 -13   4 20.8859 10.7277   1
   0  13  -4  0.9819 11.3038   4
  -3 -12   4 0.12556 6.78258   1
  -2 -12   4 3.53304 8.57763   1
   1  12  -4 97.0563 16.0928   4
   0 -12   4 46.4802 10.7256   1
  -1  12  -4 19.8088 11.2987   1
   1 -12   4 31.6677 12.7532   1
  -2  12  -4 86.4578 16.9267   4
  -2  12  -4 58.3120 14.1819   1
   2 -12   4 75.0928 14.6333   1
  -3  12  -4 -14.935  12.923   4
  -3  12  -4 -2.0087 11.4426   1
   3 -12   4 -30.361  13.461   1
   4  11  -4 -0.0403  8.1766   4
   3  11  -4 189.786  18.220   4
  -3 -11   4 177.970  14.179   1
   2  11  -4 720.812  32.865   4
  -2 -11   4 724.334  28.481   1
   1  11  -4 25.6385  9.3732   4
  -1 -11   4 -15.073  10.249   1
   0  11  -4 11.7543 11.3714   4
   0 -11   4 8.27260 9.89750   1
   1 -11   4 9.16238 9.46422   1
  -2  11  -4  7.9145 12.0054   4
  -2  11  -4 33.3691 11.8461   1
  -3  11  -4 99.4038 17.1546   4
  -3  11  -4 138.838  15.841   1
   3 -11   4 122.976  15.122   1
  -4  11  -4 132.213  19.031   4
  -4  11  -4 113.220  17.203   1
   4 -11   4 117.476  17.571   1
   5  10  -4 132.763  14.812   4
  -5 -10   4 151.584  16.151   2
   4  10  -4 340.824  21.700   4
  -4 -10   4 268.930  19.032   2
   3  10  -4 23.7601 10.0779   4
   2  10  -4 63.4474 12.3833   4
  -2 -10   4 52.0037  8.4742   2
  -2 -10   4 74.6727 10.9987   1
   1  10  -4 29.7032 11.3581   4
   1  10  -4 57.0096  9.9272   1
  -1 -10   4 47.3829 10.8107   1
  -1 -10   4 42.8028  8.2765   2
   0  10  -4 -10.599   9.511   4
   0  10  -4 -1.2588  7.9360   1
   0 -10   4 0.31098 5.85499   2
   0 -10   4 2.28388 8.25930   1
  -1  10  -4 260.007  19.086   1
  -1  10  -4 248.120  19.850   4
   1 -10   4 228.186  18.280   1
  -2  10  -4 50.5386 13.6090   4
  -2  10  -4 30.4622 12.0296   1
   2 -10   4 72.8236 13.8595   1
  -3  10  -4 -5.6414 12.1973   4
  -3  10  -4 12.1434 11.4627   1
   3 -10   4 13.2484 10.4392   1
  -4  10  -4 412.028  27.801   4
  -4  10  -4 422.098  26.564   1
   4 -10   4 463.215  27.833   1
  -5  10  -4 78.7953 15.9582   1
  -5  10  -4 54.7401 11.1772   3
  -5  10  -4 48.3773 14.5385   4
   5 -10   4 58.4379 14.2217   1
   6   9  -4 129.420  13.647   5
  -6  -9   4 113.339  15.868   2
   5   9  -4 45.6847 10.4328   4
   4   9  -4 113.171  13.065   4
  -4  -9   4 89.9630 12.8033   2
  -4  -9   4 84.9337  7.9639   1
   3   9  -4 78.8323 12.4651   4
  -3  -9   4 94.3212 12.2752   2
  -3  -9   4 102.751  10.178   1
   2   9  -4 682.694  27.497   4
  -2  -9   4 689.026  24.964   2
  -2  -9   4 677.936  24.496   1
   1   9  -4 140.529  12.580   1
   1   9  -4 141.147  14.774   4
  -1  -9   4 144.394  13.663   1
  -1  -9   4 137.063  11.762   2
   0   9  -4 280.196  18.015   4
   0   9  -4 276.919  16.853   1
   0  -9   4 271.528  17.011   1
  -1   9  -4 36.2111 10.4441   1
   1  -9   4 36.7530 10.9305   1
  -2   9  -4 425.428  24.854   4
  -2   9  -4 412.051  23.251   1
   2  -9   4 458.904  24.500   1
  -3   9  -4 291.189  20.897   4
  -3   9  -4 271.002  20.356   1
   3  -9   4 273.227  20.375   1
  -4   9  -4 10.7463 11.3477   4
  -4   9  -4 23.4369 11.6423   1
   4  -9   4 -4.7379 10.1795   1
  -5   9  -4 26.6008 12.4990   1
  -5   9  -4 59.3155 12.3494   3
   5  -9   4 53.9164 13.2769   1
  -6   9  -4 14.5474 11.6604   3
  -6   9  -4  7.0639 12.3260   1
   6  -9   4 19.3752 11.0757   1
  -7  -8   4 449.200  27.717   2
   6   8  -4 80.3998 11.4039   5
  -6  -8   4 75.5165 12.4127   2
   5   8  -4 147.117  13.601   4
  -5  -8   4 181.744  17.126   2
   4   8  -4 567.823  23.720   4
  -4  -8   4 577.654  25.338   2
  -4  -8   4 576.821  17.413   1
   3   8  -4 257.669  16.470   4
  -3  -8   4 253.370  15.895   2
  -3  -8   4 270.347  13.935   1
   2   8  -4 964.604  26.719   1
   2   8  -4 955.996  29.992   4
  -2  -8   4 946.201  28.781   2
  -2  -8   4 984.456  27.847   1
   1   8  -4 1.60696 6.38036   1
   1   8  -4 11.4858  8.5785   4
  -1  -8   4 11.3384  7.7082   1
   0   8  -4 698.619  25.413   1
   0   8  -4 667.114  25.493   4
   0  -8   4 682.744  25.426   1
  -1   8  -4 1630.05   41.09   1
  -1   8  -4 1648.96   43.63   4
   1  -8   4 1596.26   41.04   1
  -2   8  -4 8.45526 9.14433   1
  -2   8  -4 -19.243  10.022   4
   2  -8   4 -2.2854  8.2493   1
  -3   8  -4 237.019  17.025   1
  -3   8  -4 245.597  20.058   4
   3  -8   4 234.134  17.265   1
  -4   8  -4 37.0989 12.1661   4
  -4   8  -4 28.6066 10.8406   1
   4  -8   4 57.1385 12.3004   1
  -5   8  -4 44.5770 10.2591   1
  -5   8  -4 52.6738 10.2855   3
   5  -8   4 35.4385  9.5131   1
  -6   8  -4 30.8652 12.4224   3
  -6   8  -4  7.4838 11.4679   1
  -7  -7   4 89.5820 16.7048   2
   6   7  -4 480.750  22.202   5
  -6  -7   4 504.155  27.405   2
   5   7  -4 13.4686  6.2101   4
  -5  -7   4 -4.5736  6.8755   2
   4   7  -4 2398.50   47.95   4
  -4  -7   4 2344.79   36.38   1
  -4  -7   4 2380.69   52.56   2
   3   7  -4 1106.24   24.80   1
   3   7  -4 1145.63   31.05   4
  -3  -7   4 1084.96   25.37   1
  -3  -7   4 1128.47   32.79   2
   2   7  -4 1091.30   26.80   1
   2   7  -4 1083.26   29.95   4
  -2  -7   4 1048.34   29.84   2
  -2  -7   4 1047.95   27.10   1
   1   7  -4 428.407  19.874   4
   1   7  -4 436.630  18.042   1
  -1  -7   4 404.467  18.340   1
  -1  -7   4 411.618  17.976   2
   0   7  -4 11.0595  7.4471   1
   0   7  -4 24.2606  8.8606   4
  -1   7  -4 338.567  17.354   1
  -1   7  -4 334.942  19.140   4
   1  -7   4 359.619  17.815   1
  -2   7  -4 176.390  15.242   4
  -2   7  -4 190.341  14.116   1
   2  -7   4 192.301  14.438   1
  -3   7  -4 5.64801 8.65928   1
  -3   7  -4 -1.3005  7.0959   4
   3  -7   4 1.73026 8.08005   1
  -4   7  -4 108.235  15.401   4
  -4   7  -4 109.334  14.257   1
   4  -7   4 117.840  14.266   1
  -5   7  -4 10.9084 10.1501   1
  -5   7  -4 4.45123 9.63189   3
   5  -7   4 1.24648 8.90740   1
  -6   7  -4 53.8316 12.7142   3
  -6   7  -4 58.5089 12.8679   1
   6  -7   4 55.7527 11.6981   1
  -7   7  -4 31.8523 11.6765   1
  -7   7  -4 45.4498 11.7568   3
  -8  -6   4 14.4227 11.9008   2
   7   6  -4 381.153  18.680   5
  -7  -6   4 347.236  23.713   2
   6   6  -4 317.554  17.480   5
   6   6  -4 305.442  16.243   4
  -6  -6   4 297.975  20.340   2
   5   6  -4 821.135  25.128   4
   5   6  -4 832.525  27.072   5
  -5  -6   4 866.350  32.141   2
   4   6  -4 3243.02   54.36   4
  -4  -6   4 3304.51   62.47   2
  -4  -6   4 3307.90   43.25   1
   3   6  -4 3194.42   52.77   4
   3   6  -4 3261.03   46.12   1
  -3  -6   4 3282.74   47.25   1
  -3  -6   4 3311.35   58.76   2
   2   6  -4 187.897  10.306   1
   2   6  -4 189.024  12.005   4
  -2  -6   4 187.520  10.716   1
  -2  -6   4 194.343  13.541   2
   1   6  -4 219.190  13.721   4
   1   6  -4 210.152  12.496   1
  -1  -6   4 211.919  12.851   1
   0   6  -4 1771.82   36.88   1
   0   6  -4 1723.82   37.65   4
   0  -6   4 1809.23   38.21   1
  -1   6  -4 -4.6830  7.2358   1
  -1   6  -4 0.18164 8.57223   4
  -2   6  -4 448.713  21.668   4
  -2   6  -4 417.330  20.091   1
   2  -6   4 436.309  20.267   1
  -3   6  -4 60.7055 10.3665   1
  -3   6  -4 54.5465 11.7849   4
   3  -6   4 43.2684  8.8787   1
  -4   6  -4 46.9265  9.2671   1
  -4   6  -4 28.9835  9.1023   3
   4  -6   4 30.2915  7.7641   1
  -5   6  -4 7.11670 8.92123   3
  -5   6  -4 -19.814  10.066   1
   5  -6   4 -2.2542  8.1982   1
  -6   6  -4 334.822  21.297   1
  -6   6  -4 328.975  22.715   3
   6  -6   4 337.530  20.758   1
  -7   6  -4 249.604  19.415   1
  -7   6  -4 253.822  22.013   3
  -8  -5   4 204.158  19.726   2
   7   5  -4 100.820  10.448   5
  -7  -5   4 69.7421 12.5838   2
   6   5  -4 674.458  22.239   4
   6   5  -4 665.630  23.439   5
  -6  -5   4 682.192  30.189   2
   5   5  -4 2833.25   47.94   4
   5   5  -4 2863.60   51.18   5
  -5  -5   4 2774.13   58.72   2
   4   5  -4 34.5924  6.5606   4
  -4  -5   4 44.3498  4.2570   1
   3   5  -4 1207.76   26.69   4
   3   5  -4 1205.16   23.07   1
  -3  -5   4 1190.34   31.35   2
  -3  -5   4 1215.13   23.09   1
  -3  -5   4 1215.92   23.72   1
   2   5  -4 1705.76   30.49   1
   2   5  -4 1732.23   32.71   4
  -2  -5   4 1706.03   30.58   1
  -2  -5   4 1712.64   36.13   2
  -2  -5   4 1698.24   31.16   1
   1   5  -4 2346.77   39.54   1
   1   5  -4 2313.66   40.29   4
  -1  -5   4 2269.83   39.41   1
   0   5  -4 131.589  10.526   4
   0   5  -4 146.821  10.751   1
   0  -5   4 160.621  11.197   1
  -1   5  -4 617.339  21.003   1
  -1   5  -4 620.784  21.582   4
   1  -5   4 652.736  21.737   1
  -2   5  -4 700.789  24.675   4
  -2   5  -4 656.408  22.425   1
   2  -5   4 720.879  23.734   1
  -3   5  -4 35.0282 10.5451   4
  -3   5  -4 27.5993  9.0038   1
   3  -5   4 38.1121  8.8841   1
  -4   5  -4 42.3867  9.5608   1
  -4   5  -4 63.4235  9.0393   3
   4  -5   4 62.8527  9.7338   1
  -5   5  -4 362.040  20.997   3
  -5   5  -4 339.356  19.291   1
   5  -5   4 362.078  19.451   1
  -6   5  -4 145.645  16.020   3
  -6   5  -4 143.282  14.544   1
   6  -5   4 158.556  14.468   1
  -7   5  -4 2.89410 9.69861   3
  -7   5  -4 -5.4528  7.5438   1
  -8  -4   4 899.462  38.498   3
  -8  -4   4 907.174  39.288   2
   7   4  -4 889.505  26.922   5
  -7  -4   4 888.273  35.844   3
  -7  -4   4 823.892  34.340   2
   6   4  -4 173.798  12.666   5
   6   4  -4 183.879  10.999   4
  -6  -4   4 200.258  17.430   2
  -6  -4   4 154.258  15.665   3
   5   4  -4 3523.65   52.41   4
   5   4  -4 3522.20   56.65   5
  -5  -4   4 3547.42   63.45   3
  -5  -4   4 3497.23   65.72   2
   4   4  -4 3042.24   36.96   1
   4   4  -4 3071.48   45.62   4
   4   4  -4 2982.58   49.69   5
  -4  -4   4 3057.49   56.89   2
  -4  -4   4 3025.04   37.30   1
  -4  -4   4 3054.30   53.22   3
   3   4  -4 505.811  13.333   1
   3   4  -4 505.143  14.845   4
  -3  -4   4 504.262  13.717   1
  -3  -4   4 505.871  20.136   2
  -3  -4   4 499.360  13.299   1
   2   4  -4 983.554  21.157   4
   2   4  -4 986.385  20.942   1
  -2  -4   4 983.694  21.380   1
  -2  -4   4 946.648  25.334   2
  -2  -4   4 985.754  20.926   1
   1   4  -4 1343.56   26.42   4
   1   4  -4 1360.24   22.75   3
   1   4  -4 1356.41   27.01   1
  -1  -4   4 1348.32   27.31   1
   0   4  -4 8.22721 5.70283   1
   0   4  -4 6.96814 4.41796   4
  -1   4  -4 1423.06   30.67   1
  -1   4  -4 1389.40   30.89   4
   1  -4   4 1365.67   30.15   1
  -2   4  -4 21.5519  8.1985   4
  -2   4  -4 29.1333  7.0683   1
   2  -4   4 30.0408  7.3347   1
  -3   4  -4 583.851  21.610   1
  -3   4  -4 545.609  19.578   3
   3  -4   4 512.053  20.062   1
  -4   4  -4 902.355  27.620   3
  -4   4  -4 932.393  28.378   1
   4  -4   4 925.613  27.749   1
  -5   4  -4 343.813  18.845   3
  -5   4  -4 342.730  18.833   1
   5  -4   4 355.602  18.509   1
  -6   4  -4 133.994  15.740   3
  -6   4  -4 127.288  13.107   1
  -7   4  -4 45.5888  9.2146   1
  -7   4  -4 53.0087 11.4440   3
  -8   4  -4 244.972  17.349   1
  -8   4  -4 269.672  23.644   3
  -8  -3   4 76.0281 16.2954   2
  -8  -3   4 61.9600 13.7770   3
   7   3  -4 706.845  23.313   5
  -7  -3   4 726.934  32.381   2
  -7  -3   4 699.405  31.145   3
   6   3  -4 600.019  18.150   4
   6   3  -4 595.529  20.784   5
  -6  -3   4 575.672  25.778   2
  -6  -3   4 600.099  25.678   3
   5   3  -4 708.222  18.149   4
   5   3  -4 682.264  21.676   5
  -5  -3   4 671.862  24.523   3
  -5  -3   4 715.195  27.138   2
   4   3  -4 6.17744 6.95520   5
  -4  -3   4 7.93482 2.80635   1
  -4  -3   4 14.1520  8.2818   2
   3   3  -4 450.940  11.887   1
   3   3  -4 467.631  16.161   5
   3   3  -4 474.000  12.230   4
  -3  -3   4 470.376  15.748   3
  -3  -3   4 467.293  12.454   1
  -3  -3   4 476.051  12.374   1
  -3  -3   4 480.943  18.773   2
   2   3  -4 4413.71   54.15   3
   2   3  -4 4430.75   53.96   1
   2   3  -4 4514.19   53.26   4
  -2  -3   4 4383.52   54.00   1
  -2  -3   4 4460.10   62.86   2
  -2  -3   4 4487.12   53.20   4
  -2  -3   4 4443.53   54.68   1
   1   3  -4 3803.09   48.67   4
   1   3  -4 3747.87   49.73   1
   1   3  -4 3868.96   43.70   3
  -1  -3   4 3919.97   49.07   4
  -1  -3   4 3804.69   50.56   1
  -1  -3   4 3750.05   49.77   1
   0   3  -4 310.026  12.499   1
   0   3  -4 293.045  11.454   4
   0  -3   4 307.810  12.469   1
  -1   3  -4 1870.97   34.24   1
  -1   3  -4 1868.25   34.51   4
   1  -3   4 1881.02   34.48   1
  -2   3  -4 837.141  19.904   3
  -2   3  -4 808.583  22.836   1
   2  -3   4 813.080  22.816   1
  -3   3  -4 488.516  17.753   3
  -3   3  -4 475.689  18.680   1
   3  -3   4 474.890  18.615   1
  -4   3  -4 18.7834  7.9174   3
  -4   3  -4 3.64068 7.17518   1
   4  -3   4 -5.8575  6.3563   1
  -5   3  -4 100.341  10.036   1
  -5   3  -4 108.178  12.421   3
   5  -3   4 114.839  10.092   1
  -6   3  -4 211.411  16.878   3
  -6   3  -4 227.257  14.580   1
  -7   3  -4 217.005  15.134   1
  -7   3  -4 242.382  20.216   3
  -8   3  -4 6.74145 7.23887   1
  -8   3  -4  3.3490 11.7634   3
  -9  -2   4 443.164  29.249   3
  -8  -2   4 104.497  14.294   2
  -8  -2   4 100.820  16.096   3
   7   2  -4 122.702  10.629   5
  -7  -2   4 131.692  15.577   2
  -7  -2   4 134.773  15.901   3
   6   2  -4 5.55547 3.49046   4
  -6  -2   4 -0.7722  9.1387   2
  -6  -2   4 26.0138  9.3243   3
   5   2  -4 544.985  14.323   4
   5   2  -4 575.283  19.370   5
   5   2  -4 545.581  11.124   1
  -5  -2   4 531.394  22.793   2
  -5  -2   4 560.213  11.459   1
  -5  -2   4 568.408  22.655   3
   4   2  -4 3339.20   50.11   5
   4   2  -4 3354.07   40.64   1
   4   2  -4 3507.74   42.36   4
  -4  -2   4 3419.84   57.87   2
  -4  -2   4 3355.09   41.29   1
  -4  -2   4 3348.72   41.03   1
  -4  -2   4 3407.15   54.28   3
   3   2  -4 798.799  20.925   5
   3   2  -4 811.890  13.569   4
   3   2  -4 806.752  16.347   1
  -3  -2   4 791.677  16.416   1
  -3  -2   4 782.910  19.590   3
  -3  -2   4 783.689  16.364   1
  -3  -2   4 801.375  23.123   2
   2   2  -4 2176.67   26.82   4
   2   2  -4 2179.24   31.68   1
   2   2  -4 2193.47   30.65   3
   2   2  -4 2241.86   35.31   5
  -2  -2   4 2119.60   37.36   2
  -2  -2   4 2141.17   31.91   1
  -2  -2   4 2219.55   27.10   4
  -2  -2   4 2103.43   31.33   1
  -2  -2   4 2121.52   30.53   3
   1   2  -4 551.911  15.235   5
   1   2  -4 563.026  14.936   1
   1   2  -4 565.320   9.313   3
   1   2  -4 564.359  12.403   4
  -1  -2   4 549.603  14.466   1
  -1  -2   4 565.394  12.182   4
  -1  -2   4 550.883  14.974   1
   0   2  -4 577.413  15.780   1
   0   2  -4 568.923  14.586   4
   0  -2   4 546.725  14.128   4
   0  -2   4 557.771  15.588   1
  -1   2  -4 1134.54   18.36   3
  -1   2  -4 1127.73   24.32   1
   1  -2   4 1131.88   24.18   1
  -2   2  -4 4551.40   60.97   1
  -2   2  -4 4578.29   57.71   3
   2  -2   4 4445.25   60.20   1
  -3   2  -4 978.865  24.725   1
  -3   2  -4 987.325  24.900   3
   3  -2   4 1002.85   24.60   1
  -4   2  -4 683.292  21.899   1
  -4   2  -4 711.596  24.265   3
   4  -2   4 694.896  21.266   1
  -5   2  -4 290.861  15.324   1
  -5   2  -4 307.025  17.835   3
   5  -2   4 309.438  14.988   1
  -6   2  -4 107.619  13.808   3
  -6   2  -4 102.932  10.791   1
  -7   2  -4 81.5152  9.3612   1
  -7   2  -4 75.0123 14.9393   3
  -8   2  -4 327.918  25.143   3
  -9  -1   4 20.3755 13.4314   3
  -8  -1   4 53.7333 13.1209   3
   7   1  -4 20.4125  6.7174   5
  -7  -1   4 10.7875  9.8227   2
  -7  -1   4 6.46707 9.10103   3
   6   1  -4 591.657  16.420   4
   6   1  -4 601.841  20.108   5
  -6  -1   4 588.796  25.963   2
  -6  -1   4 580.398  24.996   3
  -6  -1   4 587.472  13.055   1
   5   1  -4 1744.35   26.39   1
   5   1  -4 1776.84   27.76   4
   5   1  -4 1792.74   35.19   5
  -5  -1   4 1760.48   26.93   1
  -5  -1   4 1756.70   41.04   2
  -5  -1   4 1764.20   40.51   3
   4   1  -4 1551.80   30.81   5
   4   1  -4 1550.38   24.77   1
   4   1  -4 1532.75   21.46   4
   4   1  -4 1596.21   21.80   4
  -4  -1   4 1539.68   25.08   1
  -4  -1   4 1498.67   24.67   1
  -4  -1   4 1533.37   34.61   2
  -4  -1   4 1552.82   33.49   3
   3   1  -4 1024.91   23.15   5
   3   1  -4 1009.20   19.13   1
  -3  -1   4 1008.96   25.06   2
  -3  -1   4 996.192  19.296   1
  -3  -1   4 1008.05   19.34   1
  -3  -1   4 993.834  22.441   3
  -1   1  -4 164.653   6.871   5
  -1   1  -4 170.556   6.224   3
  -1   1  -4 160.743   9.165   1
   1  -1   4 164.355   6.072   3
   1  -1   4 179.962   9.404   1
  -2   1  -4 526.210  14.477   3
  -2   1  -4 540.391  10.823   5
  -2   1  -4 512.440  15.873   1
   2  -1   4 517.599  15.778   1
  -3   1  -4 57.2544  7.8366   1
  -3   1  -4 63.2200  7.8349   3
   3  -1   4 60.7709  7.3786   1
  -4   1  -4 19.6488  6.4870   1
  -4   1  -4 29.7088  7.9968   3
   4  -1   4 9.64473 5.12404   1
  -5   1  -4 1255.37   29.45   1
  -5   1  -4 1233.51   36.03   3
   5  -1   4 1222.97   28.35   1
  -6   1  -4 29.0218 11.0807   3
  -6   1  -4 25.7277  6.8752   1
  -7   1  -4 26.1586 11.8975   3
  -7   1  -4 48.7093  7.6319   1
  -8   1  -4 -18.877  12.897   3
  -9   0   4 9.55549 9.33183   3
  -8   0   4 38.6530 10.5570   3
   7   0  -4 334.978  15.962   5
  -7   0   4 329.465  11.111   1
  -7   0   4 373.494  22.351   3
  -7   0   4 340.664  21.095   2
   6   0  -4 648.089  20.711   5
  -6   0   4 665.159  26.587   3
  -6   0   4 658.467  26.501   2
  -6   0   4 647.618  16.532   1
   5   0  -4 1473.30   26.07   1
   5   0  -4 1487.79   24.50   4
   5   0  -4 1522.05   31.71   5
  -5   0   4 1489.18   26.66   1
  -5   0   4 1541.71   37.23   2
  -5   0   4 1486.58   36.77   3
   4   0  -4 6813.44   76.22   1
   4   0  -4 6940.40   82.13   5
  -4   0   4 6750.07   76.51   1
  -4   0   4 6738.64   88.44   3
  -4   0   4 6866.59   89.61   2
   3   0  -4 280.514  11.585   5
   3   0  -4 275.437  10.231   1
  -3   0   4 286.379  10.614   1
  -3   0   4 269.522  11.929   3
  -3   0   4 298.841  13.228   2
  -3   0   4 291.722  10.396   1
   2   0  -4 544.861  14.268   1
   2   0  -4 575.760  15.762   5
  -2   0   4 555.465  14.189   1
  -2   0   4 543.319  13.519   3
  -2   0   4 555.300  15.511   2
  -2   0   4 539.980  14.567   1
   1   0  -4 2570.11   35.67   5
   1   0  -4 2637.26   36.67   1
  -1   0   4 2574.81   36.46   1
  -1   0   4 2573.00   36.53   1
   0   0  -4 478.004  12.129   5
   0   0  -4 472.184  13.823   1
   0   0   4 497.452  12.135   5
   0   0   4 470.540   8.926   3
   0   0   4 464.233  13.802   1
  -1   0  -4 729.251  17.583   1
  -1   0  -4 707.067  17.509   1
  -1   0  -4 717.959  13.637   5
   1   0   4 711.014  17.369   1
   1   0   4 707.413  14.525   3
  -2   0  -4 690.040  11.387   5
  -2   0  -4 744.893  18.361   3
  -2   0  -4 689.367  17.648   1
  -2   0  -4 690.343  17.768   1
   2   0   4 696.009  17.690   1
  -3   0  -4 4841.23   62.81   1
  -3   0  -4 4919.86   63.15   1
  -3   0  -4 4873.06   68.29   3
   3   0   4 4885.67   62.33   1
  -4   0  -4 643.290  23.373   3
  -4   0  -4 654.875  19.181   1
  -4   0  -4 663.575  18.799   1
   4   0   4 625.988  18.401   1
  -5   0  -4 1176.51   26.62   1
  -5   0  -4 1140.49   34.93   3
   5   0   4 1189.94   26.43   1
  -6   0  -4 11.9791  9.5746   3
  -6   0  -4 15.6951  5.2752   1
  -7   0  -4 20.8164 11.2094   3
  -8   0  -4 49.5444 14.8234   3
  -9   1   4 47.6968 14.2622   3
  -8   1   4 53.4065 14.1042   3
   7  -1  -4 621.992  22.048   5
  -7   1   4 597.039  17.973   1
  -7   1   4 655.331  28.279   2
  -7   1   4 619.019  29.502   3
   6  -1  -4 1130.89   28.78   5
  -6   1   4 1155.32   34.10   2
  -6   1   4 1137.19   35.64   3
  -6   1   4 1126.74   25.23   1
   5  -1  -4 565.930  16.758   1
   5  -1  -4 568.256  14.383   4
   5  -1  -4 577.241  19.453   5
  -5   1   4 573.470  22.034   2
  -5   1   4 561.026  23.338   3
  -5   1   4 558.280  17.015   1
   4  -1  -4 828.189  15.095   4
   4  -1  -4 797.954  21.591   5
   4  -1  -4 803.255  19.670   1
  -4   1   4 788.556  24.226   3
  -4   1   4 794.505  19.287   1
  -4   1   4 791.025  19.961   1
  -4   1   4 802.734  23.070   2
   3  -1  -4 832.821  19.449   1
   3  -1  -4 810.519  20.508   5
   3  -1  -4 855.188  12.950   4
  -3   1   4 835.261  19.286   1
  -3   1   4 792.920  20.540   2
  -3   1   4 840.302  19.821   1
   2  -1  -4 7674.81   84.92   5
  -2   1   4 7701.69   85.51   1
   1  -1  -4 3009.61   41.85   1
   1  -1  -4 3076.77   40.98   5
  -1   1   4 3000.30   42.15   1
  -1   1   4 3090.40   37.30   4
   0   1   4 8275.82   84.12   5
   0   1   4 8175.59   89.67   1
  -1  -1  -4 267.188  10.511   1
  -1  -1  -4 254.631   8.015   5
  -1  -1  -4 270.807  10.828   1
   1   1   4 254.644   7.900   5
   1   1   4 252.457   9.306   3
   1   1   4 256.949  10.619   1
  -2  -1  -4 212.541   9.481   1
  -2  -1  -4 201.607   5.861   5
  -2  -1  -4 192.694   9.468   1
  -2  -1  -4 218.236  10.941   3
   2   1   4 199.353   5.819   5
   2   1   4 204.444   9.173   1
  -3  -1  -4 1690.36   30.28   1
  -3  -1  -4 1732.70   35.73   3
  -3  -1  -4 1756.58   31.14   1
   3   1   4 1686.69   29.93   1
  -4  -1  -4 363.822  13.488   1
  -4  -1  -4 374.705  17.845   3
  -4  -1  -4 384.709  13.450   1
   4   1   4 389.827  13.590   1
  -5  -1  -4 388.953  13.934   1
  -5  -1  -4 372.459  20.889   3
  -6  -1  -4 53.4956 10.2531   3
  -6  -1  -4 50.3918  6.0990   1
  -7  -1  -4 273.837  22.144   3
  -8  -1  -4 13.1830 12.9510   3
  -9   2   4 -17.592  13.473   3
  -8   2   4 43.4085 13.0109   3
  -8   2   4 39.7068  6.5056   1
   7  -2  -4 680.248  23.505   5
  -7   2   4 635.370  30.206   3
  -7   2   4 646.829  21.245   1
   6  -2  -4 52.5348  8.0420   5
  -6   2   4 31.5317  6.6490   1
  -6   2   4 37.6000  8.1973   2
  -6   2   4 53.2269 11.6762   3
   5  -2  -4 1080.55   25.64   1
   5  -2  -4 1117.59   27.88   5
  -5   2   4 1054.42   29.07   2
  -5   2   4 1062.12   32.39   3
  -5   2   4 1095.87   26.35   1
   4  -2  -4 93.1381  7.4462   1
   4  -2  -4 99.7187  8.3904   5
   4  -2  -4 98.4659  5.8275   4
  -4   2   4 106.645   9.369   2
  -4   2   4 102.212   9.821   3
  -4   2   4 104.238   8.332   1
   3  -2  -4 460.602  15.397   1
   3  -2  -4 494.409  11.667   4
   3  -2  -4 478.669  15.887   5
  -3   2   4 466.420  14.592   2
  -3   2   4 458.335  15.671   1
  -3   2   4 457.860  11.588   4
   2  -2  -4 1140.44   19.03   4
   2  -2  -4 1137.53   24.21   1
   2  -2  -4 1114.38   23.75   5
  -2   2   4 1140.93   21.07   2
  -2   2   4 1131.01   24.33   1
  -2   2   4 1147.62   19.48   4
   1  -2  -4 -2.9190  4.2885   5
   1  -2  -4 1.78326 4.32581   1
  -1   2   4 5.43870 4.58090   1
   0  -2  -4 206.644   8.445   5
   0  -2  -4 212.040   9.993   1
   0   2   4 214.072   9.969   4
   0   2   4 200.316   9.585   1
  -1  -2  -4 7511.58   85.27   1
  -1  -2  -4 7682.35   85.43   1
   1   2   4 7512.55   85.27   1
   1   2   4 7785.24   78.39   5
  -2  -2  -4 110.581   7.241   1
  -2  -2  -4 111.771   7.233   1
  -2  -2  -4 109.499   5.101   5
   2   2   4 111.390   4.993   5
   2   2   4 101.316   6.813   1
  -3  -2  -4 97.0720  6.9626   1
  -3  -2  -4 102.009   7.318   1
   3   2   4 93.3685  6.5753   1
  -4  -2  -4 391.962  13.603   1
  -4  -2  -4 402.171  19.811   3
   4   2   4 368.938  12.840   1
  -5  -2  -4 64.2177  6.0296   1
  -5  -2  -4 64.0096 10.2852   3
  -6  -2  -4 77.8897 13.8139   3
  -6  -2  -4 67.8115  5.7965   1
  -7  -2  -4 490.097  28.602   3
  -8  -2  -4 151.202  18.958   3
  -9   3   4 64.6212 16.7932   3
  -8   3   4 70.2558 13.1223   3
  -8   3   4 86.3500  9.7237   1
   7  -3  -4 258.460  14.733   5
  -7   3   4 265.103  20.401   3
  -7   3   4 304.432  15.675   1
   6  -3  -4 213.862  12.958   5
   6  -3  -4 192.645  12.222   1
  -6   3   4 193.633  12.920   1
  -6   3   4 245.501  18.276   3
   5  -3  -4 79.4170  9.1593   5
   5  -3  -4 90.8651  9.1112   1
  -5   3   4 96.0596  9.9112   1
  -5   3   4 79.4042 10.3230   3
  -5   3   4 93.0535  9.2815   2
   4  -3  -4 478.642  17.192   1
   4  -3  -4 463.200  17.665   5
  -4   3   4 468.471  16.018   2
  -4   3   4 483.113  14.968   4
  -4   3   4 456.589  17.105   1
   3  -3  -4 23.8910  6.6241   1
   3  -3  -4 27.4179  6.6916   5
  -3   3   4 31.1377  4.7533   2
  -3   3   4 20.5764  7.0528   1
  -3   3   4 26.0698  4.5686   4
   2  -3  -4 86.6504  7.7426   5
   2  -3  -4 96.9017  6.4053   4
   2  -3  -4 113.780   8.868   1
  -2   3   4 133.481   9.722   1
  -2   3   4 110.191   5.695   2
  -2   3   4 106.238   7.076   4
   1  -3  -4 2819.24   43.22   1
   1  -3  -4 2768.59   41.24   5
  -1   3   4 2743.49   41.07   4
  -1   3   4 2740.06   42.95   1
   0  -3  -4 356.293  12.340   5
   0  -3  -4 353.850  12.986   1
   0   3   4 346.887  12.824   1
   0   3   4 364.155  13.360   4
  -1  -3  -4 -3.9789  3.2593   5
  -1  -3  -4 4.87874 4.87906   1
  -2  -3  -4 1292.27   25.72   1
  -2  -3  -4 1319.66   25.82   1
   2   3   4 1303.78   21.49   5
   2   3   4 1319.79   26.05   1
  -3  -3  -4 72.4096  6.5190   1
  -3  -3  -4 79.3609  6.5411   1
   3   3   4 68.0338  4.1650   5
   3   3   4 72.4336  5.8646   1
  -4  -3  -4 219.430  10.105   1
   4   3   4 202.524   9.522   1
  -5  -3  -4 117.841   7.206   1
   8  -4  -4 9.10724 6.32080   5
  -8   4   4 7.08648 7.10960   1
  -8   4   4 -3.8596 10.2513   3
   7  -4  -4 64.4965  8.9862   5
  -7   4   4 60.9861 12.0609   3
  -7   4   4 58.5531  9.4707   1
   6  -4  -4 7.25706 6.29943   5
  -6   4   4 4.62299 7.12884   1
  -6   4   4 -6.0931 10.0906   3
   5  -4  -4 174.413  12.570   1
   5  -4  -4 167.597  12.353   5
  -5   4   4 154.353  12.368   1
  -5   4   4 175.749  11.209   4
   4  -4  -4 13.0475  6.7416   1
  -4   4   4 14.6518  5.7181   4
  -4   4   4 13.2866  4.8756   2
  -4   4   4 9.84050 6.71349   1
   3  -4  -4 349.688  15.089   5
   3  -4  -4 363.474  15.978   1
  -3   4   4 365.019  14.176   4
  -3   4   4 351.774  11.034   2
  -3   4   4 359.992  16.684   1
   2  -4  -4 1993.63   37.66   1
   2  -4  -4 2014.59   36.97   5
  -2   4   4 2017.37   26.46   2
  -2   4   4 2021.24   35.30   4
  -2   4   4 2027.42   38.11   1
   1  -4  -4 587.066  18.319   1
   1  -4  -4 574.464  17.866   5
  -1   4   4 556.935  17.295   4
  -1   4   4 553.569  18.010   1
  -1   4   4 581.821  10.129   2
   0  -4  -4 6685.27   77.71   5
   0   4   4 6570.21   81.34   1
   0   4   4 6645.89   85.44   4
  -1  -4  -4 32.8344  6.2038   1
   1   4   4 41.9321  6.3779   1
   1   4   4 41.5880  4.2524   2
   1   4   4 33.7095  6.5505   4
  -2  -4  -4 279.603  11.932   1
  -2  -4  -4 263.452  12.061   1
   2   4   4 273.555  12.028   1
   2   4   4 247.412  15.470   4
  -3  -4  -4 904.309  21.476   1
   3   4   4 885.936  29.128   4
   3   4   4 871.092  20.976   1
  -4  -4  -4 4.01207 3.39856   1
  -5  -4  -4 2993.58   41.84   1
   7   4   4 430.720  27.568   4
  -8   5   4 17.1830 12.5923   3
  -8   5   4 14.8274  8.3477   1
   7  -5  -4 108.324  12.168   5
  -7   5   4 99.8708 12.1164   1
  -7   5   4 78.7749 14.7606   3
   6  -5  -4 31.9952  8.8447   1
   6  -5  -4 22.4338  6.5503   5
  -6   5   4 40.9485 12.6259   3
  -6   5   4 28.9356  9.3115   1
   5  -5  -4 9.18201 6.66319   1
   5  -5  -4 -4.9078  4.8641   5
  -5   5   4 -14.771   7.999   1
  -5   5   4 0.41481 6.18619   4
   4  -5  -4 253.594  15.666   1
   4  -5  -4 264.777  15.182   5
  -4   5   4 256.827  14.059   4
  -4   5   4 270.744  16.110   1
   3  -5  -4 170.625  12.358   5
   3  -5  -4 159.137  12.883   1
  -3   5   4 141.234  12.455   1
  -3   5   4 146.970  11.001   4
   2  -5  -4 1.86058 6.66839   5
   2  -5  -4 12.4219  5.8304   1
  -2   5   4 5.45934 5.55189   1
  -2   5   4 18.1273  7.1144   4
   1  -5  -4 101.914   9.590   5
  -1   5   4 96.2366 10.1470   4
  -1   5   4 100.540  10.349   1
   0  -5  -4 311.707  14.564   1
   0   5   4 318.056  14.362   1
   0   5   4 325.605  16.233   4
   0   5   4 305.511   7.352   2
  -1  -5  -4 3227.59   50.08   1
   1   5   4 3267.17   43.01   2
   1   5   4 3341.62   50.72   1
   1   5   4 3302.32   57.46   4
  -2  -5  -4 85.1504  7.9794   1
   2   5   4 76.1285  7.5759   1
  -3  -5  -4 5501.21   70.14   1
   3   5   4 5678.67   89.01   4
   3   5   4 5728.15   71.06   1
  -4  -5  -4 440.727  14.645   1
   4   5   4 449.462  23.379   4
  -5  -5  -4 326.796  11.482   1
   5   5   4 341.951  22.284   4
   6   5   4 309.564  23.128   4
   7   5   4 7.13239 8.41533   4
  -8   6   4 19.4185 10.5197   3
  -8   6   4 37.0059 10.2299   1
  -7   6   4 81.8983 16.2250   3
   6  -6  -4 25.9728  8.3022   5
   6  -6  -4 21.8504  8.1902   1
  -6   6   4 -7.9078  8.3987   1
  -6   6   4 7.93257 6.05492   4
   5  -6  -4 1.57671 5.64636   1
  -5   6   4 8.44220 6.13815   4
  -5   6   4 17.2180  8.2913   1
   4  -6  -4 359.037  19.154   1
   4  -6  -4 339.950  18.134   5
  -4   6   4 343.636  18.952   1
  -4   6   4 382.112  18.108   4
   3  -6  -4 -9.0767  8.5060   1
   3  -6  -4 5.98829 5.47300   5
  -3   6   4 -7.2784  8.4257   1
  -3   6   4 8.20091 7.12866   4
   2  -6  -4 23.4469  8.6967   1
   2  -6  -4 -3.0383  7.0701   5
   1  -6  -4 11.1633  7.4190   1
  -1   6   4 4.80241 5.90923   4
   0  -6  -4 380.259  16.969   1
   0   6   4 386.984  18.631   4
   0   6   4 364.157  16.506   1
  -1  -6  -4 882.671  25.121   1
   1   6   4 832.354  28.829   4
   1   6   4 870.451  17.485   2
   1   6   4 903.373  25.071   1
  -2  -6  -4 729.671  21.747   1
   2   6   4 772.588  21.981   1
   2   6   4 723.151  27.792   4
  -3  -6  -4 412.597  15.968   1
   3   6   4 402.592  22.173   4
   3   6   4 416.242  15.640   1
  -4  -6  -4 1791.16   33.04   1
   4   6   4 1861.88   49.43   4
   5   6   4 38.0348 12.2133   4
   6   6   4 85.5044 15.4473   4
   7   6   4 160.161  19.342   4
  -7   7   4 128.295  18.281   3
  -7   7   4 124.180  14.808   1
   6  -7  -4 10.2757  7.1112   1
  -6   7   4 8.82499 7.37090   4
   5  -7  -4 33.0580 10.5252   1
  -5   7   4 28.1278 10.7099   1
  -5   7   4 28.2374  8.9653   4
   4  -7  -4 200.980  15.662   1
  -4   7   4 183.024  15.295   1
  -4   7   4 201.626  14.959   4
   3  -7  -4 101.778  12.477   1
  -3   7   4 81.6272 11.6473   1
  -3   7   4 66.6670 10.3293   4
   2  -7  -4 -2.2935  7.8391   1
  -2   7   4 -16.818   9.140   1
   1  -7  -4 765.598  26.202   1
  -1   7   4 781.267  26.433   1
  -1   7   4 741.997  26.991   4
   0  -7  -4 3596.98   60.91   1
   0   7   4 3731.26   66.90   4
   0   7   4 3712.97   61.22   1
  -1  -7  -4 276.810  15.533   1
   1   7   4 253.539  14.344   1
   1   7   4 224.282  17.538   4
  -2  -7  -4 5360.49   75.48   1
   2   7   4 5369.04   74.67   1
   2   7   4 5290.42   89.20   4
  -3  -7  -4 1097.36   27.72   1
   3   7   4 1117.67   38.13   4
  -4  -7  -4 600.394  18.860   1
   4   7   4 613.624  29.254   4
   5   7   4 30.4776 12.2151   4
   6   7   4 56.6550 12.0022   4
  -7   8   4 -16.855  13.727   3
  -7   8   4 4.75813 9.50035   1
   6  -8  -4 55.6017 10.3087   1
  -6   8   4 84.1275 12.5852   1
  -6   8   4 68.9876 10.9104   4
   5  -8  -4 -8.7741  9.8135   1
  -5   8   4 -7.1007  8.4936   4
  -5   8   4 -19.749  11.164   1
   4  -8  -4 507.131  25.298   1
  -4   8   4 487.320  23.648   4
  -4   8   4 496.145  25.664   1
   3  -8  -4 43.1523 11.2213   1
  -3   8   4 60.8763 11.8699   1
   2  -8  -4 1752.35   43.80   1
  -2   8   4 1747.77   43.28   1
  -2   8   4 1762.58   44.19   4
   1  -8  -4 149.430  14.127   1
  -1   8   4 168.744  15.892   4
  -1   8   4 161.019  14.111   1
   0  -8  -4 2062.99   45.76   1
   0   8   4 2092.60   50.40   4
   0   8   4 2088.54   45.62   1
  -1  -8  -4 132.023  12.293   1
   1   8   4 121.987  14.577   4
   1   8   4 99.9692 10.7492   1
  -2  -8  -4 289.006  15.381   1
   2   8   4 293.056  15.230   1
   2   8   4 321.283  21.436   4
  -3  -8  -4 7.44938 5.84213   1
   3   8   4 -16.287  10.558   4
  -4  -8  -4 19.1834  5.4680   1
   4   8   4 30.4483 12.1876   4
   5   8   4 121.792  15.797   4
   6   8   4 258.878  23.474   4
   6  -9  -4 27.8862  9.8076   1
  -6   9   4 22.5308  8.0371   4
   5  -9  -4 11.5101  9.4221   1
  -5   9   4 7.27843 9.02454   1
  -5   9   4 4.81377 8.05274   4
   4  -9  -4 128.829  14.531   1
  -4   9   4 108.879  14.050   4
  -4   9   4 120.381  13.821   1
   3  -9  -4 9.39703 9.85176   1
  -3   9   4 2.01465 9.41665   1
  -3   9   4 18.6738 10.0002   4
   2  -9  -4 228.970  17.148   1
  -2   9   4 237.684  17.783   4
  -2   9   4 236.787  17.088   1
   1  -9  -4 95.6308 11.2107   1
  -1   9   4 100.886  13.867   4
  -1   9   4 96.0887 11.0624   1
   0  -9  -4 148.946  14.071   1
   0   9   4 141.406  15.077   4
   0   9   4 137.777  13.146   1
  -1  -9  -4 54.4757 10.1629   1
   1   9   4 53.5917  9.4813   1
   1   9   4 57.5870 11.3670   4
  -2  -9  -4 317.586  17.291   1
   2   9   4 310.159  22.510   4
  -3  -9  -4 198.295  13.667   1
   3   9   4 164.663  18.717   4
  -4  -9  -4 278.419  14.489   1
   4   9   4 258.500  22.666   4
   5   9   4 12.2568 12.8545   4
   6 -10  -4 -3.0338  9.2993   1
  -6  10   4 -13.929  11.778   1
   5 -10  -4 178.912  18.238   1
  -5  10   4 150.221  17.780   1
  -5  10   4 173.395  17.268   4
   4 -10  -4 15.2126 11.6897   1
  -4  10   4 48.1872 12.6547   4
  -4  10   4 30.0245 12.1150   1
   3 -10  -4 151.092  15.456   1
  -3  10   4 159.215  15.615   1
  -3  10   4 144.416  15.309   4
   2 -10  -4 7.99991 8.82501   1
  -2  10   4 -2.0252  7.8948   4
  -2  10   4 7.99377 8.78093   1
   1 -10  -4 76.0055 11.0452   1
  -1  10   4 70.3678 10.4081   1
  -1  10   4 53.8841 13.5506   4
   0 -10  -4 267.816  18.665   1
   0  10   4 221.362  17.204   1
   0  10   4 226.793  19.585   4
  -1 -10  -4 10.0797  8.4183   1
   1  10   4 6.43973 8.81146   4
  -2 -10  -4 517.382  23.505   1
   2  10   4 544.635  30.910   4
  -3 -10  -4 54.9189  8.9283   1
   3  10   4 61.9209 12.5086   4
   4  10   4 145.822  20.064   4
   5 -11  -4 44.3088 13.6557   1
  -5  11   4 18.6907 13.1273   1
  -5  11   4 1.90674 8.69134   4
  -4  11   4 14.4832 11.3093   4
  -4  11   4 28.0371  9.7670   1
   3 -11  -4 14.8226 11.2882   1
  -3  11   4 -11.037  11.426   1
   2 -11  -4 70.1246 13.9603   1
  -2  11   4 69.4571 13.2881   1
  -2  11   4 87.2427 13.5390   4
   1 -11  -4 1.00620 6.84231   1
  -1  11   4 -1.2930  6.2839   1
  -1  11   4 15.5766 12.0445   4
   0 -11  -4 453.240  24.936   1
   0  11   4 452.058  24.000   1
   0  11   4 453.539  28.305   4
  -1 -11  -4 29.6607  9.6536   1
   1  11   4 41.9035 11.5358   4
  -2 -11  -4 690.063  28.096   1
   2  11   4 699.701  35.601   4
  -3 -11  -4 199.624  14.877   1
   3  11   4 184.700  20.528   4
  -3  12   4  2.5470 11.1496   4
  -3  12   4  7.5908 11.0816   1
   2 -12  -4 124.579  16.846   1
  -2  12   4 156.802  18.612   4
  -2  12   4 121.524  16.299   1
   1 -12  -4 39.6117 10.0263   1
  -1  12   4 36.1846  9.4708   1
   0 -12  -4 10.6291  7.3296   1
   0  12   4 -16.189  13.059   4
  -1 -12  -4 202.009  17.678   1
   1  12   4 172.862  20.831   4
  -3 -12   5 33.8687  8.9761   1
   2  12  -5 -6.9867  9.6122   4
  -2 -12   5 6.30837 9.07204   1
   1  12  -5 615.599  31.003   4
  -1 -12   5 704.388  31.619   1
   0  12  -5 39.4497 13.1867   4
   0 -12   5 56.3209 13.6255   1
  -1  12  -5 387.766  25.790   1
  -1  12  -5 402.681  27.820   4
   1 -12   5 388.439  26.511   1
  -2  12  -5 182.183  20.636   4
  -2  12  -5 184.214  19.544   1
   2 -12   5 188.224  20.609   1
  -3  12  -5 18.5280 13.0288   1
   3 -12   5 -6.1359 12.7063   1
   3  11  -5 140.557  16.057   4
  -3 -11   5 159.565  13.718   1
   2  11  -5 78.6170 12.8316   4
  -2 -11   5 72.2164 12.3127   1
   1  11  -5 29.8713 11.6665   4
  -1 -11   5 6.12891 9.42382   1
   0  11  -5 19.5120  8.9336   1
  -1  11  -5  7.6311 10.1699   1
   2 -11   5 51.3367 13.6774   1
  -3  11  -5 73.0807 15.0553   1
  -3  11  -5 54.1860 12.6628   4
   3 -11   5 64.4318 15.0733   1
  -4  11  -5 92.9406 14.8914   1
  -4  11  -5 107.255  17.291   4
   4 -11   5 84.0408 14.1543   1
  -5 -10   5 -0.7326 10.0971   2
   4  10  -5 354.055  21.429   4
  -4 -10   5 344.247  22.076   2
  -4 -10   5 352.461  16.391   1
   3  10  -5 311.403  20.434   4
  -3 -10   5 324.572  20.402   2
  -3 -10   5 351.635  17.862   1
   2  10  -5 1205.19   39.17   4
  -2 -10   5 1237.64   36.64   1
  -2 -10   5 1221.98   36.48   2
   1  10  -5 -8.0965  7.9804   1
   1  10  -5 4.73361 7.33003   4
  -1 -10   5 -3.7915  8.8350   1
  -1 -10   5 -2.6374  6.9619   2
   0  10  -5 471.163  25.958   4
   0  10  -5 482.660  23.663   1
   0 -10   5 510.384  22.184   2
   0 -10   5 457.539  23.793   1
  -1  10  -5 10.5546 10.9858   4
   1 -10   5  6.9866 10.2354   1
  -2  10  -5 -1.2282 10.3703   4
  -2  10  -5 17.0786  8.5712   1
   2 -10   5 -1.9549  7.5423   1
  -3  10  -5 33.4400 13.3555   4
  -3  10  -5  5.5634 11.4019   1
  -4  10  -5 85.1786 16.6007   4
  -4  10  -5 82.1090 13.8627   1
   4 -10   5 75.7355 13.2091   1
  -5  10  -5 65.6432 11.7211   3
  -5  10  -5 45.6040 11.7986   1
   5 -10   5 89.1580 13.8744   1
   6   9  -5 879.107  33.286   5
  -6  -9   5 789.828  35.802   2
  -5  -9   5 48.2964 11.8487   2
   4   9  -5 275.095  18.011   4
  -4  -9   5 291.275  13.947   1
  -4  -9   5 316.223  19.997   2
   3   9  -5 625.875  26.038   4
  -3  -9   5 632.972  22.684   1
  -3  -9   5 650.353  26.679   2
   2   9  -5 51.7597 10.4191   4
  -2  -9   5 30.6813  9.2073   2
  -2  -9   5 38.2579  8.6169   1
   1   9  -5 45.4224  9.5367   1
  -1  -9   5 43.2155  7.9403   2
  -1  -9   5 42.4587 10.1163   1
   0   9  -5 14.6355  7.7967   1
   0   9  -5 9.53137 9.74849   4
   0  -9   5 -0.2191  6.3607   1
  -1   9  -5 147.018  15.507   1
  -1   9  -5 170.866  16.797   4
   1  -9   5 124.644  14.681   1
  -2   9  -5 253.746  19.578   4
  -2   9  -5 200.869  17.050   1
   2  -9   5 229.573  18.113   1
  -3   9  -5 311.808  21.832   4
  -3   9  -5 328.397  22.351   1
   3  -9   5 321.530  22.765   1
   4  -9   5 28.1497  9.6928   1
  -5   9  -5  5.4530 10.6001   1
  -5   9  -5 7.37354 8.01267   3
   5  -9   5 13.1486  9.9779   1
  -6   9  -5 19.8404 11.7767   3
   6  -9   5 44.8897 12.8135   1
  -7  -8   5 68.3344 14.0650   2
   6   8  -5 165.087  15.427   5
  -6  -8   5 181.308  17.597   2
   5   8  -5 253.950  16.146   4
  -5  -8   5 234.094  20.116   2
   4   8  -5 1173.75   33.51   4
  -4  -8   5 1201.25   38.46   2
  -4  -8   5 1173.86   26.95   1
   3   8  -5 281.227  16.659   4
  -3  -8   5 287.704  18.476   2
  -3  -8   5 275.032  14.633   1
   2   8  -5 597.885  21.657   1
   2   8  -5 606.413  24.273   4
  -2  -8   5 581.858  22.206   1
  -2  -8   5 566.240  23.133   2
   1   8  -5 36.0524  7.9383   1
   1   8  -5 32.7046  9.3145   4
  -1  -8   5 39.8310  7.5760   1
  -1  -8   5 37.6961  8.4709   2
   0   8  -5 2700.37   56.14   4
   0   8  -5 2841.03   55.74   1
   0  -8   5 2805.97   55.85   1
  -1   8  -5 37.6943 11.5695   4
   1  -8   5 28.8500  9.9360   1
  -2   8  -5 1138.69   36.62   1
  -2   8  -5 1141.67   38.22   4
   2  -8   5 1144.34   37.24   1
  -3   8  -5 53.9697 12.6440   1
  -3   8  -5 85.6746 14.0342   4
   3  -8   5 61.0980 13.0966   1
  -4   8  -5 264.219  20.549   4
  -4   8  -5 240.137  17.846   3
  -4   8  -5 270.264  20.600   1
   4  -8   5 282.939  20.381   1
  -5   8  -5 11.3692  9.1019   3
   5  -8   5 -9.3035 10.2852   1
  -6   8  -5 114.035  15.002   1
  -6   8  -5 127.670  16.672   3
   6  -8   5 113.575  14.125   1
   7   7  -5 348.758  20.156   5
  -7  -7   5 386.337  26.879   2
   6   7  -5 12.3834  8.3532   5
  -6  -7   5 44.6766 13.2909   2
   5   7  -5 41.4599  7.3820   4
   5   7  -5 27.5205  7.5449   5
  -5  -7   5 31.0394 11.7943   2
   4   7  -5 76.7648  9.4283   4
  -4  -7   5 65.7377  6.5876   1
  -4  -7   5 77.2964 11.7279   2
   3   7  -5 997.153  24.956   1
   3   7  -5 987.974  27.901   4
  -3  -7   5 978.912  31.625   2
  -3  -7   5 979.664  25.648   1
   2   7  -5 3575.83   56.98   1
   2   7  -5 3694.25   61.47   4
  -2  -7   5 3597.80   58.37   1
  -2  -7   5 3627.12   63.42   2
   1   7  -5 40.4765  7.0564   1
  -1  -7   5 36.6428  7.2846   1
   0   7  -5 2447.64   50.08   4
   0   7  -5 2333.36   47.56   1
   0  -7   5 2287.28   47.59   1
  -1   7  -5 1179.43   34.19   1
  -1   7  -5 1150.47   34.53   4
   1  -7   5 1193.57   34.50   1
  -2   7  -5 35.3219  8.4239   1
   2  -7   5 34.9275  8.2900   1
  -3   7  -5 98.8529 13.4516   1
  -3   7  -5 118.080  13.297   4
   3  -7   5 121.990  14.068   1
  -4   7  -5 62.0701 10.8504   3
  -4   7  -5 55.5973 12.0226   1
   4  -7   5 73.0550 11.9361   1
  -5   7  -5 -3.2112  8.7685   3
  -5   7  -5 13.4515 10.6549   1
   5  -7   5 5.86612 8.50688   1
  -6   7  -5 112.975  14.262   3
  -6   7  -5 90.0565 14.7130   1
   6  -7   5 87.6941 14.0339   1
  -7   7  -5 -3.6530  9.7602   3
   7   6  -5 2.66187 7.31740   5
  -7  -6   5  6.0065 12.6265   2
   6   6  -5 438.304  21.595   5
  -6  -6   5 462.530  25.332   2
   5   6  -5 5.46177 5.45643   4
  -5  -6   5 1.50734 9.60066   2
   4   6  -5 54.6988  7.5565   4
  -4  -6   5 59.4064  6.0250   1
  -4  -6   5 47.9796 10.7041   2
   3   6  -5 747.067  22.270   4
   3   6  -5 787.989  20.749   1
  -3  -6   5 767.767  21.194   1
  -3  -6   5 760.721  27.061   2
   2   6  -5 431.574  16.522   1
   2   6  -5 409.910  16.919   4
  -2  -6   5 403.560  18.436   2
  -2  -6   5 426.999  16.936   1
   1   6  -5 2004.20   39.42   1
   1   6  -5 1973.14   39.76   4
  -1  -6   5 1985.19   40.16   1
   0   6  -5 52.3442  8.7061   4
   0  -6   5 51.1182  9.5607   1
  -1   6  -5 109.512  11.901   1
  -1   6  -5 126.414  12.639   4
   1  -6   5 105.674  11.906   1
  -2   6  -5 57.0088  8.8714   1
   2  -6   5 55.4023  8.9623   1
  -3   6  -5 715.167  23.928   3
  -3   6  -5 727.568  28.982   4
  -3   6  -5 732.930  27.608   1
   3  -6   5 678.165  26.544   1
  -4   6  -5 3.31126 7.90510   1
  -4   6  -5 14.3436  8.0397   3
   4  -6   5 -5.1520  7.1026   1
  -5   6  -5 22.5319  9.3800   3
   5  -6   5 30.2522 10.3882   1
  -6   6  -5 117.062  15.371   3
  -6   6  -5 118.361  13.322   1
  -7   6  -5 -16.067  11.299   3
  -8  -5   5 63.7562 15.6404   2
   7   5  -5 117.816  12.518   5
  -7  -5   5 129.628  15.607   2
   6   5  -5 343.729  18.386   5
  -6  -5   5 294.700  21.467   2
   5   5  -5 1117.74   25.83   4
   5   5  -5 1084.61   31.12   5
  -5  -5   5 1087.02   35.52   2
   4   5  -5 3992.80   63.84   5
   4   5  -5 4134.70   57.91   4
  -4  -5   5 4106.33   52.25   1
  -4  -5   5 4064.76   70.90   2
   3   5  -5 5233.32   66.22   1
   3   5  -5 5422.11   70.04   4
  -3  -5   5 5469.00   81.80   2
  -3  -5   5 5392.36   67.98   1
   2   5  -5 156.406   9.946   4
   2   5  -5 149.218   9.855   1
  -2  -5   5 151.153  11.843   2
  -2  -5   5 145.133  10.462   1
   1   5  -5 7950.06   96.39   4
   1   5  -5 7684.39   93.82   1
  -1  -5   5 7772.31   95.07   1
   0   5  -5 1414.95   32.37   4
   0   5  -5 1403.82   32.29   1
   0  -5   5 1445.19   33.19   1
  -1   5  -5 90.1308  9.4210   1
  -1   5  -5 111.432  11.442   4
   1  -5   5 111.010  10.122   1
  -2   5  -5 44.8285  9.7535   1
  -2   5  -5 67.5597 11.0259   4
   2  -5   5 58.6902 10.3220   1
  -3   5  -5 45.2180 10.3625   1
  -3   5  -5 56.0185  8.2866   3
   3  -5   5 47.5414  9.6019   1
  -4   5  -5 50.4754  8.7822   3
  -4   5  -5 54.2823 11.0020   1
   4  -5   5 61.0985 10.6338   1
  -5   5  -5 14.4478  9.2165   1
  -5   5  -5 18.2558  7.9670   3
  -6   5  -5 227.046  17.372   1
  -6   5  -5 227.304  18.892   3
  -7   5  -5 51.8933 11.1676   3
  -7   5  -5 61.7332 11.6402   1
  -8  -4   5 283.645  22.196   3
  -8  -4   5 257.430  23.358   2
   7   4  -5 1525.42   38.06   5
  -7  -4   5 1505.50   47.82   2
  -7  -4   5 1520.72   46.28   3
   6   4  -5 676.340  23.850   5
  -6  -4   5 669.411  29.681   2
  -6  -4   5 655.370  27.610   3
   5   4  -5 1578.03   28.68   4
   5   4  -5 1608.43   36.92   5
  -5  -4   5 1559.96   38.69   3
  -5  -4   5 1561.46   22.99   1
  -5  -4   5 1569.53   42.59   2
   4   4  -5 422.251  18.474   5
   4   4  -5 403.152  11.852   1
   4   4  -5 410.790  12.842   4
  -4  -4   5 392.147  12.247   1
  -4  -4   5 383.886  19.840   2
   3   4  -5 597.580  16.049   1
   3   4  -5 598.810  15.502   4
   3   4  -5 585.630  20.490   5
  -3  -4   5 574.187  21.699   2
  -3  -4   5 579.978  16.271   1
  -3  -4   5 585.275  16.275   1
   2   4  -5 1059.06   20.90   3
   2   4  -5 1079.62   22.19   4
   2   4  -5 1115.64   24.39   1
  -2  -4   5 1084.62   28.38   2
  -2  -4   5 1083.72   24.37   1
  -2  -4   5 1056.48   23.78   1
   1   4  -5 2010.99   27.90   3
   1   4  -5 2012.44   34.47   4
   1   4  -5 1999.72   36.01   1
  -1  -4   5 2038.76   36.86   1
   0   4  -5 2434.59   41.48   4
   0   4  -5 2302.33   40.87   1
   0  -4   5 2356.79   41.68   1
  -1   4  -5 2918.62   50.28   4
  -1   4  -5 2953.10   49.95   1
   1  -4   5 2946.91   50.03   1
   2  -4   5 13.1899  8.0549   1
  -3   4  -5 4.85694 4.88873   3
  -3   4  -5 8.42151 8.18334   1
   3  -4   5 1.85341 7.12165   1
  -4   4  -5 6.90029 6.18730   3
  -4   4  -5 -9.1404  8.4294   1
   4  -4   5 -0.6268  6.7748   1
  -5   4  -5 10.5089  8.4333   3
  -5   4  -5 0.48190 8.50426   1
  -6   4  -5 10.1715  9.5660   3
  -6   4  -5 -1.3609  8.1883   1
  -7   4  -5 -7.6337  7.7693   3
  -7   4  -5 -9.9632  8.8688   1
  -8  -3   5 38.0695 13.4571   2
   7   3  -5 47.1236  8.7704   5
  -7  -3   5 26.9808 11.1104   3
  -7  -3   5 36.5453 12.7203   2
   6   3  -5 40.1890  8.0745   5
  -6  -3   5 65.5203 10.9454   2
  -6  -3   5 51.2678  8.9742   3
   5   3  -5 1146.11   30.01   5
   5   3  -5 1193.69   21.69   4
  -5  -3   5 1179.34   20.21   1
  -5  -3   5 1153.40   31.87   3
  -5  -3   5 1224.71   35.64   2
   4   3  -5 1329.98   31.10   5
   4   3  -5 1335.91   23.39   1
   4   3  -5 1371.68   21.79   4
  -4  -3   5 1306.05   23.84   1
  -4  -3   5 1329.21   30.58   3
  -4  -3   5 1342.21   35.29   2
  -4  -3   5 1338.88   24.17   1
   3   3  -5 3.20360 3.66362   1
   3   3  -5 5.36194 7.07941   5
   3   3  -5 8.07249 2.66865   4
  -3  -3   5 5.46794 7.68605   2
  -3  -3   5 9.88354 3.75538   1
  -3  -3   5 5.19523 4.27868   1
  -3  -3   5 15.5362  4.5823   3
   2   3  -5 470.557  12.023   4
   2   3  -5 456.022  16.093   5
   2   3  -5 455.915  11.662   3
   2   3  -5 475.477  14.574   1
  -2  -3   5 474.240  14.877   1
  -2  -3   5 463.577  14.783   1
  -2  -3   5 462.619  11.803   4
  -2  -3   5 439.708  17.853   2
   1   3  -5 22.4375  5.8196   1
   1   3  -5 10.6353  1.6551   3
   1   3  -5 16.8290  4.2705   4
  -1  -3   5 23.0758  5.9501   1
  -1  -3   5 18.0595  3.8584   4
   0   3  -5 436.915  15.506   1
   0   3  -5 414.282  14.417   4
   0  -3   5 413.275  15.237   1
  -1   3  -5 1670.89   25.00   3
  -1   3  -5 1693.42   34.12   1
   1  -3   5 1665.62   33.65   1
  -2   3  -5 1158.05   23.69   3
  -2   3  -5 1173.34   29.12   1
   2  -3   5 1149.11   28.46   1
  -3   3  -5 65.8268  9.6802   1
   3  -3   5 57.3195  8.7903   1
  -4   3  -5 13.6118  7.5863   3
  -4   3  -5 31.7877  7.5861   1
   4  -3   5 19.2868  6.3313   1
  -5   3  -5 356.330  19.813   3
  -5   3  -5 353.888  18.511   1
   5  -3   5 345.348  17.574   1
  -6   3  -5 140.111  14.997   3
  -6   3  -5 117.653  12.228   1
  -7   3  -5 99.1186 13.9624   3
  -7   3  -5 82.4535 11.1151   1
  -8   3  -5 67.9714 14.0533   3
  -8  -2   5 321.480  22.776   2
  -8  -2   5 321.097  23.865   3
   7   2  -5 239.469  14.876   5
  -7  -2   5 239.848  18.846   3
  -7  -2   5 248.477  19.027   2
   6   2  -5 1065.91   29.01   5
  -6  -2   5 1080.79   35.99   2
  -6  -2   5 1016.90   32.80   3
  -6  -2   5 1076.75   18.11   1
   5   2  -5 685.485  22.363   5
   5   2  -5 695.235  15.189   1
   5   2  -5 717.196  13.627   4
  -5  -2   5 691.243  24.245   3
  -5  -2   5 703.779  15.880   1
  -5  -2   5 718.531  27.154   2
   4   2  -5 70.5028  5.4878   1
   4   2  -5 81.1749  9.8433   5
  -4  -2   5 84.2713  6.3783   1
  -4  -2   5 85.3238  6.1212   1
  -4  -2   5 75.9949  8.6956   3
   3   2  -5 874.835  19.198   1
   3   2  -5 868.109  23.135   5
  -3  -2   5 884.372  25.323   2
  -3  -2   5 829.133  19.022   1
  -3  -2   5 839.940  19.901   3
  -3  -2   5 867.338  19.569   1
   2   2  -5 2118.32   36.56   5
   2   2  -5 2149.43   34.14   1
   2   2  -5 2189.91   26.99   4
  -2  -2   5 2121.49   34.37   1
  -2  -2   5 2126.41   34.33   1
  -2  -2   5 2178.47   26.87   4
  -2  -2   5 2147.89   29.34   3
   1   2  -5 4506.37   58.03   5
   1   2  -5 4506.84   58.58   1
  -1  -2   5 4446.02   58.70   1
  -1  -2   5 4542.17   53.44   4
   0   2  -5 6601.63   79.59   1
   0   2  -5 6554.92   74.46   5
   0  -2   5 6562.98   79.35   1
  -1   2  -5 39.1600  4.6780   5
  -1   2  -5 33.9347  5.7313   1
  -1   2  -5 36.8511  3.3905   3
   1  -2   5 30.1364  5.6720   1
  -2   2  -5 141.283   8.250   3
  -2   2  -5 139.602   7.043   5
  -2   2  -5 128.526  10.726   1
   2  -2   5 146.950  10.973   1
  -3   2  -5 301.689  15.623   1
  -3   2  -5 286.418   8.875   5
  -3   2  -5 295.992  13.735   3
   3  -2   5 320.321  15.539   1
  -4   2  -5 1903.75   39.93   1
  -4   2  -5 1889.51   40.69   3
   4  -2   5 1937.48   39.55   1
  -5   2  -5 66.9771  9.5837   1
  -5   2  -5 60.4810 10.8854   3
   5  -2   5 88.7213  9.6617   1
  -6   2  -5 0.10719 5.58311   1
  -6   2  -5 3.34844 9.19104   3
  -7   2  -5 4.84330 6.71472   1
  -8   2  -5 71.7625 15.0989   3
  -9  -1   5 377.230  27.459   3
  -8  -1   5 99.5951 15.6041   3
  -8  -1   5 124.435  15.044   2
   7   1  -5 681.786  23.911   5
  -7  -1   5 716.713  30.921   2
  -7  -1   5 692.791  30.141   3
   6   1  -5 155.152  11.966   5
  -6  -1   5 149.157  14.898   2
  -6  -1   5 156.584   7.822   1
  -6  -1   5 149.872  14.140   3
   5   1  -5 46.3329  8.3058   5
   5   1  -5 43.7044  4.7237   1
  -5  -1   5 24.9023  7.8677   3
  -5  -1   5 34.3873  4.7293   1
   4   1  -5 61.3923  9.1571   5
   4   1  -5 57.8395  5.3479   1
  -4  -1   5 62.4032  6.2223   1
  -4  -1   5 63.0975 10.0911   2
  -4  -1   5 62.1659  8.1814   3
  -4  -1   5 50.6158  5.3436   1
   3   1  -5 1930.92   35.47   5
   3   1  -5 1963.11   31.69   1
  -3  -1   5 1979.73   32.25   1
  -3  -1   5 1915.64   32.12   1
  -3  -1   5 1919.08   32.72   3
  -3  -1   5 1868.33   37.51   2
   2   1  -5 2785.74   40.64   1
   2   1  -5 2851.94   42.72   5
  -2  -1   5 2773.60   35.91   3
  -2  -1   5 2834.30   41.13   1
  -2  -1   5 2793.39   41.08   1
   1   1  -5 1047.91   22.58   1
   1   1  -5 1030.94   22.34   5
  -1  -1   5 1022.42   22.41   1
  -1  -1   5 1040.67   17.45   4
   0   1  -5 99.4962  8.2620   1
   0   1  -5 101.279   7.259   5
   0  -1   5 106.066   6.493   4
   0  -1   5 111.871   8.829   1
  -1   1  -5 926.379  22.883   1
  -1   1  -5 935.498  18.402   5
  -1   1  -5 938.239  16.376   3
   1  -1   5 906.150  16.269   3
   1  -1   5 952.059  23.049   1
  -2   1  -5 224.957   7.840   5
  -2   1  -5 237.991  10.417   3
  -2   1  -5 230.754  11.978   1
   2  -1   5 248.574  12.103   1
  -3   1  -5 39.3956  6.0990   3
  -3   1  -5 32.8203  2.8120   5
   3  -1   5 26.2568  7.0093   1
  -4   1  -5 95.1605 10.4746   3
  -4   1  -5 67.3898  7.9682   1
   4  -1   5 87.0595  8.2243   1
  -5   1  -5 448.099  18.425   1
  -5   1  -5 497.263  22.903   3
   5  -1   5 462.677  18.131   1
  -6   1  -5 167.107  12.037   1
  -6   1  -5 168.632  16.551   3
  -7   1  -5 440.821  26.309   3
  -7   1  -5 442.984  18.888   1
  -8   1  -5 11.6679 11.1070   3
   8   0  -5 8.91692 6.36574   5
  -8   0   5 4.99192 9.30565   3
   7   0  -5 29.5513  6.3967   5
  -7   0   5 32.2951  4.8369   1
  -7   0   5 24.4299 10.9804   2
   6   0  -5 339.856  16.172   5
  -6   0   5 338.708  19.718   2
  -6   0   5 384.923  21.218   3
  -6   0   5 367.878  13.409   1
   5   0  -5 170.457  12.000   5
   5   0  -5 184.385   9.408   1
  -5   0   5 179.669  14.025   2
  -5   0   5 178.659   9.738   1
  -5   0   5 179.351  13.635   3
   4   0  -5 63.4817  8.2927   5
   4   0  -5 63.5155  6.5442   1
  -4   0   5 60.9045  8.2712   3
  -4   0   5 76.5374 10.2048   2
  -4   0   5 68.7581  6.0999   1
  -4   0   5 61.2895  6.9173   1
   3   0  -5 2518.29   38.49   1
   3   0  -5 2557.36   41.69   5
  -3   0   5 2534.76   38.97   1
  -3   0   5 2569.23   40.25   3
  -3   0   5 2464.25   42.82   2
  -3   0   5 2479.61   38.87   1
   2   0  -5 251.240  11.021   1
   2   0  -5 239.793  11.610   5
  -2   0   5 233.776  10.965   1
  -2   0   5 240.011   8.912   3
  -2   0   5 252.881  11.843   2
  -1   0   5 44.3482  6.3788   1
   0   0  -5 4479.49   53.41   5
   0   0  -5 4285.54   56.92   1
   0   0   5 4381.35   57.63   1
  -1   0  -5 376.273  10.919   5
  -1   0  -5 377.664  13.849   1
   1   0   5 374.626  13.750   1
   1   0   5 374.446  10.603   3
  -2   0  -5 43.6633  5.8245   3
  -2   0  -5 40.8502  6.8899   1
  -2   0  -5 39.5396  3.6096   5
   2   0   5 53.3639  7.1984   1
  -3   0  -5 1338.93   30.52   3
  -3   0  -5 1301.04   28.94   1
   3   0   5 1336.93   28.84   1
  -4   0  -5 2790.58   46.74   1
  -4   0  -5 2826.24   53.12   3
   4   0   5 2804.08   46.20   1
  -5   0  -5 81.6000  8.7771   1
  -5   0  -5 94.6136 12.4853   3
   5   0   5 71.0082  7.7115   1
  -6   0  -5 98.1359  9.4861   1
  -6   0  -5 80.8752 11.8194   3
  -7   0  -5 135.312  16.313   3
  -7   0  -5 131.201  10.089   1
  -8   0  -5 -8.5596  8.4830   3
  -9   1   5 -6.5581 12.4101   3
   8  -1  -5 118.661  11.298   5
  -8   1   5 136.978  17.958   3
   7  -1  -5 27.1084  7.3569   5
  -7   1   5 8.89325 7.24421   2
  -7   1   5 22.0269  5.5509   1
   6  -1  -5 235.240  14.336   5
  -6   1   5 191.279  15.461   2
  -6   1   5 218.004  11.768   1
  -6   1   5 223.708  17.070   3
   5  -1  -5 646.497  21.837   5
   5  -1  -5 636.406  18.558   1
  -5   1   5 627.503  19.260   1
  -5   1   5 609.576  22.862   2
  -5   1   5 654.331  24.592   3
   4  -1  -5 84.3430  7.5729   1
   4  -1  -5 64.0771  8.8717   5
  -4   1   5 60.3413  7.5993   2
  -4   1   5 82.6039  8.4039   1
  -4   1   5 80.2611  9.9555   3
   3  -1  -5 3219.47   48.93   5
   3  -1  -5 3200.14   46.94   1
  -3   1   5 3253.91   49.34   2
  -3   1   5 3168.08   47.56   1
   2  -1  -5 19.8180  6.2261   5
  -2   1   5 13.9226  2.2062   4
  -2   1   5 19.3389  5.3588   2
   1  -1  -5 3901.30   51.24   5
   1  -1  -5 3893.08   53.10   1
  -1   1   5 3807.42   53.17   1
  -1   1   5 3980.52   48.11   4
   0  -1  -5 3040.11   41.16   5
   0  -1  -5 3116.26   45.87   1
   0   1   5 3088.29   45.68   1
  -1  -1  -5 2413.02   32.80   5
  -1  -1  -5 2359.00   38.61   1
   1   1   5 2417.21   32.53   5
   1   1   5 2281.52   34.93   3
   1   1   5 2355.71   38.54   1
  -2  -1  -5 5021.89   53.48   5
  -2  -1  -5 5051.95   65.76   1
   2   1   5 4911.54   64.54   1
   2   1   5 5114.95   53.65   5
  -3  -1  -5 80.2982  7.4113   1
  -3  -1  -5 87.3383  8.8196   3
   3   1   5 87.6725  7.5053   1
  -4  -1  -5 543.773  22.765   3
  -4  -1  -5 524.197  17.762   1
   4   1   5 539.707  17.605   1
  -5  -1  -5 639.899  20.037   1
  -5  -1  -5 699.460  27.900   3
  -6  -1  -5 155.002  16.677   3
  -6  -1  -5 143.479   9.887   1
  -7  -1  -5 63.5114 14.0981   3
  -9   2   5  7.7950 12.0792   3
   8  -2  -5 289.584  16.567   5
  -8   2   5 276.624  14.356   1
  -8   2   5 276.150  22.083   3
   7  -2  -5 859.099  27.930   5
  -7   2   5 885.856  35.144   3
  -7   2   5 837.807  25.149   1
  -7   2   5 878.180  32.075   2
   6  -2  -5 75.8417  8.6669   5
  -6   2   5 58.8091 10.3776   2
  -6   2   5 71.2518  7.9538   1
   5  -2  -5 50.0764  7.1049   1
   5  -2  -5 36.3569  7.8103   5
  -5   2   5 43.3082  7.8907   1
  -5   2   5 56.8932  8.8475   2
  -5   2   5 58.4381 11.1367   3
   4  -2  -5 274.233   8.493   4
   4  -2  -5 270.159  14.138   5
   4  -2  -5 284.338  13.568   1
  -4   2   5 277.167  13.813   2
  -4   2   5 239.419  13.282   1
   3  -2  -5 1216.61   27.72   5
   3  -2  -5 1143.63   26.65   1
   3  -2  -5 1192.85   19.14   4
  -3   2   5 1173.65   25.09   2
  -3   2   5 1148.42   27.11   1
  -3   2   5 1134.66   19.13   4
   2  -2  -5 153.926  10.052   1
   2  -2  -5 145.338  10.047   5
  -2   2   5 159.891  10.476   1
  -2   2   5 190.087   8.970   2
  -2   2   5 154.015   6.857   4
   1  -2  -5 124.597   8.779   5
   1  -2  -5 125.094   9.200   1
  -1   2   5 119.532   9.160   1
  -1   2   5 130.994   7.623   4
   0  -2  -5 333.840  13.067   1
   0  -2  -5 334.781  12.146   5
   0   2   5 316.136  12.841   1
   0   2   5 350.144  13.352   4
   0   2   5 346.946  13.513   1
  -1  -2  -5 46.1765  4.9983   5
  -1  -2  -5 42.0485  6.7330   1
   1   2   5 31.9036  6.1204   1
  -2  -2  -5 184.829   7.304   5
  -2  -2  -5 180.084  10.741   1
   2   2   5 184.293  10.559   1
   2   2   5 183.171   7.139   5
  -3  -2  -5 3568.68   52.43   1
   3   2   5 3528.60   51.59   1
  -4  -2  -5 656.792  19.607   1
   4   2   5 666.213  19.252   1
  -5  -2  -5 75.2181  7.4701   1
  -5  -2  -5 63.1549 12.0978   3
  -6  -2  -5 59.6572 13.3522   3
  -6  -2  -5 40.3302  5.9416   1
  -7  -2  -5 70.5621 15.5821   3
   8  -3  -5 -13.746   7.359   5
  -8   3   5 7.04133 5.95404   1
  -8   3   5 -21.819  13.128   3
   7  -3  -5 241.565  15.773   5
  -7   3   5 234.584  20.491   3
  -7   3   5 275.589  15.922   1
   6  -3  -5 581.299  22.962   5
   6  -3  -5 620.990  21.925   1
  -6   3   5 594.999  23.132   2
  -6   3   5 594.157  27.597   3
  -6   3   5 616.570  22.420   1
   5  -3  -5 -1.2261  5.6147   5
  -5   3   5 6.83783 6.87082   1
  -5   3   5 -2.4104  8.2290   3
   4  -3  -5 9.33891 6.28155   5
  -4   3   5 1.42636 4.92386   2
   3  -3  -5 874.279  24.415   5
   3  -3  -5 858.382  18.300   4
   3  -3  -5 857.075  23.894   1
  -3   3   5 815.738  23.783   1
  -3   3   5 833.720  19.906   2
  -3   3   5 812.884  18.555   4
   2  -3  -5 218.030  11.840   1
   2  -3  -5 212.110  12.235   5
  -2   3   5 199.816  11.475   1
  -2   3   5 201.809   8.568   2
  -2   3   5 207.333   9.510   4
   1  -3  -5 -4.3684  5.2450   5
   1  -3  -5 1.14671 5.75611   1
  -1   3   5 4.93923 4.83976   4
  -1   3   5 -2.7696  5.8791   1
   0  -3  -5 1939.91   32.84   5
   0  -3  -5 1921.88   35.30   1
   0   3   5 1890.91   35.62   4
   0   3   5 1897.14   35.25   1
  -1  -3  -5 3573.21   46.90   5
  -1  -3  -5 3533.69   52.20   1
   1   3   5 3659.33   53.23   1
   1   3   5 3574.31   56.85   4
  -2  -3  -5 984.544  24.241   1
   2   3   5 983.900  23.942   1
  -3  -3  -5 127.287   9.245   1
   3   3   5 118.631   5.590   5
   3   3   5 121.623   8.799   1
  -4  -3  -5 668.943  19.483   1
   4   3   5 664.232  19.056   1
  -5  -3  -5 234.484  11.360   1
   8  -4  -5 378.115  20.226   5
  -8   4   5 411.299  28.380   3
  -8   4   5 394.540  20.421   1
   7  -4  -5 61.0856  9.5563   5
  -7   4   5 47.0438  8.2084   1
  -7   4   5 81.4704 15.2999   3
   6  -4  -5 125.782  12.366   5
   6  -4  -5 123.305  11.550   1
  -6   4   5 136.804  12.839   1
  -6   4   5 102.942  13.869   3
   5  -4  -5 332.205  17.091   1
   5  -4  -5 325.852  17.099   5
  -5   4   5 330.613  14.000   4
  -5   4   5 335.948  17.869   1
  -5   4   5 322.279  14.695   2
   4  -4  -5 2766.28   49.77   5
   4  -4  -5 2664.78   49.00   1
  -4   4   5 2678.23   42.92   2
  -4   4   5 2658.41   49.50   1
  -4   4   5 2672.96   43.40   4
   3  -4  -5 693.379  23.189   1
   3  -4  -5 688.548  22.550   5
  -3   4   5 669.829  23.304   1
  -3   4   5 697.745  16.619   2
  -3   4   5 706.682  19.432   4
   2  -4  -5 2060.08   39.86   1
   2  -4  -5 2054.39   38.52   5
  -2   4   5 2039.23   40.21   1
  -2   4   5 2026.91   36.41   4
  -2   4   5 2058.82   29.09   2
   1  -4  -5 680.187  21.839   1
   1  -4  -5 698.714  20.693   5
  -1   4   5 696.399  20.521   4
  -1   4   5 713.130  22.247   1
   0  -4  -5 25.3798  6.8675   1
   0  -4  -5 25.0507  5.0123   5
   0   4   5 34.5454  7.3749   1
   0   4   5 27.8886  7.4713   4
  -1  -4  -5 217.059  12.174   1
  -1  -4  -5 227.825  10.594   5
   1   4   5 221.298  12.273   1
   1   4   5 231.796  13.738   4
  -2  -4  -5 -0.6724  5.5003   1
   2   4   5 7.33686 8.59832   4
   2   4   5 6.92721 5.32201   1
  -3  -4  -5 837.290  22.573   1
   3   4   5 835.218  29.646   4
   3   4   5 812.004  21.956   1
  -4  -4  -5 1107.50   25.68   1
  -5  -4  -5 610.330  18.103   1
   7   4   5 554.597  32.319   4
   8  -5  -5 49.6349 10.5661   5
  -8   5   5 56.8764 10.8128   1
  -8   5   5 50.5306 12.4288   3
   7  -5  -5 77.5068 11.4957   5
  -7   5   5 67.6771 11.8661   1
   6  -5  -5 384.564  20.163   1
   6  -5  -5 427.582  20.869   5
  -6   5   5 428.408  21.677   1
  -6   5   5 440.775  25.733   3
   5  -5  -5 139.659  12.746   5
   5  -5  -5 130.071  12.816   1
  -5   5   5 131.697  10.490   4
  -5   5   5 158.797  14.138   1
   4  -5  -5 339.866  16.859   5
   4  -5  -5 348.842  17.425   1
  -4   5   5 340.686  15.286   4
  -4   5   5 345.978  12.332   2
  -4   5   5 329.491  17.427   1
   3  -5  -5 807.308  25.647   1
   3  -5  -5 803.981  24.975   5
  -3   5   5 805.610  26.009   1
  -3   5   5 794.949  23.088   4
  -3   5   5 812.868  16.321   2
   2  -5  -5 62.0738 10.0655   1
   2  -5  -5 79.1012  9.5296   5
  -2   5   5 60.9293 10.2595   1
  -2   5   5 54.3241  8.3146   4
   1  -5  -5 138.067  11.351   1
   1  -5  -5 120.776  10.713   5
  -1   5   5 135.521  11.321   1
  -1   5   5 132.237  11.391   4
   0  -5  -5 152.968  10.228   5
   0  -5  -5 172.675  12.187   1
   0   5   5 170.019  13.149   4
   0   5   5 174.215  12.113   1
  -1  -5  -5 1328.40   30.86   1
   1   5   5 1336.95   30.81   1
   1   5   5 1293.29   35.10   4
  -2  -5  -5 1023.11   26.50   1
   2   5   5 974.152  25.760   1
   2   5   5 974.558  31.566   4
  -3  -5  -5 24.9053  6.0498   1
   3   5   5 38.8727 10.2057   4
   3   5   5 44.1681  6.4823   1
  -4  -5  -5 47.9078  6.5384   1
   4   5   5 44.7838 12.6846   4
  -5  -5  -5 526.200  16.625   1
   5   5   5 574.787  29.611   4
   6   5   5 1376.45   47.83   4
   7   5   5 120.707  17.771   4
  -8   6   5 108.807  13.670   1
  -8   6   5 82.8401 17.1650   3
   7  -6  -5 260.202  18.420   5
  -7   6   5 221.484  18.068   1
  -7   6   5 222.005  22.004   3
   6  -6  -5 85.2242 10.7857   5
   6  -6  -5 82.7988 11.8013   1
  -6   6   5 94.6204 12.6007   1
   5  -6  -5 41.3787  9.8461   5
   5  -6  -5 59.0733 10.7323   1
  -5   6   5 67.3328  8.5285   4
  -5   6   5 71.8874 11.9049   1
   4  -6  -5 143.836  12.214   5
   4  -6  -5 146.183  12.689   1
  -4   6   5 134.282  12.711   1
  -4   6   5 141.136  11.490   4
   3  -6  -5 92.2631 11.0627   5
   3  -6  -5 91.7930 11.6549   1
  -3   6   5 84.5502  9.7010   4
  -3   6   5 73.5224 11.2208   1
   2  -6  -5 150.878  12.550   5
   2  -6  -5 158.464  12.880   1
  -2   6   5 153.261  12.695   1
  -2   6   5 168.938  12.954   4
   1  -6  -5 37.3186  8.8038   1
   1  -6  -5 40.1337  8.7053   5
  -1   6   5 56.5098  9.7517   1
  -1   6   5 47.9334  9.8480   4
   0  -6  -5 295.208  15.741   1
   0   6   5 263.906  17.159   4
   0   6   5 278.093  15.510   1
  -1  -6  -5 116.110  10.603   1
   1   6   5 119.796  13.239   4
   1   6   5 124.954  10.491   1
  -2  -6  -5 -3.5044  5.7540   1
   2   6   5 -6.8804  5.1145   1
   2   6   5 20.9167  8.4193   4
  -3  -6  -5 874.246  24.509   1
   3   6   5 889.169  32.289   4
  -4  -6  -5 2103.36   39.13   1
   4   6   5 2048.04   54.10   4
   5   6   5 25.5732 12.0873   4
   6   6   5 329.942  23.873   4
  -7   7   5 145.627  17.565   3
  -7   7   5 133.254  14.523   1
   6  -7  -5 36.1700  8.9091   1
  -6   7   5 4.23793 7.44878   1
   5  -7  -5 -1.3674  8.3989   1
   5  -7  -5 3.64203 6.03675   5
  -5   7   5 -9.4567  9.5090   1
   4  -7  -5 349.390  19.537   5
   4  -7  -5 360.575  20.888   1
  -4   7   5 353.437  20.789   1
  -4   7   5 319.307  17.809   4
   3  -7  -5 154.651  14.704   1
  -3   7   5 177.313  15.689   1
  -3   7   5 165.824  13.843   4
   2  -7  -5 121.046  12.816   1
  -2   7   5 126.551  13.153   1
  -2   7   5 110.875  12.354   4
   1  -7  -5 91.6591 10.1170   1
  -1   7   5 102.879  10.434   1
  -1   7   5 108.599  12.534   4
   0  -7  -5 2.32022 5.25831   1
   0   7   5 -8.1392  6.7155   4
   0   7   5 13.2418  5.7961   1
  -1  -7  -5 1556.17   37.35   1
   1   7   5 1556.50   42.51   4
   1   7   5 1536.12   36.95   1
  -2  -7  -5 986.767  28.469   1
   2   7   5 978.408  28.122   1
   2   7   5 957.756  34.468   4
  -3  -7  -5 93.8859  8.9615   1
   3   7   5 106.871  15.008   4
  -4  -7  -5 195.393  12.011   1
   4   7   5 190.903  19.496   4
   5   7   5 250.849  21.622   4
   6   7   5 110.392  17.438   4
  -7   8   5 53.1646 12.1761   1
  -7   8   5 27.1143 11.4515   3
   6  -8  -5 77.4083 12.6949   1
  -6   8   5 75.3022 13.1211   1
   5  -8  -5 13.6984 10.1105   1
  -5   8   5 9.90813 7.68357   4
  -5   8   5 -12.202  10.628   1
  -4   8   5 60.7720 12.4576   1
  -4   8   5 62.6877 10.5069   4
   3  -8  -5 8.46406 9.17042   1
  -3   8   5 8.47939 8.51027   4
  -3   8   5 -8.1734  9.3801   1
   2  -8  -5 120.907  13.056   1
  -2   8   5 104.048  12.699   1
  -2   8   5 94.8429 12.7879   4
   1  -8  -5 231.192  16.847   1
  -1   8   5 227.726  16.404   4
  -1   8   5 220.660  16.351   1
   0  -8  -5 118.537  12.686   1
   0   8   5 147.615  13.377   1
   0   8   5 119.705  13.317   4
  -1  -8  -5 96.2513 11.9119   1
   1   8   5 91.2833 11.0870   1
   1   8   5 85.2398 13.3849   4
  -2  -8  -5 133.694  12.266   1
   2   8   5 146.553  17.066   4
  -3  -8  -5 385.280  18.186   1
   3   8   5 354.694  24.279   4
  -4  -8  -5 47.4320  7.5012   1
   4   8   5 47.8407 13.6014   4
   5   8   5 75.1679 16.0452   4
   6  -9  -5 -16.415  10.778   1
  -6   9   5 -6.3187 10.8372   1
   5  -9  -5 -8.3939  7.9307   1
  -5   9   5 -0.2807  8.3240   4
   4  -9  -5 9.29833 7.79879   1
  -4   9   5 12.6930  9.4160   1
   3  -9  -5 31.1759 11.0763   1
  -3   9   5 46.3730 11.8078   4
   2  -9  -5 313.718  19.785   1
  -2   9   5 290.248  18.907   1
  -2   9   5 318.424  21.337   4
   1  -9  -5 32.2766  8.2199   1
  -1   9   5  7.8823 10.5953   4
   0  -9  -5 27.8834  9.2515   1
   0   9   5 36.8864  9.5738   1
  -1  -9  -5 308.741  18.659   1
   1   9   5 286.174  17.734   1
   1   9   5 300.464  20.972   4
  -3  -9  -5 -0.5349  6.0075   1
   3   9   5 11.0050  9.1878   4
  -4  -9  -5 27.8823  6.6297   1
  -5  10   5 18.6249  9.1172   4
  -5  10   5 -5.0893 11.4098   1
   4 -10  -5 153.658  17.892   1
  -4  10   5 147.498  16.632   4
   3 -10  -5  8.1671 10.3625   1
  -3  10   5 12.6081 10.7843   1
  -3  10   5 15.7034  8.3372   4
   2 -10  -5 10.7669  7.3981   1
  -2  10   5 0.50264 8.78013   4
  -2  10   5 0.66039 6.73600   1
   1 -10  -5 167.098  16.298   1
  -1  10   5 185.141  18.899   4
  -1  10   5 171.095  16.395   1
   0 -10  -5 2.90348 7.56759   1
   0  10   5 -10.017   8.649   4
   0  10   5 3.71821 7.62989   1
  -1 -10  -5 42.3360  9.6897   1
   1  10   5 37.9922 12.9462   4
  -2 -10  -5 7.40116 7.98645   1
   2  10   5 8.79011 8.66856   4
  -3 -10  -5 18.1876  7.1168   1
   3  10   5 -6.6837 13.0782   4
   4  10   5 326.563  25.412   4
   4 -11  -5 58.8836 14.1246   1
  -4  11   5 43.9243 13.8104   1
   3 -11  -5 75.6767 13.0421   1
  -3  11   5 71.7347 14.0349   4
  -3  11   5 89.7542 13.3212   1
   2 -11  -5 28.1159  9.6919   1
  -2  11   5 14.8533  7.9314   1
   1 -11  -5 164.858  17.390   1
  -1  11   5 212.312  18.732   1
  -1  11   5 171.904  19.951   4
   0 -11  -5 13.3703  8.7374   1
   0  11   5 14.8663 12.9134   4
  -1 -11  -5 13.1586  9.5600   1
   1  11   5 48.8806 14.0547   4
  -2 -11  -5 17.7884  8.2473   1
   2  11   5 26.8163 11.2801   4
   2 -12  -5 125.132  15.544   1
  -2  12   5 155.953  19.290   4
  -2  12   5 124.395  15.304   1
   1 -12  -5 2.20195 9.32171   1
  -1  12   5 7.93134 9.22749   1
   0 -12  -5 142.662  16.675   1
   0  12   5 149.100  19.895   4
   2  12  -6  1.2470 10.1580   4
  -2 -12   6 0.98893 8.64721   1
   1  12  -6 215.849  20.593   4
  -1 -12   6 188.748  18.365   1
   0  12  -6 245.258  22.100   4
   0 -12   6 251.959  21.318   1
  -1  12  -6 17.3596  9.3953   1
  -1  12  -6 39.8725 13.8995   4
   1 -12   6 0.53020 8.13224   1
  -2  12  -6 42.4829 14.1042   4
  -2  12  -6 27.4683 12.5185   1
  -4 -11   6 70.8164 11.9909   2
   3  11  -6 10.1189  8.4155   4
  -3 -11   6 8.38083 9.00591   2
   2  11  -6 30.3327 11.5407   4
  -2 -11   6 23.9820  9.5552   2
  -2 -11   6 51.3237 11.1257   1
   1  11  -6 11.6187  9.3337   4
  -1 -11   6 -3.6191  7.1261   1
   0  11  -6 343.416  22.409   1
   0  11  -6 338.311  23.626   4
   0 -11   6 346.373  23.753   1
  -1  11  -6 27.3086 10.5095   1
   1 -11   6 -1.2706  9.6520   1
  -2  11  -6 256.953  21.718   1
  -2  11  -6 269.558  23.379   4
   2 -11   6 273.388  23.076   1
  -3  11  -6 11.3719 11.5131   1
  -3  11  -6 -13.977   9.974   4
   3 -11   6 -13.543  12.389   1
  -5 -10   6 1.97539 9.69028   2
   4  10  -6 105.710  13.159   4
  -4 -10   6 109.163  10.514   1
  -4 -10   6 112.019  15.145   2
   3  10  -6 227.505  17.480   4
  -3 -10   6 229.432  18.306   2
  -3 -10   6 230.371  16.096   1
   2  10  -6 675.023  28.830   4
  -2 -10   6 648.761  27.850   2
  -2 -10   6 680.792  27.551   1
   1  10  -6 701.451  28.199   1
   1  10  -6 706.340  30.426   4
  -1 -10   6 668.359  27.245   2
  -1 -10   6 665.983  28.344   1
   0  10  -6 40.7599 10.8857   1
   0  10  -6 1.19367 9.61785   4
  -1  10  -6 12.2711  8.2304   1
   1 -10   6 -20.827  10.526   1
  -2  10  -6 142.228  16.823   1
  -2  10  -6 141.627  18.294   4
   2 -10   6 123.934  16.511   1
  -3  10  -6 135.804  17.338   1
  -3  10  -6 120.093  18.233   4
   3 -10   6 143.399  17.671   1
  -4  10  -6 1078.71   43.03   1
   4 -10   6 1145.74   44.08   1
   6   9  -6 8.71638 9.90763   5
  -6  -9   6 9.81019 8.43570   2
   5   9  -6 68.7778 12.0578   5
  -5  -9   6 74.8238 14.0032   2
   4   9  -6 135.757  13.197   4
  -4  -9   6 117.351  10.183   1
  -4  -9   6 108.963  14.183   2
   3   9  -6 56.3439 10.0425   4
  -3  -9   6 45.1167  8.6302   1
   2   9  -6 290.414  18.082   4
  -2  -9   6 277.732  17.200   1
  -2  -9   6 252.248  17.483   2
   1   9  -6 23.9940  9.6720   4
   1   9  -6 -0.5212  7.4404   1
  -1  -9   6 9.72468 9.01392   1
  -1  -9   6 23.9364  9.6229   2
   0   9  -6 1430.58   40.72   1
   0   9  -6 1454.90   42.63   4
   0  -9   6 1454.16   41.54   1
  -1   9  -6 4.68420 7.93387   1
  -1   9  -6 10.6405 10.2818   4
   1  -9   6 6.03438 7.62041   1
  -2   9  -6 1363.54   42.69   1
  -2   9  -6 1349.29   44.17   4
   2  -9   6 1380.26   43.70   1
  -3   9  -6 74.0249 12.2462   1
  -3   9  -6 61.3223 12.2113   4
   3  -9   6 53.1602 11.3729   1
  -4   9  -6 242.066  18.099   3
  -4   9  -6 250.955  22.104   1
   4  -9   6 222.810  20.622   1
  -5   9  -6 -18.085   9.728   3
  -5   9  -6 -5.2795 12.3103   1
   5  -9   6 -26.016  12.426   1
   6   8  -6 17.4617  9.5578   5
  -6  -8   6 23.5699 11.8396   2
   5   8  -6 154.565  15.036   5
  -5  -8   6 125.887  16.297   2
   4   8  -6 6.12771 5.97361   4
  -4  -8   6 13.4682  7.7432   2
   3   8  -6 1.67909 6.72865   4
  -3  -8   6 -1.7914  6.4410   1
   2   8  -6 153.486  12.547   1
   2   8  -6 153.224  13.181   4
  -2  -8   6 157.304  14.508   2
  -2  -8   6 153.032  13.001   1
   1   8  -6 1049.71   32.28   4
   1   8  -6 1071.50   31.95   1
  -1  -8   6 1037.71   32.41   1
   0   8  -6 621.443  26.053   1
   0   8  -6 635.000  25.879   4
   0  -8   6 630.375  26.812   1
  -1   8  -6 41.4986  9.0466   4
  -2   8  -6 1730.90   47.55   4
  -2   8  -6 1716.86   46.71   1
   2  -8   6 1804.11   48.00   1
  -3   8  -6 1216.23   40.48   1
  -3   8  -6 1094.46   39.06   4
   3  -8   6 1125.34   39.19   1
  -4   8  -6 61.3876 12.3746   1
  -4   8  -6 39.6563  9.7206   3
   4  -8   6 55.4767 10.9024   1
  -5   8  -6 307.777  22.788   1
  -5   8  -6 361.636  22.087   3
   5  -8   6 315.013  22.561   1
  -6   8  -6 -6.4960 10.5600   1
  -6   8  -6 27.5846 10.7630   3
   7   7  -6 10.9066  8.4774   5
  -7  -7   6 0.75115 8.40848   2
   6   7  -6 -6.0324  8.9794   5
  -6  -7   6  5.8841 11.6821   2
   5   7  -6 10.0187  9.4130   5
  -5  -7   6 -15.176   8.583   2
   4   7  -6 73.8410  8.7685   4
  -4  -7   6 89.2514  8.2726   1
  -4  -7   6 60.7978 10.4140   2
   3   7  -6 402.258  17.684   4
  -3  -7   6 368.023  16.530   1
  -3  -7   6 393.025  21.383   2
   2   7  -6 1487.82   34.47   1
   2   7  -6 1475.60   35.26   4
  -2  -7   6 1470.08   35.06   1
  -2  -7   6 1515.87   39.76   2
   1   7  -6 2365.42   47.45   1
   1   7  -6 2360.55   48.50   4
  -1  -7   6 2403.14   48.70   1
   0   7  -6 131.397  11.751   4
   0   7  -6 161.877  14.059   1
   0  -7   6 139.418  13.824   1
  -1   7  -6 2976.17   58.67   1
  -1   7  -6 2828.54   58.41   4
   1  -7   6 2934.43   58.99   1
  -2   7  -6 49.6615 11.8988   4
   2  -7   6 52.3864  9.7545   1
  -3   7  -6 653.855  28.781   1
  -3   7  -6 595.556  22.822   3
   3  -7   6 585.006  27.300   1
  -4   7  -6 188.684  14.304   3
  -4   7  -6 178.398  15.992   1
   4  -7   6 158.653  16.031   1
  -5   7  -6 6.73790 8.48613   3
  -5   7  -6 -13.533   8.226   1
   5  -7   6 -12.436   8.258   1
  -6   7  -6 351.778  22.791   3
  -6   7  -6 413.439  25.828   1
   7   6  -6 188.554  15.203   5
  -7  -6   6 198.270  21.185   2
   6   6  -6 143.608  14.007   5
  -6  -6   6 150.983  16.893   2
   5   6  -6 307.867  17.833   5
  -5  -6   6 325.385  11.287   1
  -5  -6   6 288.781  21.085   2
   4   6  -6 360.258  18.607   5
   4   6  -6 366.134  14.817   4
  -4  -6   6 368.185  14.303   1
  -4  -6   6 327.933  20.796   2
   3   6  -6 332.873  14.459   1
   3   6  -6 314.910  14.036   4
  -3  -6   6 333.246  15.051   1
  -3  -6   6 318.469  19.225   2
   2   6  -6 1208.44   29.41   4
   2   6  -6 1282.52   30.88   1
  -2  -6   6 1243.41   34.82   2
  -2  -6   6 1289.41   31.39   1
   1   6  -6 3658.10   59.42   1
   1   6  -6 3532.48   58.11   4
  -1  -6   6 3551.58   59.02   1
   0   6  -6 1167.16   32.45   1
   0   6  -6 1203.73   32.18   4
   0  -6   6 1191.11   33.24   1
  -1   6  -6 1266.53   34.88   1
  -1   6  -6 1249.79   34.72   4
   1  -6   6 1275.78   35.39   1
  -2   6  -6 173.459  14.756   1
  -2   6  -6 178.656  14.204   4
   2  -6   6 174.575  15.187   1
  -3   6  -6 35.7808 10.5296   1
  -3   6  -6 64.5995  8.4922   3
   3  -6   6 60.5433 11.4072   1
  -4   6  -6 13.8464  7.1059   1
  -4   6  -6 9.76633 7.38826   3
   4  -6   6 21.1701  7.4669   1
  -5   6  -6 250.947  17.729   3
  -5   6  -6 259.034  18.635   1
   5  -6   6 217.397  16.956   1
  -6   6  -6 63.2200 12.8703   1
  -6   6  -6 45.3285 10.1400   3
  -7   6  -6 115.066  16.176   3
  -7   6  -6 111.390  15.252   1
   7   5  -6 -7.5346  7.2636   5
  -7  -5   6 -1.5443 10.7027   2
   6   5  -6 99.6142 11.9250   5
  -6  -5   6 74.6527 12.8144   2
   5   5  -6 1155.01   33.22   5
  -5  -5   6 1164.91   37.83   2
  -5  -5   6 1121.10   22.09   1
   4   5  -6 35.0197  8.2966   5
   4   5  -6 32.4902  4.9369   4
  -4  -5   6 26.4769 10.7279   2
  -4  -5   6 38.5215  5.6059   1
   3   5  -6 2704.71   50.79   5
   3   5  -6 2830.10   45.01   1
   3   5  -6 2810.18   43.44   4
  -3  -5   6 2828.93   46.01   1
  -3  -5   6 2853.60   56.16   2
   2   5  -6 -11.137   5.190   4
   2   5  -6 -7.1496  6.2972   1
  -2  -5   6 7.47731 8.56014   2
   1   5  -6 7.05095 5.83615   4
   1   5  -6 6.81768 5.82339   1
   1   5  -6 -1.0071  2.1343   3
  -1  -5   6 -4.3405  6.0271   1
   0   5  -6 36.3796  9.1575   1
   0   5  -6 60.3057  8.7397   4
   0  -5   6 57.8139  9.7485   1
  -1   5  -6 174.043  12.913   4
  -1   5  -6 191.494  14.035   1
   1  -5   6 176.631  13.937   1
  -2   5  -6 2087.38   46.20   1
  -2   5  -6 2085.98   36.84   3
   2  -5   6 2057.64   46.00   1
  -3   5  -6 570.335  19.866   3
  -3   5  -6 596.352  24.677   1
   3  -5   6 543.220  23.696   1
  -4   5  -6 158.882  12.174   3
  -4   5  -6 174.087  15.543   1
   4  -5   6 176.055  14.959   1
  -5   5  -6 1139.51   37.00   1
  -5   5  -6 1132.00   35.57   3
   5  -5   6 1117.06   35.70   1
  -6   5  -6 173.140  16.227   3
  -6   5  -6 157.106  15.003   1
  -8  -4   6 116.879  18.216   2
  -8  -4   6 129.187  16.624   3
   7   4  -6 49.9984  9.4680   5
  -7  -4   6 41.2979 13.9044   2
  -7  -4   6 33.2517  8.8658   3
   6   4  -6 1.48139 7.70659   5
  -6  -4   6 -2.3962  6.5336   3
  -6  -4   6 -0.9657  9.4605   2
   5   4  -6 287.706  17.030   5
  -5  -4   6 275.567  19.002   2
  -5  -4   6 289.731  10.854   1
  -5  -4   6 309.425  16.171   3
   4   4  -6 149.869   8.293   1
   4   4  -6 139.882  12.842   5
   4   4  -6 160.310   7.289   4
  -4  -4   6 136.170  14.428   2
  -4  -4   6 160.200   9.142   1
   3   4  -6 102.612   8.206   1
   3   4  -6 114.100   6.580   4
   3   4  -6 89.0010 11.0560   5
  -3  -4   6 98.1194  6.1060   4
  -3  -4   6 100.882  11.842   2
  -3  -4   6 111.024   9.396   1
   2   4  -6 369.788  10.686   3
   2   4  -6 410.826  15.892   1
   2   4  -6 395.851  13.278   4
   2   4  -6 386.602  16.707   5
  -2  -4   6 394.521  16.128   1
   1   4  -6 2612.00   44.84   1
   1   4  -6 2545.20   41.37   4
   1   4  -6 2468.85   30.08   3
  -1  -4   6 2500.18   44.71   1
   0   4  -6 133.802   9.495   4
   0   4  -6 148.735  10.962   1
   0  -4   6 153.843  11.206   1
  -1   4  -6 5.36630 8.24496   1
  -2   4  -6 208.424  10.236   3
  -2   4  -6 204.268  14.315   1
   2  -4   6 215.977  14.485   1
  -3   4  -6 574.811  19.184   3
  -3   4  -6 560.376  23.217   1
   3  -4   6 562.347  22.732   1
  -4   4  -6 30.9808  7.6279   3
   4  -4   6 32.9912  9.1989   1
  -5   4  -6 77.4614 11.2733   3
  -5   4  -6 87.2201 12.1234   1
   5  -4   6 74.9599 11.1983   1
  -6   4  -6 50.1233  9.5349   1
  -6   4  -6 58.0055 10.7727   3
  -7   4  -6 5.30377 7.74244   3
  -7   4  -6 2.81324 7.76134   1
   8   3  -6 57.3397 10.0666   5
  -8  -3   6 65.6961 13.7778   3
  -8  -3   6 79.4796 13.6741   2
   7   3  -6 40.7752  9.0035   5
  -7  -3   6 28.2646 10.5697   3
   6   3  -6 829.222  27.535   5
  -6  -3   6 762.455  15.986   1
  -6  -3   6 760.370  28.560   3
  -6  -3   6 813.620  31.936   2
   5   3  -6 3.03928 7.04911   5
  -5  -3   6 -0.0417  3.2449   1
  -5  -3   6 9.97285 7.37470   2
  -5  -3   6 9.51144 7.04768   3
   4   3  -6 390.576  18.065   5
   4   3  -6 395.540  13.347   1
  -4  -3   6 402.217  14.142   1
  -4  -3   6 416.854  20.694   2
  -4  -3   6 389.616  15.733   3
   3   3  -6 238.566  14.791   5
   3   3  -6 256.063   7.549   4
   3   3  -6 258.858  11.801   1
  -3  -3   6 242.252  15.793   2
  -3  -3   6 254.101  12.285   1
  -3  -3   6 241.019  10.471   3
  -3  -3   6 270.542  12.070   1
   2   3  -6 136.058   6.763   4
   2   3  -6 142.048   5.847   3
   2   3  -6 149.711   9.324   1
   2   3  -6 128.585  11.058   5
  -2  -3   6 133.413   9.244   1
  -2  -3   6 128.908   6.495   4
   1   3  -6 2425.88   41.66   1
   1   3  -6 2469.26   42.11   5
   1   3  -6 2541.39   38.17   4
  -1  -3   6 2434.26   42.39   1
   0   3  -6 24.0052  7.0054   1
   0  -3   6 39.6393  7.2921   1
  -1   3  -6 7178.41   92.43   1
   1  -3   6 7108.29   92.00   1
  -2   3  -6 2812.21   50.84   1
  -2   3  -6 2669.33   40.46   3
   2  -3   6 2735.21   49.92   1
  -3   3  -6 62.1005 10.2199   1
  -3   3  -6 49.0717  7.2549   3
   3  -3   6 40.8338  9.3159   1
  -4   3  -6 1684.99   38.78   3
  -4   3  -6 1646.53   40.42   1
   4  -3   6 1683.31   40.07   1
  -5   3  -6 227.365  15.736   3
  -5   3  -6 203.546  15.239   1
   5  -3   6 228.348  15.274   1
  -6   3  -6 23.2686 10.0927   3
  -6   3  -6 -1.9284  7.6101   1
  -8  -2   6  5.0031 11.6131   2
   6   2  -6 536.226  22.184   5
  -6  -2   6 527.131  23.625   3
  -6  -2   6 535.343  14.776   1
  -6  -2   6 532.093  26.077   2
   5   2  -6 1867.00   40.45   5
  -5  -2   6 1848.21   40.38   3
  -5  -2   6 1906.66   32.53   1
  -5  -2   6 1885.04   45.82   2
   4   2  -6 88.6526  7.0327   1
   4   2  -6 88.7827 10.8208   5
  -4  -2   6 76.6437  7.3175   1
  -4  -2   6 92.2385  8.3830   3
  -4  -2   6 91.7201 11.8962   2
   3   2  -6 1240.17   26.11   1
   3   2  -6 1230.19   29.78   5
  -3  -2   6 1255.44   24.37   3
  -3  -2   6 1283.82   32.82   2
  -3  -2   6 1293.62   27.32   1
  -3  -2   6 1246.75   26.47   1
   2   2  -6 2860.78   46.41   5
   2   2  -6 2898.12   44.59   1
  -2  -2   6 2857.98   45.11   1
  -2  -2   6 2866.48   34.86   3
   1   2  -6 80.1310  8.7030   5
   1   2  -6 66.4064  6.9058   1
  -1  -2   6 68.4873  5.0288   4
  -1  -2   6 61.3317  7.0999   1
   0   2  -6 3573.01   50.12   5
   0   2  -6 3538.25   53.92   1
   0  -2   6 3566.82   54.08   1
  -1   2  -6 3109.26   43.99   5
  -1   2  -6 3082.43   50.76   1
   1  -2   6 3079.00   50.64   1
  -2   2  -6 5.53421 3.84776   3
  -2   2  -6 1.07257 3.75212   5
   2  -2   6 -0.9788  6.8207   1
  -3   2  -6 553.397  13.446   5
  -3   2  -6 526.560  21.215   1
  -3   2  -6 562.752  18.753   3
   3  -2   6 586.053  21.499   1
  -4   2  -6 889.846  27.157   3
  -4   2  -6 903.720  28.043   1
   4  -2   6 867.724  26.703   1
  -5   2  -6 227.429  15.304   1
  -5   2  -6 240.583  16.299   3
   5  -2   6 198.098  13.689   1
  -6   2  -6 -5.9654  7.2948   1
  -7   2  -6 156.978  17.083   3
  -7   2  -6 152.171  13.368   1
   8   1  -6 3.12222 7.00299   5
  -8  -1   6 -6.8330 10.5615   2
  -7  -1   6 38.4420 11.1572   2
  -7  -1   6 15.9225  7.9412   3
   6   1  -6 145.181  12.675   5
  -6  -1   6 143.054   8.847   1
  -6  -1   6 120.152  14.144   2
  -6  -1   6 136.704  13.541   3
   5   1  -6 54.6175  9.1194   5
   5   1  -6 66.4275  6.2684   1
  -5  -1   6 68.1540  6.8827   1
  -5  -1   6 64.5245  9.4599   2
  -5  -1   6 66.9737  9.0011   3
  -4  -1   6 5.87433 5.58295   3
  -4  -1   6 5.20968 5.83270   2
  -4  -1   6 3.42357 5.21343   1
  -4  -1   6 6.83230 4.02033   1
   3   1  -6 1029.14   26.53   5
   3   1  -6 1029.79   23.64   1
  -3  -1   6 1034.61   27.83   2
  -3  -1   6 1025.37   24.31   1
  -3  -1   6 1007.78   21.89   3
   2   1  -6 84.6195  9.1765   5
   2   1  -6 89.0198  8.0288   1
  -2  -1   6 89.6522  4.8267   3
   1   1  -6 5019.87   64.62   5
   1   1  -6 5135.74   66.82   1
  -1  -1   6 5138.45   67.42   1
  -1  -1   6 5026.94   59.50   4
   0   1  -6 133.695   8.610   5
   0   1  -6 136.819   9.399   1
   0  -1   6 136.484   9.530   1
  -1   1  -6 3216.75   43.26   5
  -1   1  -6 3173.05   50.33   1
   1  -1   6 3184.19   39.56   3
   1  -1   6 3193.66   50.64   1
  -2   1  -6 367.153  11.217   5
  -2   1  -6 375.696  16.824   1
  -2   1  -6 367.928  12.725   3
   2  -1   6 362.485  16.319   1
  -3   1  -6 189.702  11.721   3
  -3   1  -6 185.258   6.711   5
  -3   1  -6 187.300  13.436   1
   3  -1   6 199.932  13.018   1
  -4   1  -6 820.359  26.051   1
  -4   1  -6 837.915  26.606   3
   4  -1   6 821.288  25.283   1
  -5   1  -6 182.827  13.511   1
  -5   1  -6 156.584  14.571   3
   5  -1   6 161.987  12.480   1
  -6   1  -6 153.898  12.457   1
  -6   1  -6 139.794  15.602   3
  -7   1  -6 130.336  16.541   3
  -7   1  -6 122.328  11.656   1
   8   0  -6 16.1100  7.1561   5
  -8   0   6 -4.5002  9.6990   3
  -8   0   6 30.4274 11.2214   2
   7   0  -6 53.7190  9.3020   5
  -7   0   6 71.0004  7.1730   1
  -7   0   6 68.1943 11.9457   2
   6   0  -6 2153.18   44.89   5
  -6   0   6 2103.03   49.88   2
  -6   0   6 2107.94   49.35   3
  -6   0   6 2102.02   37.92   1
   5   0  -6 87.5922 10.2701   5
   5   0  -6 91.1484  7.6645   1
  -5   0   6 102.124  10.899   3
  -5   0   6 108.115  10.875   2
  -5   0   6 87.0066  8.3775   1
   4   0  -6 59.4136  9.2857   5
  -4   0   6 39.7350  7.3957   2
  -4   0   6 53.4596  6.5695   1
  -4   0   6 51.4173  8.2058   3
   3   0  -6 2512.31   43.67   5
   3   0  -6 2458.28   40.87   1
  -3   0   6 2487.82   44.89   2
  -3   0   6 2384.08   38.81   3
  -3   0   6 2452.28   41.55   1
   2   0  -6 3316.35   49.21   1
   2   0  -6 3162.62   48.75   5
  -2   0   6 3223.48   49.55   1
  -2   0   6 3339.27   42.47   3
   1   0  -6 4697.33   62.43   1
   1   0  -6 4571.17   59.65   5
  -1   0   6 4525.90   62.15   1
   0   0  -6 129.450  10.149   1
   0   0  -6 106.954   7.144   5
   0   0   6 114.783   4.870   3
   0   0   6 97.5155  9.4414   1
  -1   0  -6 4.42571 6.60513   1
   1   0   6 2.14663 6.55830   1
  -2   0  -6 149.789  10.484   1
  -2   0  -6 181.114   7.669   5
   2   0   6 157.880  10.451   1
  -3   0  -6 35.4471  2.9837   5
  -3   0  -6 45.3599  8.7556   1
  -3   0  -6 37.3351  7.6234   3
   3   0   6 38.0799  8.0259   1
  -4   0  -6 1929.82   39.66   1
  -4   0  -6 1933.33   42.69   3
   4   0   6 1947.43   39.37   1
  -6   0  -6 408.614  18.073   1
  -6   0  -6 376.879  22.280   3
  -7   0  -6 191.754  12.633   1
  -7   0  -6 195.011  19.355   3
   8  -1  -6 98.2398 11.3819   5
  -8   1   6 79.2062 14.6283   3
  -8   1   6 114.910  15.397   2
   7  -1  -6 287.065  17.178   5
  -7   1   6 327.214  22.008   3
  -7   1   6 314.616  20.620   2
  -7   1   6 288.029  14.318   1
   6  -1  -6 6.40701 6.79135   5
  -6   1   6 14.6258  8.6812   3
  -6   1   6 4.50429 5.69569   1
  -6   1   6 -7.2494  8.2986   2
   5  -1  -6 21.3099  5.8371   1
  -5   1   6 23.5674  8.3600   2
  -5   1   6 25.3701  6.8143   1
   4  -1  -6 57.6208  9.4626   5
   4  -1  -6 52.7691  7.1534   1
  -4   1   6 52.0363  7.6967   1
  -4   1   6 30.3682  8.4043   2
  -4   1   6 33.9572  8.1283   3
   3  -1  -6 3268.73   51.69   5
   3  -1  -6 3253.04   50.33   1
  -3   1   6 3271.75   51.54   2
  -3   1   6 3146.15   50.21   1
   2  -1  -6 3803.02   55.33   1
   2  -1  -6 3724.03   54.42   5
  -2   1   6 3772.33   43.62   4
  -2   1   6 3631.05   54.86   1
   1  -1  -6 622.760  18.307   5
   1  -1  -6 601.719  19.030   1
  -1   1   6 623.714  19.687   1
  -1   1   6 624.460  15.451   4
   0  -1  -6 55.4693  8.1154   1
   0  -1  -6 84.7378  7.5249   5
   0   1   6 76.2191  8.7988   1
  -1  -1  -6 547.061  18.651   1
  -1  -1  -6 577.385  15.167   5
   1   1   6 579.725  19.018   1
  -2  -1  -6 24.6656  7.0673   1
  -2  -1  -6 17.6323  3.6027   5
  -3  -1  -6 74.4241  3.8480   5
  -3  -1  -6 85.7044  9.7216   1
   3   1   6 77.4740  8.6523   1
  -4  -1  -6 1086.03   32.10   3
  -4  -1  -6 1109.93   28.39   1
   4   1   6 1133.56   28.30   1
  -5  -1  -6 48.1159  7.8905   1
  -5  -1  -6 41.3278 10.5024   3
  -6  -1  -6 1.55309 5.56413   1
  -6  -1  -6 -0.9582  9.4424   3
  -7  -1  -6 60.8849 11.8281   3
   8  -2  -6 76.9843 11.2539   5
  -8   2   6 58.8064  8.2909   1
  -8   2   6 77.5646 11.5530   2
  -8   2   6 78.8006 15.8359   3
   7  -2  -6 152.360  13.537   5
  -7   2   6 135.982  14.442   2
  -7   2   6 136.549  11.544   1
  -7   2   6 157.835  15.581   3
   6  -2  -6 1891.31   42.86   5
  -6   2   6 2035.22   46.56   2
  -6   2   6 1887.19   47.68   3
  -6   2   6 1914.79   40.34   1
   5  -2  -6 322.840  15.587   1
   5  -2  -6 345.649  17.703   5
  -5   2   6 314.934  16.465   2
  -5   2   6 344.728  16.550   1
  -5   2   6 331.613  18.672   3
   4  -2  -6 13.9774  7.3459   5
   4  -2  -6 15.3326  5.5169   1
  -4   2   6 6.45671 6.25606   2
   3  -2  -6 2930.61   49.48   5
   3  -2  -6 2910.76   48.80   1
  -3   2   6 2893.83   46.14   2
  -3   2   6 2944.20   49.73   1
   2  -2  -6 51.8806  8.3069   5
   2  -2  -6 66.4815  8.4169   1
  -2   2   6 71.0859  7.1194   2
  -2   2   6 70.9709  5.3487   4
  -2   2   6 77.9888  9.1598   1
   1  -2  -6 4054.05   56.43   5
   1  -2  -6 4077.81   59.34   1
  -1   2   6 4018.08   53.96   4
  -1   2   6 4104.31   59.72   1
   0  -2  -6 810.332  20.456   5
   0  -2  -6 816.958  22.865   1
   0   2   6 807.662  23.077   1
  -1  -2  -6 24.0539  4.7093   5
  -1  -2  -6 9.33773 6.10821   1
   1   2   6 16.8690  6.0908   1
  -2  -2  -6 1190.36   28.42   1
  -2  -2  -6 1129.10   20.98   5
   2   2   6 1149.31   27.81   1
  -3  -2  -6 795.204  23.545   1
   3   2   6 812.711  23.214   1
  -4  -2  -6 213.784  12.728   1
   4   2   6 201.152  11.862   1
  -5  -2  -6 130.498  10.345   1
  -6  -2  -6 111.111   9.409   1
   8  -3  -6 942.050  32.398   5
  -8   3   6 992.914  30.413   1
  -8   3   6 994.365  41.417   3
   7  -3  -6 1012.44   32.16   5
  -7   3   6 950.658  37.555   3
  -7   3   6 968.542  32.983   2
  -7   3   6 960.297  30.079   1
   6  -3  -6 15.6199  8.2684   5
  -6   3   6 18.9375 10.8780   3
  -6   3   6 3.22618 6.91608   2
  -6   3   6 11.9609  5.9015   1
   5  -3  -6 1452.00   34.83   1
   5  -3  -6 1475.24   36.91   5
  -5   3   6 1473.18   35.93   1
  -5   3   6 1487.62   40.20   3
  -5   3   6 1468.62   34.59   2
   4  -3  -6 378.419  17.484   1
   4  -3  -6 378.334  17.371   5
  -4   3   6 374.376  17.978   1
  -4   3   6 371.336  15.300   2
  -4   3   6 360.560  11.464   4
   3  -3  -6 473.536  19.101   1
   3  -3  -6 480.149  19.281   5
  -3   3   6 442.252  18.982   1
  -3   3   6 466.132  13.471   4
  -3   3   6 451.945  15.337   2
   2  -3  -6 882.356  25.410   1
   2  -3  -6 906.145  24.932   5
  -2   3   6 906.383  20.470   2
  -2   3   6 900.222  25.886   1
  -2   3   6 893.624  20.751   4
   1  -3  -6 41.2942  7.7563   1
   1  -3  -6 31.9979  7.2472   5
  -1   3   6 48.4948  5.9059   4
  -1   3   6 36.7632  7.7216   1
   0  -3  -6 173.575  10.082   5
   0  -3  -6 143.697  10.993   1
   0   3   6 156.218  11.188   4
   0   3   6 160.065  11.696   1
  -1  -3  -6 16.1785  5.4634   5
  -1  -3  -6 27.6423  6.4182   1
   1   3   6 29.3539  6.7776   1
   1   3   6 29.1866  8.4167   4
  -2  -3  -6 776.897  23.039   1
  -2  -3  -6 793.377  18.299   5
   2   3   6 761.342  22.754   1
  -3  -3  -6 603.048  20.347   1
   3   3   6 621.008  20.345   1
  -4  -3  -6 11.8309  5.5291   1
  -5  -3  -6 14.9418  5.4097   1
  -6  -3  -6 169.519  10.437   1
  -8   4   6 20.9128  7.1053   1
  -8   4   6 45.3451 14.8706   3
   7  -4  -6 1050.16   34.24   5
  -7   4   6 1053.15   33.48   1
  -7   4   6 1003.21   40.02   3
   6  -4  -6 238.794  15.754   1
   6  -4  -6 231.995  16.185   5
  -6   4   6 256.170  18.963   3
  -6   4   6 251.506  15.474   2
  -6   4   6 251.667  16.713   1
   5  -4  -6 123.382  11.890   5
   5  -4  -6 148.079  12.712   1
  -5   4   6 135.134  12.916   1
  -5   4   6 144.219  10.554   2
   4  -4  -6 102.332  11.271   5
   4  -4  -6 96.5962 11.0817   1
  -4   4   6 109.453   8.457   2
  -4   4   6 90.2403  7.6201   4
  -4   4   6 88.5634 11.2061   1
   3  -4  -6 220.273  14.443   1
   3  -4  -6 208.960  14.135   5
  -3   4   6 217.832  10.861   4
  -3   4   6 211.348   9.883   2
  -3   4   6 243.861  15.319   1
   2  -4  -6 90.3956 10.1797   5
   2  -4  -6 97.5008 10.9674   1
  -2   4   6 90.0480  8.1852   4
  -2   4   6 66.6897 10.1932   1
  -2   4   6 97.4374  6.3102   2
   1  -4  -6 667.470  22.355   1
   1  -4  -6 635.143  20.485   5
  -1   4   6 657.125  20.835   4
  -1   4   6 645.346  22.139   1
   0  -4  -6 31.0749  7.2952   1
   0  -4  -6 20.2221  6.5498   5
   0   4   6 19.1501  7.2383   1
   0   4   6 33.2941  8.3602   4
  -1  -4  -6 392.690  17.248   1
  -1  -4  -6 380.234  14.590   5
   1   4   6 381.768  16.846   1
   1   4   6 376.845  19.018   4
  -2  -4  -6 224.626  13.472   1
   2   4   6 241.452  16.613   4
   2   4   6 230.476  13.164   1
  -3  -4  -6 239.576  13.434   1
   3   4   6 239.882  17.793   4
   3   4   6 237.566  13.037   1
  -4  -4  -6 467.045  18.068   1
  -5  -4  -6 252.414  12.974   1
   7   4   6 78.4444 16.2440   4
   8  -5  -6 652.299  28.558   5
  -8   5   6 667.580  28.639   1
  -8   5   6 614.204  33.788   3
   7  -5  -6 33.4432  9.9375   5
  -7   5   6 58.9185 11.3331   1
  -7   5   6 40.1371 14.3527   3
   6  -5  -6 33.1688  8.3472   5
   6  -5  -6 47.7361  9.6004   1
   5  -5  -6 2.72536 7.22508   5
   5  -5  -6 3.93324 5.54330   1
  -5   5   6 5.82084 4.50862   2
   4  -5  -6 87.9661 10.1886   1
   4  -5  -6 88.6908 11.2411   5
  -4   5   6 78.5500 10.2858   1
  -4   5   6 75.2571  6.4929   2
  -4   5   6 84.7703  8.3404   4
   3  -5  -6 1216.74   32.77   5
   3  -5  -6 1177.28   32.93   1
  -3   5   6 1194.55   33.46   1
  -3   5   6 1156.00   28.39   4
  -3   5   6 1224.53   22.24   2
  -2   5   6 29.7482  7.4864   4
  -2   5   6 31.3041  3.3717   2
  -2   5   6 37.4944  9.0774   1
   1  -5  -6 339.240  15.691   5
   1  -5  -6 304.696  16.735   1
  -1   5   6 330.236  16.039   4
  -1   5   6 301.097  16.532   1
   0  -5  -6 357.054  17.513   1
   0  -5  -6 335.239  15.702   5
   0   5   6 364.012  18.175   4
   0   5   6 351.480  17.432   1
  -1  -5  -6 -6.8308  6.7377   1
   1   5   6 3.52474 7.30123   4
  -2  -5  -6 159.370  11.863   1
   2   5   6 150.441  14.811   4
   2   5   6 162.185  11.820   1
  -3  -5  -6 466.139  18.766   1
   3   5   6 474.638  24.647   4
   3   5   6 487.699  18.887   1
  -4  -5  -6 10.2574  5.2740   1
   4   5   6 18.7400 10.7450   4
  -5  -5  -6 616.763  20.033   1
   5   5   6 607.479  31.395   4
   6   5   6 159.792  19.536   4
   7  -6  -6 8.31252 6.44972   5
  -7   6   6 -10.896   8.950   1
  -7   6   6 4.41746 9.21529   3
   6  -6  -6 37.8366  9.9175   5
   6  -6  -6 47.7068  9.9954   1
  -6   6   6 28.5058 10.2478   1
   5  -6  -6 956.190  32.994   1
   5  -6  -6 862.052  30.261   5
  -5   6   6 917.182  32.733   1
   4  -6  -6 -11.411   8.062   5
  -4   6   6 6.31409 5.17560   4
  -4   6   6 5.59947 6.76409   1
   3  -6  -6 29.8156  7.4516   5
   3  -6  -6 23.1940  9.3863   1
  -3   6   6 25.7520  9.5385   1
  -3   6   6 27.4211  7.4042   4
   2  -6  -6 738.551  26.921   1
   2  -6  -6 727.041  25.504   5
  -2   6   6 744.679  27.151   1
  -2   6   6 678.422  23.710   4
   1  -6  -6 147.064  13.429   1
   1  -6  -6 158.747  12.810   5
  -1   6   6 156.737  13.445   4
  -1   6   6 184.276  14.260   1
   0  -6  -6 170.038  12.485   1
   0   6   6 178.409  12.625   1
   0   6   6 174.064  14.465   4
  -1  -6  -6 11.6348  5.5061   1
   1   6   6 18.5252  6.1233   1
   1   6   6 8.02437 6.84486   4
  -2  -6  -6 150.386  11.499   1
   2   6   6 154.915  16.049   4
   2   6   6 150.462  11.623   1
  -3  -6  -6 458.245  18.567   1
   3   6   6 475.718  25.558   4
  -4  -6  -6 9.71925 5.53353   1
   4   6   6 24.9668 12.1752   4
  -5  -6  -6 388.698  16.120   1
   5   6   6 403.222  25.764   4
   6   6   6 64.0249 13.1927   4
  -7   7   6 380.421  23.732   1
  -7   7   6 386.585  28.187   3
   6  -7  -6 44.5773  9.4708   1
   6  -7  -6 38.3490 10.1424   5
   5  -7  -6 358.357  21.875   1
   5  -7  -6 336.828  21.010   5
  -5   7   6 327.018  21.227   1
   4  -7  -6 275.923  18.726   1
   4  -7  -6 272.947  18.655   5
  -4   7   6 272.612  19.440   1
  -4   7   6 285.143  16.758   4
   3  -7  -6 105.822  13.242   1
   3  -7  -6 86.8901 10.6311   5
  -3   7   6 84.8718  9.9274   4
  -3   7   6 83.5090 12.3461   1
   2  -7  -6 43.7961  9.4678   5
   2  -7  -6 48.9117 10.5438   1
  -2   7   6 35.1524 10.1534   1
  -2   7   6 34.9973  9.3753   4
   1  -7  -6 92.6183 12.0231   1
  -1   7   6 77.7791 11.5095   4
  -1   7   6 60.9471 10.4745   1
   0  -7  -6 310.861  17.808   1
   0   7   6 304.006  17.465   1
   0   7   6 302.645  18.416   4
  -1  -7  -6 15.3913  7.6844   1
   1   7   6 -4.7992  6.8373   1
   1   7   6 -0.1039  9.5512   4
  -2  -7  -6 2113.49   45.55   1
   2   7   6 2127.90   45.53   1
   2   7   6 2194.11   54.72   4
  -3  -7  -6 19.8684  5.7721   1
  -4  -7  -6 14.6423  6.3792   1
   4   7   6 14.5594 11.7147   4
   5   7   6 102.956  17.384   4
   6  -8  -6 162.048  17.429   1
  -6   8   6 133.855  16.701   1
   5  -8  -6 290.945  20.623   1
  -5   8   6 329.587  22.150   1
   4  -8  -6 42.7624 11.8610   1
  -4   8   6 42.2688 12.0127   1
  -4   8   6 32.2873  9.1839   4
   3  -8  -6 -12.072  10.121   1
  -3   8   6 8.35193 9.38494   1
  -3   8   6 6.79582 8.15387   4
   2  -8  -6 8.03426 8.06713   1
  -2   8   6 16.2373  9.2307   1
  -2   8   6 -19.176   9.891   4
   1  -8  -6 281.641  18.313   1
  -1   8   6 295.672  18.808   1
  -1   8   6 273.887  18.007   4
   0  -8  -6 864.997  30.177   1
   0   8   6 911.613  34.117   4
   0   8   6 906.559  30.641   1
  -1  -8  -6 145.053  13.669   1
   1   8   6 122.522  12.659   1
   1   8   6 118.869  14.602   4
  -2  -8  -6 74.0647 10.4675   1
   2   8   6 63.5539 14.1033   4
  -3  -8  -6 64.2559  9.5169   1
   3   8   6 66.4427 12.4751   4
  -4  -8  -6 24.5102  6.8850   1
   5   8   6 44.6546 13.5969   4
   6  -9  -6 109.833  16.278   1
  -6   9   6 120.856  17.222   1
   5  -9  -6 31.0793 11.8759   1
  -5   9   6 28.4754 12.1885   1
   4  -9  -6 24.7371 10.6323   1
  -4   9   6 12.2878 11.1483   1
  -4   9   6 11.6187  8.8817   4
   3  -9  -6 203.745  18.013   1
  -3   9   6 189.146  16.801   4
  -3   9   6 165.095  17.059   1
   2  -9  -6 183.503  16.991   1
  -2   9   6 147.262  15.971   1
  -2   9   6 147.937  16.147   4
   1  -9  -6 28.5940 10.4157   1
  -1   9   6 -1.1373  9.7933   4
  -1   9   6 -7.5248  8.2939   1
   0  -9  -6 69.2840 11.9038   1
   0   9   6 48.9552 13.3642   4
   0   9   6 86.9243 12.2509   1
  -1  -9  -6 918.818  32.508   1
   1   9   6 930.614  37.476   4
   1   9   6 870.259  31.148   1
  -2  -9  -6 69.2466 10.7202   1
   2   9   6 77.9964 14.7817   4
  -3  -9  -6 98.5662 11.0155   1
   3   9   6 73.0303 16.0420   4
  -4  -9  -6 33.3027  7.4099   1
   4   9   6 14.4070 13.4408   4
   5 -10  -6 3.66927 7.64646   1
  -5  10   6 33.9990 10.7254   1
   4 -10  -6 158.163  17.903   1
  -4  10   6 193.291  19.647   1
  -4  10   6 189.534  17.634   4
   3 -10  -6 -3.2043 10.5248   1
  -3  10   6 -1.7579 10.8543   1
  -3  10   6 18.4672 10.5642   4
   2 -10  -6 444.808  25.973   1
  -2  10   6 482.206  26.617   1
  -2  10   6 410.856  24.347   4
   1 -10  -6 968.188  36.884   1
  -1  10   6 965.045  36.216   1
  -1  10   6 951.033  38.146   4
   0 -10  -6 1.58314 8.47444   1
   0  10   6 -20.106  12.484   4
   0  10   6 -10.919   8.428   1
  -1 -10  -6 210.937  17.287   1
   1  10   6 240.565  22.334   4
  -2 -10  -6 -4.8711  7.4118   1
   2  10   6 24.1633 13.4881   4
   3  10   6 36.0872 14.7713   4
   4 -11  -6 216.150  20.641   1
  -4  11   6 174.917  18.197   4
  -4  11   6 182.978  18.776   1
   3 -11  -6 498.228  29.628   1
  -3  11   6 514.399  30.051   1
  -3  11   6 490.353  28.597   4
   2 -11  -6  3.9002 10.4318   1
  -2  11   6 -7.8386 11.3976   4
  -2  11   6  3.9658 10.3928   1
   1 -11  -6 57.5077 11.1663   1
  -1  11   6 51.2587 12.1603   4
  -1  11   6 79.7377 13.1957   1
   0 -11  -6 7.00567 9.33884   1
   0  11   6 -12.192   9.738   4
  -1 -11  -6 151.138  15.883   1
   1  11   6 129.879  18.510   4
  -2 -11  -6 163.988  15.636   1
   2  11   6 176.570  21.953   4
   1  12  -7 144.305  17.934   4
  -1 -12   7 153.230  17.284   1
   0  12  -7 83.1124 15.2188   4
  -1  12  -7 87.3558 14.9497   1
  -1  12  -7 96.7047 16.1912   4
   3  11  -7 137.122  14.927   4
  -3 -11   7 160.359  16.729   2
  -3 -11   7 154.783  14.933   1
   2  11  -7 83.0288 13.9505   4
  -2 -11   7 95.3391 13.4177   1
  -2 -11   7 106.136  13.828   2
   1  11  -7 373.629  24.558   4
  -1 -11   7 379.803  22.724   2
  -1 -11   7 340.103  22.649   1
   0  11  -7 297.096  22.617   4
   0  11  -7 286.789  20.910   1
   0 -11   7 309.843  21.763   1
  -1  11  -7 130.896  16.113   4
  -1  11  -7 163.609  18.153   1
   1 -11   7 148.785  18.561   1
  -2  11  -7 2.51622 7.87539   1
  -2  11  -7 -7.1828 11.5465   4
   2 -11   7 -4.3169  8.5971   1
  -3  11  -7 278.473  24.416   4
  -3  11  -7 258.729  21.866   1
   3 -11   7 237.293  21.527   1
   5  10  -7 29.3215 10.0675   5
  -5 -10   7 25.3009 11.9380   2
  -4 -10   7 -5.7169  9.7635   2
   3  10  -7 -5.2683  8.2031   4
  -3 -10   7 -12.382   7.243   1
  -2 -10   7 57.7240 10.7507   1
  -2 -10   7 44.3108 11.4040   2
   1  10  -7 -13.326   9.919   4
  -1 -10   7 4.85385 9.33299   1
  -1 -10   7 -3.5963  8.6785   2
   0  10  -7 65.5571 12.5226   1
   0  10  -7 84.3537 13.5279   4
   0 -10   7 79.2348 13.7519   1
  -1  10  -7 218.559  19.514   1
  -1  10  -7 224.694  20.117   4
   1 -10   7 224.959  20.384   1
  -2  10  -7  8.9053 11.4794   4
  -2  10  -7 15.2629  9.3557   1
   2 -10   7 -18.611   9.553   1
  -3  10  -7 -7.2809 12.0061   4
  -3  10  -7 10.4169 11.8046   1
   3 -10   7 -8.1038 11.1600   1
  -4  10  -7 363.148  26.664   1
   4 -10   7 377.381  27.166   1
  -5  -9   7 28.4508 11.8598   2
  -4  -9   7 109.604  10.747   1
  -4  -9   7 87.3251 14.9093   2
   3   9  -7 44.0878  9.2943   4
  -3  -9   7 52.8907  9.1892   1
  -3  -9   7 66.2683 12.2843   2
   2   9  -7 108.803  12.926   4
  -2  -9   7 114.714  14.238   2
  -2  -9   7 120.809  13.242   1
   1   9  -7 228.030  16.672   1
   1   9  -7 230.507  17.439   4
  -1  -9   7 236.834  17.362   1
  -1  -9   7 217.874  17.500   2
   0   9  -7 448.745  24.071   4
   0   9  -7 399.860  22.861   1
   0  -9   7 406.723  23.683   1
  -1   9  -7 928.506  35.175   1
  -1   9  -7 888.521  34.898   4
   1  -9   7 903.959  35.082   1
  -2   9  -7 87.6960 14.8677   1
  -2   9  -7 59.1596 13.5716   4
   2  -9   7 88.7424 15.0476   1
  -3   9  -7 666.447  32.122   1
   3  -9   7 645.621  32.465   1
  -4   9  -7 902.324  37.735   1
   4  -9   7 883.121  37.466   1
  -5   9  -7 349.955  25.108   1
   5  -9   7 335.357  24.763   1
   6   8  -7 23.6890 10.3499   5
   5   8  -7 46.0512 11.6773   5
  -5  -8   7 20.8602 11.6315   2
  -4  -8   7 463.161  18.778   1
  -4  -8   7 481.439  26.520   2
   3   8  -7 64.7303  9.3007   4
  -3  -8   7 61.3896  8.3926   1
  -3  -8   7 59.5038 12.4438   2
   2   8  -7 60.8190  9.2944   4
   2   8  -7 64.3818  9.7860   1
  -2  -8   7 61.0055  9.9918   2
  -2  -8   7 68.9523 10.8920   1
   1   8  -7 216.867  16.002   4
   1   8  -7 193.333  14.301   1
  -1  -8   7 201.423  14.960   1
   0   8  -7 0.76275 7.02677   4
   0   8  -7 9.32517 8.97848   1
   0  -8   7 32.1639 11.0093   1
  -1   8  -7 11.6702  9.4428   4
  -1   8  -7 42.5734 11.1093   1
   1  -8   7 23.3552 11.0425   1
  -2   8  -7 351.155  21.511   1
  -2   8  -7 337.516  22.392   4
   2  -8   7 370.391  22.162   1
  -3   8  -7 1789.46   50.57   1
   3  -8   7 1771.44   50.11   1
  -4   8  -7 27.5325 12.6577   1
  -5   8  -7 614.224  31.770   1
   5  -8   7 602.159  31.157   1
   7   7  -7 19.9286  8.2579   5
  -7  -7   7 -23.584  13.729   2
  -6  -7   7 1.25880 8.06517   2
   5   7  -7 28.4519 10.0700   5
  -5  -7   7 -9.8811 11.1908   2
   4   7  -7 267.019  17.548   5
  -4  -7   7 285.937  14.253   1
  -4  -7   7 254.962  20.010   2
   3   7  -7 48.6197  7.5618   4
  -3  -7   7 32.4828  7.8478   1
  -3  -7   7 46.1317 10.8947   2
   2   7  -7 721.874  25.146   1
   2   7  -7 736.979  24.519   4
  -2  -7   7 712.778  25.605   1
  -2  -7   7 747.932  28.933   2
   1   7  -7 41.2587  8.9498   1
   1   7  -7 58.7046  9.3536   4
  -1  -7   7 52.2483  9.9293   1
   0   7  -7 3488.17   64.35   1
   0   7  -7 3571.57   65.10   4
   0  -7   7 3470.91   64.59   1
  -1   7  -7 1331.02   38.70   4
  -1   7  -7 1430.32   40.22   1
   1  -7   7 1431.99   40.67   1
  -2   7  -7 1360.85   41.44   4
  -2   7  -7 1354.51   40.76   1
  -2   7  -7 1381.10   31.35   3
   2  -7   7 1385.38   41.39   1
  -3   7  -7 2275.78   45.63   3
  -3   7  -7 2296.39   55.71   1
   3  -7   7 2290.38   55.86   1
  -4   7  -7 1.48268 6.71089   3
  -4   7  -7 -5.9576 10.4427   1
   4  -7   7 -5.1661  9.6464   1
  -5   7  -7 309.621  22.634   1
   5  -7   7 287.555  21.432   1
  -6   7  -7 21.6386 12.0795   1
   7   6  -7 113.952  14.038   5
  -7  -6   7 152.347  17.610   2
   6   6  -7 -2.0761  8.5028   5
   5   6  -7 152.817  14.988   5
  -5  -6   7 145.909  16.887   2
  -5  -6   7 156.771   9.460   1
   4   6  -7 836.580  29.952   5
  -4  -6   7 776.417  22.942   1
  -4  -6   7 827.534  32.310   2
   3   6  -7 3.28012 7.29861   5
   3   6  -7 1.19789 4.34789   4
   3   6  -7 12.6802  5.7768   1
   2   6  -7 2037.10   40.09   4
   2   6  -7 2009.86   41.79   1
  -2  -6   7 1997.94   47.73   2
  -2  -6   7 2048.45   42.61   1
   1   6  -7 372.526  18.637   1
   1   6  -7 364.253  17.150   4
  -1  -6   7 389.642  19.438   1
   0   6  -7 266.426  16.901   1
   0   6  -7 246.620  15.167   4
   0  -6   7 241.712  16.490   1
  -1   6  -7 765.167  28.291   1
  -1   6  -7 747.746  27.059   4
   1  -6   7 736.708  27.778   1
  -2   6  -7 521.290  17.290   3
  -2   6  -7 537.497  24.231   1
   2  -6   7 580.231  24.945   1
  -3   6  -7 373.946  21.617   1
  -3   6  -7 349.409  16.248   3
   3  -6   7 351.590  20.766   1
  -4   6  -7 12.0555  6.7026   3
  -4   6  -7 -2.0414  9.5700   1
   4  -6   7 6.20652 8.94499   1
  -5   6  -7 -4.9690  7.1426   3
  -5   6  -7 -9.5037 10.2926   1
   5  -6   7 -4.8774  8.4607   1
  -6   6  -7 53.3583 11.5251   3
  -6   6  -7 61.4119 11.2815   1
   7   5  -7 8.92634 8.62084   5
  -7  -5   7 -10.603   9.197   2
   6   5  -7 -0.9355  7.8396   5
  -6  -5   7  3.6747 11.0930   2
   5   5  -7 514.990  23.747   5
  -5  -5   7 536.058  16.771   1
  -5  -5   7 565.943  28.011   2
   4   5  -7 169.209  14.954   5
  -4  -5   7 160.130  14.211   2
  -4  -5   7 164.913  10.365   1
   3   5  -7 2506.85   44.07   1
   3   5  -7 2482.25   49.84   5
   3   5  -7 2478.18   39.68   4
  -3  -5   7 2487.51   44.98   1
  -3  -5   7 2455.94   53.45   2
   2   5  -7 331.693  13.708   4
   2   5  -7 324.976  15.665   1
  -2  -5   7 331.206  16.546   1
   1   5  -7 1.01814 5.19887   4
   1   5  -7 15.3827  7.6543   1
   0   5  -7 2044.38   42.08   4
   0   5  -7 2064.16   44.49   1
   0  -5   7 2077.28   44.80   1
  -1   5  -7 254.326   9.130   3
  -1   5  -7 242.357  16.432   1
   1  -5   7 252.169  16.684   1
  -2   5  -7 1444.45   28.26   3
  -2   5  -7 1410.96   38.63   1
   2  -5   7 1413.17   38.45   1
  -3   5  -7 660.624  21.118   3
  -3   5  -7 700.850  28.307   1
   3  -5   7 716.914  28.050   1
  -4   5  -7 -6.0426  8.8125   1
  -4   5  -7 -0.4885  5.8773   3
   4  -5   7 -9.7613  8.3316   1
  -5   5  -7 181.598  15.147   3
  -5   5  -7 148.852  15.657   1
   5  -5   7 158.845  15.194   1
  -6   5  -7 17.6644 11.0924   1
   8   4  -7 -4.3243  6.7422   5
  -8  -4   7  9.0306 12.9085   2
   7   4  -7 -12.168   8.399   5
  -7  -4   7 -3.2422  7.9346   2
   6   4  -7 292.690  18.611   5
  -6  -4   7 261.489  16.905   3
  -6  -4   7 267.232  20.895   2
   5   4  -7 214.836  15.881   5
  -5  -4   7 261.581  19.340   2
  -5  -4   7 223.339  13.927   3
  -5  -4   7 230.296  11.121   1
   4   4  -7 1474.14   37.63   5
   4   4  -7 1483.09   30.10   1
  -4  -4   7 1434.78   30.60   1
  -4  -4   7 1452.83   40.40   2
   3   4  -7 1350.31   30.08   1
   3   4  -7 1347.69   23.70   4
   3   4  -7 1380.69   35.03   5
  -3  -4   7 1356.27   30.86   1
  -3  -4   7 1361.50   37.16   2
   2   4  -7 4159.32   65.17   5
   2   4  -7 4207.65   62.44   1
   2   4  -7 4183.86   56.05   4
  -2  -4   7 4236.99   63.67   1
   1   4  -7 101.699  10.667   1
   1   4  -7 81.2808  7.9877   4
   1   4  -7 93.4638 10.8175   5
  -1  -4   7 92.8301 10.7813   1
   0   4  -7 6.52754 5.83381   1
   0  -4   7 -7.6048  6.1099   1
  -1   4  -7 65.6962 11.0667   1
  -1   4  -7 53.1043  3.8232   3
   1  -4   7 59.9922 10.7306   1
  -2   4  -7 953.926  21.180   3
  -2   4  -7 915.738  30.185   1
   2  -4   7 936.454  30.017   1
  -3   4  -7 1326.72   30.18   3
  -3   4  -7 1353.56   37.97   1
   3  -4   7 1317.99   36.99   1
  -4   4  -7 -15.676   8.816   1
   4  -4   7 -7.8607  7.9044   1
  -5   4  -7 1369.82   40.56   1
  -5   4  -7 1336.30   37.58   3
   5  -4   7 1391.40   40.17   1
  -6   4  -7 291.564  20.256   1
  -6   4  -7 270.267  19.831   3
  -7   4  -7 11.8678  9.2484   1
   8   3  -7 120.158  13.029   5
  -8  -3   7 119.460  15.274   3
  -8  -3   7 149.138  19.184   2
   7   3  -7 227.172  16.922   5
  -7  -3   7 194.453  18.960   2
  -7  -3   7 227.882  17.183   3
   6   3  -7 102.402  12.242   5
  -6  -3   7 114.288  12.091   3
  -6  -3   7 125.173   7.845   1
  -6  -3   7 93.6670 14.6496   2
   5   3  -7 22.1214  7.4435   5
  -5  -3   7 32.9902  7.3395   3
  -5  -3   7 25.0544 10.9807   2
   4   3  -7 1717.90   39.30   5
   4   3  -7 1689.17   32.66   1
  -4  -3   7 1641.26   33.00   3
  -4  -3   7 1681.57   42.52   2
  -4  -3   7 1691.78   33.67   1
   3   3  -7 56.1386 10.6057   5
  -3  -3   7 61.6649  8.6871   1
  -3  -3   7 65.1849 11.7329   2
   2   3  -7 3262.22   51.99   1
   2   3  -7 3223.79   53.95   5
  -2  -3   7 3193.40   52.29   1
  -2  -3   7 3156.09   42.02   4
   1   3  -7 381.292  17.278   1
   1   3  -7 370.399  16.960   5
  -1  -3   7 389.760  17.846   1
   0   3  -7 47.6919  9.7374   1
   0  -3   7 35.1610  9.3509   1
  -1   3  -7 202.483  11.828   5
  -1   3  -7 205.495  13.957   1
   1  -3   7 181.464  13.199   1
  -2   3  -7 363.739  12.280   3
  -2   3  -7 391.362  14.554   5
  -2   3  -7 378.093  19.364   1
   2  -3   7 383.531  18.969   1
  -3   3  -7 113.721   9.106   3
  -3   3  -7 93.9960  7.1249   5
  -3   3  -7 103.103  10.911   1
   3  -3   7 109.078  10.755   1
  -4   3  -7 759.108  28.441   1
  -4   3  -7 756.894  25.149   3
   4  -3   7 763.162  27.584   1
  -5   3  -7 217.923  17.167   1
  -5   3  -7 199.077  15.364   3
   5  -3   7 185.731  15.109   1
  -6   3  -7 148.235  14.970   3
  -6   3  -7 141.393  14.243   1
  -7   3  -7 64.2571 13.0555   3
  -7   3  -7 52.0457 10.5502   1
   8   2  -7 30.6084  9.1523   5
   7   2  -7 578.893  24.905   5
  -7  -2   7 547.821  29.074   2
  -7  -2   7 536.341  26.438   3
   6   2  -7 74.2628 11.0791   5
  -6  -2   7 88.5864 11.2709   3
  -6  -2   7 79.5780 13.4280   2
  -6  -2   7 95.7542  7.7444   1
   5   2  -7 2145.10   45.74   5
  -5  -2   7 2129.03   43.28   3
  -5  -2   7 2122.85   38.03   1
  -5  -2   7 2208.92   51.27   2
   4   2  -7 401.899  19.051   5
   4   2  -7 374.525  14.833   1
  -4  -2   7 359.592  14.496   3
  -4  -2   7 376.071  15.643   1
  -4  -2   7 384.045  19.908   2
   3   2  -7 2295.93   40.25   1
   3   2  -7 2231.84   43.69   5
  -3  -2   7 2243.70   40.76   1
  -3  -2   7 2189.15   46.04   2
  -3  -2   7 2176.84   33.43   3
   2   2  -7 152.843  11.453   5
   2   2  -7 133.059  10.673   1
  -2  -2   7 135.590   5.784   4
  -2  -2   7 135.343  11.012   1
   1   2  -7 1083.44   27.04   5
   1   2  -7 1091.25   28.10   1
  -1  -2   7 1123.91   28.62   1
   0   2  -7 221.886  13.010   1
   0   2  -7 219.884  11.581   5
   0  -2   7 213.109  12.917   1
  -1   2  -7 1430.79   34.54   1
  -1   2  -7 1437.98   28.66   5
   1  -2   7 1413.67   34.25   1
  -2   2  -7 635.738  17.287   5
  -2   2  -7 665.550  16.806   3
  -2   2  -7 670.853  24.211   1
   2  -2   7 661.196  23.788   1
  -3   2  -7 449.413  12.864   5
  -3   2  -7 450.263  16.570   3
  -3   2  -7 446.152  19.665   1
   3  -2   7 439.599  19.488   1
  -4   2  -7 175.415  12.936   3
  -4   2  -7 155.431  14.149   1
   4  -2   7 145.899  13.023   1
  -5   2  -7 408.045  21.129   1
  -5   2  -7 417.117  21.331   3
   5  -2   7 421.631  20.694   1
  -6   2  -7 31.2442  9.1205   1
  -7   2  -7 37.8388 11.8723   3
  -7   2  -7 56.8920 10.1300   1
   8   1  -7 320.314  19.145   5
  -8  -1   7 309.892  22.292   3
  -8  -1   7 358.507  25.401   2
   7   1  -7 528.529  22.993   5
  -7  -1   7 542.055  28.146   2
  -7  -1   7 560.262  26.876   3
  -7  -1   7 524.152  16.964   1
   6   1  -7 197.520  15.429   5
  -6  -1   7 166.198  16.899   2
  -6  -1   7 173.220  10.715   1
  -6  -1   7 207.417  15.301   3
   5   1  -7 -0.1673  4.1528   1
   5   1  -7 -4.0966  5.4695   5
  -5  -1   7 -3.4740  7.7929   2
  -5  -1   7 -2.9409  6.3479   3
   4   1  -7 461.049  19.189   5
   4   1  -7 490.248  17.134   1
  -4  -1   7 491.018  17.960   1
  -4  -1   7 451.171  20.595   2
  -4  -1   7 476.890  16.955   3
   3   1  -7 358.930  15.272   1
   3   1  -7 344.340  16.973   5
  -3  -1   7 369.365  16.257   1
  -3  -1   7 365.269  18.097   2
  -3  -1   7 339.621  11.877   3
   2   1  -7 397.933  16.619   5
   2   1  -7 400.841  16.356   1
  -2  -1   7 409.228  16.709   1
  -2  -1   7 401.909   9.471   3
  -2  -1   7 409.592   9.045   4
   1   1  -7 283.291  13.330   5
   1   1  -7 268.842  14.315   1
  -1  -1   7 284.473  10.461   4
  -1  -1   7 289.696  14.869   1
   0   1  -7 263.950  14.747   1
   0   1  -7 268.875  12.421   5
   0  -1   7 258.176  14.718   1
  -1   1  -7 244.593  14.393   1
  -1   1  -7 240.345  11.363   5
   1  -1   7 248.254  14.611   1
   1  -1   7 232.582   7.798   3
  -2   1  -7 694.031  17.060   5
  -2   1  -7 718.734  24.230   1
   2  -1   7 689.710  23.441   1
  -3   1  -7 1530.48   36.97   1
  -3   1  -7 1568.61   33.29   3
  -3   1  -7 1505.40   23.78   5
   3  -1   7 1565.91   36.94   1
  -4   1  -7 63.4821 10.0274   1
  -4   1  -7 94.4351 10.8084   3
   4  -1   7 83.5928 10.5136   1
  -5   1  -7 72.3354 11.1145   3
  -5   1  -7 56.3873 10.0168   1
  -6   1  -7 31.4388 10.3782   3
  -6   1  -7 39.4025  8.4826   1
  -7   1  -7 37.2573 12.0091   3
  -7   1  -7 52.6523  9.7182   1
   8   0  -7 53.4230 10.3056   5
  -8   0   7 48.2061 10.9656   3
  -7   0   7 30.1140 11.5384   2
  -7   0   7 43.7377  6.7496   1
   6   0  -7 54.5062 10.2209   5
  -6   0   7 44.6906 11.2381   2
  -6   0   7 17.6613  8.9405   3
  -6   0   7 32.5874  6.7773   1
   5   0  -7 250.477  16.131   5
   5   0  -7 276.191  13.324   1
  -5   0   7 279.566  15.607   3
  -5   0   7 254.002  16.089   2
  -5   0   7 257.823  13.659   1
   4   0  -7 708.198  21.657   1
   4   0  -7 679.360  24.104   5
  -4   0   7 663.890  21.744   1
  -4   0   7 687.870  20.958   3
  -4   0   7 681.801  23.985   2
   3   0  -7 406.540  16.844   1
   3   0  -7 393.962  17.257   5
  -3   0   7 409.257  17.364   2
  -3   0   7 408.948  17.258   1
  -3   0   7 411.046  14.004   3
   2   0  -7 53.6249  6.9986   1
  -2   0   7 58.5561  7.6215   1
  -2   0   7 49.8284  3.5379   4
  -2   0   7 54.2877  3.5459   4
  -2   0   7 38.4292  4.3677   3
   1   0  -7 4.49606 6.88846   1
   1   0  -7 -1.3271  5.7097   5
  -1   0   7 9.98845 7.53660   1
   0   0  -7 4319.86   63.62   1
   0   0  -7 4321.32   58.08   5
   0   0   7 4280.00   49.04   3
   0   0   7 4388.16   64.77   1
  -1   0  -7 -11.972   7.621   1
  -1   0  -7 4.94485 3.57791   5
   1   0   7 -3.2403  6.8702   1
  -2   0  -7 1446.69   25.17   5
  -2   0  -7 1455.22   34.44   1
   2   0   7 1471.43   34.42   1
  -3   0  -7 119.175   5.682   5
  -3   0  -7 130.765  11.882   1
   3   0   7 113.315  10.810   1
  -4   0  -7 529.306  21.507   1
  -4   0  -7 524.546  21.291   3
   4   0   7 522.218  20.946   1
  -5   0  -7 78.8890 10.0750   1
  -6   0  -7 18.0702  7.0307   1
  -6   0  -7 -12.056   8.737   3
  -7   0  -7 161.943  18.123   3
  -7   0  -7 153.208  12.502   1
   8  -1  -7 91.9491 11.0703   5
  -8   1   7 103.694  14.497   2
  -8   1   7 62.7798 14.1934   3
   7  -1  -7 20.4866  9.2960   5
  -7   1   7 24.4397  9.7695   3
  -7   1   7 49.0421 11.7792   2
   6  -1  -7 177.968  14.948   5
  -6   1   7 177.954  12.662   1
  -6   1   7 178.416  15.479   2
  -6   1   7 184.492  15.564   3
   5  -1  -7 754.873  22.892   1
   5  -1  -7 736.151  25.963   5
  -5   1   7 722.226  26.455   2
  -5   1   7 736.044  25.822   3
  -5   1   7 721.379  23.446   1
   4  -1  -7 281.905  16.072   5
   4  -1  -7 288.042  14.912   1
  -4   1   7 291.634  16.060   2
  -4   1   7 267.718  14.952   1
  -4   1   7 273.723  14.542   3
   3  -1  -7 281.941  15.084   5
   3  -1  -7 283.260  14.650   1
  -3   1   7 293.937  14.456   2
  -3   1   7 287.320  15.332   1
   2  -1  -7 595.424  20.731   5
   2  -1  -7 588.518  20.286   1
  -2   1   7 547.813  12.795   4
  -2   1   7 587.726  20.895   1
   1  -1  -7 3227.51   50.23   5
   1  -1  -7 3258.37   53.02   1
  -1   1   7 3271.40   53.69   1
  -1   1   7 3238.86   46.37   4
   0  -1  -7 106.760   8.442   5
   0  -1  -7 91.0642  9.2414   1
   0   1   7 95.4372  9.1591   1
   0   1   7 87.1091  5.7847   3
  -1  -1  -7 3444.17   55.42   1
  -1  -1  -7 3440.56   47.73   5
   1   1   7 3469.29   55.55   1
  -2  -1  -7 507.847  14.057   5
  -2  -1  -7 541.710  20.680   1
   2   1   7 510.107  19.913   1
  -3  -1  -7 1413.07   21.52   5
  -3  -1  -7 1481.88   34.95   1
   3   1   7 1493.57   34.85   1
  -4  -1  -7 170.521  12.936   1
   4   1   7 183.555  12.738   1
  -6  -1  -7 373.326  18.036   1
   8  -2  -7 273.748  18.339   5
  -8   2   7 267.197  20.769   2
  -8   2   7 256.937  15.359   1
  -8   2   7 293.050  23.554   3
   7  -2  -7 209.581  16.431   5
  -7   2   7 210.662  17.914   3
  -7   2   7 240.262  17.937   2
  -7   2   7 209.226  14.181   1
   6  -2  -7 919.374  30.820   5
  -6   2   7 952.373  31.735   2
  -6   2   7 931.331  32.808   3
  -6   2   7 937.545  28.604   1
   5  -2  -7 1038.06   31.05   5
   5  -2  -7 1003.62   28.57   1
  -5   2   7 1103.49   33.27   3
  -5   2   7 1061.25   30.02   1
  -5   2   7 1052.47   30.87   2
   4  -2  -7 769.953  25.884   5
   4  -2  -7 719.371  23.482   1
  -4   2   7 751.441  24.479   1
  -4   2   7 765.228  23.655   2
   3  -2  -7 2230.97   42.90   1
   3  -2  -7 2227.01   43.74   5
  -3   2   7 2218.95   41.10   2
  -3   2   7 2160.01   29.50   4
  -3   2   7 2155.58   43.36   1
   2  -2  -7 0.60346 4.78906   5
   2  -2  -7 -2.5301  6.6436   1
  -2   2   7 3.22667 3.51044   4
   1  -2  -7 628.938  20.553   5
   1  -2  -7 631.154  21.962   1
  -1   2   7 624.262  22.069   1
  -1   2   7 618.602  18.024   4
   0  -2  -7 2484.52   41.15   5
   0  -2  -7 2404.23   44.68   1
   0   2   7 2430.99   45.29   1
  -1  -2  -7 644.047  18.162   5
  -1  -2  -7 631.507  22.119   1
   1   2   7 651.183  22.282   1
  -2  -2  -7 742.656  23.802   1
  -2  -2  -7 723.806  17.409   5
   2   2   7 745.527  23.758   1
  -3  -2  -7 -5.0254  7.0630   1
   3   2   7 -5.7335  6.3026   1
  -4  -2  -7 130.878  10.639   1
   4   2   7 135.097  10.511   1
  -5  -2  -7 32.4404  6.6638   1
  -6  -2  -7 -0.3941  5.0559   1
   8  -3  -7 205.210  16.517   5
  -8   3   7 252.636  22.461   3
  -8   3   7 188.840  14.872   1
   7  -3  -7 2.81136 7.12444   5
  -7   3   7 -7.4766  7.8561   1
  -7   3   7 5.71932 7.59038   2
  -7   3   7 -3.9094 11.1308   3
   6  -3  -7 565.535  24.845   5
  -6   3   7 531.142  22.995   1
  -6   3   7 524.918  22.991   2
  -6   3   7 530.117  26.521   3
   5  -3  -7 251.661  16.536   5
   5  -3  -7 231.609  15.213   1
  -5   3   7 257.758  16.635   1
  -5   3   7 253.972  14.832   2
  -5   3   7 248.373  17.216   3
   4  -3  -7 479.215  21.134   5
   4  -3  -7 482.689  20.286   1
  -4   3   7 490.414  21.173   1
  -4   3   7 486.428  18.342   2
   3  -3  -7 56.3008  8.1457   5
   3  -3  -7 67.4587  8.6834   1
  -3   3   7 62.5545  8.8800   1
  -3   3   7 66.4738  6.7643   2
  -3   3   7 68.3536  5.6601   4
   2  -3  -7 51.4270  8.3636   1
   2  -3  -7 48.2425  8.3450   5
  -2   3   7 54.9181  9.3471   1
  -2   3   7 43.8272  6.3385   2
   1  -3  -7 289.246  14.541   5
   1  -3  -7 256.921  15.122   1
  -1   3   7 270.056  15.685   1
  -1   3   7 270.627  13.184   4
   0  -3  -7 1602.65   35.92   1
   0  -3  -7 1605.77   32.57   5
   0   3   7 1646.47   36.87   1
   0   3   7 1643.23   35.59   4
  -1  -3  -7 30.9234  6.0372   5
  -1  -3  -7 33.9565  8.6900   1
   1   3   7 14.8764  8.3893   4
   1   3   7 17.1616  8.0066   1
  -2  -3  -7 2776.71   49.94   1
  -2  -3  -7 2771.79   41.03   5
   2   3   7 2738.12   49.78   1
  -3  -3  -7 36.0280  7.7160   1
  -4  -3  -7 89.7626  9.8332   1
  -5  -3  -7 21.8942  6.9629   1
  -6  -3  -7 20.6931  6.0108   1
   8  -4  -7 284.378  19.561   5
  -8   4   7 278.020  18.528   1
  -8   4   7 279.057  23.964   3
   7  -4  -7 518.733  25.025   5
  -7   4   7 454.570  27.983   3
  -7   4   7 515.171  23.635   2
  -7   4   7 497.309  23.807   1
   6  -4  -7 271.442  18.368   5
   6  -4  -7 220.580  15.666   1
  -6   4   7 258.987  19.088   3
  -6   4   7 237.910  16.724   1
  -6   4   7 236.362  15.247   2
   5  -4  -7 3.07948 7.88555   5
  -5   4   7 1.90573 8.26243   1
  -5   4   7 3.19189 5.35597   2
   4  -4  -7 2799.50   54.39   5
   4  -4  -7 2865.95   54.69   1
  -4   4   7 2819.60   55.28   1
  -4   4   7 2766.91   43.20   4
  -4   4   7 2925.33   47.88   2
   3  -4  -7 115.402  11.877   5
   3  -4  -7 115.128  11.340   1
  -3   4   7 103.349   7.873   2
  -3   4   7 114.585   8.229   4
  -3   4   7 95.1636 11.3951   1
   2  -4  -7 432.887  19.263   1
   2  -4  -7 438.044  18.532   5
  -2   4   7 417.718  13.605   2
  -2   4   7 430.132  19.573   1
  -2   4   7 392.396  15.885   4
   1  -4  -7 3091.91   52.40   5
   1  -4  -7 3126.50   55.92   1
  -1   4   7 3086.68   56.07   1
  -1   4   7 3132.60   52.94   4
   0  -4  -7 10.1342  7.7053   1
   0  -4  -7 24.1662  7.0778   5
  -1  -4  -7 1089.30   30.49   1
  -1  -4  -7 1081.05   25.93   5
   1   4   7 1091.81   30.28   1
   1   4   7 1128.12   32.84   4
  -2  -4  -7 313.138  16.359   1
   2   4   7 310.814  16.298   1
   2   4   7 301.247  19.308   4
  -3  -4  -7 4.77482 6.29383   1
   3   4   7 7.60939 6.12856   1
   3   4   7 31.0415 11.7944   4
   8  -5  -7 44.1933  9.0465   5
  -8   5   7 71.4780 14.5211   3
  -8   5   7 43.7998 10.4419   1
   7  -5  -7 269.579  19.258   5
  -7   5   7 302.109  20.055   1
  -7   5   7 254.981  22.961   3
   6  -5  -7 -3.2808  7.4072   5
  -6   5   7 25.9576  9.9943   1
  -6   5   7 10.5074  7.8938   3
   5  -5  -7 435.518  22.171   1
   5  -5  -7 513.956  23.880   5
  -5   5   7 473.097  23.459   1
  -5   5   7 472.553  17.754   2
   4  -5  -7 119.777  12.608   5
  -4   5   7 107.684   7.885   2
  -4   5   7 107.176  12.586   1
  -4   5   7 97.8305  8.3200   4
   3  -5  -7 1465.12   37.35   5
   3  -5  -7 1510.53   39.18   1
  -3   5   7 1528.58   39.75   1
  -3   5   7 1474.92   32.84   4
  -3   5   7 1511.08   27.02   2
   2  -5  -7 2.78069 7.49331   5
   2  -5  -7 5.28343 5.63772   1
  -2   5   7 0.00687 5.64575   4
  -2   5   7 6.31895 2.78666   2
  -2   5   7 6.14430 5.89685   1
   1  -5  -7 44.9295  7.4382   5
   1  -5  -7 42.4805  7.9699   1
  -1   5   7 42.5364  8.2880   4
  -1   5   7 44.8551  8.0109   1
   0  -5  -7 134.994  12.632   1
   0  -5  -7 149.449  11.664   5
   0   5   7 143.115  12.016   4
   0   5   7 152.312  12.984   1
  -1  -5  -7 338.709  17.962   1
  -1  -5  -7 326.035  15.143   5
   1   5   7 350.662  18.012   1
   1   5   7 353.820  19.771   4
  -2  -5  -7 585.626  22.709   1
   2   5   7 618.165  26.483   4
   2   5   7 586.849  22.706   1
  -3  -5  -7 226.747  14.683   1
   3   5   7 243.191  19.673   4
   4   5   7 -7.7711 11.1804   4
  -5  -5  -7 6.41344 5.47582   1
   7  -6  -7 -7.2338  8.6174   5
  -7   6   7 -19.598  10.098   3
  -7   6   7 -9.5972  9.7995   1
   6  -6  -7 46.7929  9.2791   1
   6  -6  -7 48.5950 11.0025   5
  -6   6   7 37.1453  9.2352   1
   5  -6  -7 99.3941 11.7787   5
   5  -6  -7 87.0321 11.3958   1
  -5   6   7 82.8921 11.4840   1
   4  -6  -7 266.647  18.227   1
   4  -6  -7 257.770  17.513   5
  -4   6   7 256.915  14.403   4
  -4   6   7 246.163  18.583   1
   3  -6  -7 15.5778  6.6301   5
   3  -6  -7 8.35801 8.57366   1
  -3   6   7 -8.1851  8.6251   1
  -3   6   7 0.15215 5.92047   4
   2  -6  -7 296.056  16.986   5
   2  -6  -7 285.031  17.935   1
  -2   6   7 314.030  18.952   1
  -2   6   7 280.783  16.248   4
   1  -6  -7 165.367  13.283   5
   1  -6  -7 168.807  13.375   1
  -1   6   7 200.115  14.977   4
  -1   6   7 166.136  13.290   1
   0  -6  -7 234.956  15.461   1
   0  -6  -7 246.491  14.922   5
   0   6   7 217.761  15.413   1
   0   6   7 217.332  16.107   4
  -1  -6  -7 625.745  24.552   1
   1   6   7 632.601  24.445   1
   1   6   7 637.554  27.699   4
  -2  -6  -7 55.6594  9.4508   1
   2   6   7 65.4876  9.5552   1
   2   6   7 65.4758 10.7766   4
   3   6   7 -8.4133 10.9607   4
  -4  -6  -7 213.618  13.592   1
   4   6   7 209.707  20.380   4
  -5  -6  -7 24.9629  6.0691   1
   5   6   7 5.90220 8.67385   4
   7  -7  -7 63.5191 12.8159   5
  -7   7   7 52.0873 14.4142   3
  -7   7   7 49.2311 13.0422   1
   6  -7  -7 13.5791  9.8185   5
   6  -7  -7 17.9289 10.5617   1
  -6   7   7 35.3140 12.0860   1
   5  -7  -7 143.829  15.958   1
   5  -7  -7 118.558  14.462   5
  -5   7   7 125.387  15.966   1
   4  -7  -7 583.745  27.496   1
   4  -7  -7 625.687  27.542   5
  -4   7   7 590.448  23.655   4
  -4   7   7 585.518  27.757   1
   3  -7  -7 67.1872 11.2749   1
   3  -7  -7 66.7833 10.0712   5
  -3   7   7 65.9764  8.9402   4
  -3   7   7 43.6965  9.8243   1
   2  -7  -7 58.1018 10.3975   5
   2  -7  -7 32.7857 10.2394   1
  -2   7   7 54.4283 11.4801   1
  -2   7   7 49.7200 10.3990   4
   1  -7  -7 100.750  12.736   1
  -1   7   7 126.939  13.431   1
  -1   7   7 128.960  13.961   4
   0  -7  -7 -8.9464  7.5592   1
   0   7   7 16.5529  8.5440   1
  -1  -7  -7 7.82985 7.05761   1
   1   7   7 30.4708 10.7006   4
   1   7   7 7.83642 6.38431   1
  -2  -7  -7 19.7352  6.4555   1
   2   7   7 12.6329  5.2972   1
   2   7   7 -12.496  11.741   4
  -3  -7  -7 141.090  12.522   1
   3   7   7 140.608  17.208   4
  -4  -7  -7 295.787  16.526   1
   4   7   7 262.864  21.510   4
   5   7   7 12.0251 12.4022   4
   6  -8  -7 79.9068 13.5807   1
  -6   8   7 78.2198 14.5785   1
   5  -8  -7 179.371  17.680   1
  -5   8   7 202.767  19.655   1
   4  -8  -7 188.450  17.643   1
  -4   8   7 182.065  17.861   1
  -4   8   7 204.210  15.753   4
   3  -8  -7 1.52756 8.99009   1
  -3   8   7 -12.197  10.040   1
  -3   8   7 -4.2276  7.8338   4
   2  -8  -7 -2.5300  9.0778   1
  -2   8   7 13.5223  9.7229   1
  -2   8   7 -10.676   9.025   4
   1  -8  -7 62.8235 11.5721   1
  -1   8   7 74.5641 12.1830   1
  -1   8   7 76.2239 12.8086   4
   0  -8  -7 79.9904 12.0901   1
   0   8   7 81.0766 13.6814   4
   0   8   7 108.853  13.016   1
  -1  -8  -7 612.044  26.212   1
   1   8   7 593.806  29.917   4
   1   8   7 574.386  25.383   1
  -2  -8  -7 180.369  14.961   1
   2   8   7 210.823  20.531   4
  -3  -8  -7 155.967  12.957   1
   3   8   7 134.001  18.217   4
  -4  -8  -7 -9.1430  6.2982   1
   4   8   7 -0.1241 11.5587   4
   5  -9  -7 45.1506 10.7395   1
  -5   9   7 41.3201 10.4864   1
   4  -9  -7 34.6951  9.8638   1
  -4   9   7 13.7296  8.6965   1
   3  -9  -7 55.6793 13.2259   1
  -3   9   7 4.11021 9.53085   1
  -3   9   7 26.7391  9.9569   4
   2  -9  -7 49.3894 10.2953   1
  -2   9   7 58.2720 10.7270   4
  -2   9   7 57.8421 10.6142   1
   1  -9  -7 11.3695  7.5019   1
  -1   9   7 23.0627  7.8206   1
   0  -9  -7 104.751  13.580   1
   0   9   7 90.2133 12.4853   1
   0   9   7 110.302  16.147   4
  -1  -9  -7 104.832  12.592   1
   1   9   7 141.805  16.569   4
  -2  -9  -7 188.216  16.106   1
   2   9   7 175.172  19.828   4
  -3  -9  -7 652.299  26.867   1
   3   9   7 632.823  33.827   4
   4 -10  -7 50.1250 12.7606   1
   3 -10  -7 -15.718  10.955   1
  -3  10   7 -1.3444  9.7993   4
   2 -10  -7 120.592  15.643   1
  -2  10   7 157.339  17.770   4
  -2  10   7 178.401  17.921   1
   1 -10  -7 182.108  18.068   1
  -1  10   7 145.063  16.441   1
  -1  10   7 194.689  20.154   4
   0 -10  -7 893.749  35.296   1
   0  10   7 958.679  36.333   1
   0  10   7 933.954  39.145   4
  -1 -10  -7 850.927  33.637   1
   1  10   7 839.145  38.116   4
  -2 -10  -7 -15.001   8.900   1
   2  10   7 3.41026 8.96546   4
   3 -11  -7 -14.534  10.534   1
  -3  11   7 -23.714  11.560   4
  -3  11   7 -16.415  11.727   1
   2 -11  -7 159.949  18.600   1
  -2  11   7 142.934  17.610   1
  -2  11   7 157.188  18.731   4
   1 -11  -7 78.8653 14.2841   1
  -1  11   7 62.8311 14.9493   4
  -1  11   7 101.218  14.920   1
   0 -11  -7 58.1671 12.4635   1
   0  11   7 51.1382 14.6206   4
  -3 -11   8 129.113  16.429   2
  -3 -11   8 126.214  13.706   1
   2  11  -8 -15.366   9.701   4
  -2 -11   8 -6.5939  7.8268   1
  -2 -11   8 1.02848 6.98229   2
   1  11  -8 34.1017 11.2615   4
  -1 -11   8 22.2464  9.9438   2
  -1 -11   8 34.3671 10.9136   1
   0  11  -8 112.770  15.087   1
   0  11  -8 108.931  15.638   4
   0 -11   8 137.805  17.388   1
  -1  11  -8 402.382  25.955   1
  -1  11  -8 404.891  26.881   4
   1 -11   8 370.448  26.110   1
  -2  11  -8 -18.654  12.444   1
  -2  11  -8  5.4919 11.6671   4
   2 -11   8 -4.7194 11.8919   1
   4  10  -8 152.323  16.079   5
  -4 -10   8 168.993  18.673   2
  -4 -10   8 147.506  13.005   1
  -3 -10   8 333.695  22.628   2
  -3 -10   8 316.611  19.717   1
  -2 -10   8 6.33779 8.82871   1
  -2 -10   8 30.3081 10.9145   2
   1  10  -8 8.96564 9.20468   4
  -1 -10   8 12.7381  9.6585   2
  -1 -10   8 28.9254 10.6723   1
   0  10  -8 59.0854 12.1428   1
   0  10  -8 45.5024 12.4079   4
   1 -10   8 25.4039 11.3049   1
  -2  10  -8 5.31333 7.85168   4
  -3  10  -8 26.4129 12.4482   1
   3 -10   8 11.7014 11.9861   1
   5   9  -8 -8.8995  7.6049   5
  -5  -9   8 -15.852  11.572   2
   4   9  -8 72.4262 13.8318   5
  -4  -9   8 120.718  16.158   2
  -4  -9   8 91.3486 10.3749   1
  -3  -9   8 90.0601 11.5103   1
  -3  -9   8 74.8513 14.3080   2
   2   9  -8 5.38795 5.89447   4
  -2  -9   8 9.93241 9.50073   2
  -2  -9   8 4.36332 6.01646   1
   1   9  -8 330.089  19.727   4
   1   9  -8 341.470  20.603   1
  -1  -9   8 352.235  22.093   1
   0   9  -8 1.09918 8.18867   4
   0  -9   8 3.22330 9.38609   1
  -1   9  -8 7.07290 9.71742   1
  -2   9  -8 59.5523 12.0233   1
   2  -9   8 36.8528 10.6648   1
  -3   9  -8 51.5885 11.3178   1
   3  -9   8 25.6963  9.6744   1
  -4   9  -8 192.546  21.004   1
   4  -9   8 214.211  20.913   1
   6   8  -8 1015.82   38.44   5
  -6  -8   8 1090.82   44.47   2
   5   8  -8 34.8949  9.4097   5
   4   8  -8 863.504  33.804   5
  -4  -8   8 799.392  34.328   2
  -4  -8   8 805.744  26.338   1
   3   8  -8 76.9190  9.3901   4
  -3  -8   8 100.243  14.337   2
   2   8  -8 13.7587  7.2388   4
  -2  -8   8 4.38153 7.07231   2
   1   8  -8 122.221  12.677   4
   1   8  -8 103.018  13.102   1
  -1  -8   8 120.600  13.895   1
   0   8  -8 97.8909 12.3715   4
   0   8  -8 80.0378 11.0907   1
   0  -8   8 82.5769 11.5465   1
  -1   8  -8 132.036  14.321   1
  -1   8  -8 135.752  15.042   4
   1  -8   8 152.183  14.961   1
  -2   8  -8 31.5779 12.1287   1
   2  -8   8 4.99059 9.93099   1
  -3   8  -8 152.810  18.050   1
   3  -8   8 163.089  17.708   1
  -4   8  -8 555.102  29.511   1
   4  -8   8 593.786  30.006   1
  -5   8  -8 261.773  22.197   1
   5  -8   8 241.708  20.871   1
   6   7  -8 30.5173  9.6651   5
  -6  -7   8 39.6822 14.0454   2
   5   7  -8 14.1245  9.8022   5
  -5  -7   8 35.7154 10.5535   2
  -5  -7   8 24.2794  5.8850   1
   4   7  -8 111.543  14.490   5
  -4  -7   8 108.038  15.078   2
  -4  -7   8 111.706  10.831   1
   3   7  -8 167.194  16.132   5
   3   7  -8 177.435  11.776   4
  -3  -7   8 195.479  14.331   1
  -3  -7   8 197.235  16.601   2
   2   7  -8 297.323  15.848   4
   2   7  -8 335.869  18.375   1
  -2  -7   8 295.373  20.625   2
  -2  -7   8 312.855  18.173   1
   1   7  -8 166.922  13.505   4
   1   7  -8 195.607  15.483   1
  -1  -7   8 156.279  15.007   1
   0   7  -8 19.8323  7.4849   1
   0   7  -8 15.7996  8.7225   4
   0  -7   8 15.3194  7.9428   1
  -1   7  -8 289.225  18.729   1
  -1   7  -8 259.459  17.712   4
   1  -7   8 276.629  18.634   1
  -2   7  -8 124.662  15.678   1
   2  -7   8 151.965  16.322   1
  -3   7  -8 89.7938 14.6635   1
   3  -7   8 118.693  15.462   1
  -4   7  -8 250.360  19.642   1
   4  -7   8 243.968  19.314   1
  -5   7  -8 44.5883 12.8897   1
   5  -7   8 23.3617  9.9440   1
   7   6  -8 392.436  23.394   5
  -7  -6   8 428.967  28.703   2
   6   6  -8 43.3277 10.8852   5
  -6  -6   8 37.3071 13.8175   2
   5   6  -8 110.265  14.498   5
  -5  -6   8 107.531   9.151   1
  -5  -6   8 116.478  16.341   2
   4   6  -8 -11.970  10.225   5
  -4  -6   8 30.5612 11.8644   2
  -4  -6   8 -7.2364  6.1488   1
   3   6  -8 12.5344  6.5702   1
   3   6  -8 6.90365 6.71363   5
  -3  -6   8 -2.7537  6.9977   1
   2   6  -8 181.693  12.800   1
   2   6  -8 183.262  15.167   5
   2   6  -8 182.727  11.656   4
  -2  -6   8 184.305  13.432   1
   1   6  -8 2548.63   52.09   1
   1   6  -8 2564.58   49.10   4
  -1  -6   8 2511.82   52.31   1
   0   6  -8 -0.3410  6.7894   4
  -1   6  -8 527.855  24.880   1
   1  -6   8 548.215  25.830   1
  -2   6  -8 -2.4843  9.4947   1
   2  -6   8 -16.108  10.056   1
  -3   6  -8 223.798  18.611   1
   3  -6   8 206.048  18.816   1
  -4   6  -8 258.532  20.390   1
   4  -6   8 226.753  18.701   1
  -5   6  -8 -3.4491  7.1997   1
   5  -6   8 -4.5835  7.0479   1
  -6   6  -8 62.2557 13.8359   1
   7   5  -8 17.6870  8.4933   5
  -7  -5   8  8.5063 12.2888   2
   6   5  -8 12.1898  9.1776   5
  -6  -5   8 22.6499  9.7863   2
   5   5  -8 811.300  30.499   5
  -5  -5   8 771.755  32.340   2
  -5  -5   8 783.843  22.770   1
   4   5  -8 24.9975  8.1773   5
  -4  -5   8 36.5595  6.6309   1
   3   5  -8 190.279   9.530   4
   3   5  -8 202.047  14.768   5
   3   5  -8 185.787  12.281   1
  -3  -5   8 184.236  16.330   2
  -3  -5   8 176.136  12.683   1
   2   5  -8 1093.95   25.77   4
   2   5  -8 1084.07   30.07   1
   2   5  -8 1068.82   31.91   5
  -2  -5   8 1048.22   30.25   1
   1   5  -8 61.5315 10.5537   5
   1   5  -8 73.1128 10.2880   1
  -1  -5   8 79.3361 11.0840   1
   0  -5   8 -7.1845  9.2207   1
  -1   5  -8 -1.8042  6.4643   1
   1  -5   8 5.86845 6.84747   1
  -2   5  -8 337.839  20.656   1
   2  -5   8 362.824  21.150   1
  -3   5  -8 453.825  17.034   3
  -3   5  -8 492.510  25.366   1
   3  -5   8 475.465  24.571   1
  -4   5  -8 5.45254 9.66097   1
   5  -5   8 35.8866 10.8477   1
  -6   5  -8 29.4696 10.6689   1
   7   4  -8 71.9349 10.6152   5
  -7  -4   8 71.6165 14.6093   2
   6   4  -8 66.4324 11.5874   5
  -6  -4   8 76.9340 12.4126   2
  -6  -4   8 82.6100  7.3906   1
   5   4  -8 10.1422  9.4028   5
  -5  -4   8 28.9207  6.1465   1
  -5  -4   8 20.9300 10.4412   2
   4   4  -8 153.310  14.388   5
  -4  -4   8 143.951  11.396   1
  -4  -4   8 179.129  16.523   2
   3   4  -8 581.459  24.094   5
   3   4  -8 580.063  20.688   1
  -3  -4   8 615.483  22.093   1
  -3  -4   8 588.233  25.808   2
   2   4  -8 3808.42   61.51   1
   2   4  -8 3882.62   64.20   5
  -2  -4   8 3830.66   62.61   1
   1   4  -8 15.1677  7.8807   1
   1   4  -8 20.6015  7.7131   5
  -1  -4   8 0.80366 8.11940   1
   0   4  -8 280.295  15.756   5
   0   4  -8 279.653  17.134   1
   0  -4   8 286.268  17.638   1
  -1   4  -8 339.058  18.313   1
  -1   4  -8 353.448  16.147   5
   1  -4   8 342.532  18.202   1
  -2   4  -8 10.1379  9.2131   1
  -2   4  -8 19.8703  3.6542   3
   2  -4   8 30.6405  9.8779   1
  -3   4  -8 183.128  10.706   3
  -3   4  -8 146.388  15.028   1
  -3   4  -8 165.777  10.368   5
   3  -4   8 154.069  14.755   1
  -4   4  -8 79.3941  9.3520   3
  -4   4  -8 78.9202 12.9116   1
   4  -4   8 94.2164 12.5019   1
  -5   4  -8 51.4713  9.1083   3
   5  -4   8 39.7266  9.9837   1
  -6   4  -8 -1.1833  9.5346   1
   8   3  -8 112.465  13.872   5
  -8  -3   8 115.618  17.797   2
   7   3  -8 -3.3333  8.2192   5
  -7  -3   8 -21.329  11.443   2
   6   3  -8 962.598  32.713   5
  -6  -3   8 1005.41   37.35   2
  -6  -3   8 1049.89   25.56   1
  -6  -3   8 1011.59   31.49   3
   5   3  -8 336.372  18.782   5
  -5  -3   8 346.762  16.186   3
  -5  -3   8 338.213  21.315   2
  -5  -3   8 350.236  15.542   1
   4   3  -8 1563.35   33.61   1
   4   3  -8 1512.51   38.97   5
  -4  -3   8 1527.32   34.45   1
  -4  -3   8 1564.77   30.51   3
  -4  -3   8 1550.33   42.75   2
   3   3  -8 1832.59   41.32   5
   3   3  -8 1895.09   38.48   1
  -3  -3   8 1784.75   44.10   2
  -3  -3   8 1886.91   39.55   1
  -2  -3   8 12.9405  8.1748   1
   1   3  -8 1998.12   41.11   5
   1   3  -8 1946.00   41.29   1
  -1  -3   8 1878.13   41.28   1
   0   3  -8 95.7720 10.4737   5
   0   3  -8 92.1737 10.0060   1
   0  -3   8 109.379  10.765   1
  -1   3  -8 2492.17   43.60   5
  -1   3  -8 2400.75   49.60   1
   1  -3   8 2370.92   49.36   1
  -2   3  -8 177.832  15.065   1
  -2   3  -8 167.713   8.088   3
  -2   3  -8 160.702  10.529   5
   2  -3   8 186.588  15.154   1
  -3   3  -8 209.446  10.459   5
  -3   3  -8 226.282  11.724   3
  -3   3  -8 222.350  16.819   1
   3  -3   8 211.951  16.405   1
  -4   3  -8 200.622  13.388   3
  -4   3  -8 179.939  15.653   1
   4  -3   8 175.754  14.872   1
  -5   3  -8 29.4087  7.8664   3
  -5   3  -8 19.5979 10.3485   1
   5  -3   8 25.4997  9.1154   1
  -6   3  -8 67.7463 11.8202   3
  -6   3  -8 66.0616 11.5715   1
  -8  -2   8 43.4916 13.7270   2
   7   2  -8 339.258  20.584   5
  -7  -2   8 319.826  23.177   2
  -7  -2   8 323.248  20.185   3
   6   2  -8 288.063  17.886   5
  -6  -2   8 301.084  14.186   1
  -6  -2   8 309.166  17.733   3
  -6  -2   8 290.749  21.414   2
   5   2  -8 1719.25   42.23   5
  -5  -2   8 1747.93   46.25   2
  -5  -2   8 1780.92   38.21   3
  -5  -2   8 1732.30   36.50   1
   4   2  -8 1060.14   31.47   5
   4   2  -8 1030.30   27.02   1
  -4  -2   8 1024.96   24.29   3
  -4  -2   8 1045.21   33.62   2
  -4  -2   8 1065.46   28.67   1
   3   2  -8 -5.3172  6.7008   1
   3   2  -8 13.0603  6.5686   5
  -3  -2   8 6.47304 7.33402   1
  -3  -2   8 -2.6047  2.4888   3
  -3  -2   8 -6.8441  6.5971   2
   2   2  -8 748.777  24.011   1
   2   2  -8 727.295  24.594   5
  -2  -2   8 727.482  24.389   1
   1   2  -8 356.473  17.626   1
   1   2  -8 326.374  16.077   5
  -1  -2   8 338.869  17.781   1
   0   2  -8 533.870  19.281   5
   0   2  -8 513.690  20.589   1
   0  -2   8 520.990  20.910   1
  -1   2  -8 877.022  28.344   1
  -1   2  -8 870.102  23.015   5
   1  -2   8 894.217  28.622   1
  -2   2  -8 36.7694  5.9437   5
  -2   2  -8 33.3004  9.2479   1
   2  -2   8 39.8199  9.3800   1
  -3   2  -8 951.781  20.751   5
  -3   2  -8 962.348  31.359   1
  -3   2  -8 967.880  24.920   3
   3  -2   8 973.431  31.233   1
  -4   2  -8 80.1649 12.4259   1
  -4   2  -8 43.9862  7.8662   3
   4  -2   8 69.4446 11.4851   1
  -5   2  -8 36.2990  8.9101   3
  -6   2  -8 3.09755 8.32359   1
  -6   2  -8 10.3821  7.9347   3
  -8  -1   8 36.5777 10.9446   3
  -8  -1   8 31.6811 12.8623   2
   7   1  -8 -2.8654  6.1965   5
  -7  -1   8 5.88800 8.79564   3
  -7  -1   8 -2.6695  8.9503   2
  -7  -1   8 4.49596 4.89635   1
   6   1  -8 76.8952 11.8209   5
  -6  -1   8 62.1942  7.9617   1
  -6  -1   8 55.3732  9.4546   3
  -6  -1   8 62.3293 11.0590   2
   5   1  -8 555.651  23.856   5
  -5  -1   8 527.236  24.879   2
  -5  -1   8 506.821  19.727   1
  -5  -1   8 504.656  19.683   3
   4   1  -8 111.451  12.308   5
   4   1  -8 118.155  10.217   1
  -4  -1   8 111.199   8.365   3
  -4  -1   8 137.648  13.723   2
  -4  -1   8 121.727  10.940   1
   3   1  -8 798.773  26.177   5
   3   1  -8 754.500  23.718   1
  -3  -1   8 729.558  26.124   2
  -3  -1   8 746.949  17.288   3
  -3  -1   8 742.249  24.458   1
   2   1  -8 1875.34   39.47   5
   2   1  -8 1864.58   39.18   1
  -2  -1   8 1862.01   26.48   4
  -2  -1   8 1879.02   40.19   1
   1   1  -8 2716.10   49.63   1
   1   1  -8 2831.09   47.79   5
  -1  -1   8 2760.25   50.88   1
   0   1  -8 2834.24   46.53   5
   0   1  -8 2925.49   52.59   1
   0  -1   8 2920.17   52.79   1
  -1   1  -8 66.2134 10.7603   1
  -1   1  -8 58.3507  7.3031   5
   1  -1   8 73.0034 10.9798   1
  -2   1  -8 51.3884 10.4601   1
  -2   1  -8 42.9723  5.8271   5
   2  -1   8 41.8617  9.8088   1
  -3   1  -8 687.744  25.797   1
   3  -1   8 648.245  25.053   1
  -4   1  -8 416.665  21.345   1
  -4   1  -8 375.696  18.184   3
   4  -1   8 347.897  19.182   1
  -5   1  -8 5.46092 8.29595   1
  -5   1  -8 16.0803  7.9262   3
  -6   1  -8 0.71888 7.46771   3
  -6   1  -8 -16.030   8.439   1
   8   0  -8 275.871  18.916   5
  -8   0   8 336.671  24.149   2
  -8   0   8 310.331  22.432   3
   7   0  -8 52.5419 11.1955   5
  -7   0   8 45.0494 12.0660   2
  -7   0   8 47.7521  7.5237   1
   6   0  -8 1177.53   35.43   5
  -6   0   8 1152.56   34.95   3
  -6   0   8 1062.86   29.03   1
  -6   0   8 1101.66   36.48   2
   5   0  -8 40.5930 10.3987   5
  -5   0   8 32.3744  7.0201   3
  -5   0   8 23.6341  9.8833   2
   4   0  -8 705.334  23.149   1
   4   0  -8 676.385  24.569   5
  -4   0   8 706.921  25.830   2
  -4   0   8 679.669  20.738   3
  -4   0   8 678.737  23.591   1
   3   0  -8 743.861  23.703   1
   3   0  -8 772.094  25.871   5
  -3   0   8 774.581  18.997   3
  -3   0   8 774.312  26.020   2
  -3   0   8 735.658  24.374   1
   2   0  -8 3633.53   58.71   1
   2   0  -8 3596.95   57.85   5
  -2   0   8 3562.44   44.09   4
  -2   0   8 3627.28   59.67   1
  -2   0   8 3521.15   43.99   4
   1   0  -8 75.1351  8.3727   5
   1   0  -8 75.8089  9.3328   1
  -1   0   8 77.5122  9.4146   1
  -1   0   8 74.6765  3.8648   3
   0   0  -8 2446.31   47.42   1
   0   0  -8 2517.61   42.88   5
   0   0   8 2489.95   47.83   1
   0   0   8 2404.59   31.63   3
  -1   0  -8 122.911   9.112   5
  -1   0  -8 129.562  11.392   1
   1   0   8 140.850  11.705   1
  -2   0  -8 417.658  19.025   1
  -2   0  -8 421.441  13.813   5
   2   0   8 408.255  18.577   1
  -3   0  -8 382.133  19.144   1
   3   0   8 383.181  19.031   1
  -4   0  -8 0.68239 5.44708   1
   4   0   8 1.09753 4.90379   1
  -5   0  -8 13.7999  7.9139   1
  -6   0  -8 8.85839 7.80350   1
   8  -1  -8 218.194  17.589   5
  -8   1   8 247.674  21.061   3
  -8   1   8 243.538  21.026   2
   7  -1  -8 562.585  26.006   5
  -7   1   8 592.627  28.153   3
  -7   1   8 585.815  22.412   1
  -7   1   8 592.969  27.652   2
   6  -1  -8 408.220  22.136   5
  -6   1   8 414.588  21.745   3
  -6   1   8 443.686  22.941   2
  -6   1   8 437.572  19.890   1
   5  -1  -8 3462.15   58.50   1
   5  -1  -8 3355.58   61.74   5
  -5   1   8 3398.70   60.78   3
  -5   1   8 3415.00   64.00   2
  -5   1   8 3336.91   58.94   1
   4  -1  -8 3971.56   63.35   1
   4  -1  -8 3941.27   66.03   5
  -4   1   8 3978.97   61.85   3
  -4   1   8 3973.51   65.04   1
  -4   1   8 3982.08   66.43   2
   3  -1  -8 84.0850 11.0675   5
   3  -1  -8 76.4321  8.6964   1
  -3   1   8 54.8689  9.0778   2
  -3   1   8 68.6225  8.8416   1
   2  -1  -8 2210.81   43.92   1
   2  -1  -8 2171.16   42.73   5
  -2   1   8 2174.74   32.44   4
  -2   1   8 2218.36   44.95   1
   1  -1  -8 3776.28   58.12   5
   1  -1  -8 3809.99   61.87   1
  -1   1   8 3880.49   54.82   4
  -1   1   8 3827.34   62.78   1
   0  -1  -8 32.3308  7.4343   5
  -1  -1  -8 11.6750  8.4049   1
  -2  -1  -8 53.8005  9.7873   1
  -2  -1  -8 49.0082  5.5985   5
  -3  -1  -8 2417.90   49.02   1
   3   1   8 2438.82   48.74   1
   4   1   8 15.5424  7.1329   1
  -5  -1  -8 -9.2658  7.9333   1
  -6  -1  -8 45.5077  9.0693   1
   8  -2  -8 169.596  15.255   5
  -8   2   8 191.972  18.306   3
  -8   2   8 203.935  14.694   1
  -8   2   8 193.941  17.122   2
   7  -2  -8 3.03091 8.67791   5
  -7   2   8 10.5281  8.8911   2
  -7   2   8 -4.8894  6.6434   1
   6  -2  -8 427.211  21.980   5
  -6   2   8 422.599  20.535   1
  -6   2   8 443.142  23.345   3
  -6   2   8 438.998  22.057   2
   5  -2  -8 232.765  14.913   1
   5  -2  -8 184.805  15.845   5
  -5   2   8 216.700  14.964   3
  -5   2   8 238.768  15.967   2
  -5   2   8 190.379  14.847   1
   4  -2  -8 942.224  30.266   5
   4  -2  -8 924.493  28.676   1
  -4   2   8 937.531  27.966   2
  -4   2   8 919.624  29.708   1
   3  -2  -8 1088.45   31.03   5
   3  -2  -8 1074.62   30.06   1
  -3   2   8 1038.87   18.17   4
  -3   2   8 1050.55   30.57   1
  -3   2   8 1041.87   27.87   2
   2  -2  -8 164.818  13.287   1
   2  -2  -8 194.416  12.814   5
  -2   2   8 200.421  14.622   1
  -2   2   8 181.516   8.993   4
   1  -2  -8 45.4771  9.8016   1
   1  -2  -8 35.9875  8.9891   5
  -1   2   8 22.4801  6.0247   4
   0  -2  -8 30.2444  7.4377   5
   0  -2  -8 35.4207  7.4428   1
   0   2   8 38.2251  7.6589   1
   0   2   8 34.1360  6.5848   4
  -1  -2  -8 156.966  13.298   1
  -1  -2  -8 143.829   9.212   5
   1   2   8 147.458  13.184   1
  -2  -2  -8 81.3375 11.0737   1
  -2  -2  -8 65.2714  6.4282   5
   2   2   8 76.1463 10.5612   1
  -3  -2  -8 138.971  13.019   1
   3   2   8 124.587  12.166   1
  -4  -2  -8 39.9020  8.9117   1
  -5  -2  -8 -4.1744  6.8409   1
  -6  -2  -8 36.4824  8.3534   1
   8  -3  -8 480.529  25.418   5
  -8   3   8 461.388  25.332   2
  -8   3   8 475.858  28.828   3
  -8   3   8 502.624  23.265   1
   7  -3  -8 427.083  23.657   5
  -7   3   8 445.717  26.391   3
  -7   3   8 433.829  23.416   2
  -7   3   8 437.741  22.027   1
   6  -3  -8 2118.49   50.42   5
  -6   3   8 2125.30   48.36   2
  -6   3   8 2111.72   53.14   3
  -6   3   8 2094.41   48.52   1
   5  -3  -8 1597.18   39.91   1
   5  -3  -8 1585.86   41.84   5
  -5   3   8 1585.76   42.22   3
  -5   3   8 1597.88   41.23   1
  -5   3   8 1661.27   39.51   2
   4  -3  -8 -8.6535  7.3121   1
   4  -3  -8 15.6914  6.8493   5
  -4   3   8 6.01481 6.26878   2
  -4   3   8 26.3709  8.7303   1
   3  -3  -8 -2.9355  7.8854   5
  -3   3   8 -16.952   7.858   1
   2  -3  -8 1612.83   37.06   5
   2  -3  -8 1585.55   38.11   1
  -2   3   8 1529.72   38.16   1
  -2   3   8 1546.25   30.65   4
   1  -3  -8 441.880  18.466   5
   1  -3  -8 447.642  20.430   1
  -1   3   8 430.480  17.328   4
  -1   3   8 455.199  20.873   1
   0  -3  -8 22.0778  7.2096   5
   0   3   8 8.29115 8.34568   1
   0   3   8 14.7036  5.7571   4
  -1  -3  -8 567.509  22.702   1
  -1  -3  -8 592.061  19.016   5
   1   3   8 606.633  23.994   4
   1   3   8 547.526  22.324   1
  -2  -3  -8 768.683  26.323   1
  -2  -3  -8 739.715  19.722   5
   2   3   8 776.183  26.426   1
  -3  -3  -8 1177.60   32.96   1
   3   3   8 1157.77   32.65   1
  -4  -3  -8 39.9405  8.7329   1
  -5  -3  -8 70.4453  9.8089   1
  -6  -3  -8 39.8619  7.5429   1
   7  -4  -8 147.115  14.584   5
  -7   4   8 144.402  18.067   3
  -7   4   8 151.757  15.130   1
   6  -4  -8 -1.9257  9.4068   5
  -6   4   8 -2.7472  9.3740   1
  -6   4   8 -6.4453  9.5743   3
  -6   4   8 2.13649 6.10816   2
   5  -4  -8 64.6944 10.7943   1
   5  -4  -8 72.7280 12.1174   5
  -5   4   8 49.9620  8.1259   2
  -5   4   8 70.8923 11.7745   1
   4  -4  -8 179.843  14.947   1
   4  -4  -8 160.989  14.442   5
  -4   4   8 175.373  11.355   2
  -4   4   8 209.795  16.297   1
   3  -4  -8 229.015  16.405   1
   3  -4  -8 232.877  15.441   5
  -3   4   8 231.894  11.758   2
  -3   4   8 254.644  17.274   1
  -3   4   8 226.623  11.248   4
   2  -4  -8 733.835  26.369   1
   2  -4  -8 736.903  25.772   5
  -2   4   8 716.840  21.894   4
  -2   4   8 712.095  19.768   2
  -2   4   8 723.751  26.755   1
   1  -4  -8 1174.28   33.11   1
   1  -4  -8 1145.43   31.43   5
  -1   4   8 1192.23   34.14   1
  -1   4   8 1200.78   31.21   4
   0  -4  -8 239.140  16.201   1
   0  -4  -8 257.572  14.321   5
   0   4   8 282.340  17.104   1
   0   4   8 265.516  16.085   4
  -1  -4  -8 260.673  13.299   5
  -1  -4  -8 258.447  15.489   1
   1   4   8 260.304  15.519   1
   1   4   8 258.047  17.235   4
  -2  -4  -8 345.896  14.218   5
  -2  -4  -8 332.326  18.048   1
   2   4   8 350.930  20.342   4
   2   4   8 394.928  19.555   1
  -3  -4  -8 6.63725 7.25903   1
   3   4   8 -23.838  12.342   4
  -4  -4  -8 4.09157 6.45062   1
   4   4   8 -5.9301  8.1344   4
  -5  -4  -8 -10.159   6.683   1
   5   4   8 -1.3934  8.1796   4
   6   4   8 51.6915 16.3941   4
   7  -5  -8 126.457  15.007   5
  -7   5   8 118.116  17.163   3
  -7   5   8 99.5340 14.4060   1
  -6   5   8 28.1285  9.1190   1
   5  -5  -8 28.0676  9.7105   5
   5  -5  -8 6.61462 8.43276   1
   4  -5  -8 433.464  22.189   5
   4  -5  -8 446.338  22.922   1
  -4   5   8 419.415  23.003   1
   3  -5  -8 13.4814  8.9172   5
   3  -5  -8 1.15400 7.26498   1
  -3   5   8 4.05274 4.47674   4
  -3   5   8 -1.0995  3.4762   2
  -3   5   8 -9.0050  7.4414   1
   2  -5  -8 1784.40   43.87   1
   2  -5  -8 1763.55   41.48   5
  -2   5   8 1748.12   38.62   4
  -2   5   8 1792.97   31.34   2
  -2   5   8 1739.98   43.82   1
   1  -5  -8 20.5726  7.2463   1
   1  -5  -8 4.88532 7.61853   5
  -1   5   8 23.4928  7.9363   4
  -1   5   8 23.6212  7.3372   1
   0  -5  -8 106.246  12.272   1
   0  -5  -8 88.2354  9.9596   5
   0   5   8 102.635  12.448   4
   0   5   8 101.023  12.133   1
  -1  -5  -8 82.3856 11.1955   1
  -1  -5  -8 95.2660 10.0506   5
   1   5   8 91.7770 12.7958   4
   1   5   8 73.0364 10.8285   1
  -2  -5  -8 830.311  27.995   1
   2   5   8 814.207  27.993   1
   2   5   8 796.299  31.284   4
  -3  -5  -8 26.3916  8.1394   1
   3   5   8 29.2423 12.7445   4
  -4  -5  -8 11.4100  6.4561   1
   4   5   8 10.5629 10.9062   4
   5   5   8  5.2395 11.6192   4
   7  -6  -8 29.7135  8.7347   5
  -7   6   8 39.1863 12.4579   1
  -7   6   8  8.3769 11.7279   3
   6  -6  -8 262.458  18.862   5
   6  -6  -8 293.380  20.539   1
  -6   6   8 247.254  20.005   1
   5  -6  -8 362.354  22.047   1
   5  -6  -8 407.448  23.163   5
  -5   6   8 381.206  23.478   1
   4  -6  -8 41.3620  9.2892   1
   4  -6  -8 56.3256 11.1256   5
  -4   6   8 50.2885 10.6865   1
   3  -6  -8 404.894  22.500   1
   3  -6  -8 398.667  21.419   5
  -3   6   8 407.517  18.644   4
  -3   6   8 401.003  23.032   1
   2  -6  -8 1414.63   40.45   1
   2  -6  -8 1361.51   37.72   5
  -2   6   8 1337.25   35.14   4
  -2   6   8 1413.36   40.37   1
   1  -6  -8 10.3514  8.6078   5
   1  -6  -8 0.35973 5.70380   1
  -1   6   8 13.8907  6.6925   1
   0  -6  -8 330.258  18.110   5
   0  -6  -8 341.558  20.000   1
   0   6   8 310.259  18.893   1
   0   6   8 320.633  19.839   4
  -1  -6  -8 819.458  29.331   1
   1   6   8 791.736  28.907   1
   1   6   8 779.242  31.539   4
  -2  -6  -8 115.613  12.635   1
   2   6   8 134.272  13.073   1
   2   6   8 123.381  14.173   4
  -3  -6  -8 84.5131 10.8350   1
   3   6   8 58.2225 14.1267   4
  -4  -6  -8 22.8557  7.2048   1
   4   6   8 45.3834 14.3960   4
  -5  -6  -8 0.86121 5.16601   1
   5   6   8 24.4673 12.7790   4
   6  -7  -8 42.0612 10.0648   1
   6  -7  -8 4.10260 9.56542   5
   5  -7  -8 -10.164   7.790   5
   5  -7  -8 -8.8173 10.0476   1
  -5   7   8 15.9902 11.5406   1
   4  -7  -8 64.0101 10.7418   5
   4  -7  -8 58.3012 10.4140   1
  -4   7   8 56.0391 11.2127   1
   3  -7  -8 185.849  16.840   5
   3  -7  -8 257.424  18.719   1
  -3   7   8 212.518  17.843   1
  -3   7   8 210.005  14.952   4
   2  -7  -8 374.272  21.049   5
   2  -7  -8 404.197  22.671   1
  -2   7   8 372.415  20.470   4
  -2   7   8 407.152  22.676   1
   1  -7  -8 20.3560  9.5311   1
   1  -7  -8 30.7546  9.2823   5
  -1   7   8 44.9079 10.8911   1
   0  -7  -8 101.488  12.626   1
   0   7   8 97.0720 12.6023   1
   0   7   8 103.995  13.832   4
  -1  -7  -8 28.2429  7.8585   1
   1   7   8 35.4220 11.6174   4
   1   7   8 29.1751  7.5611   1
  -2  -7  -8 22.3465  6.7053   1
   2   7   8 27.7250 12.5529   4
  -3  -7  -8 119.380  12.663   1
   3   7   8 78.5050 13.5500   4
  -4  -7  -8 23.0611  7.5102   1
   4   7   8 22.2269 11.1110   4
   6  -8  -8 31.6397 12.3029   1
  -6   8   8 53.9997 13.6810   1
   5  -8  -8 -2.9055  9.2309   5
   5  -8  -8 -0.7690  6.9821   1
  -5   8   8 11.5949  8.2993   1
   4  -8  -8 62.2318 12.8598   5
   4  -8  -8 73.9549 12.0732   1
  -4   8   8 72.2221 12.2936   1
   3  -8  -8 137.149  14.135   5
   3  -8  -8 163.290  15.890   1
  -3   8   8 147.574  15.437   1
  -3   8   8 151.837  13.993   4
   2  -8  -8 66.5812 12.8330   1
  -2   8   8 51.3017  9.6553   4
  -2   8   8 77.5612 13.1352   1
  -1   8   8 48.9203 11.1497   4
  -1   8   8 44.7552 11.3655   1
   0  -8  -8 186.820  17.031   1
   0   8   8 178.776  17.133   4
   0   8   8 181.993  16.202   1
  -1  -8  -8 233.799  17.563   1
   1   8   8 264.546  21.563   4
   1   8   8 243.153  17.601   1
  -2  -8  -8 10.7842  7.7113   1
   2   8   8 -0.7634 10.9046   4
  -3  -8  -8 3.92001 6.48943   1
  -4  -8  -8 166.095  13.880   1
   5  -9  -8 -19.762  10.861   1
  -5   9   8 -12.563  11.093   1
   4  -9  -8 2.56860 9.60485   1
  -4   9   8 3.73362 9.98202   1
   3  -9  -8 76.8645 14.0797   1
  -3   9   8 55.0304 13.2701   1
  -3   9   8 61.2602 10.8269   4
   2  -9  -8 20.1759 10.0117   1
  -2   9   8 44.7065 12.0971   4
   1  -9  -8 16.2145  9.3639   1
  -1   9   8 45.2780 12.6275   4
  -1   9   8 32.8278 10.0710   1
   0  -9  -8 -16.799   9.164   1
   0   9   8 13.1319 11.3735   4
   0   9   8 -5.1412  8.2559   1
  -1  -9  -8 52.7004  9.6010   1
   1   9   8 42.7615 13.9256   4
  -2  -9  -8 317.893  20.367   1
   2   9   8 295.355  24.685   4
  -3  -9  -8 82.3291 11.1722   1
   3   9   8 74.3871 14.3733   4
   3 -10  -8 15.9921 11.2602   1
   2 -10  -8 -4.5848  7.6149   1
  -2  10   8 18.5555  9.3635   4
  -2  10   8 1.07333 7.14369   1
   1 -10  -8 -6.1669  9.6629   1
  -1  10   8  0.3034 10.5198   4
  -1  10   8 19.9657  9.9783   1
   0  10   8  5.7866 12.3596   4
  -1 -10  -8 3.88158 8.80761   1
   1  10   8 35.8792 13.7704   4
   1  11  -9 -14.344   8.037   4
  -1 -11   9 2.63153 9.43481   2
   0  11  -9 70.4338 13.4427   4
   0 -11   9 108.396  16.236   1
  -3 -10   9 13.8251  9.4424   1
  -2 -10   9 275.279  20.280   1
  -2 -10   9 285.859  22.105   2
   1  10  -9 41.0697 10.8889   4
  -1 -10   9 45.0289 12.7554   2
  -1 -10   9 66.8711 13.6389   1
   0  10  -9  2.3794 10.4352   4
   0  10  -9 4.13523 7.13387   1
   0 -10   9 8.78061 8.00831   1
  -1  10  -9 96.2931 15.4212   4
  -1  10  -9 76.0448 14.1142   1
   1 -10   9 99.3483 16.0614   1
  -2  10  -9 58.2271 14.7214   1
   4   9  -9 47.2081 13.1085   5
  -4  -9   9 67.3960 14.3074   2
  -4  -9   9 60.2737 10.3469   1
   3   9  -9 104.280  15.492   5
  -3  -9   9 79.7853 12.1233   1
  -3  -9   9 100.391  15.971   2
  -2  -9   9 261.278  19.417   1
  -2  -9   9 249.796  21.002   2
   1   9  -9 77.6994 12.0116   4
  -1  -9   9 64.4224 11.9695   1
   0   9  -9 78.1598 11.7495   4
   0   9  -9 87.4210 13.8454   1
   0  -9   9 83.3014 14.5948   1
  -1   9  -9 37.9583 12.1715   1
   1  -9   9 64.1460 14.1553   1
  -2   9  -9 104.702  15.726   1
   2  -9   9 89.5876 15.5384   1
  -3   9  -9 26.9197 12.2253   1
   3  -9   9 40.8009 13.4939   1
   5   8  -9 182.908  18.718   5
  -5  -8   9 208.415  20.942   2
   4   8  -9 298.994  21.652   5
  -4  -8   9 295.642  17.342   1
  -4  -8   9 310.602  23.123   2
   3   8  -9 89.9341 14.0843   5
  -3  -8   9 50.4107 10.5527   1
  -3  -8   9 67.5745 14.3972   2
   2   8  -9 12.1109  7.2045   4
  -2  -8   9 13.7544  9.4866   1
  -2  -8   9 4.73942 9.94410   2
   1   8  -9 106.030  12.567   4
   1   8  -9 112.119  12.489   1
  -1  -8   9 108.135  12.687   1
   0   8  -9 630.541  27.720   4
   0   8  -9 656.556  29.606   1
   0  -8   9 673.057  30.460   1
  -1   8  -9 112.704  15.672   1
   1  -8   9 122.935  16.084   1
  -2   8  -9 381.401  23.952   1
   2  -8   9 391.165  24.375   1
  -3   8  -9 198.520  18.525   1
   3  -8   9 205.222  18.827   1
  -4   8  -9 -0.7046 11.2893   1
   4  -8   9  1.1755 10.4577   1
   6   7  -9 186.841  17.032   5
  -6  -7   9 262.184  24.077   2
   5   7  -9 13.6889 10.8371   5
  -5  -7   9 7.12692 5.49217   1
   4   7  -9 188.891  18.188   5
  -4  -7   9 186.259  18.845   2
  -4  -7   9 181.128  13.511   1
   3   7  -9 146.802  15.983   5
  -3  -7   9 144.966  16.622   2
  -3  -7   9 147.007  13.943   1
   2   7  -9 71.8640  9.1387   4
   2   7  -9 65.4372 10.7137   1
   2   7  -9 49.0898 11.5585   5
  -2  -7   9 74.7378 12.3402   1
  -2  -7   9 82.6942 12.3733   2
   1   7  -9 41.5984  7.8570   4
   1   7  -9 35.3572  9.5684   1
  -1  -7   9 19.3008  9.3682   1
   0   7  -9 87.0403 13.0491   1
   0  -7   9 54.9913 12.3155   1
  -1   7  -9 -3.4799  9.9009   1
   1  -7   9 -16.510  11.212   1
  -2   7  -9 570.025  28.014   1
   2  -7   9 509.125  26.695   1
  -3   7  -9 457.594  26.110   1
   3  -7   9 434.041  25.299   1
  -4   7  -9 52.6878 14.1857   1
   4  -7   9 58.1416 13.8220   1
  -5   7  -9  3.9133 10.3257   1
   5  -7   9 -6.7718  8.6459   1
   6   6  -9 451.956  25.462   5
  -6  -6   9 426.952  28.036   2
   5   6  -9 466.133  24.185   5
  -5  -6   9 498.085  19.781   1
  -5  -6   9 487.576  28.469   2
   4   6  -9 -0.9236  8.8280   5
  -4  -6   9  0.0957 10.0559   2
   3   6  -9 184.513  15.439   5
  -3  -6   9 151.710  13.571   1
  -3  -6   9 205.579  18.102   2
   2   6  -9 14.0494  7.0226   1
   1   6  -9 701.644  26.801   5
   1   6  -9 722.169  27.654   1
  -1  -6   9 712.235  28.536   1
   0   6  -9 210.527  15.983   5
   0   6  -9 184.324  15.198   1
   0  -6   9 190.356  15.419   1
  -1   6  -9 -1.9057  9.0620   1
   1  -6   9 11.6602 10.0417   1
  -2   6  -9 15.3662  6.2489   5
  -2   6  -9  6.7694 10.4371   1
   2  -6   9 36.5463 11.6570   1
  -3   6  -9 -13.004  10.682   1
  -4   6  -9 94.8470 15.0372   1
   4  -6   9 80.7722 14.6645   1
  -5   6  -9 192.301  19.271   1
   5  -6   9 190.583  18.759   1
   7   5  -9 453.937  25.665   5
  -7  -5   9 491.224  31.010   2
   6   5  -9 25.5544 10.6749   5
  -6  -5   9 42.3727 12.3701   2
   5   5  -9 481.877  24.730   5
  -5  -5   9 446.342  18.890   1
  -5  -5   9 458.044  26.022   2
   4   5  -9 14.8516 10.4758   5
  -4  -5   9 9.53479 5.84853   1
  -4  -5   9 22.1906 10.3354   2
   3   5  -9 548.471  25.322   5
   3   5  -9 575.270  22.528   1
  -3  -5   9 567.540  27.364   2
  -3  -5   9 542.078  22.840   1
   2   5  -9 36.2513  7.3394   1
   2   5  -9 34.7084 10.2991   5
  -2  -5   9 36.3854  7.8291   1
   1   5  -9 616.949  24.411   5
   1   5  -9 621.042  25.660   1
  -1  -5   9 624.532  25.957   1
   0   5  -9 151.505  14.730   1
   0   5  -9 166.542  14.175   5
   0  -5   9 171.252  16.172   1
  -1   5  -9 1625.96   38.47   5
  -1   5  -9 1648.15   44.50   1
   1  -5   9 1664.57   44.63   1
  -2   5  -9 2679.35   59.88   1
  -2   5  -9 2630.65   49.66   5
   2  -5   9 2634.49   58.57   1
  -3   5  -9 136.753  16.341   1
   3  -5   9 131.581  15.146   1
   4  -5   9 9.46674 7.68378   1
   5  -5   9 52.7658 11.2082   1
   7   4  -9 31.9421 11.0694   5
   6   4  -9 112.507  12.842   5
  -6  -4   9 126.577   9.882   1
  -6  -4   9 100.462  16.319   2
   5   4  -9 29.7371 10.6659   5
  -5  -4   9 34.2095  7.2341   1
  -5  -4   9 48.7335 12.8438   2
   4   4  -9 508.534  24.067   5
  -4  -4   9 493.535  25.767   2
  -4  -4   9 507.099  21.021   1
   3   4  -9 194.959  14.736   5
   3   4  -9 202.979  13.905   1
  -3  -4   9 178.243  15.319   2
  -3  -4   9 197.224  14.347   1
   2   4  -9 290.749  18.366   5
   2   4  -9 296.533  17.010   1
  -2  -4   9 308.049  17.838   1
   1   4  -9 3899.35   67.05   1
   1   4  -9 3915.14   65.76   5
  -1  -4   9 3831.82   67.41   1
   0   4  -9 1302.00   37.06   1
   0   4  -9 1278.88   33.44   5
   0  -4   9 1253.42   36.79   1
  -1   4  -9 791.925  25.349   5
  -1   4  -9 812.474  30.116   1
   1  -4   9 800.428  29.963   1
  -2   4  -9 228.402  18.105   1
  -2   4  -9 222.548  13.616   5
   2  -4   9 222.801  17.672   1
  -3   4  -9 47.9252 11.9854   1
  -4   4  -9 98.2630 12.7720   1
   4  -4   9 73.6041 11.2352   1
  -5   4  -9 15.4737 11.1799   1
  -6   4  -9 77.2171 12.1038   1
   7   3  -9 3.77968 9.71431   5
  -7  -3   9 -8.6683 11.9637   2
   6   3  -9 116.250  13.773   5
  -6  -3   9 104.243   9.597   1
  -6  -3   9 93.9926 14.5432   2
   5   3  -9 143.363  13.459   5
  -5  -3   9 110.502  15.008   2
  -5  -3   9 123.332  10.839   1
   4   3  -9 301.109  15.814   1
   4   3  -9 323.643  18.718   5
  -4  -3   9 325.525  21.213   2
  -4  -3   9 312.859  16.956   1
   3   3  -9 1187.42   34.49   5
   3   3  -9 1156.00   31.21   1
  -3  -3   9 1130.82   35.98   2
  -3  -3   9 1125.59   31.85   1
   2   3  -9 612.430  23.902   5
   2   3  -9 602.300  22.982   1
  -2  -3   9 590.149  23.426   1
   1   3  -9 333.225  17.630   1
   1   3  -9 339.901  17.905   5
  -1  -3   9 347.096  18.250   1
   0   3  -9 758.780  24.242   5
   0   3  -9 775.050  27.111   1
   0  -3   9 771.234  27.376   1
  -1   3  -9 802.208  29.196   1
  -1   3  -9 779.245  24.038   5
   1  -3   9 782.698  28.940   1
  -2   3  -9 5.01107 5.21621   5
  -2   3  -9 -6.3430  7.5425   1
   2  -3   9 -0.1479  6.5992   1
  -3   3  -9 878.649  32.696   1
   3  -3   9 882.375  32.395   1
  -4   3  -9 51.7814 10.3656   1
   4  -3   9 42.4450  8.9982   1
  -5   3  -9 305.406  20.880   1
  -6   3  -9 53.7953 11.9317   1
   8   2  -9 54.5216 12.6042   5
  -8  -2   9 63.3504 14.8233   2
   7   2  -9 31.2508 10.1169   5
  -7  -2   9 24.0026  9.7459   2
   6   2  -9 181.686  16.907   5
  -6  -2   9 194.912  13.105   1
  -6  -2   9 195.242  18.669   2
   5   2  -9 131.698  14.462   5
  -5  -2   9 99.6987 10.6413   1
  -5  -2   9 114.631  13.083   2
   4   2  -9 115.998  13.800   5
   4   2  -9 152.619  12.090   1
  -4  -2   9 139.856  14.811   2
  -4  -2   9 162.259  13.168   1
   3   2  -9 639.527  24.946   5
   3   2  -9 626.651  22.748   1
  -3  -2   9 605.975  22.947   1
  -3  -2   9 639.607  26.390   2
   2   2  -9 1098.79   31.19   1
   2   2  -9 1125.04   32.05   5
  -2  -2   9 1148.10   32.81   1
   1   2  -9 714.803  25.424   1
   1   2  -9 698.354  24.250   5
  -1  -2   9 715.183  26.103   1
   0   2  -9 109.378  10.856   5
   0   2  -9 98.2784 12.0420   1
   0  -2   9 92.7592 11.8582   1
  -1   2  -9 2082.92   39.86   5
  -1   2  -9 2064.53   47.19   1
   1  -2   9 2096.18   47.42   1
  -2   2  -9 2272.38   39.56   5
  -2   2  -9 2273.31   50.96   1
   2  -2   9 2321.09   51.02   1
  -3   2  -9 682.143  28.136   1
   3  -2   9 667.729  27.440   1
  -4   2  -9 239.549  18.714   1
   4  -2   9 252.521  18.172   1
   8   1  -9 98.2515 14.1727   5
  -8  -1   9 101.650  16.682   2
   7   1  -9 20.8080  9.8031   5
  -7  -1   9 45.3345 12.9003   2
   6   1  -9 423.728  22.050   5
  -6  -1   9 438.752  19.394   1
  -6  -1   9 414.331  24.419   2
   5   1  -9 9.80715 9.01227   5
  -5  -1   9 25.3573  7.9418   1
  -5  -1   9 19.5514  9.9449   2
   4   1  -9 2051.65   47.11   5
   4   1  -9 2109.08   43.57   1
  -4  -1   9 2040.84   43.93   1
  -4  -1   9 2083.66   49.16   2
   3   1  -9 776.473  25.476   1
   3   1  -9 752.372  26.702   5
  -3  -1   9 766.686  26.245   1
  -3  -1   9 730.257  27.362   2
   2   1  -9 6.90789 7.64971   1
   2   1  -9 12.3668  8.2457   5
  -2  -1   9 11.9627  8.7815   1
   1   1  -9 710.364  24.112   5
   1   1  -9 722.291  25.805   1
  -1  -1   9 741.765  26.507   1
   0   1  -9 131.850  11.439   5
   0   1  -9 118.528  13.893   1
   0  -1   9 148.609  14.406   1
  -1   1  -9 1142.35   27.47   5
  -1   1  -9 1154.25   33.79   1
   1  -1   9 1147.05   33.99   1
  -2   1  -9 2048.20   47.52   1
  -2   1  -9 2032.88   36.15   5
   2  -1   9 2069.12   47.34   1
  -3   1  -9 267.657  17.605   1
   3  -1   9 272.643  17.392   1
  -4   1  -9 2148.46   50.82   1
   4  -1   9 2089.92   49.59   1
  -5   1  -9 47.8003 10.7153   1
  -6   1  -9 359.673  21.538   1
  -8   0   9 49.9852 12.9019   2
   7   0  -9 441.643  24.180   5
  -7   0   9 461.202  26.353   2
  -7   0   9 421.545  19.328   1
   6   0  -9 59.1262 11.8855   5
  -6   0   9 73.7701  9.5006   3
  -6   0   9 82.0270 10.0671   1
  -6   0   9 78.1360 13.2690   2
   5   0  -9 -3.9868  5.6582   1
   5   0  -9 -11.354   7.629   5
  -5   0   9 -1.5973  8.9937   2
  -5   0   9 10.4009  7.0479   1
  -5   0   9 4.25330 4.58723   3
   4   0  -9 23.3397  9.4134   5
   4   0  -9 41.9682  8.4382   1
  -4   0   9 26.5834  9.0964   1
  -4   0   9 20.8212  5.0152   3
   3   0  -9 2180.95   45.51   1
   3   0  -9 2288.48   47.93   5
  -3   0   9 2240.41   35.54   3
  -3   0   9 2262.89   48.17   2
  -3   0   9 2286.53   47.64   1
   2   0  -9 675.474  24.631   1
   2   0  -9 640.030  23.273   5
  -2   0   9 617.028  13.378   3
  -2   0   9 663.432  25.094   1
  -2   0   9 611.072  14.808   4
   1   0  -9 873.135  26.132   5
   1   0  -9 879.885  28.845   1
  -1   0   9 906.266  29.310   1
   0   0  -9 8166.11   99.28   5
   0   0  -9 8068.68  107.63   1
   0   0   9 8151.85  108.29   1
  -1   0  -9 3335.28   51.98   5
  -1   0  -9 3440.21   61.89   1
   1   0   9 3403.72   62.04   1
  -2   0  -9 2108.43   36.00   5
  -2   0  -9 2114.49   47.56   1
   2   0   9 2118.36   47.66   1
  -3   0  -9 90.4494 12.5501   1
   3   0   9 72.5455 10.9548   1
  -4   0  -9 72.2507 12.4243   1
   4   0   9 86.9604 11.9799   1
  -5   0  -9 51.8528 10.7843   1
  -6   0  -9 61.6026 10.7948   1
   8  -1  -9 0.94137 8.58565   5
  -8   1   9  8.3793 10.6996   2
   7  -1  -9 13.1053  9.4311   5
  -7   1   9 -7.4072  8.8898   3
  -7   1   9 -7.5188  9.8066   2
  -7   1   9 8.68894 6.16187   1
   6  -1  -9 14.9574 10.2514   5
  -6   1   9 7.93208 6.72483   1
  -6   1   9 6.66650 7.16354   3
   5  -1  -9 338.323  19.989   5
   5  -1  -9 341.935  18.069   1
  -5   1   9 319.398  16.983   3
  -5   1   9 308.321  18.973   2
  -5   1   9 309.771  18.478   1
   4  -1  -9 4.81398 9.36816   5
  -4   1   9 18.9714  7.9397   2
  -4   1   9 18.1027  9.5829   1
   3  -1  -9 79.1772  9.9657   5
   3  -1  -9 111.808  11.822   1
  -3   1   9 116.819   8.317   3
  -3   1   9 97.1662 12.4110   1
  -3   1   9 97.0113 11.2051   2
   2  -1  -9 4429.08   69.08   5
   2  -1  -9 4563.56   72.05   1
  -2   1   9 4452.00   57.10   4
  -2   1   9 4470.86   72.85   1
   1  -1  -9 77.2157  9.5735   5
   1  -1  -9 88.9866 10.4280   1
  -1   1   9 85.5171  8.0581   4
  -1   1   9 90.4604 10.7594   1
   0  -1  -9 1594.91   39.09   1
   0  -1  -9 1588.33   34.57   5
   0   1   9 1504.39   38.36   1
  -1  -1  -9 -8.1867  8.9863   1
  -1  -1  -9 -11.803   6.020   5
   1   1   9 -13.175   9.181   1
  -2  -1  -9 53.7314  6.4408   5
  -2  -1  -9 50.6989 10.2391   1
   2   1   9 46.1463 10.0294   1
  -3  -1  -9 244.913  17.022   1
   3   1   9 248.488  16.868   1
  -4  -1  -9 20.1180  8.5366   1
  -5  -1  -9 69.3042 11.2418   1
  -6  -1  -9 106.489  12.463   1
   8  -2  -9 88.5510 13.5245   5
  -8   2   9 77.3924 13.2918   2
  -8   2   9 66.7897 10.3197   1
  -7   2   9 1.95510 7.73089   1
  -7   2   9 10.2686  8.3447   3
  -7   2   9 9.28037 9.34247   2
   6  -2  -9 30.8477  8.6065   5
  -6   2   9 37.3314  9.0389   3
   5  -2  -9 3.68202 6.81971   1
  -5   2   9 7.90889 6.85638   2
  -5   2   9 2.88093 8.49434   1
  -5   2   9 11.9943  7.2693   3
   4  -2  -9 3151.63   60.80   5
   4  -2  -9 3193.49   59.98   1
  -4   2   9 3157.09   55.95   3
  -4   2   9 3198.51   61.63   1
  -4   2   9 3191.34   58.42   2
   3  -2  -9 2059.65   46.02   5
   3  -2  -9 2091.88   46.41   1
  -3   2   9 1993.60   46.42   1
  -3   2   9 2002.78   42.44   2
   2  -2  -9 1387.18   35.62   5
   2  -2  -9 1348.91   36.31   1
  -2   2   9 1353.00   37.18   1
  -2   2   9 1352.91   27.14   4
   1  -2  -9 3343.88   56.57   5
   1  -2  -9 3355.76   60.82   1
  -1   2   9 3265.93   60.91   1
  -1   2   9 3315.94   53.31   4
   0  -2  -9 2244.31   42.92   5
   0  -2  -9 2196.31   47.80   1
   0   2   9 2232.55   45.12   4
   0   2   9 2217.10   48.57   1
  -1  -2  -9 89.6302 10.4062   1
  -1  -2  -9 109.074   9.271   5
   1   2   9 97.1768 10.6332   1
  -2  -2  -9 148.181  13.867   1
  -2  -2  -9 134.864   8.980   5
   2   2   9 162.234  14.054   1
  -3  -2  -9 26.3469  7.6818   1
  -4  -2  -9 175.785  14.897   1
  -5  -2  -9 317.997  18.855   1
  -6  -2  -9 534.347  23.359   1
   7  -3  -9 206.584  17.829   5
  -7   3   9 228.812  17.780   2
  -7   3   9 277.240  18.850   1
  -7   3   9 257.036  20.376   3
   6  -3  -9 16.8094 10.2728   5
  -6   3   9 -13.814   9.335   1
  -6   3   9 7.73930 7.21785   2
   5  -3  -9 294.869  18.533   1
   5  -3  -9 310.112  20.171   5
  -5   3   9 303.454  19.398   1
  -5   3   9 308.594  16.913   2
  -5   3   9 281.181  18.344   3
   4  -3  -9 79.1098 11.0339   1
   4  -3  -9 109.186  11.959   5
  -4   3   9 98.9183 10.5334   2
  -4   3   9 106.791  12.805   1
   3  -3  -9 1606.75   41.29   1
   3  -3  -9 1592.00   40.74   5
  -3   3   9 1606.62   36.36   2
  -3   3   9 1573.72   41.61   1
   2  -3  -9 29.4644  7.3632   5
  -2   3   9 25.4880  5.4685   4
   1  -3  -9 677.519  26.439   1
   1  -3  -9 731.730  24.681   5
  -1   3   9 744.794  27.889   1
  -1   3   9 706.529  22.782   4
   0  -3  -9 2459.51   51.47   1
   0  -3  -9 2440.89   46.14   5
   0   3   9 2411.79   49.03   4
   0   3   9 2444.07   52.24   1
  -1  -3  -9 281.006  14.362   5
  -1  -3  -9 310.306  18.702   1
   1   3   9 284.473  17.899   4
   1   3   9 327.455  18.870   1
  -2  -3  -9 1137.75   26.24   5
  -2  -3  -9 1152.22   34.28   1
   2   3   9 1139.34   34.13   1
  -3  -3  -9 -9.9464  8.1847   1
   3   3   9 -4.3349  7.2736   1
  -4  -3  -9 2.60822 7.03925   1
  -5  -3  -9 14.8633  8.0604   1
   7  -4  -9 13.4362 10.4635   5
  -7   4   9 6.62967 8.20508   3
  -7   4   9 4.71562 8.97649   1
   6  -4  -9 318.400  21.624   5
  -6   4   9 369.535  23.153   3
  -6   4   9 341.771  20.706   1
   5  -4  -9 514.779  25.356   5
   5  -4  -9 530.660  25.173   1
  -5   4   9 482.423  25.095   1
  -5   4   9 525.807  20.984   2
   4  -4  -9 56.0789  9.5124   5
   4  -4  -9 46.7228 10.0473   1
  -4   4   9 56.5820 11.2756   1
  -4   4   9 53.5804  7.8897   2
   3  -4  -9 49.3567  8.8966   5
   3  -4  -9 44.2367 10.1815   1
  -3   4   9 41.6437  6.6321   2
  -3   4   9 52.5937 11.6337   1
   2  -4  -9 12.7612  9.1131   1
   2  -4  -9 4.91533 8.27536   5
  -2   4   9 18.2616  5.3802   2
  -2   4   9 29.1732  6.5229   4
   1  -4  -9 843.130  27.969   5
   1  -4  -9 871.085  30.530   1
  -1   4   9 897.308  31.483   1
  -1   4   9 869.023  27.138   4
   0  -4  -9 733.666  24.618   5
   0  -4  -9 743.275  27.789   1
   0   4   9 711.909  26.398   4
   0   4   9 739.153  27.832   1
  -1  -4  -9 62.2978  8.6829   5
  -1  -4  -9 68.3213 11.0264   1
   1   4   9 45.6304 10.8658   4
  -2  -4  -9 136.156  13.834   1
   2   4   9 137.705  15.678   4
   2   4   9 121.997  12.903   1
  -3  -4  -9 98.4139 12.0009   1
   3   4   9 129.108  16.303   4
  -4  -4  -9 129.154  12.916   1
   4   4   9 135.506  18.214   4
  -5  -4  -9 135.678  12.964   1
   5   4   9 114.515  18.508   4
   7  -5  -9 21.8138  8.5012   5
  -7   5   9  6.2378 10.1022   3
  -7   5   9 -2.4719  6.8431   1
   6  -5  -9 -11.133   7.651   5
  -6   5   9 12.0210  9.9415   3
   5  -5  -9 14.6505  9.6119   1
   5  -5  -9 11.5974 10.1979   5
  -5   5   9 30.4929 11.6521   1
   4  -5  -9 -21.387  10.051   1
  -4   5   9 -10.444   9.682   1
   3  -5  -9 22.9619  7.7269   5
   3  -5  -9 19.1970  9.0928   1
  -3   5   9 33.2847 10.4804   1
   2  -5  -9 9.22917 6.92802   1
   2  -5  -9 -4.7491  8.2865   5
  -2   5   9 -12.331   7.544   1
   1  -5  -9 1046.03   31.54   5
   1  -5  -9 1052.24   34.97   1
  -1   5   9 1076.30   32.30   4
  -1   5   9 1077.52   35.99   1
   0  -5  -9 541.816  24.381   1
   0  -5  -9 527.064  21.262   5
   0   5   9 550.516  24.696   1
   0   5   9 549.231  24.680   4
  -1  -5  -9 754.788  28.702   1
  -1  -5  -9 716.406  23.952   5
   1   5   9 752.149  30.137   4
   1   5   9 740.450  28.730   1
  -2  -5  -9 210.560  16.180   1
   2   5   9 201.822  15.950   1
   2   5   9 221.782  18.974   4
  -3  -5  -9 40.1954  9.2839   1
   3   5   9 35.7704 10.2986   4
  -4  -5  -9 9.48737 7.37555   1
   4   5   9 10.9379 12.1207   4
  -5  -5  -9 22.8264  7.4274   1
   5   5   9 47.9097 12.7874   4
   6  -6  -9 59.2372 12.8014   5
   5  -6  -9 39.1172 11.0666   1
   5  -6  -9 40.4721  9.4092   5
  -5   6   9 36.1640 11.6784   1
   4  -6  -9 93.6817 13.6965   5
   4  -6  -9 81.2259 13.0762   1
  -4   6   9 98.9810 14.6651   1
   3  -6  -9 86.7013 12.9506   1
   3  -6  -9 76.5412 10.7060   5
  -3   6   9 71.5784 13.2827   1
   2  -6  -9 135.706  14.727   1
   2  -6  -9 114.678  13.748   5
  -2   6   9 136.626  15.396   1
  -2   6   9 120.276  12.069   4
   1  -6  -9 486.758  22.623   5
   1  -6  -9 507.969  24.856   1
  -1   6   9 498.239  23.610   4
  -1   6   9 528.069  25.439   1
   0  -6  -9 -0.2334  7.4120   5
   0  -6  -9 12.7791  6.9619   1
   0   6   9 5.99266 6.40580   1
   0   6   9 -11.028   9.082   4
  -1  -6  -9 264.634  18.556   1
   1   6   9 253.526  18.257   1
   1   6   9 256.799  20.025   4
  -2  -6  -9 127.707  12.957   1
   2   6   9 138.776  14.988   4
  -3  -6  -9 54.4966 10.6257   1
   3   6   9 25.0585 12.7693   4
  -4  -6  -9 68.1745 10.7141   1
   6  -7  -9 22.5971  8.9670   5
   5  -7  -9 112.576  15.313   1
   5  -7  -9 134.523  16.001   5
  -5   7   9 97.8965 15.4508   1
   4  -7  -9 36.0428 10.3590   1
  -4   7   9 50.6596 11.7541   1
   3  -7  -9 148.866  15.956   5
   3  -7  -9 153.922  15.872   1
  -3   7   9 145.188  15.848   1
  -2   7   9 8.59793 7.19949   4
   1  -7  -9 190.675  14.982   5
   1  -7  -9 182.868  16.543   1
  -1   7   9 195.555  16.799   1
  -1   7   9 167.616  15.990   4
   0  -7  -9 33.0289  8.8146   1
   0   7   9 39.7262  9.4046   1
   0   7   9 44.0340 11.9593   4
  -1  -7  -9 239.431  17.932   1
   1   7   9 215.280  19.821   4
   1   7   9 227.913  17.759   1
  -2  -7  -9 11.1152  8.1883   1
   2   7   9  4.4114 11.3603   4
  -3  -7  -9 10.5821  8.0664   1
   3   7   9 -13.726  12.450   4
  -4  -7  -9 9.89191 7.05696   1
   5  -8  -9 11.3959  7.8249   5
   5  -8  -9 22.4086  9.1640   1
  -5   8   9 1.47972 7.33005   1
   4  -8  -9 90.1401 14.2785   1
   4  -8  -9 76.2917 12.2781   5
   3  -8  -9 87.1621 13.2746   1
   3  -8  -9 77.8312 13.5980   5
  -3   8   9 86.4426 13.1296   1
   2  -8  -9 1.43145 9.35836   1
  -2   8   9  8.4159 10.0218   1
   1  -8  -9 30.9442 11.1908   1
  -1   8   9 32.2629 10.5059   1
   0  -8  -9 56.3478 11.6693   1
   0   8   9 66.9795 12.3451   1
  -1  -8  -9 112.063  14.142   1
   1   8   9 118.564  16.858   4
  -2  -8  -9 71.1449 11.9309   1
   2   8   9 61.4329 14.6797   4
  -3  -8  -9 44.2875  8.9798   1
   3   8   9 69.4995 16.2697   4
   4  -9  -9 13.7634 10.6541   1
  -4   9   9 38.5090 12.9011   1
   3  -9  -9 -10.907  10.633   1
  -3   9   9  3.9176 10.6028   1
   2  -9  -9 72.9001 12.2881   1
  -2   9   9 39.2565 10.3751   1
  -2   9   9 62.6211 12.1567   4
   1  -9  -9 25.0764  8.6128   1
  -1   9   9 27.8798  8.6949   1
  -1   9   9 -8.0886 10.4767   4
   0  -9  -9 319.049  22.136   1
   0   9   9 288.375  21.718   1
   0   9   9 328.571  23.635   4
  -1  -9  -9 -13.222   7.739   1
   1   9   9  3.5151 11.4440   4
   2   9   9 35.9524 13.5536   4
   2 -10  -9 31.4126 11.8753   1
  -2  10   9 17.6009 10.7996   1
  -1  10   9 42.0730 11.1375   4
   2  10 -10 132.155  15.908   5
  -2 -10  10 90.8912 14.3352   1
  -2 -10  10 119.183  17.061   2
  -1 -10  10 145.162  17.361   1
  -1 -10  10 133.149  17.876   2
   0  10 -10 223.590  20.435   1
   0 -10  10 242.209  21.971   1
   1 -10  10  6.5067 11.7621   1
   4   9 -10 24.5265 10.8128   5
  -4  -9  10  9.1624 11.6576   2
  -4  -9  10 46.9683  9.4990   1
   3   9 -10 427.114  26.298   5
  -3  -9  10 437.822  28.154   2
  -3  -9  10 423.473  23.596   1
   2   9 -10 84.9491 14.4856   5
  -2  -9  10 45.2581 14.0004   2
  -2  -9  10 63.6579 12.9972   1
   1   9 -10 60.8043 12.6550   1
   1   9 -10 50.0377 10.6723   4
  -1  -9  10 54.8611 12.9788   1
   0   9 -10 56.3847 11.5416   1
   0  -9  10 48.5871 11.4993   1
  -1   9 -10 225.652  19.639   1
   1  -9  10 240.780  20.425   1
  -2   9 -10  4.9218 11.6120   1
   2  -9  10 -12.999  11.960   1
   5   8 -10 46.0507 12.2156   5
  -5  -8  10 25.2125 10.7254   2
   4   8 -10 32.9500 12.0523   5
  -4  -8  10 51.2491 14.1549   2
  -4  -8  10 56.5797 10.1081   1
   3   8 -10 442.948  25.384   5
  -3  -8  10 397.216  26.928   2
  -3  -8  10 452.448  23.565   1
   2   8 -10 399.247  24.642   5
  -2  -8  10 404.443  23.461   1
  -2  -8  10 366.038  23.923   2
   1   8 -10 198.719  17.404   1
   1   8 -10 240.942  19.449   5
  -1  -8  10 224.539  18.843   1
   0   8 -10 35.5654 11.9151   1
  -1   8 -10  6.4547 10.0883   1
   1  -8  10  7.8959 10.4955   1
  -2   8 -10 -1.6779 10.9920   1
   2  -8  10 34.6157 12.7385   1
  -3   8 -10 16.1278 12.9649   1
   3  -8  10  6.0327 11.0609   1
   5   7 -10 247.387  19.229   5
  -5  -7  10 240.692  15.493   1
  -5  -7  10 262.416  22.990   2
   4   7 -10 457.191  25.369   5
  -4  -7  10 427.529  21.511   1
  -4  -7  10 452.970  28.422   2
   3   7 -10 248.750  20.137   5
  -3  -7  10 269.117  21.734   2
  -3  -7  10 252.756  18.096   1
   2   7 -10 -4.5406  8.0560   1
   2   7 -10 -17.801   9.000   5
  -2  -7  10 3.49834 9.60341   1
   1   7 -10 32.3641 10.4548   1
  -1  -7  10 38.9783 11.8024   1
   0   7 -10 5.57059 9.24389   1
   0  -7  10 7.08004 9.43715   1
  -1   7 -10 56.5132 12.9807   1
   1  -7  10 70.8693 13.2064   1
  -2   7 -10 17.8169 11.1571   1
  -2   7 -10 -13.583   7.343   5
   2  -7  10 -8.2669 10.7811   1
  -3   7 -10 59.3134 14.1817   1
   4  -7  10 -16.548  11.485   1
   6   6 -10 12.4515 11.3488   5
   5   6 -10 13.5212 11.2152   5
  -5  -6  10  1.1267 12.5284   2
  -5  -6  10 16.3318  6.9892   1
   4   6 -10 73.4738 13.2294   5
  -4  -6  10 53.9632  9.7456   1
  -4  -6  10 56.7986 13.7335   2
   3   6 -10 282.797  20.029   5
  -3  -6  10 257.889  17.513   1
  -3  -6  10 275.498  21.838   2
   2   6 -10 100.642  13.799   5
   2   6 -10 115.748  12.175   1
  -2  -6  10 115.018  12.530   1
   1   6 -10 125.250  14.022   1
   1   6 -10 98.4502 13.6587   5
  -1  -6  10 105.737  13.826   1
   0   6 -10 60.3939 11.8099   1
  -1   6 -10 256.556  17.134   5
  -1   6 -10 261.438  19.176   1
   1  -6  10 258.531  19.065   1
  -2   6 -10 30.7286 12.1880   1
  -2   6 -10 49.5590  8.4871   5
   2  -6  10 50.1346 12.7270   1
  -3   6 -10 426.212  26.525   1
   3  -6  10 492.575  27.855   1
  -4   6 -10 114.415  16.417   1
   4  -6  10 124.873  16.301   1
   6   5 -10 55.8686 12.6249   5
   5   5 -10 77.6701 11.9206   5
  -5  -5  10 82.8197  9.7262   1
  -5  -5  10 62.0029 14.0042   2
   4   5 -10 101.614  14.065   5
  -4  -5  10 104.058  15.274   2
  -4  -5  10 109.694  11.395   1
   3   5 -10 33.6806  7.0569   1
  -3  -5  10 22.1933  7.4313   1
  -3  -5  10 41.0164  9.9563   2
   2   5 -10 243.560  18.649   5
   2   5 -10 237.088  16.785   1
  -2  -5  10 246.934  17.556   1
   1   5 -10 43.2933 11.0274   5
   1   5 -10 56.8821 11.2833   1
  -1  -5  10 45.3575 10.9920   1
   0   5 -10 151.118  13.927   5
   0   5 -10 138.208  15.361   1
   0  -5  10 155.908  16.075   1
  -1   5 -10 195.599  14.512   5
  -1   5 -10 178.712  17.599   1
   1  -5  10 175.960  17.217   1
  -2   5 -10 19.0002  7.4584   5
  -2   5 -10 21.9250  9.0765   1
  -3   5 -10 325.579  21.582   1
   3  -5  10 341.000  22.184   1
  -4   5 -10 188.797  19.185   1
   4  -5  10 131.097  16.746   1
  -5   5 -10 209.463  18.828   1
   7   4 -10 31.1688 11.9791   5
   6   4 -10 54.8768 10.6417   5
  -6  -4  10 67.8734  8.5731   1
  -6  -4  10 66.4350 13.8202   2
   5   4 -10 5.56937 7.16334   5
  -5  -4  10 -20.180   9.150   2
   4   4 -10 51.7915 11.7336   5
  -4  -4  10 52.2361  8.6016   1
  -4  -4  10 43.6021 11.9436   2
   3   4 -10 198.425  13.851   1
   3   4 -10 184.595  16.073   5
  -3  -4  10 208.058  18.425   2
  -3  -4  10 196.420  14.656   1
   2   4 -10 605.936  24.713   1
   2   4 -10 587.725  25.615   5
  -2  -4  10 621.903  25.789   1
   1   4 -10 15.8688  8.7642   1
   1   4 -10 37.7753  9.9527   5
   0   4 -10 534.844  25.433   1
   0   4 -10 540.717  23.029   5
   0  -4  10 514.000  25.114   1
  -1   4 -10 223.554  18.571   1
  -1   4 -10 210.541  14.423   5
   1  -4  10 190.443  16.924   1
  -2   4 -10 485.915  19.816   5
  -2   4 -10 482.526  24.949   1
   2  -4  10 449.983  24.190   1
  -3   4 -10 199.736  18.590   1
   3  -4  10 228.949  18.836   1
  -4   4 -10 23.6660  9.5858   1
  -5   4 -10 75.7111 13.8709   1
   7   3 -10 138.212  16.642   5
  -7  -3  10 156.316  19.085   2
   6   3 -10 158.898  15.276   5
  -6  -3  10 177.750  12.964   1
  -6  -3  10 150.965  16.598   2
  -5  -3  10 14.4947  6.0283   1
  -5  -3  10 15.9958  8.5484   2
   4   3 -10 -7.2047  9.7216   5
  -4  -3  10 -0.2270  9.6410   2
  -4  -3  10 11.4659  8.2402   1
   3   3 -10 384.289  19.627   1
   3   3 -10 329.664  19.200   5
  -3  -3  10 357.335  19.652   1
  -3  -3  10 378.586  21.678   2
   2   3 -10 251.366  16.419   5
   2   3 -10 228.674  15.892   1
  -2  -3  10 278.096  17.801   1
   1   3 -10 157.658  13.924   5
   1   3 -10 174.610  14.909   1
  -1  -3  10 176.438  15.714   1
   0   3 -10 18.0465  7.6067   1
   0   3 -10 32.5001  8.4683   5
  -1   3 -10 779.090  30.390   1
  -1   3 -10 804.069  25.794   5
   1  -3  10 789.363  30.407   1
  -2   3 -10 289.741  14.802   5
  -2   3 -10 280.892  18.787   1
   2  -3  10 272.086  18.410   1
  -3   3 -10 52.7262 11.8003   1
   3  -3  10 31.3988 10.1001   1
  -4   3 -10 487.198  26.419   1
   4  -3  10 490.076  25.612   1
  -5   3 -10 176.616  17.270   1
   7   2 -10 36.4332 11.6558   5
  -7  -2  10 59.6668 12.9151   2
   6   2 -10 84.3058 13.7894   5
  -6  -2  10 92.1982 10.6903   1
  -6  -2  10 114.642  15.896   2
   5   2 -10 118.048  15.118   5
  -5  -2  10 109.563  11.658   1
  -5  -2  10 112.687  13.954   2
   4   2 -10 22.3172  7.7874   1
   4   2 -10 34.7602 10.2562   5
  -4  -2  10 28.2213  9.2273   1
  -4  -2  10 10.2099 10.4095   2
   3   2 -10 65.6376 12.0925   5
  -3  -2  10 51.8554 10.3197   1
  -3  -2  10 52.7150  9.5944   2
   2   2 -10 1362.03   36.87   1
   2   2 -10 1376.51   36.96   5
  -2  -2  10 1345.92   37.43   1
   1   2 -10 137.372  13.040   5
   1   2 -10 128.433  13.454   1
  -1  -2  10 121.555  13.456   1
   0   2 -10 1706.66   43.35   1
   0   2 -10 1670.02   38.22   5
   0  -2  10 1692.11   43.68   1
  -1   2 -10 14.3656  7.0481   5
   1  -2  10 6.70873 6.86399   1
  -2   2 -10 49.9039  7.3687   5
  -2   2 -10 50.9337 12.4014   1
   2  -2  10 63.4707 12.0953   1
  -3   2 -10 178.442  16.825   1
   3  -2  10 171.549  15.798   1
  -4   2 -10 1286.53   41.18   1
   4  -2  10 1250.42   40.12   1
  -5   2 -10 15.0600 10.3223   1
   7   1 -10 178.930  17.152   5
  -7  -1  10 157.048  12.596   1
  -7  -1  10 121.784  17.341   2
   6   1 -10 56.9569 12.7738   5
  -6  -1  10 68.3289 13.5443   2
   5   1 -10 24.5287  9.6782   5
  -5  -1  10 30.4111  9.2004   1
   4   1 -10 1.60092 9.54389   5
  -4  -1  10 -8.1628  7.0319   2
  -4  -1  10 -2.5520  5.7703   1
   3   1 -10 328.146  18.504   1
   3   1 -10 350.819  20.137   5
  -3  -1  10 308.567  18.923   1
  -3  -1  10 334.037  19.121   2
   2   1 -10 46.7794  9.5208   5
  -2  -1  10 55.1598 11.5640   1
   1   1 -10 88.5699 11.0125   5
   1   1 -10 97.8736 12.0745   1
  -1  -1  10 107.556  12.663   1
   0   1 -10 119.128  12.261   1
   0   1 -10 133.421  11.611   5
   0  -1  10 103.222  11.910   1
  -1   1 -10 635.946  21.746   5
  -1   1 -10 684.630  28.115   1
   1  -1  10 658.302  27.036   1
  -2   1 -10 1635.07   43.43   1
  -2   1 -10 1658.72   33.57   5
   2  -1  10 1653.52   43.59   1
  -3   1 -10 25.2257 10.6661   1
   3  -1  10 9.26337 8.64038   1
  -4   1 -10 343.230  20.693   1
   4  -1  10 356.242  20.730   1
  -5   1 -10 706.385  30.621   1
   7   0 -10 37.3859 12.0032   5
  -7   0  10 39.9168  8.5596   1
  -7   0  10 52.7532 12.9407   2
   6   0 -10 227.192  17.344   5
  -6   0  10 261.930  20.253   2
  -6   0  10 254.973  16.269   1
   5   0 -10 66.6023 12.5796   5
  -5   0  10 81.7373 12.7885   2
  -5   0  10 72.9123 11.5269   1
   4   0 -10 211.157  17.174   5
   4   0 -10 218.383  15.495   1
  -4   0  10 235.724  17.405   2
  -4   0  10 252.794  17.460   1
   3   0 -10 518.622  23.655   5
   3   0 -10 536.069  22.603   1
  -3   0  10 540.821  24.053   2
  -3   0  10 524.631  23.292   1
   2   0 -10 154.082  13.018   1
   2   0 -10 171.432  13.978   5
  -2   0  10 170.107  14.002   1
   1   0 -10 926.006  31.045   1
   1   0 -10 892.226  28.072   5
  -1   0  10 896.011  31.119   1
   0   0 -10 350.467  20.190   1
   0   0 -10 362.538  17.295   5
   0   0  10 372.952  20.764   1
  -1   0 -10 0.19489 9.45611   1
  -1   0 -10 -2.8080  5.2001   5
   1   0  10 -11.158   9.321   1
  -2   0 -10 1499.53   41.56   1
  -2   0 -10 1434.83   30.66   5
   2   0  10 1439.81   40.72   1
  -3   0 -10 376.245  22.068   1
   3   0  10 407.346  22.299   1
  -4   0 -10 88.9699 11.9062   1
  -5   0 -10 1.94082 8.44500   1
   7  -1 -10 267.875  20.580   5
  -7   1  10 240.829  20.022   2
  -7   1  10 266.874  17.637   1
   6  -1 -10 100.262  14.369   5
  -6   1  10 84.6417 11.7835   1
  -6   1  10 69.7026 12.9597   2
   5  -1 -10 30.3796 10.7123   5
   5  -1 -10 38.2993  8.9569   1
  -5   1  10 43.1431 10.6456   1
  -5   1  10 53.8986 10.9894   2
   4  -1 -10 -0.8968  7.5388   1
   4  -1 -10 -8.3210  8.5088   5
  -4   1  10 21.7811  9.2789   2
  -4   1  10 11.9760  8.8780   1
   3  -1 -10 540.305  24.073   5
   3  -1 -10 558.682  24.002   1
  -3   1  10 542.970  23.181   2
  -3   1  10 570.557  25.357   1
   2  -1 -10 255.464  17.240   1
   2  -1 -10 235.577  16.400   5
  -2   1  10 255.235  17.910   1
   1  -1 -10 11.6631  9.1307   1
   1  -1 -10 3.90153 5.52895   5
  -1   1  10 24.6388 10.2182   1
  -1   1  10 8.32043 5.27730   4
   0  -1 -10 1643.34   42.55   1
   0  -1 -10 1647.62   37.15   5
   0   1  10 1683.94   43.38   1
  -1  -1 -10 1872.81   46.52   1
  -1  -1 -10 1853.09   38.21   5
   1   1  10 1972.70   47.40   1
   2   1  10 -11.579   9.139   1
  -3  -1 -10 107.457  13.813   1
   3   1  10 117.413  13.870   1
  -5  -1 -10 9.38044 8.53099   1
   7  -2 -10 -13.426  10.776   5
  -7   2  10 -11.685   8.582   1
   6  -2 -10 135.446  14.404   5
  -6   2  10 149.315  14.878   1
  -6   2  10 131.811  14.593   2
   5  -2 -10 103.841  12.586   1
   5  -2 -10 119.946  13.298   5
  -5   2  10 134.224  14.542   1
  -5   2  10 98.5875 12.4409   2
   4  -2 -10 86.3412 12.5282   5
   4  -2 -10 107.339  12.178   1
  -4   2  10 83.7808 12.1762   1
  -4   2  10 93.1263 11.6046   2
   3  -2 -10 277.908  18.041   1
   3  -2 -10 282.075  18.284   5
  -3   2  10 287.287  16.827   2
  -3   2  10 299.740  18.841   1
   2  -2 -10 179.170  15.301   1
   2  -2 -10 169.963  13.692   5
  -2   2  10 174.406  16.091   1
   1  -2 -10 101.573  12.976   1
   1  -2 -10 87.5750 11.3426   5
  -1   2  10 125.354  10.516   4
  -1   2  10 106.546  13.676   1
   0  -2 -10 11.7797  9.5893   1
   0   2  10 -2.3901  8.8928   1
  -1  -2 -10 806.676  24.616   5
  -1  -2 -10 815.179  30.205   1
   1   2  10 795.766  30.173   1
  -2  -2 -10 265.053  17.475   1
   2   2  10 281.238  17.848   1
  -3  -2 -10 210.411  16.855   1
   3   2  10 221.254  16.668   1
  -4  -2 -10 613.124  26.972   1
  -5  -2 -10 498.002  24.455   1
   7  -3 -10 -8.1836  7.5506   5
  -7   3  10 -3.3682  8.1491   1
   6  -3 -10 156.294  17.335   5
  -6   3  10 207.957  16.005   2
  -6   3  10 194.001  16.915   1
   5  -3 -10 31.6659 11.1576   5
   5  -3 -10 6.31666 8.14980   1
  -5   3  10 -5.9830  7.0942   2
  -5   3  10 6.25084 9.12347   1
  -5   3  10 12.9076  7.8768   3
  -4   3  10 29.5568  7.7716   2
  -4   3  10 23.5746 10.9402   1
   3  -3 -10 -3.3493  8.6042   1
   3  -3 -10 5.10685 7.78856   5
  -3   3  10 -17.259   9.881   1
   2  -3 -10 296.870  18.566   5
   2  -3 -10 254.614  18.431   1
  -2   3  10 323.564  20.274   1
   1  -3 -10 473.132  23.582   1
   1  -3 -10 473.215  21.363   5
  -1   3  10 488.250  20.186   4
  -1   3  10 495.332  24.447   1
   0  -3 -10 186.954  15.985   1
   0  -3 -10 167.284  13.049   5
   0   3  10 148.433  13.280   4
   0   3  10 193.637  16.408   1
  -1  -3 -10 58.2472  8.5252   5
  -1  -3 -10 61.5937 11.6519   1
   1   3  10 51.8765 11.4025   4
   1   3  10 73.5375 11.9495   1
  -2  -3 -10 191.763  16.248   1
   2   3  10 218.530  16.868   1
   2   3  10 200.330  16.777   4
  -3  -3 -10 106.192  13.213   1
  -4  -3 -10 172.402  16.387   1
  -5  -3 -10 37.3793  9.8057   1
   7  -4 -10 13.2973 10.6155   5
  -7   4  10 10.4458 10.1288   1
   6  -4 -10 680.026  31.210   5
  -6   4  10 617.299  29.537   3
  -6   4  10 675.153  30.739   1
   5  -4 -10 418.539  23.332   1
   5  -4 -10 394.849  23.558   5
  -5   4  10 426.426  24.658   1
   4  -4 -10 40.4747  9.3270   5
  -4   4  10 41.8200 11.8124   1
   3  -4 -10 7.28630 8.26455   1
   3  -4 -10 7.54084 6.55279   5
  -3   4  10 6.86463 5.66808   2
   2  -4 -10 105.169  12.448   1
   2  -4 -10 122.574  13.584   5
  -2   4  10 93.3119  9.1530   2
  -2   4  10 108.197  12.849   1
   1  -4 -10 7.11857 8.09784   5
   1  -4 -10 -4.0483  8.7867   1
  -1   4  10 28.3465 10.4777   1
  -1   4  10 7.43951 6.76641   4
   0  -4 -10 8.46551 9.15483   1
   0   4  10 6.24880 8.51495   1
   0   4  10 -0.5790  7.9046   4
  -1  -4 -10 186.868  15.072   1
  -1  -4 -10 184.183  12.857   5
   1   4  10 182.167  16.050   4
   1   4  10 165.582  14.709   1
  -2  -4 -10 321.134  20.035   1
   2   4  10 328.021  21.378   4
   2   4  10 308.562  19.842   1
  -3  -4 -10 310.273  19.817   1
   3   4  10 250.247  21.885   4
  -4  -4 -10 523.897  24.755   1
   4   4  10 505.977  30.568   4
   6  -5 -10 47.9222 12.6307   5
  -6   5  10 36.1899 11.2360   3
   5  -5 -10 55.8563 10.6459   5
   5  -5 -10 33.8602 10.8318   1
   4  -5 -10 36.1317 10.3739   1
  -4   5  10 -5.5065  8.9475   1
   3  -5 -10 559.282  26.553   1
   3  -5 -10 599.060  26.396   5
  -3   5  10 597.154  28.458   1
   2  -5 -10 642.443  27.105   5
   2  -5 -10 613.284  28.421   1
  -2   5  10 674.182  30.098   1
   1  -5 -10 -1.9632  7.7021   5
   1  -5 -10 5.19328 7.38208   1
  -1   5  10 -10.246   7.662   1
  -1   5  10 -0.5292  7.0224   4
   0  -5 -10 42.8310 11.2464   1
   0  -5 -10 16.7106  7.5763   5
   0   5  10 37.0311 10.5737   1
  -1  -5 -10 141.681  13.785   1
  -1  -5 -10 127.729  11.523   5
   1   5  10 103.845  14.251   4
   1   5  10 105.811  12.410   1
  -2  -5 -10 -10.911   9.147   1
   2   5  10 -8.2231 10.7718   4
  -3  -5 -10 113.237  13.396   1
   3   5  10 120.051  17.221   4
  -4  -5 -10 11.6751  8.4900   1
   4   5  10 -10.213  13.402   4
  -6   6  10 67.7256 13.5101   1
   5  -6 -10 77.4611 13.8468   5
   5  -6 -10 47.8810 12.2490   1
  -5   6  10 72.6235 14.5970   1
   4  -6 -10 101.183  14.723   5
   4  -6 -10 117.749  13.896   1
  -4   6  10 76.6180 12.1413   1
  -3   6  10 38.2588 10.4478   1
   2  -6 -10 31.7374  9.3869   1
   2  -6 -10 44.5216 11.1164   5
  -2   6  10 28.7274  9.4581   1
   1  -6 -10 174.457  14.787   5
   1  -6 -10 165.511  16.818   1
  -1   6  10 163.116  17.048   1
  -1   6  10 134.515  13.649   4
   0  -6 -10 21.5591 10.4385   1
   0  -6 -10 35.5184  7.7440   5
   0   6  10 30.9780 11.0655   4
   0   6  10 26.2412 10.7136   1
  -1  -6 -10 14.8788  7.6661   1
   1   6  10 14.1981 10.6520   4
   1   6  10 29.2211  8.4151   1
  -2  -6 -10 80.0194 12.5999   1
   2   6  10 94.9484 15.8060   4
  -3  -6 -10 119.870  13.764   1
   3   6  10 144.161  16.928   4
   5  -7 -10 200.729  18.737   5
   5  -7 -10 212.029  20.146   1
  -5   7  10 206.050  20.288   1
   4  -7 -10 62.6065 11.3951   5
   4  -7 -10 74.9778 11.8387   1
  -4   7  10 62.1799 12.0072   1
   3  -7 -10 1011.73   37.39   5
   3  -7 -10 1004.35   38.85   1
  -3   7  10 1003.65   39.38   1
   2  -7 -10 387.392  23.389   5
   2  -7 -10 367.087  23.903   1
  -2   7  10 376.784  24.696   1
   1  -7 -10 -16.183  10.061   5
  -1   7  10 -3.2052  9.3005   1
   0  -7 -10 163.316  16.479   1
   0   7  10 154.784  16.257   1
   0   7  10 163.663  16.998   4
  -1  -7 -10 48.4922 10.1570   1
   1   7  10 43.2010 11.7664   4
   1   7  10 53.8515 10.4832   1
  -2  -7 -10 1.69948 7.44021   1
   2   7  10 6.67426 9.83253   4
  -3  -7 -10 36.2159 10.3059   1
   3   7  10  1.7874 12.3459   4
   4  -8 -10 238.751  21.287   5
   4  -8 -10 227.497  19.670   1
  -4   8  10 240.387  20.777   1
   3  -8 -10 12.1816 10.5804   1
   2  -8 -10 -2.4520  7.2789   5
   2  -8 -10 -15.179   8.449   1
   1  -8 -10 35.1448 11.3003   1
  -1   8  10 54.3652 12.4305   1
  -1   8  10 73.1639 13.5525   4
   0  -8 -10 23.6298  8.7357   1
   0   8  10 26.7827  8.9620   1
   0   8  10 38.3052 11.1411   4
  -1  -8 -10 63.8342 12.4868   1
   1   8  10 61.4043 14.0873   4
   2   8  10 15.4254 13.2216   4
   2  -9 -10 -4.0113 10.0049   1
  -2   9  10 -16.293  10.622   1
   1  -9 -10 84.7359 14.0665   1
  -1   9  10 90.1500 15.0462   1
  -1   9  10 124.383  15.651   4
   0  -9 -10 91.4389 14.5169   1
   0   9  10 106.550  14.868   4
   2   9 -11 141.048  17.784   5
  -2  -9  11 193.959  18.997   2
  -2  -9  11 164.401  17.481   1
   1   9 -11 44.0204 12.9213   5
  -1  -9  11 26.8312 11.6786   1
   0   9 -11 120.401  14.925   1
   0   9 -11 90.5838 13.9005   5
   0  -9  11 90.4130 13.7519   1
  -1   9 -11 59.4678 10.7854   5
  -1   9 -11 28.3247 12.2246   1
   1  -9  11 39.1208 12.5895   1
   4   8 -11 -1.1983 11.3212   5
  -4  -8  11 9.89089 8.99159   1
  -4  -8  11 -25.108  13.418   2
   3   8 -11 50.0364 11.3575   5
  -3  -8  11 23.8742 13.0430   2
  -3  -8  11 55.1561 10.8155   1
   2   8 -11 272.588  21.803   5
  -2  -8  11 249.079  20.343   1
  -2  -8  11 268.805  23.232   2
   1   8 -11 383.587  24.476   1
   1   8 -11 371.330  23.893   5
  -1  -8  11 372.591  24.606   1
   0   8 -11 129.464  15.703   5
   0   8 -11 168.540  17.226   1
   0  -8  11 159.575  17.359   1
  -1   8 -11 434.202  26.319   1
  -1   8 -11 419.241  23.217   5
   1  -8  11 448.021  26.993   1
  -2   8 -11 36.9558 13.1594   1
   2  -8  11 28.6280 12.3841   1
   5   7 -11 69.9363 14.8492   5
  -5  -7  11 55.0023 15.6388   2
   4   7 -11 590.928  30.307   5
  -4  -7  11 588.340  26.318   1
  -4  -7  11 571.042  31.313   2
   3   7 -11 6.82099 9.79976   5
  -3  -7  11 21.6446 10.2044   1
   2   7 -11 17.2358  8.4882   5
  -2  -7  11 -9.1640  9.8656   1
   1   7 -11 48.3566  9.9378   5
   1   7 -11 60.5060 12.2980   1
  -1  -7  11 88.4242 14.4748   1
   0   7 -11 55.6883 11.0410   1
   0   7 -11 54.8391 12.1458   5
   0  -7  11 68.5474 11.8349   1
  -1   7 -11 96.9191 13.4943   1
  -1   7 -11 75.0217 12.1808   5
   1  -7  11 99.9864 14.0993   1
  -2   7 -11 29.5708 12.3818   1
   2  -7  11 -26.064  12.361   1
  -3   7 -11 62.3689 15.0685   1
   3  -7  11 44.0301 14.3795   1
   5   6 -11 67.6987 14.0929   5
  -5  -6  11 74.7885 10.3632   1
  -5  -6  11 53.1587 12.1488   2
   4   6 -11 4.04685 7.68011   5
  -4  -6  11 12.1819 11.3201   2
   3   6 -11 25.7487 11.5549   5
  -3  -6  11 11.4229  9.3766   1
  -3  -6  11 18.4853 12.4648   2
   2   6 -11 66.8051 13.0428   5
   2   6 -11 68.4434 10.7139   1
  -2  -6  11 80.0940 12.1780   1
   1   6 -11 24.9843 10.6898   5
   1   6 -11 21.2301  9.9425   1
  -1  -6  11 11.2145 10.2090   1
   0   6 -11 655.395  30.385   1
   0   6 -11 667.168  28.430   5
   0  -6  11 648.647  30.623   1
  -1   6 -11 109.161  16.007   1
  -1   6 -11 109.386  12.997   5
   1  -6  11 99.7982 15.6394   1
  -2   6 -11 229.203  20.763   1
   2  -6  11 228.246  20.807   1
  -3   6 -11 10.9118 11.6491   1
   4  -6  11 8.91928 8.37646   1
   6   5 -11 163.770  18.098   5
  -6  -5  11 154.626  19.621   2
   5   5 -11 37.0479 11.8645   5
   4   5 -11 183.383  18.222   5
  -4  -5  11 200.832  20.238   2
  -4  -5  11 170.632  14.386   1
  -3  -5  11 13.2907  9.3020   1
  -3  -5  11 22.5392 11.1421   2
   2   5 -11 162.573  15.471   1
   2   5 -11 159.559  15.998   5
  -2  -5  11 161.554  16.078   1
   1   5 -11 57.1340 11.7394   5
  -1  -5  11 70.4947 12.8704   1
   0   5 -11 30.7972 10.9493   1
   0   5 -11 53.0899 10.7684   5
   0  -5  11 59.5117 12.8935   1
  -1   5 -11 23.4149 12.1310   1
   1  -5  11  7.2941 10.6899   1
  -2   5 -11 27.6484 11.8034   1
   2  -5  11 43.2193 12.5650   1
  -3   5 -11 54.6438 11.8775   1
   3  -5  11 77.5033 12.8411   1
  -4   5 -11 61.5911 14.8720   1
   4  -5  11 65.6181 14.1992   1
  -6  -4  11 24.8274 11.9175   2
   5   4 -11 10.6532  9.8170   5
  -5  -4  11 10.8704  7.9472   1
  -5  -4  11 17.1469 11.9733   2
   4   4 -11 -2.7521 10.5957   5
  -4  -4  11 -9.6746  8.1390   1
  -4  -4  11 11.7020 11.2184   2
   3   4 -11 -7.4352  8.4051   1
   3   4 -11 10.0041 10.3529   5
  -3  -4  11 10.8135 10.4348   2
  -3  -4  11 4.08966 8.72777   1
   2   4 -11 9.92071 8.74123   1
  -2  -4  11 -4.0203  9.4975   1
   1   4 -11 42.8454 11.0737   1
   1   4 -11 31.4009 10.0595   5
   0   4 -11 58.9435 10.5699   5
   0   4 -11 56.8472 12.5860   1
   0  -4  11 48.1517 12.5384   1
  -1   4 -11 75.2849 10.6033   5
  -1   4 -11 76.8749 14.0325   1
   1  -4  11 65.1739 13.7733   1
  -2   4 -11 28.1070  9.6642   1
   2  -4  11 34.5469  9.8490   1
  -3   4 -11 -23.557  11.577   1
  -4   4 -11 83.3292 14.0619   1
   4  -4  11 98.3565 14.0227   1
   6   3 -11 35.2231 10.0060   5
  -6  -3  11 44.4691  8.8786   1
   5   3 -11 350.562  22.752   5
  -5  -3  11 321.766  18.856   1
  -5  -3  11 292.501  22.432   2
   4   3 -11 126.234  15.377   5
  -4  -3  11 116.056  13.161   1
   3   3 -11 79.7507 11.5299   1
   3   3 -11 85.6592 13.2711   5
  -3  -3  11 78.4308 12.6884   1
  -3  -3  11 86.2566 13.2324   2
   2   3 -11 37.2767 10.5836   1
   2   3 -11 37.4723 10.9946   5
   1   3 -11 117.291  13.858   5
   1   3 -11 111.425  13.864   1
  -1  -3  11 136.060  15.292   1
   0   3 -11 10.3321  8.1321   5
   0  -3  11  5.4604 10.1900   1
  -1   3 -11 27.1048  7.7992   5
  -2   3 -11 90.0589 12.7589   1
   2  -3  11 104.589  13.701   1
  -3   3 -11  6.8243 10.9723   1
   3  -3  11 1.09867 9.54894   1
  -4   3 -11 -8.1373  7.9921   1
   4  -3  11 7.38333 7.62932   1
   7   2 -11 -19.322   9.142   5
  -6  -2  11 18.7282  7.7065   1
   5   2 -11 150.274  17.102   5
  -5  -2  11 164.453  13.757   1
  -5  -2  11 177.268  17.979   2
   4   2 -11 4.12336 7.38761   5
   4   2 -11 4.07389 5.59017   1
  -4  -2  11 -4.9625  9.8644   2
   3   2 -11 25.6008  8.1675   5
   3   2 -11 3.19422 7.90777   1
  -3  -2  11 2.00068 9.46233   1
   2   2 -11 127.186  14.309   5
   2   2 -11 150.920  14.835   1
  -2  -2  11 129.322  15.006   1
   1   2 -11 7.81973 7.72622   5
  -1  -2  11 -23.844  10.848   1
   0   2 -11 495.433  24.792   1
   0   2 -11 557.373  22.833   5
   0  -2  11 502.880  24.955   1
  -1   2 -11 61.0277  9.3313   5
  -1   2 -11 71.4960 12.7987   1
   1  -2  11 36.7499 11.2601   1
  -2   2 -11 0.29611 6.75507   1
   2  -2  11 21.3127  8.5093   1
  -3   2 -11 471.457  25.438   1
   3  -2  11 458.847  24.813   1
  -4   2 -11 282.802  21.639   1
   4  -2  11 260.143  20.369   1
  -5   2 -11 117.116  14.359   1
  -7  -1  11 3.74188 9.26873   2
  -6  -1  11 22.8255  9.2849   2
  -6  -1  11 27.6877  9.3772   1
   5   1 -11 72.3632 13.7039   5
  -5  -1  11 96.2184 14.2284   2
  -5  -1  11 72.8653 10.3702   1
   4   1 -11  5.8534 10.7611   5
  -4  -1  11 -8.8128  9.9265   2
  -4  -1  11 -5.8008  8.3984   1
   3   1 -11 162.237  15.637   5
   3   1 -11 172.453  14.883   1
  -3  -1  11 140.489  15.000   2
  -3  -1  11 174.807  15.774   1
   2   1 -11 1130.18   34.87   5
   2   1 -11 1068.80   34.45   1
  -2  -1  11 1081.94   35.38   1
   1   1 -11 369.917  19.691   5
   1   1 -11 337.807  19.853   1
  -1  -1  11 375.975  21.082   1
   0   1 -11 97.2020 13.8749   1
   0   1 -11 101.653  11.207   5
   0  -1  11 80.8126 13.3789   1
  -1   1 -11 -7.3633  9.3279   1
  -1   1 -11 -9.2856  6.4054   5
   1  -1  11 8.93043 9.24521   1
  -2   1 -11 -9.7094 10.5228   1
   2  -1  11 9.65749 9.89314   1
  -3   1 -11 -3.3261 10.6212   1
   3  -1  11 16.1902 10.8873   1
  -4   1 -11 387.095  24.519   1
  -5   1 -11 146.187  17.178   1
   7   0 -11 98.0856 14.5558   5
  -7   0  11 74.7940 10.5692   1
  -7   0  11 52.2640 13.3027   2
   6   0 -11 39.2394 12.4186   5
  -6   0  11 47.9903 12.6572   2
   5   0 -11 22.3241  9.8147   5
  -5   0  11 40.2275 11.3520   2
  -5   0  11 18.9771  7.3592   1
   4   0 -11 244.397  17.434   1
   4   0 -11 228.480  17.573   5
  -4   0  11 231.903  17.113   2
  -4   0  11 255.779  18.696   1
   3   0 -11 28.4681 10.6339   5
   3   0 -11 12.0554  8.7226   1
  -3   0  11 32.1578 10.6123   1
  -3   0  11 28.8937  9.3958   2
   2   0 -11 14.0850  8.9016   5
   2   0 -11 31.6674 10.3974   1
  -2   0  11 26.0835 10.5053   1
   1   0 -11 131.175  13.161   5
   1   0 -11 107.944  13.703   1
  -1   0  11 100.105  13.750   1
   0   0 -11 22.1242  8.0650   1
   0   0  11 -1.2418  7.5677   1
  -1   0 -11 53.9674 11.8987   1
  -1   0 -11 39.2427  7.6052   5
   1   0  11 36.1573 11.1197   1
   2   0  11 22.9271  9.9937   1
  -3   0 -11 954.506  34.816   1
   3   0  11 1011.14   35.39   1
  -4   0 -11 47.6712 12.2032   1
  -5   0 -11 663.348  30.660   1
   7  -1 -11 -15.863  11.407   5
  -7   1  11 14.9228  9.1332   2
  -7   1  11 0.98835 7.91566   1
  -6   1  11 3.46624 7.45327   1
  -6   1  11 -2.4004  8.5574   2
   5  -1 -11 -1.3095 10.1988   5
  -5   1  11 -16.391   7.624   1
  -5   1  11 -19.237   9.691   2
   4  -1 -11 96.7324 13.6352   5
   4  -1 -11 106.617  13.273   1
  -4   1  11 111.225  12.959   2
  -4   1  11 104.322  14.212   1
   3  -1 -11 72.2669 11.7986   1
  -3   1  11 70.2130 12.7625   1
  -3   1  11 68.2214 10.7327   2
   2  -1 -11 456.031  22.394   5
   2  -1 -11 422.567  22.702   1
  -2   1  11 415.643  22.922   1
   1  -1 -11 112.299  13.288   1
   1  -1 -11 127.268  12.342   5
  -1   1  11 141.829  14.691   1
   0  -1 -11 91.5185 13.5227   1
   0  -1 -11 84.5982 10.3322   5
   0   1  11 86.5286 13.5854   1
  -1  -1 -11 -12.088  10.079   1
   1   1  11 -4.1954  9.2746   1
  -2  -1 -11 -1.4320  7.0240   1
   2   1  11 -8.3987  7.2114   1
  -3  -1 -11 12.0232  9.7877   1
   3   1  11 19.5431  9.7448   1
  -4  -1 -11 52.9620 11.7999   1
   7  -2 -11 -8.5046 10.7896   5
  -7   2  11 6.65900 9.10185   2
  -7   2  11 10.1262  9.0227   1
   6  -2 -11 57.8007 13.5256   5
  -6   2  11 42.4580 10.8279   1
  -6   2  11 52.7879 11.6476   2
   5  -2 -11 155.805  16.659   5
   5  -2 -11 139.458  13.552   1
  -5   2  11 153.597  13.876   2
  -5   2  11 141.936  14.345   1
   4  -2 -11 2.51570 8.16963   1
  -4   2  11 2.18794 9.81518   1
  -4   2  11 8.86341 7.19924   2
   3  -2 -11 2.65901 9.59537   5
   3  -2 -11 -5.3628  6.4489   1
  -3   2  11 -0.8808  5.5635   2
  -3   2  11 5.13595 7.08607   1
   2  -2 -11 380.963  21.161   5
   2  -2 -11 373.590  21.847   1
  -2   2  11 350.995  22.106   1
   1  -2 -11 343.959  21.653   1
   1  -2 -11 326.269  19.034   5
  -1   2  11 354.227  21.915   1
   0  -2 -11 32.2047 11.1380   1
   0  -2 -11 45.5408  8.9753   5
   0   2  11 58.0821 12.4882   1
  -1  -2 -11 209.891  17.826   1
  -1  -2 -11 168.318  12.514   5
   1   2  11 160.011  16.197   1
  -2  -2 -11 215.044  17.943   1
   2   2  11 238.862  18.527   1
  -3  -2 -11 106.177  13.778   1
  -4  -2 -11 53.4054 11.2852   1
   6  -3 -11  3.5442 10.4776   5
  -6   3  11 11.1091 10.5412   1
   5  -3 -11 28.1006  8.0262   1
  -5   3  11 19.4828  8.2574   1
   4  -3 -11 1120.49   37.51   1
   4  -3 -11 1104.81   38.04   5
  -4   3  11 1101.26   33.49   2
  -4   3  11 1109.44   38.52   1
   3  -3 -11 64.0514 12.4640   1
   3  -3 -11 82.9041 13.0459   5
  -3   3  11 83.0267 14.1269   1
  -3   3  11 88.0648 10.4770   2
   2  -3 -11 1215.48   37.16   5
   2  -3 -11 1256.19   40.03   1
  -2   3  11 1227.03   40.27   1
   1  -3 -11 590.800  24.945   5
   1  -3 -11 604.722  27.867   1
  -1   3  11 615.278  28.457   1
   0  -3 -11 -0.4965  8.3418   1
   0  -3 -11 5.74376 7.27744   5
   0   3  11 22.0289  9.0829   4
  -1  -3 -11 12.8608 10.4529   1
   1   3  11 10.9855  9.1877   4
   1   3  11 16.2719  9.8487   1
  -2  -3 -11 15.2866 10.3606   1
   2   3  11 19.2997 10.2830   4
  -3  -3 -11 -14.952  10.276   1
  -4  -3 -11 38.7041 11.1648   1
   6  -4 -11 68.1043 13.7474   5
  -6   4  11 80.2039 12.2670   1
   5  -4 -11 130.425  16.698   5
   5  -4 -11 119.180  13.794   1
  -5   4  11 106.961  13.795   1
   4  -4 -11 170.197  16.650   1
   4  -4 -11 177.293  16.224   5
  -4   4  11 119.178  15.806   1
   3  -4 -11 813.962  33.058   1
   3  -4 -11 790.521  31.383   5
  -3   4  11 784.205  33.762   1
   2  -4 -11 235.707  18.105   5
   2  -4 -11 240.339  19.223   1
  -2   4  11 280.905  21.041   1
   1  -4 -11 145.788  14.333   5
   1  -4 -11 142.320  15.701   1
  -1   4  11 126.701  15.376   1
   0  -4 -11 13.3027  7.9193   5
   0  -4 -11 -1.7033  6.9942   1
   0   4  11 -1.6735  6.7435   1
  -1  -4 -11 17.6014  9.9794   1
   1   4  11 -1.7345  8.1510   1
   1   4  11 5.53695 9.45423   4
  -2  -4 -11 71.0825 12.8448   1
   2   4  11 77.2661 12.8778   1
  -3  -4 -11 2.10855 8.38112   1
   3   4  11  6.8237 11.8001   4
  -4  -4 -11 35.9163 10.6228   1
   4   4  11 46.2492 12.9961   4
   5  -5 -11 960.670  37.015   5
   5  -5 -11 988.074  38.240   1
  -5   5  11 930.483  38.269   1
   4  -5 -11 551.816  28.032   5
   4  -5 -11 529.672  27.972   1
  -4   5  11 508.021  28.267   1
   3  -5 -11 429.179  24.693   1
   3  -5 -11 468.017  24.263   5
  -3   5  11 419.063  25.051   1
   2  -5 -11 226.031  17.940   5
   2  -5 -11 205.371  18.774   1
  -2   5  11 191.661  18.844   1
   1  -5 -11 37.1086  8.9130   5
  -1   5  11 24.9012 11.2990   1
   0  -5 -11 160.418  16.836   1
   0  -5 -11 119.720  12.421   5
   0   5  11 100.847  14.976   1
   0   5  11 128.493  13.240   4
  -1  -5 -11 -0.4744  6.6104   1
   1   5  11 4.06648 6.75977   1
  -2  -5 -11 -21.498   9.686   1
   2   5  11 10.4842 11.3184   4
  -3  -5 -11 7.64585 6.89036   1
   3   5  11 3.08841 8.31110   4
   5  -6 -11 93.2562 15.3486   5
   5  -6 -11 89.6769 14.6315   1
  -5   6  11 89.0701 15.5829   1
   4  -6 -11 38.8296 12.0565   1
   3  -6 -11 13.8571 10.9177   5
   3  -6 -11 12.1682 10.6499   1
  -3   6  11 32.0194 12.6720   1
   2  -6 -11 588.403  27.845   5
   2  -6 -11 592.180  29.127   1
  -2   6  11 609.794  30.622   1
   1  -6 -11 894.003  32.594   5
   1  -6 -11 937.154  37.140   1
  -1   6  11 902.835  36.812   1
   0  -6 -11 17.9639  7.5050   5
  -1  -6 -11 159.290  16.517   1
   1   6  11 123.460  16.398   4
   1   6  11 154.592  16.666   1
  -2  -6 -11 0.62116 9.13178   1
   2   6  11 32.3155 12.8454   4
   4  -7 -11 45.8171 11.2691   5
   4  -7 -11 73.5993 14.4717   1
   3  -7 -11 193.054  19.753   1
   3  -7 -11 248.897  21.094   5
  -3   7  11 207.739  20.757   1
   2  -7 -11 83.3325 13.9269   1
   2  -7 -11 93.1720 14.6232   5
  -2   7  11 67.9700 12.6117   1
   1  -7 -11 224.862  19.157   1
   1  -7 -11 244.530  19.440   5
  -1   7  11 249.846  20.113   1
   0  -7 -11 187.535  17.378   1
   0   7  11 165.602  16.963   1
   0   7  11 196.074  18.296   4
  -1  -7 -11 -20.124  10.269   1
   1   7  11 -7.9142 10.7520   4
   2  -8 -11 1221.14   42.33   5
   2  -8 -11 1268.02   46.48   1
  -2   8  11 1253.47   46.70   1
   1  -8 -11 68.9242 14.0792   1
  -1   8  11 108.876  16.477   1
   0  -8 -11 180.683  18.711   1
   0   8  11 141.053  16.856   1
   0   8  11 146.504  16.759   4
   2   8 -12 67.9451 14.6926   5
  -2  -8  12 55.1823 12.7858   1
  -2  -8  12 38.4476 14.3744   2
   1   8 -12 7.81826 9.98603   1
   1   8 -12 16.9998  8.3332   5
   0   8 -12 2.79329 7.30284   1
   0   8 -12 2.16990 9.89462   5
   0  -8  12 6.85991 8.53254   1
  -4  -7  12 464.368  24.853   1
   3   7 -12 186.781  17.809   5
  -3  -7  12 173.519  16.658   1
  -3  -7  12 174.808  19.448   2
   2   7 -12 118.286  14.908   5
  -2  -7  12 135.908  16.901   1
   1   7 -12 25.0462 11.0234   1
   1   7 -12 33.8510 12.2299   5
   0   7 -12 68.2015 11.8201   5
   0  -7  12 39.9087 10.3981   1
  -1   7 -12 22.1143  8.8596   5
  -1   7 -12 20.9558  9.3834   1
   1  -7  12 8.49996 8.84917   1
  -2   7 -12 -9.0571 11.3893   1
   2  -7  12  3.1428 11.3704   1
   4   6 -12 -7.9246 11.9472   5
  -4  -6  12 -11.515   9.167   2
  -4  -6  12 3.49842 8.93428   1
   3   6 -12 -1.2422 10.6308   5
  -3  -6  12 3.23099 9.62462   1
  -3  -6  12 17.2815 12.5566   2
   2   6 -12 39.5189 11.5797   5
   1   6 -12 27.0053 10.2092   5
   1   6 -12 -3.4235  9.4847   1
  -1  -6  12  0.0776 10.2611   1
   0   6 -12 -3.6155  9.8016   1
   0   6 -12 -16.883   9.805   5
   0  -6  12 -6.9166 11.2718   1
  -1   6 -12 32.0331 13.0110   1
  -1   6 -12 28.7678  9.1722   5
   1  -6  12 23.7633 12.5470   1
  -2   6 -12 163.416  19.109   1
   2  -6  12 172.393  19.287   1
   5   5 -12 677.265  32.519   5
  -5  -5  12 678.453  35.050   2
  -5  -5  12 666.252  28.170   1
   4   5 -12 322.359  23.009   5
  -4  -5  12 327.885  20.529   1
  -4  -5  12 342.401  25.528   2
   3   5 -12 12.1352  8.4264   5
  -3  -5  12 -8.6119 11.5508   2
  -3  -5  12 -13.470  10.150   1
   2   5 -12 6.89903 8.89059   5
   2   5 -12 -0.9182  8.0459   1
  -2  -5  12 25.3917 10.9698   1
   1   5 -12 86.6014 13.6946   1
   1   5 -12 82.2850 13.1743   5
  -1  -5  12 97.8193 14.8302   1
   0   5 -12 216.936  19.535   1
   0   5 -12 202.263  17.193   5
   0  -5  12 209.999  19.897   1
  -1   5 -12 54.8237  8.8856   5
  -1   5 -12 86.8875 14.9650   1
   1  -5  12 64.2920 14.4746   1
  -2   5 -12 41.1968 13.4320   1
  -3   5 -12 291.430  23.060   1
   3  -5  12 326.941  23.933   1
   5   4 -12 -6.6460 11.2039   5
  -5  -4  12 1.18544 8.06664   1
  -5  -4  12 13.5388  8.9618   2
   4   4 -12 89.8123 13.0371   5
  -4  -4  12 105.609  14.150   1
  -4  -4  12 112.484  15.216   2
   3   4 -12 219.638  17.225   1
   3   4 -12 224.373  18.093   5
  -3  -4  12 223.703  18.930   1
  -3  -4  12 206.199  20.139   2
   2   4 -12 -0.9809  8.5604   5
   2   4 -12 16.9851  8.9782   1
  -2  -4  12 36.5606 10.6034   1
   1   4 -12 251.196  19.122   1
   1   4 -12 231.768  18.147   5
  -1  -4  12 220.774  19.054   1
   0   4 -12 -4.6179 10.3435   1
   0  -4  12  1.8443 11.1812   1
  -1   4 -12 314.764  23.087   1
  -1   4 -12 347.267  19.439   5
   1  -4  12 340.715  23.650   1
  -2   4 -12  6.6976 11.0319   1
   2  -4  12  8.2957 10.3805   1
  -3   4 -12 -2.2962 10.8807   1
   3  -4  12 32.5525 12.2578   1
   6   3 -12 312.727  22.551   5
  -6  -3  12 302.742  18.715   1
  -6  -3  12 272.620  23.518   2
   5   3 -12 21.3192 11.6968   5
  -5  -3  12 -1.0884  9.5125   2
   4   3 -12 8.71525 7.61305   5
  -4  -3  12 8.26902 7.98329   2
  -4  -3  12 4.90886 9.81677   1
   3   3 -12 264.749  18.952   1
   3   3 -12 262.856  19.106   5
  -3  -3  12 295.528  21.974   2
  -3  -3  12 281.824  20.826   1
   2   3 -12 56.1477 12.2934   5
  -2  -3  12 62.5115 12.5115   1
   1   3 -12 1140.64   36.13   5
   1   3 -12 1162.29   38.80   1
  -1  -3  12 1130.88   39.61   1
   0   3 -12 12.3960  7.9825   5
   0   3 -12  3.3315 10.0179   1
  -1   3 -12 194.235  18.923   1
  -1   3 -12 195.717  14.671   5
   1  -3  12 188.860  18.443   1
   2  -3  12 74.9137 15.1709   1
  -3   3 -12 13.9366 11.6616   1
   6   2 -12 262.173  21.382   5
  -6  -2  12 305.119  19.777   1
  -6  -2  12 288.564  22.414   2
   5   2 -12 73.2965 14.2485   5
  -5  -2  12 107.823  13.645   1
  -5  -2  12 111.207  14.351   2
   4   2 -12 58.4062 12.6863   5
  -4  -2  12 90.6784 13.8563   1
  -4  -2  12 75.0913 12.2515   2
   3   2 -12 161.696  16.825   5
   3   2 -12 168.050  15.959   1
  -3  -2  12 153.692  16.842   1
  -3  -2  12 187.018  18.032   2
   2   2 -12 238.551  18.655   1
   2   2 -12 229.078  17.598   5
  -2  -2  12 247.978  19.218   1
   1   2 -12 -5.5337  8.9779   1
   1   2 -12 -4.6541  8.1400   5
  -1  -2  12 7.07081 9.86127   1
   0   2 -12 -20.721  10.846   1
   0   2 -12 8.58859 7.88922   5
  -1   2 -12 -2.7587 10.3612   1
   1  -2  12 13.4057 11.1371   1
  -2   2 -12 283.735  21.992   1
   2  -2  12 316.634  22.586   1
  -3   2 -12 74.2292 14.7061   1
   3  -2  12 63.8303 12.9796   1
  -4   2 -12 99.7665 14.1816   1
   6   1 -12 90.1009 13.5482   5
  -6  -1  12 99.1790 16.1550   2
  -6  -1  12 96.7053 13.2711   1
   5   1 -12 100.710  15.476   5
  -5  -1  12 111.687  13.006   1
  -5  -1  12 129.533  16.470   2
   4   1 -12 326.950  22.331   5
   4   1 -12 261.459  18.564   1
  -4  -1  12 290.973  20.983   1
  -4  -1  12 298.923  21.623   2
   3   1 -12 4.98225 8.93600   5
   3   1 -12 2.35681 9.57790   1
  -3  -1  12 38.8133 12.0764   1
  -3  -1  12 20.4318  9.3067   2
   2   1 -12 523.961  25.319   5
   2   1 -12 540.543  25.497   1
  -2  -1  12 521.764  25.924   1
   1   1 -12 76.7889 11.7441   1
   1   1 -12 68.1958 11.7436   5
  -1  -1  12 72.3427 11.4397   1
   0   1 -12 32.6923  8.8382   5
   0  -1  12  7.4610 10.2999   1
  -1   1 -12 202.408  18.522   1
  -1   1 -12 182.962  13.301   5
   1  -1  12 164.047  17.523   1
   2  -1  12 33.9279  9.7062   1
  -3   1 -12 247.669  19.809   1
   3  -1  12 211.584  18.551   1
  -4   1 -12 32.8213 12.3587   1
   6   0 -12 1023.06   38.82   5
  -6   0  12 1007.64   39.91   2
  -6   0  12 1047.46   37.00   1
   5   0 -12 58.6504 11.8233   5
  -5   0  12 60.1649 12.1529   2
  -5   0  12 49.5029 11.1788   1
   4   0 -12 272.330  18.982   1
   4   0 -12 276.057  19.301   5
  -4   0  12 233.595  19.328   2
  -4   0  12 240.353  19.570   1
   3   0 -12 7.72906 9.25729   1
  -3   0  12 7.30426 9.34374   2
  -3   0  12 19.8651 11.3562   1
   2   0 -12 22.3782 10.2153   5
   2   0 -12 45.0864 11.5629   1
   1   0 -12 76.8020 13.6433   1
   1   0 -12 58.8403 10.6397   5
  -1   0  12 42.6259 12.6952   1
   0   0 -12 1.45955 7.04141   1
   0   0 -12 15.2296  8.0434   5
   0   0  12 10.8808  7.8866   1
  -1   0 -12 267.968  19.741   1
  -1   0 -12 293.380  16.667   5
   1   0  12 261.109  19.241   1
  -2   0 -12 35.9609 12.2269   1
   2   0  12 60.2176 12.7935   1
  -3   0 -12 272.023  21.455   1
   3   0  12 230.220  19.835   1
  -4   0 -12 17.7704 11.6321   1
   6  -1 -12 70.9086 15.3103   5
  -6   1  12 73.5938 12.4881   1
  -6   1  12 94.0495 14.3235   2
  -5   1  12 58.7122 11.1319   2
   4  -1 -12 10.2694  8.9193   1
   4  -1 -12 -12.616  10.828   5
  -4   1  12 0.41840 8.57091   2
   3  -1 -12 50.6720 11.5898   5
   3  -1 -12 66.1836 10.6306   1
  -3   1  12 53.4056 10.6230   2
  -3   1  12 44.1829 10.4043   1
   2  -1 -12 168.222  15.948   5
   2  -1 -12 169.019  17.259   1
  -2   1  12 215.573  18.874   1
   1  -1 -12 183.528  14.978   5
   1  -1 -12 205.917  17.873   1
  -1   1  12 154.942  16.800   1
   0  -1 -12 36.7088 12.4218   1
   0  -1 -12 46.1291  9.7048   5
   1   1  12 29.6721 12.1519   1
  -2  -1 -12 -1.8637  6.7036   1
   2   1  12 16.0192  7.8844   1
  -3  -1 -12 24.7515  9.3058   1
  -4  -1 -12 11.9713 10.4498   1
  -6   2  12 27.0859  8.9763   1
  -5   2  12 33.7908 12.2260   1
  -5   2  12 27.8046  9.4293   2
   4  -2 -12 -10.071  10.350   5
   4  -2 -12 9.79986 9.33024   1
  -4   2  12 10.5306  7.9975   2
  -4   2  12 -6.1551 10.7339   1
   3  -2 -12 235.748  17.687   5
   3  -2 -12 245.019  19.523   1
  -3   2  12 229.489  16.696   2
  -3   2  12 249.898  20.086   1
   2  -2 -12 -5.9119  7.4372   1
   2  -2 -12 9.63007 9.22058   5
  -2   2  12 -3.7605  7.8210   1
   1  -2 -12 170.537  14.212   5
   1  -2 -12 180.302  17.561   1
  -1   2  12 159.986  17.457   1
   0  -2 -12 311.068  20.648   1
   0  -2 -12 294.610  17.796   5
   0   2  12 335.184  21.365   1
   0   2  12 306.266  18.656   4
  -1  -2 -12 183.570  17.255   1
   1   2  12 160.348  15.844   4
   1   2  12 168.506  16.845   1
   2   2  12 50.5284 12.6307   1
  -3  -2 -12 40.8807 12.2667   1
   5  -3 -12 62.0220 12.8042   5
  -5   3  12 55.7915 13.9031   1
  -4   3  12 -13.613  11.578   1
   3  -3 -12 99.8807 14.6661   1
   3  -3 -12 122.199  15.475   5
  -3   3  12 92.4065 15.1167   1
  -3   3  12 98.9892 12.0325   2
   2  -3 -12 -10.588  10.080   1
   2  -3 -12 5.56940 8.69024   5
   1  -3 -12 303.070  19.331   5
   1  -3 -12 327.150  22.425   1
  -1   3  12 301.264  22.261   1
   0  -3 -12 39.6751 11.9954   1
   0  -3 -12 43.6450  9.1553   5
  -1  -3 -12 165.832  16.933   1
   1   3  12 163.663  17.200   1
   1   3  12 197.101  17.566   4
   2   3  12 61.2318 13.6709   4
   2   3  12 32.0540 11.5755   1
  -3  -3 -12 10.8317 10.5459   1
   5  -4 -12 11.6511 10.8416   5
   5  -4 -12 -15.912  10.588   1
  -5   4  12 -2.5762 11.1004   1
   4  -4 -12 66.0571 11.7708   1
   4  -4 -12 69.8193 14.1910   5
  -4   4  12 49.4462 11.3971   1
   3  -4 -12 48.3735 11.8993   5
   3  -4 -12 61.2413 13.5927   1
  -3   4  12 36.0423 13.0366   1
   2  -4 -12 143.299  16.657   1
   2  -4 -12 144.243  14.227   5
  -2   4  12 140.860  17.447   1
   1  -4 -12 680.008  31.553   1
   1  -4 -12 675.769  28.177   5
  -1   4  12 627.790  31.111   1
   0  -4 -12 206.119  19.253   1
   0  -4 -12 215.876  15.627   5
   0   4  12 228.603  19.938   1
  -1  -4 -12 149.834  17.156   1
   1   4  12 104.756  14.376   4
   1   4  12 131.743  16.034   1
  -2  -4 -12 -2.0623  9.4230   1
   2   4  12 25.1978 12.0217   4
   4  -5 -12 27.7597  9.1479   5
  -4   5  12 10.6029  8.9613   1
   3  -5 -12 280.325  20.950   1
   3  -5 -12 238.975  19.649   5
  -3   5  12 271.270  21.203   1
   2  -5 -12 110.185  13.644   5
   2  -5 -12 111.573  15.844   1
  -2   5  12 94.1353 15.7690   1
   1  -5 -12 34.0893 11.7181   1
   1  -5 -12 60.7499 11.3728   5
   0  -5 -12 6.97795 9.95044   1
   0   5  12 45.3448 11.9512   1
  -1  -5 -12 680.460  32.077   1
   1   5  12 679.649  32.682   1
   1   5  12 661.662  31.735   4
  -2  -5 -12 0.02675 7.20381   1
   2   5  12 -7.7388  8.3701   4
   4  -6 -12 11.3343  8.0400   1
  -4   6  12 18.2563  9.8654   1
   3  -6 -12 69.3050 13.6358   1
   3  -6 -12 101.043  14.867   5
  -3   6  12 87.2273 14.3840   1
   2  -6 -12 0.40738 9.53880   5
   2  -6 -12 -27.738  12.229   1
  -2   6  12 -17.856  11.798   1
   1  -6 -12 89.5888 11.9014   5
   1  -6 -12 91.2737 15.1809   1
  -1   6  12 64.7595 14.2039   1
   0  -6 -12 22.1975  8.0439   5
   0   6  12 16.8446 11.6194   1
  -1  -6 -12 305.669  21.899   1
   1   6  12 297.596  22.915   4
   2  -7 -12 21.4072 11.1365   5
  -2   7  12 23.4111 12.1099   1
   1  -7 -12 389.358  24.114   5
   1  -7 -12 465.041  28.471   1
  -1   7  12 425.416  27.798   1
   1   7 -13 -20.362  11.641   5
   1   7 -13  0.9480 10.1806   1
   3   6 -13 991.633  39.200   5
  -3  -6  13 1010.51   43.74   2
  -3  -6  13 947.808  37.823   1
   2   6 -13 161.692  18.094   5
  -2  -6  13 125.794  16.907   1
   1   6 -13 280.348  22.325   1
   1   6 -13 298.278  21.301   5
  -1  -6  13 324.178  24.230   1
   0   6 -13 228.155  18.252   5
   0   6 -13 183.297  18.434   1
   0  -6  13 196.509  19.395   1
  -1   6 -13 -10.557  12.061   1
   1  -6  13 -1.9260 11.1757   1
  -4  -5  13 7.30295 9.71428   1
  -4  -5  13  2.8229 12.2289   2
   3   5 -13 358.735  24.599   5
  -3  -5  13 389.025  24.079   1
  -3  -5  13 400.709  28.147   2
   2   5 -13 273.559  20.256   5
   2   5 -13 305.567  21.993   1
  -2  -5  13 270.112  21.942   1
   1   5 -13 159.119  17.283   1
   1   5 -13 178.045  17.252   5
  -1  -5  13 162.474  17.721   1
   0   5 -13 24.5629  9.6908   5
   0   5 -13 17.2899 12.1421   1
   0  -5  13 36.4906 13.3985   1
  -1   5 -13 355.103  25.774   1
   1  -5  13 334.610  25.008   1
  -2   5 -13 15.9484 10.7839   1
   2  -5  13 -3.7274  9.3498   1
   4   4 -13 533.986  29.431   5
  -4  -4  13 534.331  30.586   2
  -4  -4  13 578.218  29.006   1
   3   4 -13 124.427  16.593   5
  -3  -4  13 72.3479 16.1730   2
  -3  -4  13 91.8601 14.8090   1
   2   4 -13 7.70571 7.74297   5
   2   4 -13 2.23744 9.66137   1
  -2  -4  13  7.6815 10.8199   1
   1   4 -13 48.0968 11.5972   5
   1   4 -13 53.5285 13.4331   1
  -1  -4  13 73.5972 14.8496   1
   0   4 -13 2.01346 5.95877   5
   0  -4  13 -14.970   8.714   1
  -1   4 -13 32.4998 12.2899   1
   1  -4  13 -11.687  11.026   1
  -2   4 -13 64.5120 15.3935   1
   2  -4  13 85.0894 15.5311   1
   5   3 -13 129.133  18.156   5
  -5  -3  13 177.284  19.947   2
  -5  -3  13 154.337  16.232   1
   4   3 -13 -13.426  11.567   5
   3   3 -13 36.5492 12.2459   5
   3   3 -13 4.16229 9.14498   1
  -3  -3  13  3.3530 10.0278   1
  -3  -3  13 18.7975  9.0619   2
   2   3 -13 -4.8747  7.5049   1
   2   3 -13 5.37121 7.21928   5
  -2  -3  13 -3.0088  7.9655   1
   1   3 -13 -3.9368 10.3995   1
   1   3 -13 15.4814  7.6737   5
   0   3 -13 220.276  19.767   1
   0   3 -13 221.727  17.246   5
   0  -3  13 229.357  20.428   1
  -1   3 -13 -6.2061  8.3894   1
   1  -3  13 -4.5751  8.0838   1
  -2   3 -13 166.105  19.454   1
   2  -3  13 195.104  19.661   1
   5   2 -13 160.105  18.631   5
  -5  -2  13 138.198  15.760   1
  -5  -2  13 151.133  17.862   2
   4   2 -13 29.2027 11.7942   5
  -4  -2  13 9.73781 8.43673   1
   3   2 -13 270.731  20.958   5
   3   2 -13 308.149  21.375   1
  -3  -2  13 292.843  21.434   2
  -3  -2  13 266.777  21.255   1
   2   2 -13 32.6649  9.3611   1
   2   2 -13 27.9351 11.0206   5
  -2  -2  13 35.5608 10.2212   1
   1   2 -13 185.037  16.669   5
   1   2 -13 215.485  19.061   1
  -1  -2  13 200.429  19.088   1
   0   2 -13 18.5832  9.4378   5
   0  -2  13 26.4952 11.8907   1
  -1   2 -13 101.743  15.578   1
   1  -2  13 125.211  16.336   1
  -2   2 -13 229.868  21.628   1
   2  -2  13 203.015  19.934   1
  -3   2 -13 108.213  17.116   1
   3  -2  13 97.2745 16.0049   1
   5   1 -13 653.200  31.803   5
  -5  -1  13 709.631  33.844   2
  -5  -1  13 716.676  31.881   1
   4   1 -13 577.088  29.866   5
  -4  -1  13 550.692  29.502   2
  -4  -1  13 531.208  27.469   1
   3   1 -13 157.745  15.708   5
   3   1 -13 149.388  16.280   1
  -3  -1  13 182.917  18.260   1
  -3  -1  13 138.026  15.480   2
   2   1 -13 466.512  25.160   1
   2   1 -13 479.516  24.442   5
  -2  -1  13 480.125  26.477   1
  -1  -1  13 36.5030 12.0186   1
   0   1 -13 124.955  13.124   5
   0   1 -13 136.528  17.206   1
   0  -1  13 157.489  17.403   1
  -1   1 -13 142.413  16.025   1
   1  -1  13 118.130  14.920   1
  -2   1 -13 78.6143 14.8126   1
   2  -1  13 108.737  16.016   1
  -3   1 -13 13.9737 12.1622   1
   3  -1  13  9.5204 10.5806   1
   5   0 -13  7.9048 11.5686   5
  -5   0  13 40.0245 11.4142   2
  -5   0  13 20.1470  8.7291   1
   4   0 -13 461.024  25.592   5
   4   0 -13 455.239  25.054   1
  -4   0  13 454.488  26.436   1
  -4   0  13 475.416  27.001   2
   3   0 -13 35.1443 11.9152   5
   3   0 -13 26.6962 10.9894   1
  -3   0  13 43.1257 11.8378   2
  -3   0  13 49.2289 12.7431   1
   2   0 -13 540.993  26.734   5
   2   0 -13 466.279  25.434   1
  -2   0  13 486.283  26.772   1
  -2   0  13 505.138  26.909   1
   1   0 -13 20.8544  7.1921   5
   1   0 -13 36.9209 12.2001   1
   0   0 -13 142.038  15.524   1
   0   0 -13 157.476  14.219   5
   0   0  13 154.391  16.373   1
  -1   0 -13  7.9495 11.2053   1
   1   0  13  6.1555 10.0045   1
  -2   0 -13 376.325  25.205   1
   2   0  13 391.610  25.364   1
  -3   0 -13 96.6586 16.7751   1
   5  -1 -13 534.864  28.554   5
  -5   1  13 496.405  28.339   1
  -5   1  13 490.287  26.984   2
   4  -1 -13 80.1596 13.7141   1
   4  -1 -13 73.4963 14.4159   5
  -4   1  13 79.8994 13.3699   2
  -4   1  13 78.5242 14.1933   1
   3  -1 -13 422.383  24.788   5
   3  -1 -13 459.161  26.031   1
  -3   1  13 431.353  24.152   2
  -3   1  13 471.230  27.473   1
   2  -1 -13  7.1351 10.6280   1
   2  -1 -13 24.2074 10.8726   5
   1  -1 -13 73.4068 14.2587   1
   1  -1 -13 54.1602  9.4773   5
   0  -1 -13 332.681  19.567   5
   0  -1 -13 342.609  23.855   1
   0   1  13 357.813  24.853   1
  -1  -1 -13 59.5918 13.9532   1
   1   1  13 76.4344 14.7419   1
  -2  -1 -13 175.418  18.030   1
   2   1  13 169.580  17.439   1
   5  -2 -13 43.1103 14.2371   5
  -5   2  13 79.3073 15.0473   1
   4  -2 -13  1.7850 10.1047   5
   4  -2 -13 0.91928 9.00133   1
  -4   2  13 1.59946 9.66576   1
  -4   2  13 10.2478  8.4034   2
   3  -2 -13 297.338  21.638   5
   3  -2 -13 264.873  21.352   1
  -3   2  13 270.798  22.124   1
  -3   2  13 260.508  18.524   2
   2  -2 -13 72.3610 11.2801   5
   2  -2 -13 44.1938 12.8813   1
  -2   2  13 69.6709 14.1735   1
   1  -2 -13 218.422  16.737   5
   1  -2 -13 246.769  19.265   1
  -1   2  13 197.526  18.455   1
   0  -2 -13 -2.7817  7.7668   5
   0  -2 -13 13.5534 11.5009   1
   0   2  13 -3.5725 11.3079   1
  -1  -2 -13 262.805  20.482   1
   1   2  13 276.540  20.915   1
  -2  -2 -13 315.652  23.695   1
   2   2  13 285.436  22.438   4
   2   2  13 318.063  23.536   1
   4  -3 -13 60.8753 12.9363   1
   3  -3 -13  7.6936 10.5789   5
  -3   3  13 21.4098 12.1653   1
   2  -3 -13 -8.1374  9.7252   5
   2  -3 -13 12.7943 11.3076   1
  -2   3  13 10.7688 11.3547   1
   1  -3 -13 504.374  25.117   5
   1  -3 -13 502.397  28.773   1
  -1   3  13 506.773  28.883   1
   0  -3 -13 354.893  20.485   5
   0  -3 -13 330.801  23.442   1
   0   3  13 355.009  24.522   1
  -1  -3 -13 222.491  20.008   1
   1   3  13 226.582  20.588   1
  -2  -3 -13 232.073  20.646   1
   2   3  13 220.560  19.871   4
   4  -4 -13 22.2570 10.8473   1
  -4   4  13 -22.465  12.027   1
   3  -4 -13 274.696  20.062   5
   3  -4 -13 279.709  22.951   1
  -3   4  13 296.999  24.203   1
   2  -4 -13 -0.3478  9.9067   5
   2  -4 -13 -8.9595  8.3133   1
  -2   4  13 14.0118  9.0966   1
   1  -4 -13 54.7120 13.5938   1
  -1   4  13 73.2376 14.8210   1
   0  -4 -13  4.1120 11.1743   1
   0   4  13  6.7846 11.1849   1
  -1  -4 -13 45.6136 11.0931   1
  -3   5  13 32.9620 11.8228   1
   2  -5 -13 55.2165 14.2568   1
   2  -5 -13 61.1956 12.7027   5
  -2   5  13 68.0785 15.0419   1
   1  -5 -13 141.874  16.312   1
   1  -5 -13 159.944  16.099   5
  -1   5  13 112.294  15.201   1
   0   5  13 -9.6362  9.6815   1
   1   5 -14 486.219  26.850   5
   1   5 -14 431.992  27.676   1
  -1  -5  14 458.285  29.304   1
   3   4 -14 91.6555 15.2966   5
  -3  -4  14 93.9388 14.7578   1
  -3  -4  14 106.313  18.013   2
   2   4 -14 35.4012 12.0020   5
   2   4 -14 52.6797 13.2948   1
   1   4 -14 32.6975 11.3288   5
   1   4 -14 28.7772  9.5784   1
  -1  -4  14 30.6518 10.3171   1
   0   4 -14 251.604  22.404   1
   0   4 -14 269.211  19.101   5
   0  -4  14 238.755  22.532   1
   3   3 -14 202.170  18.448   5
  -3  -3  14 200.217  20.731   2
  -3  -3  14 229.883  20.895   1
   2   3 -14 259.933  20.941   5
   2   3 -14 294.318  22.902   1
  -2  -3  14 277.869  22.936   1
   1   3 -14 34.6776 12.7959   1
   1   3 -14 45.9048 11.4232   5
   0   3 -14 161.864  19.134   1
   0   3 -14 177.141  16.374   5
   0  -3  14 187.076  20.238   1
  -1   3 -14 164.305  19.536   1
   1  -3  14 155.137  19.803   1
  -4  -2  14  9.0046 10.8528   1
  -4  -2  14 19.3557  9.1483   2
   3   2 -14 391.057  25.049   5
   3   2 -14 413.502  25.684   1
  -3  -2  14 385.984  26.185   2
  -3  -2  14 369.580  25.375   1
   2   2 -14 17.8396  8.7183   1
  -2  -2  14 32.9617 10.5116   1
   1   2 -14 609.336  28.443   5
   1   2 -14 636.541  32.580   1
  -1  -2  14 667.597  33.616   1
   0   2 -14 418.628  22.269   5
   0   2 -14 433.367  27.502   1
   0  -2  14 416.528  27.207   1
  -1   2 -14 98.8846 15.9980   1
   1  -2  14 75.8777 15.8660   1
   4   1 -14 332.813  24.034   5
  -4  -1  14 301.760  23.537   1
  -4  -1  14 335.770  24.979   2
   3   1 -14 -8.2922  8.0608   1
   3   1 -14 -10.981  10.971   5
  -3  -1  14 21.7663 11.5593   2
  -3  -1  14 8.00048 8.96521   1
   2   1 -14 -3.5479  7.9518   1
   2   1 -14 -21.031  10.641   5
  -2  -1  14 13.2331  9.1901   1
   1   1 -14 408.256  26.526   1
   1   1 -14 421.286  23.737   5
  -1  -1  14 379.048  26.358   1
   0   1 -14 12.2854  9.5156   1
   0   1 -14 39.3297 10.0075   5
   0  -1  14 24.2649 10.4709   1
  -1   1 -14 -5.9282 10.9338   1
   1  -1  14  6.6066 11.4758   1
   4   0 -14 146.488  16.482   5
  -4   0  14 175.671  18.371   2
  -4   0  14 157.734  18.626   1
   3   0 -14 141.107  16.981   5
   3   0 -14 135.415  15.157   1
  -3   0  14 131.165  16.160   1
  -3   0  14 127.774  15.952   2
   2   0 -14 288.160  21.114   1
   2   0 -14 250.772  19.646   5
  -2   0  14 269.296  21.169   1
   1   0 -14 234.898  18.444   5
   1   0 -14 243.992  21.575   1
  -1   0  14 218.234  21.417   1
   0   0 -14  5.2302 10.6323   1
   0   0  14 -9.5693 10.4929   1
  -1   0 -14  0.6739 10.9759   1
   1   0  14 -12.098  12.420   1
   4  -1 -14 60.1937 12.7626   1
  -4   1  14 46.3031 14.2736   1
  -4   1  14 54.2541 12.6585   2
   3  -1 -14 101.535  14.153   5
   3  -1 -14 82.0432 13.8634   1
  -3   1  14 113.050  15.086   2
  -3   1  14 100.451  15.811   1
   2  -1 -14 74.4686 12.6373   1
   2  -1 -14 58.4726 13.2927   5
  -2   1  14 99.4743 14.4356   1
   1  -1 -14 15.5928 12.3297   1
  -1   1  14 19.0574 12.2788   1
   0  -1 -14  1.0965 11.7221   1
  -1  -1 -14 669.754  33.965   1
   1   1  14 736.593  35.679   1
   3  -2 -14 102.867  15.291   1
   3  -2 -14 126.789  16.055   5
  -3   2  14 133.434  17.207   1
   2  -2 -14 7.15978 7.22323   5
   2  -2 -14 23.7662  9.5250   1
  -2   2  14 -14.621   9.545   1
   1  -2 -14 73.3570 14.8910   1
   1  -2 -14 58.8632 10.8653   5
  -1   2  14 88.1842 15.8628   1
   0  -2 -14 35.3630 13.1751   1
   2  -3 -14 56.8377 14.2566   1
  -2   3  14 57.1619 13.8343   1
   1  -3 -14 -2.9779  8.6157   5
   1  -3 -14  4.2390 10.1121   1
  -1   3  14 13.4598 11.8376   1
   0   0   0    0.00    0.00   0
;
_publcif_info_exptl_table_max_cols 4
_publcif_info_exptl_table_use_headnotes n
loop_
_symmetry_equiv_pos_as_xyz
'x, y, z'
'-x, -y, -z'
loop_
_atom_site_label
_atom_site_type_symbol
_atom_site_fract_x
_atom_site_fract_y
_atom_site_fract_z
_atom_site_U_iso_or_equiv
_atom_site_adp_type
_atom_site_occupancy
_atom_site_symmetry_multiplicity
_atom_site_calc_flag
_atom_site_refinement_flags
_atom_site_disorder_assembly
_atom_site_disorder_group
N1 N 0.62921(17) 0.32238(12) 0.21595(11) 0.0209(2) Uani 1 1 d . . .
N2 N 0.34958(18) 0.23630(13) 0.09621(11) 0.0220(2) Uani 1 1 d . . .
N3 N 0.2082(2) -0.00139(15) 0.77212(12) 0.0307(3) Uani 1 1 d . . .
C1 C 0.7946(2) 0.35496(16) 0.32562(14) 0.0277(3) Uani 1 1 d . . .
H1A H 0.7994 0.4560 0.3512 0.042 Uiso 1 1 calc R . .
H1B H 0.9259 0.3294 0.3003 0.042 Uiso 1 1 calc R . .
H1C H 0.7688 0.3012 0.3984 0.042 Uiso 1 1 calc R . .
C2 C 0.44849(19) 0.25372(13) 0.21833(12) 0.0183(2) Uani 1 1 d . . .
C3 C 0.1432(2) 0.1718(2) 0.05371(14) 0.0348(4) Uani 1 1 d . . .
H3A H 0.1540 0.0753 0.0176 0.052 Uiso 1 1 calc R . .
H3B H 0.0688 0.2271 -0.0124 0.052 Uiso 1 1 calc R . .
H3C H 0.0692 0.1699 0.1276 0.052 Uiso 1 1 calc R . .
C4 C 0.4701(2) 0.29538(16) 0.01527(14) 0.0278(3) Uani 1 1 d . . .
H4 H 0.4366 0.2980 -0.0757 0.033 Uiso 1 1 calc R . .
C5 C 0.6444(2) 0.34868(15) 0.08971(14) 0.0266(3) Uani 1 1 d . . .
H5 H 0.7563 0.3954 0.0607 0.032 Uiso 1 1 calc R . .
C6 C 0.37427(19) 0.20333(13) 0.33352(12) 0.0180(2) Uani 1 1 d . . .
C7 C 0.3747(2) 0.29601(15) 0.44307(13) 0.0244(3) Uani 1 1 d . . .
H7 H 0.4115 0.3930 0.4405 0.029 Uiso 1 1 calc R . .
C8 C 0.3212(2) 0.24572(15) 0.55522(13) 0.0257(3) Uani 1 1 d . . .
H8 H 0.3231 0.3078 0.6299 0.031 Uiso 1 1 calc R . .
C9 C 0.26461(19) 0.10324(15) 0.55725(12) 0.0212(3) Uani 1 1 d . . .
C10 C 0.25497(19) 0.01148(14) 0.44651(12) 0.0200(3) Uani 1 1 d . . .
H10 H 0.2111 -0.0844 0.4477 0.024 Uiso 1 1 calc R . .
C11 C 0.31035(19) 0.06205(14) 0.33463(12) 0.0184(2) Uani 1 1 d . . .
H11 H 0.3047 0.0006 0.2592 0.022 Uiso 1 1 calc R . .
C12 C 0.2289(2) 0.04712(16) 0.67718(13) 0.0243(3) Uani 1 1 d . . .
B1 B 0.8402(3) 0.36580(18) -0.24168(16) 0.0305(4) Uani 1 1 d DU . .
F1A F 0.7559(9) 0.2402(7) -0.1952(7) 0.0281(8) Uani 0.526(6) 1 d PDU A 1
F2A F 0.8785(11) 0.3395(8) -0.3618(5) 0.0590(15) Uani 0.526(6) 1 d PDU A 1
F3A F 0.6599(7) 0.4524(3) -0.2509(4) 0.0761(12) Uani 0.526(6) 1 d PDU A 1
F4A F 0.9795(7) 0.4265(4) -0.1521(3) 0.082(2) Uani 0.526(6) 1 d PDU A 1
F1B F 0.7544(14) 0.2561(9) -0.2066(10) 0.054(2) Uani 0.474(6) 1 d PDU A 2
F2B F 0.8314(12) 0.3691(9) -0.3741(6) 0.064(2) Uani 0.474(6) 1 d PDU A 2
F3B F 0.8004(7) 0.4929(3) -0.1917(4) 0.0665(14) Uani 0.474(6) 1 d PDU A 2
F4B F 1.0684(4) 0.3583(3) -0.2014(3) 0.0446(9) Uani 0.474(6) 1 d PDU A 2
loop_
_atom_site_aniso_label
_atom_site_aniso_U_11
_atom_site_aniso_U_22
_atom_site_aniso_U_33
_atom_site_aniso_U_23
_atom_site_aniso_U_13
_atom_site_aniso_U_12
N1 0.0225(5) 0.0198(5) 0.0209(5) 0.0034(4) 0.0050(4) -0.0018(4)
N2 0.0231(5) 0.0265(6) 0.0168(5) 0.0020(4) 0.0049(4) 0.0003(4)
N3 0.0305(7) 0.0390(7) 0.0250(6) 0.0076(5) 0.0094(5) 0.0030(5)
C1 0.0257(7) 0.0294(7) 0.0268(7) 0.0036(5) 0.0012(5) -0.0073(5)
C2 0.0200(6) 0.0170(5) 0.0183(6) 0.0014(4) 0.0042(4) 0.0012(4)
C3 0.0251(7) 0.0569(10) 0.0204(7) 0.0012(6) 0.0004(5) -0.0079(7)
C4 0.0324(7) 0.0328(7) 0.0203(6) 0.0059(5) 0.0094(5) 0.0005(6)
C5 0.0300(7) 0.0277(7) 0.0244(6) 0.0067(5) 0.0102(5) -0.0019(5)
C6 0.0174(6) 0.0203(6) 0.0167(5) 0.0019(4) 0.0036(4) 0.0005(4)
C7 0.0314(7) 0.0206(6) 0.0217(6) -0.0011(5) 0.0075(5) -0.0018(5)
C8 0.0314(7) 0.0272(7) 0.0193(6) -0.0014(5) 0.0078(5) 0.0022(5)
C9 0.0165(6) 0.0294(7) 0.0188(6) 0.0053(5) 0.0045(4) 0.0026(5)
C10 0.0161(5) 0.0221(6) 0.0217(6) 0.0044(5) 0.0022(4) -0.0006(4)
C11 0.0159(5) 0.0213(6) 0.0177(5) 0.0005(4) 0.0017(4) 0.0003(4)
C12 0.0195(6) 0.0318(7) 0.0228(6) 0.0040(5) 0.0055(5) 0.0027(5)
B1 0.0488(10) 0.0232(7) 0.0188(7) 0.0030(6) 0.0026(7) -0.0013(7)
F1A 0.0355(18) 0.0212(13) 0.0292(16) 0.0057(13) 0.0110(12) -0.0086(11)
F2A 0.080(3) 0.063(2) 0.041(3) -0.003(2) 0.040(3) -0.018(2)
F3A 0.100(3) 0.0406(16) 0.088(2) 0.0028(14) 0.009(2) 0.0371(18)
F4A 0.097(3) 0.091(3) 0.0403(15) 0.0209(16) -0.0297(17) -0.072(3)
F1B 0.075(4) 0.045(3) 0.042(3) 0.013(2) 0.014(2) -0.020(2)
F2B 0.076(3) 0.090(5) 0.0183(14) 0.012(2) -0.0099(18) -0.034(3)
F3B 0.093(3) 0.0321(13) 0.086(3) 0.0025(14) 0.047(3) 0.0211(16)
F4B 0.0312(12) 0.0560(17) 0.0476(17) 0.0252(13) 0.0010(10) 0.0003(11)
loop_
_atom_type_symbol
_atom_type_description
_atom_type_scat_dispersion_real
_atom_type_scat_dispersion_imag
_atom_type_scat_source
C C 0.0033 0.0016 'International Tables Vol C Tables 4.2.6.8 and 6.1.1.4'
H H 0.0000 0.0000 'International Tables Vol C Tables 4.2.6.8 and 6.1.1.4'
B B 0.0013 0.0007 'International Tables Vol C Tables 4.2.6.8 and 6.1.1.4'
N N 0.0061 0.0033 'International Tables Vol C Tables 4.2.6.8 and 6.1.1.4'
F F 0.0171 0.0103 'International Tables Vol C Tables 4.2.6.8 and 6.1.1.4'
loop_
_geom_angle_atom_site_label_1
_geom_angle_atom_site_label_2
_geom_angle_atom_site_label_3
_geom_angle
C2 N1 C5 108.92(11)
C2 N1 C1 126.87(11)
C5 N1 C1 124.01(12)
C2 N2 C4 108.91(12)
C2 N2 C3 126.55(11)
C4 N2 C3 124.49(12)
N1 C1 H1A 109.5
N1 C1 H1B 109.5
H1A C1 H1B 109.5
N1 C1 H1C 109.5
H1A C1 H1C 109.5
H1B C1 H1C 109.5
N2 C2 N1 107.67(11)
N2 C2 C6 126.05(12)
N1 C2 C6 126.26(11)
N2 C3 H3A 109.5
N2 C3 H3B 109.5
H3A C3 H3B 109.5
N2 C3 H3C 109.5
H3A C3 H3C 109.5
H3B C3 H3C 109.5
C5 C4 N2 107.31(12)
C5 C4 H4 126.3
N2 C4 H4 126.3
C4 C5 N1 107.18(12)
C4 C5 H5 126.4
N1 C5 H5 126.4
C11 C6 C7 120.23(11)
C11 C6 C2 119.71(11)
C7 C6 C2 120.02(11)
C8 C7 C6 119.95(12)
C8 C7 H7 120.0
C6 C7 H7 120.0
C7 C8 C9 119.52(12)
C7 C8 H8 120.2
C9 C8 H8 120.2
C8 C9 C10 120.82(12)
C8 C9 C12 119.80(12)
C10 C9 C12 119.25(12)
C11 C10 C9 119.44(12)
C11 C10 H10 120.3
C9 C10 H10 120.3
C10 C11 C6 119.93(12)
C10 C11 H11 120.0
C6 C11 H11 120.0
N3 C12 C9 176.82(15)
F1B B1 F4A 113.3(5)
F1B B1 F2A 108.7(6)
F4A B1 F2A 120.9(4)
F1B B1 F3B 119.5(5)
F4A B1 F3B 63.0(3)
F2A B1 F3B 124.4(4)
F1B B1 F2B 114.3(6)
F4A B1 F2B 127.2(4)
F3B B1 F2B 109.5(4)
F4A B1 F1A 109.6(3)
F2A B1 F1A 110.2(4)
F3B B1 F1A 119.9(3)
F2B B1 F1A 116.9(5)
F1B B1 F3A 96.5(5)
F4A B1 F3A 107.5(3)
F2A B1 F3A 106.8(3)
F3B B1 F3A 45.02(19)
F2B B1 F3A 88.6(4)
F1A B1 F3A 99.5(3)
F1B B1 F4B 108.0(5)
F2A B1 F4B 85.6(3)
F3B B1 F4B 103.1(2)
F2B B1 F4B 100.0(3)
F1A B1 F4B 104.2(3)
F3A B1 F4B 147.5(2)
loop_
_geom_bond_atom_site_label_1
_geom_bond_atom_site_label_2
_geom_bond_distance
N1 C2 1.3471(17)
N1 C5 1.3838(17)
N1 C1 1.4716(18)
N2 C2 1.3455(17)
N2 C4 1.3836(17)
N2 C3 1.4697(19)
N3 C12 1.1509(19)
C1 H1A 0.9800
C1 H1B 0.9800
C1 H1C 0.9800
C2 C6 1.4757(17)
C3 H3A 0.9800
C3 H3B 0.9800
C3 H3C 0.9800
C4 C5 1.353(2)
C4 H4 0.9500
C5 H5 0.9500
C6 C11 1.3977(18)
C6 C7 1.4045(18)
C7 C8 1.3902(19)
C7 H7 0.9500
C8 C9 1.397(2)
C8 H8 0.9500
C9 C10 1.4017(18)
C9 C12 1.4490(18)
C10 C11 1.3935(17)
C10 H10 0.9500
C11 H11 0.9500
B1 F1B 1.274(9)
B1 F4A 1.303(3)
B1 F2A 1.335(5)
B1 F3B 1.339(3)
B1 F2B 1.387(6)
B1 F1A 1.447(7)
B1 F3A 1.466(4)
B1 F4B 1.508(3)
loop_
_geom_torsion_atom_site_label_1
_geom_torsion_atom_site_label_2
_geom_torsion_atom_site_label_3
_geom_torsion_atom_site_label_4
_geom_torsion
C4 N2 C2 N1 -0.13(15)
C3 N2 C2 N1 -177.33(14)
C4 N2 C2 C6 -178.70(12)
C3 N2 C2 C6 4.1(2)
C5 N1 C2 N2 -0.02(15)
C1 N1 C2 N2 -175.08(12)
C5 N1 C2 C6 178.55(12)
C1 N1 C2 C6 3.5(2)
C2 N2 C4 C5 0.23(16)
C3 N2 C4 C5 177.50(14)
N2 C4 C5 N1 -0.23(16)
C2 N1 C5 C4 0.16(16)
C1 N1 C5 C4 175.39(13)
N2 C2 C6 C11 52.23(18)
N1 C2 C6 C11 -126.08(14)
N2 C2 C6 C7 -129.96(14)
N1 C2 C6 C7 51.73(19)
C11 C6 C7 C8 3.2(2)
C2 C6 C7 C8 -174.57(13)
C6 C7 C8 C9 -0.9(2)
C7 C8 C9 C10 -2.0(2)
C7 C8 C9 C12 173.72(13)
C8 C9 C10 C11 2.54(19)
C12 C9 C10 C11 -173.22(12)
C9 C10 C11 C6 -0.17(19)
C7 C6 C11 C10 -2.69(19)
C2 C6 C11 C10 175.11(12)
loop_
_publcif_info_datablock.id
_publcif_info_datablock.publ_exptl
_publcif_info_datablock.publ_geom
_publcif_info_datablock.structure
{aa784495-d49f-41e5-ba4f-94edb33716e6} y y y
loop_
_publcif_info_exptl_table_extra_item
sin_theta_over_lambda_max
loop_
_publcif_info_tables.block_id
_publcif_info_tables.reference_item
{aa784495-d49f-41e5-ba4f-94edb33716e6} '_publcif_info_datablock.publ_exptl'
