#------------------------------------------------------------------------------
#$Date: 2017-04-04 16:16:26 +0300 (Tue, 04 Apr 2017) $
#$Revision: 194841 $
#$URL: file:///home/coder/svn-repositories/cod/cif/4/12/58/4125859.cif $
#------------------------------------------------------------------------------
#
# This file is available in the Crystallography Open Database (COD),
# http://www.crystallography.net/
#
# All data on this site have been placed in the public domain by the
# contributors.
#
data_4125859
loop_
_publ_author_name
'Giffin, Kaitie A.'
'Pua, Lorraine A.'
'Piotrkowski, Sarah'
'Gabidullin, Bulat M.'
'Korobkov, Ilia'
'Hughes, Russell P.'
'Baker, R. Tom'
_publ_section_title
;
 Generation of Hydrofluoronickelacycles from Trifluoroethylene and Ni(0):
 Ligand Effects on Regio-/Stereoselectivity and Reactivity.
;
_journal_issue                   11
_journal_name_full               'Journal of the American Chemical Society'
_journal_page_first              4075
_journal_page_last               4086
_journal_paper_doi               10.1021/jacs.6b12607
_journal_volume                  139
_journal_year                    2017
_chemical_formula_sum            'C32 H28 F8 O6 P2 S2'
_chemical_formula_weight         786.60
_space_group_crystal_system      triclinic
_space_group_IT_number           2
_space_group_name_Hall           '-P 1'
_space_group_name_H-M_alt        'P -1'
_symmetry_space_group_name_Hall  '-P 1'
_symmetry_space_group_name_H-M   'P -1'
_atom_sites_solution_hydrogens   geom
_audit_creation_method           SHELXL-2014/7
_cell_angle_alpha                99.725(4)
_cell_angle_beta                 98.579(4)
_cell_angle_gamma                107.584(3)
_cell_formula_units_Z            1
_cell_length_a                   8.0635(8)
_cell_length_b                   10.4307(10)
_cell_length_c                   11.0659(11)
_cell_measurement_reflns_used    3075
_cell_measurement_temperature    200(2)
_cell_measurement_theta_max      27.54
_cell_measurement_theta_min      2.71
_cell_volume                     854.41(15)
_computing_cell_refinement       'APEX II, Bruker (2009)'
_computing_data_collection       'APEX II, Bruker (2009)'
_computing_data_reduction        'XPREP, Bruker (2009)'
_computing_molecular_graphics    'Mercury (Macrae et al., 2008)'
_computing_publication_material  'CIFTAB (Sheldrick, 1997)'
_computing_structure_refinement  'SHELXL-2014/7 (Sheldrick, 2014)'
_computing_structure_solution    'SHELXS-03 (Sheldrick, 2003)'
_diffrn_ambient_temperature      200(2)
_diffrn_measured_fraction_theta_full 0.991
_diffrn_measured_fraction_theta_max 0.985
_diffrn_measurement_device_type  'Bruker APEX-II CCD'
_diffrn_measurement_method       '\f and \w scans'
_diffrn_radiation_type           MoK\a
_diffrn_radiation_wavelength     0.71073
_diffrn_reflns_av_R_equivalents  0.0254
_diffrn_reflns_av_unetI/netI     0.0437
_diffrn_reflns_Laue_measured_fraction_full 0.991
_diffrn_reflns_Laue_measured_fraction_max 0.985
_diffrn_reflns_limit_h_max       10
_diffrn_reflns_limit_h_min       -10
_diffrn_reflns_limit_k_max       13
_diffrn_reflns_limit_k_min       -13
_diffrn_reflns_limit_l_max       14
_diffrn_reflns_limit_l_min       -14
_diffrn_reflns_number            8850
_diffrn_reflns_point_group_measured_fraction_full 0.991
_diffrn_reflns_point_group_measured_fraction_max 0.985
_diffrn_reflns_theta_full        25.242
_diffrn_reflns_theta_max         27.994
_diffrn_reflns_theta_min         1.911
_exptl_absorpt_coefficient_mu    0.337
_exptl_absorpt_correction_T_max  0.7456
_exptl_absorpt_correction_T_min  0.6771
_exptl_absorpt_correction_type   multi-scan
_exptl_absorpt_process_details   'SADABS, Bruker (2003)'
_exptl_crystal_colour            colorless
_exptl_crystal_density_diffrn    1.529
_exptl_crystal_description       block
_exptl_crystal_F_000             402
_exptl_crystal_size_max          0.232
_exptl_crystal_size_mid          0.123
_exptl_crystal_size_min          0.075
_refine_diff_density_max         0.848
_refine_diff_density_min         -0.460
_refine_diff_density_rms         0.085
_refine_ls_extinction_method     none
_refine_ls_goodness_of_fit_ref   1.098
_refine_ls_hydrogen_treatment    constr
_refine_ls_matrix_type           full
_refine_ls_number_parameters     227
_refine_ls_number_reflns         4067
_refine_ls_number_restraints     0
_refine_ls_restrained_S_all      1.098
_refine_ls_R_factor_all          0.0868
_refine_ls_R_factor_gt           0.0654
_refine_ls_shift/su_max          0.000
_refine_ls_shift/su_mean         0.000
_refine_ls_structure_factor_coef Fsqd
_refine_ls_weighting_details
'w=1/[\s^2^(Fo^2^)+(0.0715P)^2^+1.7054P] where P=(Fo^2^+2Fc^2^)/3'
_refine_ls_weighting_scheme      calc
_refine_ls_wR_factor_gt          0.1721
_refine_ls_wR_factor_ref         0.1842
_reflns_Friedel_coverage         0.000
_reflns_number_gt                3092
_reflns_number_total             4067
_reflns_threshold_expression     'I > 2\s(I)'
_cod_data_source_file            ja6b12607_si_007.cif
_cod_data_source_block           shelx
_cod_depositor_comments
'Adding full bibliography for 4125858--4125859.cif.'
_cod_database_code               4125859
_shelx_shelxl_version_number     2014/7
_shelx_space_group_comment
;
The symmetry employed for this shelxl refinement is uniquely defined
by the following loop, which should always be used as a source of
symmetry information in preference to the above space-group names.
They are only intended as comments.
;
_shelx_estimated_absorpt_t_min   0.926
_shelx_estimated_absorpt_t_max   0.975
_shelx_res_file
;

    shelx.res created by SHELXL-2014/7

TITL tb203 in P-1
CELL  0.71073   8.0635  10.4307  11.0659   99.725   98.579  107.584
ZERR     1.00   0.0008   0.0010   0.0011    0.004    0.004    0.003
LATT   1
SFAC  C    H    O    F    P    S
UNIT  32 28 6 8 2 2
MERG   2
OMIT    -3.00 180.00
OMIT    -1   7   0
OMIT     0  -2   1
OMIT     0  -4   4
OMIT     5  -6   2
OMIT     0  -2   4
OMIT     5  -4   4
EQIV $1 -x, -y+1, -z+1
HTAB C6 O2_$1
HTAB C8 F4
HTAB C8 O1
EQIV $2 x, y-1, z
HTAB C12 O3_$2
HTAB C13 O2_$1
EQIV $3 -x+1, -y+1, -z+1
HTAB C13 O1_$3
HTAB C13 O3_$2
HTAB C6 O2_$1
HTAB C8 F4
HTAB C8 O1
HTAB C12 O3_$2
HTAB C13 O2_$1
HTAB C13 O1_$3
HTAB C13 O3_$2
FMAP   2
PLAN    3
SIZE     0.075   0.123   0.232
ACTA
BOND   $H
CONF
L.S.  10
TEMP   -73.10
WGHT    0.071500    1.705400
FVAR       0.85400
P1    5    0.190670    0.266055    0.373577    11.00000    0.02114    0.02335 =
         0.02389    0.00262    0.00534    0.00915
C1    1   -0.017434    0.150627    0.279203    11.00000    0.02287    0.02248 =
         0.02686    0.00285    0.00389    0.01032
C2    1   -0.044962    0.124570    0.148969    11.00000    0.03337    0.04308 =
         0.02553    0.00374    0.00614    0.01518
AFIX  43
H2    2    0.045476    0.170646    0.109877    11.00000   -1.20000
AFIX   0
C3    1   -0.204411    0.031369    0.076537    11.00000    0.04113    0.05517 =
         0.02858   -0.00706   -0.00499    0.01948
AFIX  43
H3    2   -0.223738    0.012381   -0.012432    11.00000   -1.20000
AFIX   0
C4    1   -0.335275   -0.033831    0.134824    11.00000    0.03333    0.03755 =
         0.04936   -0.00169   -0.00971    0.00446
AFIX  43
H4    2   -0.444828   -0.097676    0.085077    11.00000   -1.20000
AFIX   0
C5    1   -0.309879   -0.007991    0.263811    11.00000    0.02843    0.03875 =
         0.05141    0.01334    0.00225    0.00596
AFIX  43
H5    2   -0.401325   -0.053770    0.302278    11.00000   -1.20000
AFIX   0
C6    1   -0.150361    0.085071    0.337205    11.00000    0.02889    0.03549 =
         0.03255    0.00891    0.00616    0.00896
AFIX  43
H6    2   -0.131981    0.103893    0.426131    11.00000   -1.20000
AFIX   0
C7    1    0.346007    0.329660    0.279872    11.00000    0.02035    0.02760 =
         0.02686    0.00516    0.00661    0.00770
C8    1    0.364943    0.457041    0.250891    11.00000    0.03969    0.03854 =
         0.04227    0.01544    0.01331    0.01851
AFIX  43
H8    2    0.294494    0.509627    0.278827    11.00000   -1.20000
AFIX   0
C9    1    0.488429    0.506012    0.180509    11.00000    0.05923    0.04678 =
         0.05429    0.02851    0.02559    0.01860
AFIX  43
H9    2    0.504523    0.593730    0.161166    11.00000   -1.20000
AFIX   0
C10   1    0.587203    0.428993    0.138739    11.00000    0.04321    0.05892 =
         0.04073    0.01667    0.02156    0.00850
AFIX  43
H10   2    0.668608    0.462514    0.088219    11.00000   -1.20000
AFIX   0
C11   1    0.570623    0.303404    0.168735    11.00000    0.03229    0.04876 =
         0.04426    0.00289    0.01765    0.01473
AFIX  43
H11   2    0.642779    0.252183    0.141206    11.00000   -1.20000
AFIX   0
C12   1    0.449151    0.252517    0.238708    11.00000    0.03022    0.03049 =
         0.03871    0.00063    0.00979    0.01093
AFIX  43
H12   2    0.435697    0.165421    0.258810    11.00000   -1.20000
AFIX   0
C13   1    0.284070    0.190332    0.486862    11.00000    0.03088    0.03457 =
         0.02905    0.00714    0.00375    0.01438
AFIX 137
H13A  2    0.203038    0.166339    0.543598    11.00000   -1.50000
H13B  2    0.398917    0.256302    0.535254    11.00000   -1.50000
H13C  2    0.301625    0.106706    0.444043    11.00000   -1.50000
AFIX   0
C14   1    0.155701    0.414180    0.460391    11.00000    0.02599    0.02712 =
         0.02670   -0.00352    0.00421    0.00924
C15   1    0.005416    0.440178    0.459777    11.00000    0.02832    0.02733 =
         0.02654    0.00201    0.00660    0.01038
AFIX  43
H15   2   -0.099946    0.377404    0.403988    11.00000   -1.20000
AFIX   0
C16   1    0.073246    0.680353    0.142508    11.00000    0.04784    0.04579 =
         0.04501    0.00224    0.00597    0.00889
F1    4    0.308647    0.503090    0.533010    11.00000    0.03279    0.05147 =
         0.06465   -0.02036   -0.00602    0.01462
F2    4    0.194585    0.684003    0.072395    11.00000    0.09840    0.10241 =
         0.07414   -0.01638    0.04840    0.02773
F3    4   -0.062908    0.703061    0.078895    11.00000    0.06443    0.07569 =
         0.05558    0.01782   -0.01661    0.01390
F4    4    0.013564    0.553862    0.162514    11.00000    0.06874    0.03477 =
         0.10211    0.00293   -0.02028    0.00200
S1    6    0.173474    0.806987    0.290284    11.00000    0.03744    0.03402 =
         0.03667    0.00163    0.00550    0.01090
O1    3    0.303531    0.759165    0.349496    11.00000    0.05257    0.05895 =
         0.07568    0.00279   -0.02100    0.01911
O2    3    0.025475    0.799987    0.349540    11.00000    0.07237    0.09546 =
         0.05432    0.01859    0.03947    0.03600
O3    3    0.240994    0.932708    0.249822    11.00000    0.06224    0.03322 =
         0.07353    0.00983    0.01847    0.00522
HKLF    4

REM  tb203 in P-1
REM R1 =  0.0654 for    3092 Fo > 4sig(Fo)  and  0.0868 for all    4067 data
REM    227 parameters refined using      0 restraints

END

WGHT      0.0713      1.7129

REM Highest difference peak  0.848,  deepest hole -0.460,  1-sigma level  0.085
Q1    1   0.2442  0.7927  0.2372  11.00000  0.05    0.85
Q2    1   0.3136  0.7476  0.1813  11.00000  0.05    0.48
Q3    1   0.2090  0.2202  0.6264  11.00000  0.05    0.43
;
_shelx_res_checksum              56387
_shelx_hkl_file
;
  -1   0   0 2390.76   58.29
  -1   0   0 2402.56   58.69
  -1   0   0 2410.66   58.09
   1   0   0 2389.66   58.29
   1   0   0 2401.86   58.29
   1   0   0 2531.25   58.59
   1   0   0 2465.65   58.69
  -2   0   0  307.17    8.40
  -2   0   0  295.37    8.30
   2   0   0  311.97    8.40
   2   0   0  276.47    8.30
   2   0   0  308.07    8.60
   2   0   0  304.97    8.80
  -3   0   0  141.89    5.30
  -3   0   0  143.69    5.40
   3   0   0  139.89    5.20
   3   0   0  138.49    5.60
   3   0   0  144.89    5.20
   3   0   0  143.59    5.80
  -4   0   0  187.58    6.90
   4   0   0  185.48    6.70
   4   0   0  193.78    7.30
   4   0   0  181.88    7.10
  -5   0   0  492.95   14.00
   5   0   0  502.75   14.50
   5   0   0  472.15   14.50
  -6   0   0  698.93   19.10
   6   0   0  674.83   19.70
  -7   0   0    8.40    3.30
   7   0   0    4.80    4.30
   8   0   0  261.47   11.90
   9   0   0    6.40    5.20
  10  -1   0   27.50    7.30
   9  -1   0   18.30    5.40
   8  -1   0  126.09    8.70
   7  -1   0    4.40    3.90
  -7   1   0   -1.00    2.70
   6  -1   0    3.20    3.50
  -6   1   0    3.90    2.70
   5  -1   0    1.70    2.30
   5  -1   0    1.60    2.90
  -5   1   0   -1.30    2.30
   4  -1   0   11.60    2.90
   4  -1   0    9.00    2.60
   4  -1   0   11.20    2.30
  -4   1   0   14.40    3.30
   3  -1   0  246.88    8.30
   3  -1   0  245.78    7.40
   3  -1   0  243.08    7.30
  -3   1   0  249.28    8.50
  -3   1   0  245.58    7.30
  -3   1   0  240.78    7.20
   2  -1   0 3611.94   88.29
   2  -1   0 3713.23   88.19
   2  -1   0 3718.03   88.39
   2  -1   0 3602.74   88.09
  -2   1   0 3739.63   88.49
  -2   1   0 3731.43   88.39
  -2   1   0 3694.73   89.79
   1  -1   0    1.30    1.00
   1  -1   0    2.80    0.90
   1  -1   0    1.70    1.60
   1  -1   0   -1.20    1.50
  -1   1   0    1.00    0.90
  -1   1   0    1.50    1.60
   0  -1   0  206.18    5.40
   0  -1   0  219.68    5.50
   0   1   0  211.08    5.40
   0   1   0  207.88    5.40
  -1  -1   0  834.82   20.20
  -1  -1   0  803.72   20.20
   1   1   0  824.92   20.20
   1   1   0  812.62   20.20
  -2  -1   0  380.86   10.30
  -2  -1   0  378.36    9.50
  -2  -1   0  377.36   10.40
   2   1   0  365.76    9.40
   2   1   0  377.26   10.50
   2   1   0  367.36   10.30
  -3  -1   0  115.19    5.10
  -3  -1   0  111.59    5.10
   3   1   0  109.69    5.00
   3   1   0  114.39    5.50
   3   1   0  103.29    3.90
  -5  -1   0    1.10    2.80
   5   1   0    3.60    2.80
   5   1   0    4.10    3.50
  -6  -1   0    8.10    3.50
   6   1   0    7.20    4.00
  -7  -1   0    3.00    3.40
   7   1   0    5.70    4.50
   8   1   0   34.60    5.90
   9   1   0   -3.30    5.10
  10  -2   0   24.10    6.10
   9  -2   0   -0.40    4.50
   8  -2   0  106.99    8.10
   7  -2   0   64.29    5.60
  -7   2   0   51.39    4.20
   6  -2   0   87.29    5.30
   6  -2   0  106.49    6.50
  -6   2   0  100.89    5.20
   5  -2   0   45.70    3.80
   5  -2   0   46.30    3.90
  -5   2   0   44.80    3.60
  -5   2   0   48.10    5.10
   4  -2   0   26.50    2.60
   4  -2   0   22.40    3.70
   4  -2   0   17.70    2.70
  -4   2   0   26.40    2.50
  -4   2   0   22.90    3.90
   3  -2   0 1004.10   25.10
   3  -2   0 1057.59   25.00
   3  -2   0  963.60   26.10
  -3   2   0 1031.90   26.40
  -3   2   0 1007.10   24.90
  -3   2   0 1015.40   24.90
   2  -2   0 1148.29   28.90
   2  -2   0 1158.08   27.50
   2  -2   0 1140.39   27.60
  -2   2   0 1123.39   27.40
  -2   2   0 1118.59   28.90
   1  -2   0 3614.74   89.69
   1  -2   0 3622.64   86.99
   1  -2   0 3600.64   87.09
  -1   2   0 3619.54   86.69
  -1   2   0 3596.54   88.29
   0  -2   0  579.74   14.90
   0  -2   0  611.34   15.00
   0   2   0  600.84   15.00
   0   2   0  594.04   14.90
  -1  -2   0   -1.60    2.10
  -1  -2   0   -0.70    1.90
   1   2   0    1.10    2.20
   1   2   0    1.30    1.90
  -2  -2   0 1050.89   26.00
  -2  -2   0 1029.60   25.90
   2   2   0 1037.30   26.00
   2   2   0 1006.40   25.90
  -3  -2   0  664.23   18.00
   3   2   0  691.03   18.10
   3   2   0  665.73   17.90
  -4  -2   0    3.60    2.80
   4   2   0    5.40    3.40
  -5  -2   0  440.46   13.30
   5   2   0  421.96   13.70
   5   2   0  397.66   12.70
  -6  -2   0   75.49    5.90
   6   2   0   69.09    6.30
  -7  -2   0  126.29    7.90
   7   2   0  138.19    9.50
   8   2   0  192.28   11.10
   9   2   0   58.99    7.50
  10  -3   0    5.80    5.00
   9  -3   0  102.89    8.50
   8  -3   0    2.60    4.20
   7  -3   0  242.38    9.90
  -7   3   0  241.98   12.20
   6  -3   0  550.54   16.00
   6  -3   0  534.25   15.50
  -6   3   0  576.44   18.40
  -6   3   0  563.74   15.10
   5  -3   0  346.37   10.30
   5  -3   0  317.17    9.80
  -5   3   0  328.87    9.40
  -5   3   0  325.07   12.40
   4  -3   0    1.60    2.20
   4  -3   0    4.90    1.80
  -4   3   0    2.40    3.70
  -4   3   0    4.80    1.80
   3  -3   0  273.37    7.70
   3  -3   0  269.57    7.50
   3  -3   0  253.27    9.70
  -3   3   0  274.77   10.10
  -3   3   0  268.47    7.20
   2  -3   0 1891.11   45.30
   2  -3   0 1848.22   45.30
   2  -3   0 1869.71   46.80
  -2   3   0 1876.41   46.90
  -2   3   0 1902.71   45.10
  -2   3   0 1921.61   45.10
   1  -3   0  675.03   17.80
  -1   3   0  665.73   17.70
  -1   3   0  674.03   19.30
  -1   3   0  858.91   17.80
   0  -3   0  239.58    7.00
   0  -3   0  232.68    6.90
   0   3   0  233.28    6.80
   0   3   0  238.98    7.10
  -1  -3   0   -2.00    2.00
   1   3   0    0.00    2.30
  -2  -3   0    1.20    2.20
  -2  -3   0   -2.50    2.20
   2   3   0    3.10    2.70
   2   3   0    5.30    2.20
  -3  -3   0   63.29    4.70
   3   3   0   66.39    5.10
  -4  -3   0  434.96   13.50
   4   3   0  453.15   14.10
  -5  -3   0   74.69    5.60
   5   3   0   55.99    5.40
   5   3   0   56.59    5.50
  -7  -3   0   43.00    5.40
   7   3   0   37.20    5.80
   8   3   0   13.40    5.50
  10  -4   0   45.30    6.40
   9  -4   0    4.50    4.30
   8  -4   0  159.18    8.60
  -8   4   0  148.79   11.60
   7  -4   0  142.69    7.60
  -7   4   0  149.29   11.10
   6  -4   0  377.86   12.00
   6  -4   0  404.46   11.80
  -6   4   0  395.86   15.30
   5  -4   0   79.59    4.90
   5  -4   0   90.39    4.40
  -5   4   0   99.59    8.60
  -5   4   0   82.79    3.80
   4  -4   0  180.48    6.20
   4  -4   0  188.68    6.10
  -4   4   0  179.98    9.30
  -4   4   0  189.98    5.60
  -4   4   0  190.18    5.60
   3  -4   0  210.08    6.30
   3  -4   0  207.58    6.30
  -3   4   0  211.78    5.80
  -3   4   0  215.98    9.40
  -3   4   0  204.98    5.80
   2  -4   0  624.24   15.90
   2  -4   0  635.34   15.90
  -2   4   0  627.64   15.60
  -2   4   0  624.34   15.60
  -2   4   0  633.94   18.10
   1  -4   0  535.55   14.10
   1  -4   0  576.84   14.20
  -1   4   0  525.65   13.90
  -1   4   0  547.85   13.90
  -1   4   0  542.85   16.00
   0  -4   0 2418.26   58.69
   0  -4   0 2415.46   58.59
   0   4   0 2415.36   58.59
   0   4   0 2451.55   58.59
  -1  -4   0  345.87   10.30
  -1  -4   0  348.17   10.20
   1   4   0  340.07   10.30
  -2  -4   0  437.46   12.80
   2   4   0  428.96   12.80
  -3  -4   0   64.39    5.40
   3   4   0   74.79    6.00
  -4  -4   0   12.90    3.50
   4   4   0   11.50    4.30
  -5  -4   0   26.70    4.40
   5   4   0   34.70    5.10
  -6  -4   0    1.80    4.00
   6   4   0    1.70    4.50
  -7  -4   0  128.39    9.00
   7   4   0  150.18   10.20
   8   4   0   76.09    7.90
  10  -5   0   11.60    5.10
   9  -5   0   29.90    5.00
   8  -5   0    6.20    3.80
  -8   5   0    4.30    5.90
   7  -5   0  441.66   13.80
  -7   5   0  452.35   17.20
   6  -5   0  366.46   11.30
   6  -5   0  359.06   11.00
  -6   5   0  376.26   15.60
  -6   5   0  364.26   10.00
   5  -5   0   12.10    2.30
   5  -5   0   16.80    2.70
  -5   5   0   16.60    5.50
  -5   5   0   15.90    1.80
   4  -5   0  228.28    7.10
   4  -5   0  229.98    7.20
  -4   5   0  225.58    6.20
  -4   5   0  226.28    6.20
  -4   5   0  210.58   10.90
   3  -5   0  172.68    5.80
   3  -5   0  178.88    5.80
  -3   5   0  163.28    5.00
  -3   5   0  180.68    9.50
  -3   5   0  179.28    5.10
   2  -5   0   58.69    3.50
   2  -5   0   61.99    3.50
  -2   5   0   41.90    5.10
  -2   5   0   64.39    2.90
   1  -5   0  155.08    5.70
   1  -5   0  154.28    5.60
  -1   5   0  154.98    5.50
  -1   5   0  153.58    8.20
  -1   5   0  162.78    5.30
   0  -5   0   86.49    4.60
   0  -5   0   84.19    4.50
   0   5   0   91.19    4.70
  -1  -5   0    8.10    2.60
  -1  -5   0    2.60    2.30
   1   5   0   -4.30    2.50
  -2  -5   0  256.57    9.40
  -2  -5   0  255.87    7.60
   2   5   0  243.38    9.10
  -3  -5   0   39.80    4.40
   3   5   0   47.20    4.90
  -4  -5   0   47.80    4.90
   4   5   0   60.49    5.70
  -5  -5   0   27.90    4.60
   5   5   0   30.10    5.20
  -6  -5   0   -4.80    4.00
   6   5   0    3.30    4.70
  -7  -5   0    5.90    4.60
   7   5   0    6.00    5.30
  10  -6   0   29.60    5.60
   9  -6   0   18.20    4.50
  -9   6   0   10.60    6.80
   8  -6   0    7.90    3.80
  -8   6   0    5.10    6.10
   7  -6   0   68.49    5.10
  -7   6   0   61.39    7.60
   6  -6   0   58.09    4.40
   6  -6   0   50.99    4.30
  -6   6   0   56.09    7.70
   5  -6   0   22.00    2.90
   5  -6   0   25.50    3.10
  -5   6   0   16.00    5.80
   4  -6   0  253.97    8.00
   4  -6   0  250.37    8.00
  -4   6   0  265.97   12.30
   3  -6   0  478.45   13.10
   3  -6   0  469.45   13.10
  -3   6   0  495.45   12.30
  -3   6   0  485.95   12.30
  -3   6   0  477.55   16.50
   2  -6   0  280.77    8.50
   2  -6   0  273.97    8.50
  -2   6   0  279.97   12.00
   1  -6   0  387.76   11.20
   1  -6   0  382.06   11.10
  -1   6   0  395.16   14.10
  -1   6   0  377.96   10.90
   0  -6   0   17.20    2.80
   0  -6   0   17.80    2.80
   0   6   0   13.80    2.90
  -1  -6   0   93.49    5.60
   1   6   0   82.69    5.90
  -2  -6   0  194.98    8.50
   2   6   0  180.98    8.30
  -3  -6   0   20.60    3.90
   3   6   0   25.90    4.70
  -4  -6   0  135.09    7.80
   4   6   0  134.69    8.50
  -5  -6   0  183.18    9.70
   5   6   0  184.48   10.20
  -6  -6   0   29.30    5.50
   6   6   0   42.30    6.30
  -7  -6   0    4.10    4.70
   7   6   0   15.70    5.80
  10  -7   0   62.49    6.40
 -10   7   0   34.90    8.40
   9  -7   0  111.59    8.00
  -9   7   0  114.89   10.70
   8  -7   0   19.90    4.10
  -8   7   0   11.70    6.80
   7  -7   0  130.79    6.90
  -7   7   0  133.39   12.30
   6  -7   0   76.19    5.40
  -6   7   0   79.39    8.50
   5  -7   0  143.29    6.20
   5  -7   0  147.09    6.20
  -5   7   0  135.49   12.00
   4  -7   0 1046.10   26.90
   4  -7   0 1040.30   26.80
  -4   7   0 1086.19   31.00
   3  -7   0  104.39    5.00
   3  -7   0   88.29    4.70
  -3   7   0   83.59    7.80
  -3   7   0   87.69    3.80
   2  -7   0   49.60    4.20
   2  -7   0   48.50    4.20
  -2   7   0   52.69    6.50
  -2   7   0   47.50    3.30
   1  -7   0  181.78    7.10
   0  -7   0   50.89    4.20
   0  -7   0   45.40    4.00
   0   7   0   53.79    6.40
   0   7   0   44.40    4.10
  -1  -7   0  373.56   12.30
   1   7   0  381.06   12.20
  -2  -7   0  817.62   23.30
   2   7   0  840.12   23.10
  -3  -7   0    2.40    3.40
   3   7   0    5.90    4.00
  -4  -7   0  253.27   11.10
   4   7   0  267.07   11.30
  -5  -7   0   95.29    8.20
   5   7   0   88.19    7.70
  -6  -7   0   24.40    5.60
   6   7   0   19.90    5.90
  10  -8   0    7.80    4.60
 -10   8   0   -3.30    7.50
   9  -8   0    4.20    4.00
  -9   8   0    6.80    7.00
   8  -8   0   23.00    4.20
  -8   8   0   17.30    7.20
   7  -8   0   20.20    3.70
  -7   8   0   11.30    7.00
   6  -8   0   -0.70    2.70
  -6   8   0   -1.40    5.80
   5  -8   0  268.07    9.10
  -5   8   0  257.67   14.30
   4  -8   0   20.80    3.10
   4  -8   0   12.60    2.90
  -4   8   0    7.70    6.70
   3  -8   0    8.70    2.90
   3  -8   0    7.20    2.60
  -3   8   0    6.60    6.10
  -3   8   0   12.80    2.10
   2  -8   0  100.39    5.60
   2  -8   0  106.49    5.80
  -2   8   0  103.29    4.80
  -2   8   0  102.59   10.90
   1  -8   0    2.70    2.80
   1  -8   0   -0.10    2.80
  -1   8   0   -0.90    2.60
  -1   8   0    1.00    5.30
   0  -8   0  164.78    7.70
   0   8   0  163.18    7.40
   0   8   0  176.28   11.40
  -1  -8   0  502.05   15.80
   1   8   0  517.95   15.40
   1   8   0  495.45   17.90
  -2  -8   0  123.99    7.90
   2   8   0  132.49    7.90
  -3  -8   0    8.20    3.80
   3   8   0    9.40    4.20
  -4  -8   0   24.90    4.90
   4   8   0   45.50    5.80
  -5  -8   0   12.80    4.80
   5   8   0    9.90    8.70
   9  -9   0   10.20    4.20
  -9   9   0   11.30    7.70
   8  -9   0   34.40    4.40
  -8   9   0   20.50    7.70
   7  -9   0   62.19    5.10
  -7   9   0   64.19    9.10
   6  -9   0   10.90    3.30
  -6   9   0   11.40    7.10
   5  -9   0   63.39    5.20
  -5   9   0   65.09    8.40
   4  -9   0  473.55   14.00
  -4   9   0  484.45   19.30
   3  -9   0  234.98    8.80
  -3   9   0  240.28   14.30
   2  -9   0  240.78    9.20
  -2   9   0  253.07   14.10
   1  -9   0  205.88    8.60
  -1   9   0  198.38   12.40
   0  -9   0    8.70    3.50
   0   9   0   -6.00    5.10
  -1  -9   0   84.79    6.80
   1   9   0   67.59    7.50
  -2  -9   0   13.50    4.30
   2   9   0   16.50    5.70
  -3  -9   0   91.49    7.80
  -4  -9   0   62.49    6.70
  -5  -9   0    1.50    4.60
   9 -10   0   -0.10    3.80
  -9  10   0    5.00    8.10
   8 -10   0    7.70    3.60
  -8  10   0   19.20    8.00
   7 -10   0    9.30    3.40
  -7  10   0    7.80    7.60
   6 -10   0   43.20    4.40
  -6  10   0   37.00    8.70
   5 -10   0  189.48    8.10
  -5  10   0  211.38   14.40
   4 -10   0    2.80    3.00
  -4  10   0    1.00    6.50
   3 -10   0   72.59    5.40
  -3  10   0   61.89    8.80
   2 -10   0   57.19    4.90
  -2  10   0   54.29    8.00
   1 -10   0    0.10    3.10
  -1  10   0    5.00    6.10
   0 -10   0    2.00    3.40
   0  10   0   -5.30    5.60
  -1 -10   0   -4.10    3.60
   1  10   0   -2.00    5.50
  -2 -10   0    1.20    4.00
   2  10   0    4.20    5.60
  -3 -10   0   25.40    5.30
  -4 -10   0   34.90    6.20
   8 -11   0   11.90    3.90
  -8  11   0    4.90    8.00
   7 -11   0   41.20    4.70
  -7  11   0   44.90    9.50
   6 -11   0    8.80    3.30
  -6  11   0   12.80    7.70
   5 -11   0  154.08    7.70
  -5  11   0  146.89   14.60
   4 -11   0  105.69    6.90
  -4  11   0   99.19   10.60
   3 -11   0   75.89    6.40
  -3  11   0   68.39    9.50
   2 -11   0  110.79    7.30
  -2  11   0  114.89   10.50
   1 -11   0   -0.70    3.40
  -1  11   0    6.40    6.40
   0 -11   0   36.30    5.10
   0  11   0   29.80    7.40
  -1 -11   0   55.39    6.00
   1  11   0   29.10    7.10
  -2 -11   0    9.70    4.50
   7 -12   0   17.90    4.10
  -7  12   0   16.20    9.10
   6 -12   0   20.40    4.10
  -6  12   0   13.80    8.70
   5 -12   0   17.60    3.90
  -5  12   0    0.20    7.40
   4 -12   0    5.80    3.70
  -4  12   0   -6.10    7.30
   3 -12   0   36.70    4.80
  -3  12   0   18.30    7.90
   2 -12   0   12.40    4.00
  -2  12   0   12.30    7.70
   1 -12   0    4.70    3.90
  -1  12   0   -3.60    6.80
   0 -12   0   18.60    4.70
   0  12   0   11.00    6.90
  -1 -12   0   26.90    5.50
   6 -13   0   28.40    4.60
  -6  13   0   37.10   10.10
   5 -13   0   25.60    4.60
  -5  13   0   15.10    9.00
   4 -13   0   10.70    4.00
  -4  13   0   -3.10    7.90
   3 -13   0   77.89    6.60
  -3  13   0   99.79   11.50
   2 -13   0   45.70    5.70
  -2  13   0   50.59    9.50
  -1  13   0    3.00    7.70
  -1  13  -1   42.10    8.60
   1 -13   1   44.50    5.70
  -2  13  -1   -3.10    7.30
   2 -13   1    3.10    3.90
  -3  13  -1   23.40    8.70
   3 -13   1   31.00    4.70
  -4  13  -1   26.70    9.30
   4 -13   1   28.80    4.60
  -5  13  -1    3.40    8.20
   5 -13   1    3.50    3.60
  -6  13  -1   19.60    9.20
   6 -13   1   23.10    4.10
  -1 -12   1   -0.10    4.20
   0  12  -1   21.50    7.30
   0 -12   1   26.40    5.00
  -1  12  -1   62.79    9.00
   1 -12   1   52.89    5.70
  -2  12  -1   -7.10    6.60
   2 -12   1   -1.80    3.30
  -3  12  -1   -5.80    6.60
   3 -12   1    3.10    3.40
  -4  12  -1   10.90    7.70
   4 -12   1   16.30    3.80
  -5  12  -1   36.10    8.80
   5 -12   1   28.70    4.30
  -6  12  -1   52.39    9.90
   6 -12   1   56.59    5.00
  -7  12  -1   74.19   10.90
   7 -12   1   71.89    6.10
  -3 -11   1   12.30    5.00
  -2 -11   1   24.80    5.40
   1  11  -1   -2.90    5.60
  -1 -11   1    0.80    3.90
   0  11  -1  171.88   13.20
   0 -11   1  158.78    8.80
  -1  11  -1   41.10    8.00
   1 -11   1   51.69    5.30
  -2  11  -1    0.70    6.60
   2 -11   1   -2.00    3.00
  -3  11  -1  136.69   13.50
   3 -11   1  124.09    7.10
  -4  11  -1   27.30    7.80
   4 -11   1   22.20    3.80
  -5  11  -1   98.19   10.70
   5 -11   1  112.69    6.50
  -6  11  -1  194.08   15.90
   6 -11   1  181.78    7.90
  -7  11  -1   13.10    7.90
   7 -11   1    8.10    3.30
  -8  11  -1   22.70    9.00
   8 -11   1   13.70    3.70
  -4 -10   1    2.70    4.50
  -3 -10   1    2.40    4.30
   2  10  -1   76.29    7.50
  -2 -10   1   81.89    6.80
   1  10  -1   11.10    5.70
  -1 -10   1   14.40    4.20
   0  10  -1    9.40    5.90
   0 -10   1    6.10    3.50
  -1  10  -1   13.70    6.30
   1 -10   1    7.30    3.40
  -2  10  -1    8.30    6.30
  -3  10  -1   13.80    6.70
   3 -10   1   20.90    3.50
  -4  10  -1   -1.70    6.60
   4 -10   1   11.60    3.20
  -5  10  -1   33.10    7.90
   5 -10   1   32.00    3.80
  -6  10  -1   11.50    7.40
   6 -10   1   12.20    3.20
  -7  10  -1    4.30    7.50
   7 -10   1    7.80    3.10
  -8  10  -1    5.40    7.50
   8 -10   1   12.50    3.50
  -9  10  -1   20.30    8.50
   9 -10   1    6.80    3.70
  -5  -9   1   33.50    6.00
  -4  -9   1    9.80    4.60
  -3  -9   1   24.60    4.90
   2   9  -1   13.30    5.10
  -2  -9   1   17.20    4.20
   1   9  -1   43.50    6.20
  -1  -9   1   46.50    4.90
   0   9  -1  355.56   15.10
   0  -9   1  377.36   12.40
  -1   9  -1  211.28   12.30
   1  -9   1  201.18    8.30
  -2   9  -1  118.89   11.50
   2  -9   1  106.89    6.00
  -3   9  -1  327.77   15.90
   3  -9   1  326.67   10.50
  -4   9  -1    2.00    6.20
   4  -9   1   -0.10    2.40
  -5   9  -1  270.37   15.50
   5  -9   1  277.97    9.20
  -6   9  -1   -1.30    6.60
   6  -9   1    3.00    2.70
  -7   9  -1   34.10    8.20
   7  -9   1   32.90    4.00
  -8   9  -1   56.19    9.50
   8  -9   1   54.99    5.10
  -9   9  -1   56.99    9.70
   9  -9   1   52.59    5.30
  -6  -8   1   -3.90    4.70
  -5  -8   1   21.50    5.20
   4   8  -1   21.90    4.80
  -4  -8   1   25.20    5.00
   3   8  -1   21.10    4.90
   3   8  -1   26.90    4.60
  -3  -8   1   38.20    5.10
   2   8  -1    2.70    4.40
   2   8  -1    8.10    3.40
  -2  -8   1   10.50    3.80
   1   8  -1   42.40    4.30
   1   8  -1   35.90    5.80
  -1  -8   1   39.60    4.60
   0   8  -1   19.70    3.10
   0   8  -1   20.20    5.60
   0  -8   1   17.20    3.50
   0  -8   1   14.30    3.30
  -1   8  -1   81.49    7.50
  -1   8  -1   84.69    4.40
   1  -8   1   76.59    5.20
  -2   8  -1   31.80    2.70
  -2   8  -1   34.90    6.50
   2  -8   1   38.50    3.40
   2  -8   1   40.70    3.60
  -3   8  -1   53.89    7.20
   3  -8   1   52.69    4.30
   3  -8   1   51.99    3.70
  -4   8  -1  895.71   27.40
   4  -8   1  888.21   22.50
   4  -8   1  821.02   22.30
  -5   8  -1  125.99   11.60
   5  -8   1  134.39    5.80
  -6   8  -1   60.19    8.20
   6  -8   1   55.69    4.20
  -7   8  -1   25.60    7.40
   7  -8   1   21.50    3.50
  -8   8  -1   16.90    7.40
   8  -8   1   14.10    3.80
  -9   8  -1   19.50    7.80
   9  -8   1   18.00    4.40
 -10   8  -1   -0.30    7.60
   6   7  -1   87.79    8.00
  -6  -7   1   93.19    8.10
   5   7  -1   78.79    7.00
  -5  -7   1   77.89    7.00
   4   7  -1    5.40    4.10
  -4  -7   1    3.50    3.80
   3   7  -1  322.87   11.60
   3   7  -1  306.77   11.90
  -3  -7   1  310.17   11.70
   2   7  -1    5.80    4.40
   2   7  -1    5.10    3.40
  -2  -7   1    0.90    3.20
   1   7  -1  509.05   14.80
   1   7  -1  511.75   16.70
  -1  -7   1  498.55   15.10
   0   7  -1  129.19    9.10
   0   7  -1  137.29    6.10
   0  -7   1  138.89    6.10
   0  -7   1  135.89    6.30
  -1   7  -1   61.49    3.90
   1  -7   1   69.69    4.50
   1  -7   1   69.79    4.50
  -2   7  -1   36.80    6.10
  -2   7  -1   26.50    2.30
   2  -7   1   31.50    3.00
   2  -7   1   27.30    2.90
  -3   7  -1  996.60   29.10
   3  -7   1 1021.00   25.10
   3  -7   1  961.40   25.00
  -5   7  -1  231.78   13.90
   5  -7   1  225.28    7.60
   5  -7   1  221.48    7.50
  -6   7  -1   43.80    7.50
   6  -7   1   44.80    3.80
  -7   7  -1   74.89    8.70
   7  -7   1   94.79    6.00
  -8   7  -1   66.29    9.00
   8  -7   1   84.69    6.60
  -9   7  -1   11.60    7.50
   9  -7   1   24.00    4.60
  10  -7   1    0.70    4.40
   7   6  -1   55.99    7.00
  -7  -6   1   43.10    6.40
   6   6  -1   28.60    5.70
  -6  -6   1   34.60    5.70
   5   6  -1   38.20    5.50
  -5  -6   1   41.80    5.60
   4   6  -1   42.50    5.20
  -4  -6   1   36.50    4.90
   3   6  -1    4.00    3.70
  -3  -6   1   -1.50    3.20
   2   6  -1   89.49    6.00
  -2  -6   1   84.69    4.40
  -2  -6   1   82.49    6.00
   1   6  -1   10.90    3.00
   1   6  -1   10.10    4.10
  -1  -6   1    5.90    2.70
  -1  -6   1    9.10    3.10
   0   6  -1  341.57   10.00
   0   6  -1  331.37   12.10
   0  -6   1  332.47   10.10
   0  -6   1  327.97   10.10
  -1   6  -1  787.52   22.50
   1  -6   1  763.82   20.00
   1  -6   1  772.62   19.90
  -2   6  -1   11.60    4.60
   2  -6   1   22.60    2.40
   2  -6   1   24.40    2.50
  -3   6  -1  433.16   15.60
   3  -6   1  457.85   12.00
   3  -6   1  448.56   11.90
  -4   6  -1   -2.10    4.70
   4  -6   1    2.10    1.90
   4  -6   1    3.70    1.90
  -5   6  -1   20.40    6.20
   5  -6   1   26.50    2.70
   5  -6   1   24.70    2.80
  -6   6  -1   -3.30    5.80
   6  -6   1   -2.80    2.70
   6  -6   1    0.20    2.20
  -7   6  -1   29.90    6.60
   7  -6   1   40.60    4.10
  -8   6  -1    9.30    6.70
   8  -6   1   12.70    3.90
   9  -6   1   20.60    4.60
  10  -6   1   11.20    4.90
   8   5  -1   -7.00    5.10
   7   5  -1   11.30    5.30
  -7  -5   1    0.90    4.60
   6   5  -1   27.20    5.60
  -6  -5   1   27.10    5.10
   5   5  -1   30.10    5.00
  -5  -5   1   23.90    4.70
   4   5  -1  616.04   18.50
  -4  -5   1  610.04   18.20
   3   5  -1  183.18    8.20
  -3  -5   1  194.28    8.10
   2   5  -1   32.80    3.80
  -2  -5   1   33.90    3.70
   1   5  -1  219.08    7.60
   1   5  -1  208.78    8.60
  -1  -5   1  208.28    7.40
   0   5  -1  387.36   12.50
   0   5  -1  389.46   10.70
   0  -5   1  376.26   10.70
   0  -5   1  372.66   10.80
  -1   5  -1  756.22   21.40
  -1   5  -1  767.02   18.80
   1  -5   1  733.13   19.10
   1  -5   1  784.92   19.20
  -2   5  -1 2380.96   59.59
   2  -5   1 2413.86   57.09
   2  -5   1 2338.57   57.09
  -3   5  -1 1468.95   38.60
   3  -5   1 1464.55   35.50
   3  -5   1 1460.85   35.60
  -4   5  -1   24.10    5.10
  -5   5  -1  198.28   11.70
   5  -5   1  183.98    6.30
   5  -5   1  177.08    6.60
  -6   5  -1   13.70    5.90
   6  -5   1   22.80    2.90
   6  -5   1   19.50    3.10
  -7   5  -1  217.98   13.10
   7  -5   1  203.28    8.50
  -8   5  -1  287.87   15.60
   8  -5   1  304.27   11.10
   9  -5   1    3.30    4.10
  10  -5   1   50.89    6.40
   8   4  -1    1.50    5.20
   7   4  -1  121.19    8.80
  -7  -4   1  101.79    8.30
   6   4  -1  282.17   12.20
  -6  -4   1  284.07   11.50
   5   4  -1   77.59    6.30
  -5  -4   1   65.59    5.70
   4   4  -1  551.24   16.50
  -4  -4   1  539.95   16.20
   3   4  -1  347.27   11.20
  -3  -4   1  339.67   11.00
   2   4  -1  623.54   17.00
  -2  -4   1  625.64   17.10
  -2  -4   1  621.34   16.90
   1   4  -1  660.83   17.30
   1   4  -1  662.13   17.10
  -1  -4   1  655.83   17.10
  -1  -4   1  646.04   16.50
  -1  -4   1  620.74   17.10
   0   4  -1    6.80    2.00
   0   4  -1   10.30    3.00
   0   4  -1    3.70    1.50
   0  -4   1    4.80    1.90
   0  -4   1    6.70    2.00
  -1   4  -1    8.10    1.20
  -1   4  -1    1.80    3.30
  -1   4  -1    5.70    1.30
   1  -4   1    6.60    1.60
   1  -4   1    5.90    1.60
   1  -4   1    2.40    3.00
  -2   4  -1   47.80    4.70
   2  -4   1   55.79    2.60
   2  -4   1   57.99    2.50
  -3   4  -1  504.75   15.60
   3  -4   1  481.85   12.60
   3  -4   1  501.75   12.60
  -4   4  -1  426.26   14.60
   4  -4   1  435.76   11.30
   4  -4   1  416.76   11.40
  -5   4  -1  127.99    3.90
  -5   4  -1  124.79    3.90
  -5   4  -1  120.89    9.40
   5  -4   1  124.19    5.60
   5  -4   1  116.49    5.00
  -6   4  -1   -8.70    5.00
  -6   4  -1   -1.40    1.70
   6  -4   1   -1.90    2.20
   6  -4   1    4.90    3.00
  -7   4  -1   55.09    7.20
   7  -4   1   76.59    6.50
   8  -4   1    8.40    3.90
   9  -4   1    3.40    4.40
  10  -4   1   18.80    5.50
   9   3  -1    8.50    5.60
   8   3  -1   -1.10    4.90
   7   3  -1    1.20    4.70
  -7  -3   1   -4.70    3.80
   6   3  -1   28.20    5.10
  -6  -3   1   31.30    4.80
   5   3  -1    1.00    2.40
   5   3  -1   -1.00    3.80
  -5  -3   1    5.40    3.40
   4   3  -1   33.90    4.20
  -4  -3   1   40.10    4.20
   3   3  -1  320.47   10.40
  -3  -3   1  319.37   10.10
   2   3  -1   79.79    4.10
   2   3  -1   81.69    4.80
  -2  -3   1   70.69    4.50
  -2  -3   1   80.39    4.70
   1   3  -1   82.59    4.30
   1   3  -1   89.59    3.90
  -1  -3   1   78.39    4.30
  -1  -3   1   71.89    4.10
  -1  -3   1   75.89    3.40
   0   3  -1 2848.52   69.29
   0   3  -1 2889.81   68.89
   0   3  -1 2809.72   69.29
   0   3  -1 2896.91   68.39
   0  -3   1 2841.52   69.09
   0  -3   1 2886.01   68.49
   0  -3   1 2875.71   68.89
  -1   3  -1 2607.84   61.99
  -1   3  -1 2576.94   62.39
   1  -3   1 2505.65   62.19
   1  -3   1 2579.54   61.19
   1  -3   1 2509.75   60.79
  -2   3  -1  314.57   10.50
  -2   3  -1  311.97   10.30
   2  -3   1  308.57    7.80
   2  -3   1  311.47    7.90
   2  -3   1  310.57   10.30
  -3   3  -1  141.99    7.00
  -3   3  -1  143.59    7.60
   3  -3   1  144.99    4.70
   3  -3   1  148.29    4.50
  -4   3  -1  891.81   21.20
  -4   3  -1  863.21   21.20
  -4   3  -1  852.31   24.00
   4  -3   1  847.92   21.70
   4  -3   1  859.41   21.70
  -5   3  -1  386.06   14.20
  -5   3  -1  401.66   10.60
   5  -3   1  387.36   11.20
   5  -3   1  395.46   11.50
  -6   3  -1    8.50    1.70
  -6   3  -1    5.10    5.20
   6  -3   1    7.50    3.30
   6  -3   1   13.80    2.80
   7  -3   1  150.08    7.90
   8  -3   1    3.10    4.10
   9  -3   1  113.09    9.20
  10  -3   1   22.90    5.80
   9   2  -1   28.80    6.40
   8   2  -1    6.10    4.90
   7   2  -1  391.66   14.30
  -7  -2   1  371.36   13.30
   6   2  -1   -7.60    3.90
  -6  -2   1    4.00    3.50
   5   2  -1  534.45   16.30
   5   2  -1  533.55   14.80
  -5  -2   1  563.74   16.20
   4   2  -1 1282.97   32.90
   4   2  -1 1265.67   31.60
  -4  -2   1 1298.37   32.80
   3   2  -1    7.60    2.90
   3   2  -1    3.30    2.20
  -3  -2   1    5.50    2.40
  -3  -2   1   -0.90    2.40
   2   2  -1    4.30    2.40
   2   2  -1    5.80    2.10
  -2  -2   1    6.00    2.20
  -2  -2   1    5.90    2.20
   1   2  -1 2018.80   47.40
   1   2  -1 1921.51   47.90
   1   2  -1 2013.10   47.90
  -1  -2   1 1987.50   47.30
  -1  -2   1 1976.70   47.90
  -1  -2   1 1987.80   47.90
   0   2  -1   96.49    4.30
   0   2  -1   90.09    3.00
   0   2  -1   96.79    3.20
   0   2  -1   97.29    4.70
   0  -2   1   96.59    4.50
   0  -2   1   94.89    3.40
   0  -2   1   94.59    3.30
   0  -2   1   94.29    4.00
  -1   2  -1 9610.74  237.38
  -1   2  -1 9720.53  236.18
   1  -2   1 9999.00  237.28
   1  -2   1 9725.23  236.58
  -2   2  -1  992.30   25.40
  -2   2  -1 1002.10   25.90
   2  -2   1 1001.90   24.10
   2  -2   1 1018.90   24.10
   2  -2   1  980.50   25.70
  -3   2  -1   21.40    3.60
  -3   2  -1   22.40    1.80
  -3   2  -1   28.80    2.20
  -3   2  -1   15.30    3.50
   3  -2   1   22.90    2.30
   3  -2   1   15.60    3.10
   3  -2   1   23.80    2.10
  -4   2  -1   51.49    4.80
  -4   2  -1   59.39    3.10
  -4   2  -1   45.30    4.80
  -4   2  -1   56.79    3.20
   4  -2   1   59.99    3.70
   4  -2   1   54.09    4.10
  -5   2  -1  236.08    7.50
   5  -2   1  245.08    8.10
   5  -2   1  246.58    8.40
  -6   2  -1   13.80    2.70
   6  -2   1   18.60    3.80
   6  -2   1   20.80    3.20
   7  -2   1  293.87   11.20
   8  -2   1    5.70    4.30
   9  -2   1   93.69    7.80
  10  -2   1    0.50    6.80
   9   1  -1   11.40    5.70
   8   1  -1    3.90    4.60
   7   1  -1   18.10    4.70
  -7  -1   1   13.50    3.80
   6   1  -1   51.29    5.40
   6   1  -1   50.99    5.30
  -6  -1   1   48.70    4.80
   5   1  -1  110.39    6.80
   5   1  -1   97.49    5.40
  -5  -1   1  108.59    6.20
   4   1  -1 1135.69   28.90
   4   1  -1 1178.88   29.40
   4   1  -1 1218.28   30.30
  -4  -1   1 1196.98   30.10
   3   1  -1  173.18    5.50
   3   1  -1  177.68    6.40
   3   1  -1  189.98    6.90
   3   1  -1  186.98    5.80
  -3  -1   1  193.58    6.70
  -3  -1   1  200.78    6.80
   2   1  -1   26.30    2.50
   2   1  -1   30.70    2.80
  -2  -1   1   30.70    2.60
  -2  -1   1   25.40    2.60
   1   1  -1  354.56    9.30
   1   1  -1  351.86    9.40
  -1  -1   1  363.16    9.40
  -1  -1   1  349.96    9.40
   0   1  -1    2.90    1.30
   0   1  -1    2.70    1.20
   0   1  -1    2.90    0.80
   0  -1   1    2.50    1.20
   0  -1   1    2.20    0.80
   0  -1   1    1.70    1.30
   0  -1   1    2.30    0.70
  -1   1  -1 1736.43   41.70
  -1   1  -1 1713.93   41.90
   1  -1   1 1699.43   41.70
   1  -1   1 1753.52   41.20
   1  -1   1 1703.93   41.00
   1  -1   1 1755.12   41.90
  -2   1  -1  144.89    6.10
  -2   1  -1  148.59    6.70
  -2   1  -1  152.88    4.60
  -2   1  -1  141.89    4.30
   2  -1   1  155.88    6.70
   2  -1   1  151.88    4.90
   2  -1   1  148.49    4.70
  -3   1  -1  730.73   19.10
  -3   1  -1  730.53   18.20
  -3   1  -1  722.73   18.30
   3  -1   1  736.63   18.40
   3  -1   1  711.23   18.40
   3  -1   1  717.83   19.50
  -4   1  -1  836.92   20.70
  -4   1  -1  796.82   21.50
   4  -1   1  813.62   20.80
   4  -1   1  786.02   20.90
  -5   1  -1    2.10    2.20
   5  -1   1    3.50    3.10
   5  -1   1    0.00    2.30
   7  -1   1   -0.60    3.80
   8  -1   1   28.10    5.40
   9  -1   1  209.58   11.50
   9   0  -1   -2.70    4.80
   8   0  -1    1.40    4.60
   7   0  -1   -0.20    4.00
  -7   0   1    3.20    3.20
   6   0  -1   49.20    5.00
   6   0  -1   37.60    4.60
  -6   0   1   50.49    4.50
   5   0  -1   44.00    4.70
   5   0  -1   35.00    4.10
  -5   0   1   42.10    3.80
   4   0  -1  485.25   13.40
   4   0  -1  468.55   13.00
   4   0  -1  447.46   13.10
  -4   0   1  472.25   13.20
   3   0  -1  514.55   13.50
   3   0  -1  502.05   13.70
   3   0  -1  496.95   13.30
  -3   0   1  509.25   13.60
  -3   0   1  508.95   13.60
  -3   0   1  494.45   13.40
   2   0  -1 3344.67   83.49
   2   0  -1 3477.15   82.99
   2   0  -1 3620.14   83.79
  -2   0   1 3485.95   83.59
  -2   0   1 3328.27   83.59
  -2   0   1 3564.04   82.99
   1   0  -1 1877.61   45.30
   1   0  -1 1884.31   45.20
  -1   0   1 1808.42   44.80
  -1   0   1 1926.21   44.80
   0   0  -1  284.97    7.10
   0   0  -1  279.57    7.10
   0   0   1  274.87    7.10
   0   0   1  283.77    7.10
  -1   0  -1 3287.27   77.59
  -1   0  -1 3221.48   77.89
  -1   0  -1 3225.08   77.69
   1   0   1 3151.88   77.79
   1   0   1 3170.48   77.29
   1   0   1 3301.67   77.39
  -2   0  -1  356.96    9.60
  -2   0  -1  347.67    9.70
  -2   0  -1  355.06    9.50
   2   0   1  355.56    9.50
   2   0   1  343.37    9.60
   2   0   1  348.57    9.70
  -3   0  -1  277.17    8.70
  -3   0  -1  277.77    8.40
  -3   0  -1  286.27    8.40
   3   0   1  279.57    8.60
   3   0   1  294.37    8.50
   3   0   1  281.77    9.20
  -4   0  -1  419.26   12.40
  -4   0  -1  440.96   12.20
   4   0   1  434.76   12.30
   4   0   1  415.66   12.50
   4   0   1  438.06   13.20
  -5   0  -1  128.89    6.20
   5   0   1  136.39    6.20
   5   0   1  143.29    7.10
  -6   0  -1  549.54   15.90
   6   0   1  545.55   16.70
  -7   0  -1  329.87   12.10
   7   0   1  328.57   12.50
   8   0   1   36.80    5.80
   9   0   1   34.60    6.30
  10  -1  -1    3.90    5.30
   9  -1  -1    2.30    4.70
   8  -1  -1    1.20    4.20
   7  -1  -1   86.49    6.40
  -7   1   1   76.99    5.70
   6  -1  -1   -0.40    3.50
  -6   1   1    3.00    2.70
   5  -1  -1   -0.50    2.80
   5  -1  -1   -5.10    2.10
   5  -1  -1   -6.90    2.80
  -5   1   1    2.20    2.40
  -5   1   1   -1.90    3.20
   4  -1  -1  173.88    6.70
   4  -1  -1  191.18    6.40
   4  -1  -1  159.98    6.90
  -4   1   1  184.58    6.40
  -4   1   1  177.28    7.30
   3  -1  -1  185.48    6.80
   3  -1  -1  183.78    6.20
   3  -1  -1  170.48    5.90
  -3   1   1  173.18    5.90
  -3   1   1  170.68    5.80
  -3   1   1  179.78    6.70
   2  -1  -1 1025.00   25.50
   2  -1  -1 1044.80   25.50
  -2   1   1 1065.69   25.50
  -2   1   1 1064.39   26.10
  -2   1   1  994.90   25.40
   1  -1  -1   63.89    2.70
  -1   1   1   62.39    2.70
   0  -1  -1  136.09    4.20
   0  -1  -1  138.49    4.30
   0   1   1  138.69    4.20
   0   1   1  130.09    4.20
  -1  -1  -1 5686.53  139.99
  -1  -1  -1 6126.99  139.29
   1   1   1 5820.12  138.09
   1   1   1 5479.85  139.29
  -2  -1  -1 1050.69   25.40
  -2  -1  -1  968.60   25.30
  -2  -1  -1 1020.40   25.00
   2   1   1 1007.80   25.50
   2   1   1 1042.40   25.40
  -3  -1  -1   54.59    4.00
  -3  -1  -1   59.49    3.80
   3   1   1   55.19    4.60
   3   1   1   54.29    3.90
  -4  -1  -1   11.10    2.70
   4   1   1    7.70    2.40
   4   1   1   10.10    3.00
   4   1   1   14.10    3.30
  -5  -1  -1  265.27    9.20
   5   1   1  248.28    9.90
  -6  -1  -1  214.38    8.80
   6   1   1  220.28    9.90
  -7  -1  -1   68.69    5.70
   7   1   1   65.29    6.40
   8   1   1   12.20    5.20
   9   1   1   21.30    6.00
  10  -2  -1   36.30    6.30
   9  -2  -1   39.50    5.80
   8  -2  -1   30.30    5.20
   7  -2  -1  410.26   13.80
  -7   2   1  402.86   12.60
   6  -2  -1   98.89    6.70
   6  -2  -1  104.19    6.40
  -6   2   1  113.19    8.30
  -6   2   1   97.79    5.50
   5  -2  -1  671.93   18.10
   5  -2  -1  679.93   18.40
  -5   2   1  689.93   18.10
  -5   2   1  676.13   19.40
   4  -2  -1   60.49    4.40
   4  -2  -1   66.59    3.90
   4  -2  -1   62.49    5.50
  -4   2   1   56.79    3.70
  -4   2   1   61.79    6.00
   3  -2  -1    1.60    1.90
   3  -2  -1   -1.00    2.70
   3  -2  -1    2.60    1.70
  -3   2   1   -0.10    1.70
  -3   2   1    3.70    1.70
  -3   2   1   -3.60    2.90
   2  -2  -1 2208.48   53.59
   2  -2  -1 2250.67   53.59
  -2   2   1 2293.67   53.49
  -2   2   1 2224.18   54.49
  -2   2   1 2166.68   53.49
   1  -2  -1 5974.70  145.99
   1  -2  -1 6041.90  145.79
  -1   2   1 6058.19  144.59
  -1   2   1 5978.60  145.29
   0  -2  -1 1444.06   35.20
   0   2   1 1434.96   35.10
   0   2   1 1456.05   35.10
  -1  -2  -1   44.80    3.70
  -1  -2  -1   48.20    3.70
   1   2   1   49.00    3.30
   1   2   1   43.80    3.60
  -2  -2  -1 1503.05   36.20
  -2  -2  -1 1473.25   36.90
  -2  -2  -1 1540.25   37.10
   2   2   1 1453.15   36.90
   2   2   1 1503.65   37.10
  -3  -2  -1  833.42   20.90
  -3  -2  -1  842.62   22.10
   3   2   1  845.12   22.00
   3   2   1  843.82   22.20
  -4  -2  -1    7.00    2.80
  -4  -2  -1    6.70    2.40
   4   2   1    7.20    3.40
  -5  -2  -1   95.49    6.50
   5   2   1  108.99    7.70
  -6  -2  -1   74.69    5.80
   6   2   1   59.59    6.10
  -7  -2  -1   25.90    4.60
   7   2   1   34.20    5.70
   8   2   1   60.39    6.90
   9   2   1   72.39    8.30
  10  -3  -1   21.60    5.50
   9  -3  -1   11.20    4.60
   8  -3  -1  240.38   10.70
   7  -3  -1   25.90    4.30
  -7   3   1   31.20    3.60
  -7   3   1   28.70    5.80
   6  -3  -1   16.70    3.00
   6  -3  -1   14.90    3.50
  -6   3   1   17.30    5.00
  -6   3   1   22.20    3.00
   5  -3  -1    4.00    2.20
   5  -3  -1    1.00    2.60
  -5   3   1   -2.10    3.90
  -5   3   1    2.10    2.20
   4  -3  -1  196.88    6.70
   4  -3  -1  198.78    6.60
  -4   3   1  190.58    6.40
  -4   3   1  206.28    9.00
   3  -3  -1  253.77    7.70
   3  -3  -1  260.37    7.60
  -3   3   1  270.37    9.90
  -3   3   1  259.97    7.50
  -3   3   1  258.17    7.40
   2  -3  -1  346.57    9.50
   2  -3  -1  347.97    9.50
  -2   3   1  344.77    9.30
  -2   3   1  337.77    9.40
  -2   3   1  357.36   11.70
   1  -3  -1  377.36   11.00
   1  -3  -1  450.55   11.00
  -1   3   1  367.16   10.90
  -1   3   1  446.86   10.90
   0  -3  -1 1334.67   33.30
   0  -3  -1 1410.76   33.50
   0   3   1 1311.77   33.30
   0   3   1 1370.26   33.40
  -1  -3  -1   71.99    4.20
  -1  -3  -1   36.20    3.00
   1   3   1   59.89    3.50
   1   3   1   49.20    4.10
  -2  -3  -1  204.78    7.70
   2   3   1  223.08    7.90
  -3  -3  -1  137.69    6.50
   3   3   1  155.18    7.20
  -4  -3  -1  233.68    9.10
   4   3   1  244.58    9.70
  -5  -3  -1    0.80    3.30
   5   3   1    1.20    4.30
  -6  -3  -1   29.60    4.50
   6   3   1   28.60    5.20
  -7  -3  -1    1.50    4.60
   7   3   1    3.70    4.90
   8   3   1    6.10    5.30
  10  -4  -1   41.60    6.10
   9  -4  -1   68.59    6.60
   8  -4  -1  502.95   16.10
  -8   4   1  502.85   18.50
   7  -4  -1    6.10    3.50
  -7   4   1   -0.10    4.90
   6  -4  -1  480.35   13.70
   6  -4  -1  466.75   14.00
  -6   4   1  464.35   13.30
  -6   4   1  480.25   16.80
   5  -4  -1   43.70    3.60
   5  -4  -1   44.50    3.40
  -5   4   1   33.30    5.30
  -5   4   1   46.70    3.30
   4  -4  -1    6.00    2.00
   4  -4  -1    5.60    2.20
  -4   4   1   -2.30    4.00
  -4   4   1    7.80    2.00
   3  -4  -1  541.15   14.50
   3  -4  -1  550.54   14.50
  -3   4   1  555.54   16.80
  -3   4   1  557.54   14.30
  -3   4   1  546.75   14.20
   2  -4  -1  267.87    8.10
   2  -4  -1  286.27    8.20
  -2   4   1  270.37    7.80
  -2   4   1  287.17   10.80
  -2   4   1  279.77    8.00
   1  -4  -1   17.30    2.30
   1  -4  -1   15.70    2.20
  -1   4   1   14.80    2.30
  -1   4   1   14.60    2.10
   0  -4  -1  517.15   13.60
   0  -4  -1  487.85   13.50
   0   4   1  502.95   13.50
   0   4   1  478.65   13.30
  -1  -4  -1  207.08    7.40
  -1  -4  -1  221.28    7.40
   1   4   1  198.28    7.50
  -2  -4  -1   47.10    4.10
   2   4   1   53.79    4.50
  -3  -4  -1    1.10    2.90
   3   4   1    2.90    3.40
  -4  -4  -1    0.20    3.10
   4   4   1    1.10    3.90
  -5  -4  -1  171.18    8.50
   5   4   1  166.08    9.30
  -6  -4  -1  139.09    8.60
   6   4   1  164.88    9.80
   7   4   1   18.40    5.50
   8   4   1   17.10    6.20
  10  -5  -1   -1.00    4.60
   9  -5  -1  137.59    9.00
  -9   5   1  158.78   12.40
   8  -5  -1  216.28    9.70
  -8   5   1  193.98   12.70
   7  -5  -1    8.90    3.40
  -7   5   1    3.40    5.50
   6  -5  -1   91.89    5.20
   6  -5  -1   94.99    5.80
  -6   5   1   85.49    4.20
  -6   5   1   76.29    7.70
   5  -5  -1  156.58    6.00
   5  -5  -1  149.88    6.20
  -5   5   1  166.88   10.50
  -5   5   1  135.09    5.20
   4  -5  -1  333.17    9.90
   4  -5  -1  329.67    9.90
  -4   5   1  348.17   13.60
  -4   5   1  331.07    9.30
   3  -5  -1 1917.71   47.10
   3  -5  -1 1880.31   47.00
  -3   5   1 1950.60   49.40
  -3   5   1 1952.80   46.80
   2  -5  -1    2.40    2.00
   2  -5  -1   -0.40    2.00
  -2   5   1    5.50    4.10
  -2   5   1    3.50    2.00
   1  -5  -1  121.79    5.20
   1  -5  -1  109.39    5.10
  -1   5   1  120.79    5.10
   0  -5  -1   60.19    4.40
   0  -5  -1   69.49    4.50
   0   5   1   72.09    4.70
  -2  -5  -1   63.39    5.30
   2   5   1   56.09    4.70
  -3  -5  -1  225.98    9.00
   3   5   1  224.48    9.80
  -4  -5  -1   17.00    3.90
   4   5   1   19.40    4.60
  -5  -5  -1   15.60    4.30
   5   5   1   14.10    5.20
  -6  -5  -1   78.69    6.90
   6   5   1   60.39    6.80
   7   5   1   -8.70    4.80
  10  -6  -1   26.10    5.60
 -10   6   1   19.80    7.40
   9  -6  -1    2.00    4.10
  -9   6   1   -1.20    6.00
   8  -6  -1   29.30    4.70
  -8   6   1   24.50    6.50
   7  -6  -1    1.70    3.10
  -7   6   1    7.40    5.80
   6  -6  -1  424.26   13.10
   6  -6  -1  442.16   13.50
  -6   6   1  462.25   18.00
  -6   6   1  465.55   13.20
   5  -6  -1  127.89    6.00
   5  -6  -1  129.69    5.70
  -5   6   1  136.89    5.00
  -5   6   1  143.29   11.10
   4  -6  -1  132.59    5.80
   4  -6  -1  133.09    5.70
  -4   6   1  158.38   10.30
   3  -6  -1   64.59    4.20
   3  -6  -1   61.89    4.10
  -3   6   1   49.00    6.10
  -3   6   1   63.79    3.80
   2  -6  -1   36.20    3.20
   2  -6  -1   39.70    3.40
  -2   6   1   39.40    3.20
  -2   6   1   38.70    5.80
   1  -6  -1   65.49    4.60
   1  -6  -1   65.59    4.40
  -1   6   1   63.09    4.50
   0  -6  -1 1291.67   32.80
   0  -6  -1 1260.97   32.80
   0   6   1 1298.27   32.60
  -1  -6  -1   46.20    4.40
   1   6   1   54.29    4.60
  -2  -6  -1  307.87   11.00
   2   6   1  285.97   10.90
  -3  -6  -1  460.35   15.10
   3   6   1  483.65   15.40
  -4  -6  -1   -3.80    3.30
   4   6   1   -3.30    4.00
  -5  -6  -1  294.77   12.20
   5   6   1  309.77   13.10
  -6  -6  -1   23.00    5.30
   6   6   1   26.10    5.90
   7   6   1    7.00    5.60
  10  -7  -1   16.90    5.10
 -10   7   1   14.00    7.50
   9  -7  -1   81.49    6.60
  -9   7   1   76.59    9.10
   8  -7  -1  186.38    8.90
  -8   7   1  182.98   13.40
   7  -7  -1   36.60    4.30
  -7   7   1   29.50    7.10
   6  -7  -1   88.99    5.80
  -6   7   1   71.39    8.40
   5  -7  -1   92.59    5.60
   5  -7  -1   85.09    5.40
  -5   7   1   99.79    4.20
  -5   7   1   99.99    9.10
   4  -7  -1   62.39    4.50
  -4   7   1   49.10    3.30
   3  -7  -1   40.90    3.60
   3  -7  -1   38.00    3.50
  -3   7   1   42.90    3.10
  -3   7   1   24.20    6.30
   2  -7  -1   35.00    3.60
   2  -7  -1   31.10    3.40
  -2   7   1   37.70    3.30
  -2   7   1   31.90    6.40
   1  -7  -1   43.70    3.80
   1  -7  -1   33.60    3.70
  -1   7   1   47.80    4.00
   0  -7  -1  610.44   18.00
   0   7   1  667.53   18.00
  -1  -7  -1  231.88    9.40
   1   7   1  244.28    9.60
  -2  -7  -1   66.69    5.60
   2   7   1   51.29    5.40
  -3  -7  -1   14.60    4.00
   3   7   1   18.80    4.70
  -4  -7  -1   52.09    5.80
   4   7   1   64.79    6.60
  -5  -7  -1   34.10    5.30
   5   7   1   36.20    6.10
  -6  -7  -1   -9.20    4.40
   6   7   1    9.90    5.50
  10  -8  -1   35.60    5.70
 -10   8   1   25.00    8.50
   9  -8  -1    0.50    3.90
  -9   8   1    3.80    7.00
   8  -8  -1   39.50    4.90
  -8   8   1   33.80    7.80
   7  -8  -1   26.40    4.00
  -7   8   1   22.50    7.10
   6  -8  -1   75.69    5.70
  -6   8   1   82.89    8.90
   5  -8  -1   10.20    3.20
  -5   8   1    0.30    6.40
   4  -8  -1    4.00    2.60
   4  -8  -1    1.60    2.70
  -4   8   1    0.10    6.20
  -4   8   1    3.60    2.40
   3  -8  -1  202.18    7.90
   3  -8  -1  203.78    8.00
  -3   8   1  211.48   12.90
  -3   8   1  210.08    7.10
   2  -8  -1   71.39    5.50
   2  -8  -1   78.09    5.50
  -2   8   1   84.59    8.30
  -2   8   1   74.19    4.90
   1  -8  -1  470.45   14.40
  -1   8   1  465.65   13.90
  -1   8   1  485.05   18.30
   0  -8  -1  230.98    9.30
   0   8   1  232.38    9.00
  -1  -8  -1   57.89    5.30
   1   8   1   51.29    5.10
  -2  -8  -1  144.79    8.50
   2   8   1  134.99    8.30
  -3  -8  -1    5.40    3.80
   3   8   1    3.50    4.20
  -4  -8  -1   28.70    5.20
   4   8   1   40.90    6.00
  -5  -8  -1   97.59    8.00
   5   8   1   98.59    8.50
   9  -9  -1   36.30    5.10
  -9   9   1   26.70    8.40
   8  -9  -1    4.00    3.70
  -8   9   1    2.40    7.00
   7  -9  -1   15.40    3.90
  -7   9   1   10.80    7.10
   6  -9  -1  149.79    7.50
  -6   9   1  155.18   13.80
   5  -9  -1  116.39    6.50
  -5   9   1  116.79   12.20
   4  -9  -1  148.99    7.10
  -4   9   1  150.68   13.00
   3  -9  -1  151.98    7.30
  -3   9   1  136.79   12.50
   2  -9  -1  221.88    9.00
  -2   9   1  221.58   13.20
   1  -9  -1  115.29    7.10
  -1   9   1  135.29    9.70
  -1   9   1  131.49   11.60
   0  -9  -1   32.10    4.60
   0   9   1   25.60    6.50
   0   9   1   33.50    4.50
  -1  -9  -1   -5.60    3.50
   1   9   1    3.60    3.90
  -2  -9  -1   56.19    6.10
  -3  -9  -1   -1.70    3.80
  -4  -9  -1   94.29    8.00
   9 -10  -1    2.10    3.90
  -9  10   1   -2.50    7.50
   8 -10  -1   -1.20    3.60
  -8  10   1   -6.80    7.50
   7 -10  -1    2.80    3.40
  -7  10   1    7.20    7.50
   6 -10  -1    4.30    3.30
  -6  10   1    5.00    7.10
   5 -10  -1    3.30    3.10
  -5  10   1   -1.20    7.10
   4 -10  -1    7.70    3.50
  -4  10   1    9.40    7.00
   3 -10  -1   75.89    5.70
  -3  10   1   68.89    9.10
   2 -10  -1   52.29    5.10
  -2  10   1   52.49    8.20
   1 -10  -1    2.20    3.40
  -1  10   1    2.30    6.20
   0 -10  -1    4.70    3.60
   0  10   1    2.40    6.20
  -1 -10  -1    8.30    4.20
   1  10   1   11.70    6.40
  -2 -10  -1   -0.30    4.10
   2  10   1   -2.80    5.90
  -3 -10  -1    4.80    4.40
   8 -11  -1   10.40    4.00
  -8  11   1    9.20    8.60
   7 -11  -1  119.89    7.50
  -7  11   1  136.59   14.60
   6 -11  -1  246.98   10.10
  -6  11   1  247.68   17.10
   5 -11  -1   23.10    4.20
  -5  11   1   24.90    8.30
   4 -11  -1  148.89    8.20
  -4  11   1  165.98   15.10
   3 -11  -1    5.10    3.60
  -3  11   1  -10.20    6.50
   2 -11  -1   73.29    6.20
  -2  11   1   65.69    9.30
   1 -11  -1   46.50    5.50
  -1  11   1   38.90    8.00
   0 -11  -1    1.00    3.80
   0  11   1   -4.10    6.20
  -1 -11  -1   67.99    6.80
   1  11   1   47.30    8.00
  -2 -11  -1   18.10    5.20
   7 -12  -1    4.30    3.70
  -7  12   1    3.80    8.60
   6 -12  -1    7.40    3.80
  -6  12   1   -3.20    8.00
   5 -12  -1    5.20    3.80
  -5  12   1   -1.60    7.50
   4 -12  -1   -2.40    3.50
  -4  12   1    1.50    7.90
   3 -12  -1   39.10    5.20
  -3  12   1   28.80    8.70
   2 -12  -1    7.50    3.90
  -2  12   1   13.10    7.60
   1 -12  -1    5.30    4.20
  -1  12   1    2.90    7.10
   0 -12  -1   21.70    5.20
   0  12   1   14.50    7.60
   1  12   1   -4.70    7.10
   5 -13  -1   24.00    4.80
  -5  13   1   21.40    9.40
   4 -13  -1   88.29    7.70
  -4  13   1   80.29   11.50
   3 -13  -1    7.00    4.20
  -3  13   1   -5.30    8.00
   2 -13  -1   90.79    9.00
  -2  13   1   89.39   11.20
  -1  13  -2   52.99    9.20
   1 -13   2   64.59    6.20
  -2  13  -2    6.20    7.50
   2 -13   2    2.80    3.70
  -3  13  -2    9.40    7.70
   3 -13   2    2.00    3.40
  -4  13  -2   36.50    9.30
   4 -13   2   37.50    4.60
  -5  13  -2   10.50    8.60
   5 -13   2    3.70    3.40
  -6  13  -2   27.60    9.60
   6 -13   2   29.10    4.10
  -1 -12   2   -1.20    3.80
   0  12  -2   10.20    6.40
   0 -12   2   13.10    4.20
  -1  12  -2   11.00    6.70
   1 -12   2    5.30    3.60
  -2  12  -2   12.30    7.10
   2 -12   2   10.40    3.70
  -3  12  -2   10.10    7.30
   3 -12   2   10.10    3.50
  -4  12  -2   67.59    9.50
   4 -12   2   63.39    5.00
  -5  12  -2   39.00    9.00
   5 -12   2   45.60    4.40
  -6  12  -2   -3.50    7.60
   6 -12   2    0.90    2.90
  -7  12  -2    2.60    8.00
   7 -12   2   12.50    3.20
  -3 -11   2   -1.00    4.50
  -2 -11   2    4.60    4.30
   1  11  -2    1.70    5.40
  -1 -11   2    2.50    3.90
   0  11  -2    2.80    5.90
   0 -11   2    3.90    3.60
  -1  11  -2   90.59    9.10
   1 -11   2   98.89    6.80
  -2  11  -2   81.29    9.20
   2 -11   2   90.39    6.20
  -3  11  -2   -2.80    6.60
   3 -11   2    1.30    2.80
  -4  11  -2   23.10    7.50
   4 -11   2   20.00    3.50
  -5  11  -2    8.50    7.60
   5 -11   2   18.40    3.30
  -6  11  -2    9.20    7.40
   6 -11   2   14.50    3.10
  -7  11  -2   30.40    8.60
   7 -11   2   38.60    4.10
  -8  11  -2    5.30    8.40
   8 -11   2    2.60    3.10
  -4 -10   2    3.70    4.50
  -3 -10   2   25.70    5.10
   2  10  -2    7.90    8.20
  -2 -10   2    5.70    3.90
   1  10  -2   44.00    6.60
  -1 -10   2   40.20    5.10
   0  10  -2   58.09    7.20
   0 -10   2   60.59    5.40
  -1  10  -2  102.39    9.00
   1 -10   2  109.29    6.60
  -2  10  -2    2.50    5.70
   2 -10   2   -1.30    2.70
  -3  10  -2  119.49   12.10
   3 -10   2  119.89    6.20
  -4  10  -2   20.80    7.10
   4 -10   2   20.50    3.10
  -5  10  -2   56.49    8.80
   5 -10   2   71.49    4.90
  -6  10  -2    6.40    7.30
   6 -10   2    7.00    2.80
  -7  10  -2   17.00    7.70
   7 -10   2   20.70    3.40
  -8  10  -2    4.40    7.60
   8 -10   2    3.60    3.20
  -9  10  -2   13.20    8.60
   9 -10   2   17.70    4.00
  -5  -9   2   23.70    5.70
  -4  -9   2   38.90    5.50
  -3  -9   2   10.20    4.10
   2   9  -2  229.68   11.60
  -2  -9   2  241.08   10.30
   1   9  -2  525.95   18.10
  -1  -9   2  517.75   16.20
   0   9  -2   44.70    6.50
   0  -9   2   45.50    4.50
  -1   9  -2  276.57   13.40
   1  -9   2  265.67    9.60
  -2   9  -2   36.20    6.80
   2  -9   2   49.99    4.10
  -3   9  -2    7.70    6.20
   3  -9   2    4.50    2.40
  -4   9  -2  510.85   20.10
   4  -9   2  507.35   14.10
  -5   9  -2   -5.10    6.10
   5  -9   2    1.00    2.30
  -6   9  -2  118.49   10.70
   6  -9   2  120.29    5.70
  -7   9  -2   32.20    8.10
   7  -9   2   31.50    3.70
  -8   9  -2   24.70    8.00
   8  -9   2   27.30    3.90
  -9   9  -2   34.60    9.30
   9  -9   2   40.90    4.80
  -6  -8   2   31.90    6.00
  -5  -8   2    4.00    4.50
  -4  -8   2   31.40    5.00
   3   8  -2    2.10    3.70
   3   8  -2    3.30    3.40
  -3  -8   2   -1.90    3.40
   2   8  -2   29.00    4.80
   2   8  -2   31.10    4.20
  -2  -8   2   32.20    4.40
   1   8  -2    5.50    4.70
   1   8  -2    7.20    3.00
  -1  -8   2    6.70    3.40
   0   8  -2    0.90    2.30
   0   8  -2   -1.60    4.90
   0  -8   2   -1.70    2.60
   0  -8   2   -0.30    2.80
  -1   8  -2   -4.90    4.90
  -1   8  -2   -1.30    1.70
   1  -8   2   -0.40    2.30
   1  -8   2    2.70    2.40
  -2   8  -2   -1.90    5.00
   2  -8   2    1.30    2.20
  -3   8  -2   10.10    5.80
   3  -8   2    4.50    2.20
   3  -8   2    7.20    2.30
  -4   8  -2   13.00    6.60
   4  -8   2   15.40    2.50
   4  -8   2   16.40    2.50
  -5   8  -2   -1.50    6.00
   5  -8   2   -0.30    2.30
   5  -8   2    0.70    2.20
  -6   8  -2   29.00    7.20
   6  -8   2   34.90    3.40
  -7   8  -2    7.60    6.90
   7  -8   2    4.60    2.90
  -8   8  -2    0.30    6.90
   8  -8   2    4.50    3.30
  -9   8  -2    2.70    7.40
   9  -8   2   -3.50    3.40
   6   7  -2   14.50    5.10
  -6  -7   2   14.90    5.10
   5   7  -2   47.90    5.90
  -5  -7   2   36.50    5.50
   4   7  -2   65.39    6.00
  -4  -7   2   68.39    6.10
   3   7  -2  872.11   23.90
   3   7  -2  851.01   23.50
  -3  -7   2  859.31   24.20
   2   7  -2  514.25   15.20
   2   7  -2  522.55   16.00
  -2  -7   2  487.95   15.40
   1   7  -2   10.90    4.30
   1   7  -2    7.50    2.80
  -1  -7   2    7.20    3.10
  -1  -7   2    2.70    2.70
   0   7  -2   57.99    3.90
   0   7  -2   49.30    5.80
   0  -7   2   57.19    4.50
   0  -7   2   49.70    4.30
  -1   7  -2  263.37   12.10
  -1   7  -2  271.17    7.50
   1  -7   2  268.27    8.50
   1  -7   2  280.57    8.60
  -2   7  -2    5.60    4.80
   2  -7   2    7.00    2.10
   2  -7   2    8.10    2.10
  -3   7  -2 1224.98   33.90
   3  -7   2 1218.88   29.80
   3  -7   2 1174.78   29.70
  -4   7  -2  333.97   15.40
   4  -7   2  349.17    9.60
   4  -7   2  341.97    9.50
  -5   7  -2  695.23   23.30
   5  -7   2  679.73   17.70
   5  -7   2  690.03   17.80
  -6   7  -2   40.00    7.40
   6  -7   2   54.29    4.40
  -7   7  -2   15.00    6.80
   7  -7   2   13.90    3.30
  -8   7  -2   -0.80    6.50
   8  -7   2    0.70    3.30
   9  -7   2  133.39    8.20
  10  -7   2   11.00    4.70
   7   6  -2    5.50    5.20
  -7  -6   2    3.30    4.90
   6   6  -2    4.10    4.70
  -6  -6   2   -3.30    4.00
   5   6  -2   91.59    7.80
  -5  -6   2   94.69    7.20
   4   6  -2   72.99    5.40
   4   6  -2   91.59    6.90
  -4  -6   2   78.79    6.80
   3   6  -2    7.20    3.70
   3   6  -2    7.10    3.50
  -3  -6   2   11.20    3.50
   2   6  -2   58.59    6.30
   2   6  -2   67.29    4.80
  -2  -6   2   57.99    4.70
   1   6  -2  161.18    8.20
   1   6  -2  159.58    6.40
  -1  -6   2  155.68    6.60
  -1  -6   2  167.08    7.00
   0   6  -2  510.65   13.60
   0   6  -2  526.25   16.10
   0  -6   2  511.35   14.10
   0  -6   2  508.55   14.00
  -1   6  -2  307.47    8.30
  -1   6  -2  327.87    8.30
  -1   6  -2  329.27   12.20
   1  -6   2  323.37    9.20
   1  -6   2  329.17    9.20
  -2   6  -2   94.39    8.30
   2  -6   2   87.29    3.80
   2  -6   2  107.19    3.90
  -3   6  -2   70.29    6.70
   3  -6   2   70.39    3.10
   3  -6   2   67.19    3.10
  -4   6  -2   66.59    7.10
   4  -6   2   70.29    3.50
   4  -6   2   73.09    3.40
  -5   6  -2  136.89   11.50
   5  -6   2  135.19    5.00
   5  -6   2  132.19    5.20
  -6   6  -2   18.90    6.50
   6  -6   2   14.50    2.50
   6  -6   2   18.50    3.00
  -7   6  -2   27.60    7.00
   7  -6   2   41.20    4.00
  -8   6  -2    0.30    6.70
   8  -6   2   16.70    3.90
   9  -6   2   41.50    5.20
  10  -6   2   14.90    4.90
   8   5  -2   29.00    6.60
   7   5  -2   10.60    5.20
  -7  -5   2    9.70    4.70
   6   5  -2   89.89    7.30
  -6  -5   2   86.89    7.10
   5   5  -2   12.30    4.40
  -5  -5   2    7.00    4.00
   3   5  -2  144.29    7.20
   3   5  -2  152.08    6.50
  -3  -5   2  152.08    7.20
   2   5  -2    4.00    2.80
   2   5  -2    2.70    2.80
  -2  -5   2    0.90    2.50
  -2  -5   2    0.20    2.00
  -2  -5   2   -1.60    2.40
   1   5  -2 1274.77   31.60
   1   5  -2 1264.97   32.30
  -1  -5   2 1256.47   31.90
  -1  -5   2 1267.47   31.80
   0   5  -2  333.67    9.30
   0   5  -2  335.67    9.20
   0   5  -2  342.57   11.50
   0   5  -2  339.67   10.70
   0  -5   2  354.16    9.80
   0  -5   2  347.77    9.80
  -1   5  -2  202.38    9.10
  -1   5  -2  191.68    8.20
   1  -5   2  201.78    6.10
   1  -5   2  202.28    6.00
  -2   5  -2   92.59    7.50
  -2   5  -2   96.59    7.10
   2  -5   2   84.69    3.10
   2  -5   2   83.89    3.10
  -3   5  -2   21.90    4.80
  -3   5  -2   21.00    4.80
   3  -5   2   37.20    2.10
   3  -5   2   36.30    2.10
  -4   5  -2    0.20    4.40
  -4   5  -2    8.60    4.90
   4  -5   2    0.20    1.70
  -5   5  -2  488.65   17.80
   5  -5   2  486.35   13.20
   5  -5   2  484.35   13.00
  -6   5  -2  524.75   19.30
   6  -5   2  532.95   14.80
   6  -5   2  534.55   14.60
  -7   5  -2   -3.50    5.80
   7  -5   2    1.90    3.10
   8  -5   2  193.18    9.10
   9  -5   2   33.10    5.20
  10  -5   2   10.00    5.10
   8   4  -2  111.49    9.00
  -8  -4   2   94.29    8.20
   7   4  -2   37.60    6.00
  -7  -4   2   33.80    5.50
   6   4  -2   65.99    6.40
  -6  -4   2   54.89    5.90
   5   4  -2   10.50    4.20
  -5  -4   2   14.30    4.10
   4   4  -2  176.08    8.40
  -4  -4   2  184.78    8.20
   3   4  -2  400.46   10.80
   3   4  -2  392.76   12.30
  -3  -4   2  401.16   12.30
   2   4  -2   89.39    5.10
   2   4  -2   87.19    4.60
  -2  -4   2   89.99    4.90
  -2  -4   2  101.69    5.20
   1   4  -2   11.30    2.00
   1   4  -2   11.10    2.70
   1   4  -2   11.30    2.40
   1   4  -2   12.60    2.30
  -1  -4   2   11.10    2.40
  -1  -4   2    6.90    2.20
   0   4  -2 1794.82   44.00
   0   4  -2 1608.14   43.00
   0   4  -2 1796.02   43.10
   0   4  -2 1893.61   44.50
   0  -4   2 1754.52   44.30
   0  -4   2 1842.32   43.40
   0  -4   2 1852.21   43.40
  -1   4  -2   96.09    6.40
  -1   4  -2   99.79    5.50
   1  -4   2   98.09    3.20
   1  -4   2   92.89    3.30
   1  -4   2   93.09    5.90
  -2   4  -2  129.69    6.70
  -2   4  -2  134.99    7.50
  -3   4  -2  287.97   10.60
  -3   4  -2  295.27   11.60
   3  -4   2  299.87    7.60
   3  -4   2  293.07    7.60
  -4   4  -2  158.38    9.10
  -4   4  -2  166.58    9.20
   4  -4   2  157.48    5.30
   4  -4   2  154.78    5.00
  -5   4  -2   23.90    5.80
  -5   4  -2   31.20    5.80
   5  -4   2   30.00    2.60
   5  -4   2   28.90    3.10
  -6   4  -2    3.30    5.80
   6  -4   2    3.40    2.30
   6  -4   2   -1.80    2.90
   7  -4   2    3.80    3.20
   8  -4   2    3.20    3.80
   9  -4   2    0.70    4.30
  10  -4   2    9.20    5.40
   9   3  -2   68.79    7.60
   8   3  -2   10.50    5.30
  -8  -3   2    0.40    4.50
   7   3  -2  120.99    9.40
  -7  -3   2  140.49    8.70
   6   3  -2    6.20    4.10
  -6  -3   2    6.90    3.90
   5   3  -2  262.97   10.50
  -5  -3   2  266.17   10.30
   4   3  -2   23.20    3.90
  -4  -3   2   16.80    3.40
   3   3  -2 1201.28   31.10
  -3  -3   2 1240.48   31.20
   2   3  -2   99.29    4.90
   2   3  -2  100.29    3.50
   2   3  -2  104.89    5.10
   2   3  -2   97.89    3.80
  -2  -3   2   94.49    4.80
  -2  -3   2  101.69    4.80
   1   3  -2  473.25   12.90
   1   3  -2  497.65   13.10
   1   3  -2  482.25   12.90
   1   3  -2  497.25   12.90
  -1  -3   2  496.65   12.90
  -1  -3   2  494.45   13.10
  -1  -3   2  501.95   13.00
   0   3  -2    6.60    1.20
   0   3  -2    0.90    0.90
   0   3  -2    6.20    2.50
   0   3  -2    3.70    2.60
   0  -3   2    6.80    2.50
   0  -3   2    6.30    1.70
   0  -3   2    4.60    1.60
  -1   3  -2  743.43   19.50
  -1   3  -2  760.02   20.00
   1  -3   2  717.43   19.70
  -2   3  -2   -3.70    3.30
  -2   3  -2    3.90    3.10
   2  -3   2    0.30    2.70
  -3   3  -2 1938.81   48.50
  -3   3  -2 1951.10   49.00
   3  -3   2 1976.80   46.60
   3  -3   2 1901.71   46.50
  -4   3  -2   46.10    4.90
  -4   3  -2   46.50    5.40
   4  -3   2   41.60    3.50
   4  -3   2   40.40    3.00
  -5   3  -2 1258.37   33.30
  -5   3  -2 1246.18   30.30
   5  -3   2 1285.17   31.30
   5  -3   2 1202.68   31.30
  -6   3  -2   20.10    2.30
   6  -3   2   18.50    3.00
   6  -3   2   16.80    3.60
   7  -3   2  195.58    8.70
   8  -3   2  111.39    8.00
   9  -3   2   25.50    5.20
  10  -3   2   70.89   11.50
   9   2  -2   41.80    6.80
   8   2  -2   37.10    6.20
  -8  -2   2   40.10    5.40
   7   2  -2   51.49    6.10
  -7  -2   2   44.10    5.30
   6   2  -2  152.98    8.80
  -6  -2   2  159.78    8.00
   5   2  -2  174.98    8.10
  -5  -2   2  184.18    8.10
   4   2  -2    1.30    3.10
  -4  -2   2    1.60    2.90
   3   2  -2   10.80    2.80
  -3  -2   2   11.30    2.80
  -3  -2   2    8.20    2.50
   2   2  -2  435.36   11.10
   2   2  -2  413.06   11.80
   2   2  -2  434.56   12.00
  -2  -2   2  439.26   12.00
  -2  -2   2  452.45   12.00
   1   2  -2 2084.79   50.29
   1   2  -2 2051.79   50.49
   1   2  -2 2161.08   50.49
   1   2  -2 2073.89   50.49
  -1  -2   2 2119.59   50.59
  -1  -2   2 2091.39   50.59
  -1  -2   2 2112.89   50.29
   0   2  -2 2648.14   64.49
   0   2  -2 2696.83   63.79
   0   2  -2 2710.43   64.09
   0   2  -2 2675.53   64.49
   0  -2   2 2700.03   64.49
   0  -2   2 2669.23   64.39
   0  -2   2 2684.63   64.19
   0  -2   2 2644.04   63.99
  -1   2  -2 2707.03   65.59
  -1   2  -2 2648.14   65.29
   1  -2   2 2740.23   65.49
  -2   2  -2    1.40    2.90
  -2   2  -2    4.30    3.20
   2  -2   2    4.10    1.10
   2  -2   2    3.70    2.90
  -3   2  -2  248.48    6.50
  -3   2  -2  241.98    9.00
  -3   2  -2  253.87    6.50
   3  -2   2  245.88    7.20
   3  -2   2  247.18    7.10
  -4   2  -2   37.30    2.50
  -4   2  -2   34.00    2.70
  -4   2  -2   32.80    4.40
   4  -2   2   38.90    3.20
   4  -2   2   39.00    2.90
  -5   2  -2   83.19    4.00
  -5   2  -2   93.99    7.70
   5  -2   2   93.49    4.80
   5  -2   2   82.99    5.40
  -6   2  -2  202.38    7.00
   6  -2   2  206.48    7.90
   6  -2   2  207.98    8.70
   7  -2   2   69.09    5.70
   8  -2   2  128.59    9.00
   9  -2   2   58.69    6.60
   9   1  -2    7.50    5.00
   8   1  -2   -1.20    4.40
  -8  -1   2   -2.40    3.40
   7   1  -2   80.49    6.70
  -7  -1   2   70.79    5.80
   6   1  -2  255.57   10.50
   6   1  -2  231.68    8.40
  -6  -1   2  266.47    9.70
   5   1  -2   92.59    4.80
   5   1  -2   83.39    6.50
  -5  -1   2   90.59    5.90
   4   1  -2  351.06   11.10
   3   1  -2  611.04   16.30
   3   1  -2  633.34   16.60
  -3  -1   2  614.04   16.50
  -3  -1   2  604.54   16.30
   2   1  -2   17.30    2.60
   2   1  -2   13.90    2.30
  -2  -1   2   11.90    2.40
  -2  -1   2   13.20    2.30
   1   1  -2 8108.29  198.28
   1   1  -2 8211.68  197.48
  -1  -1   2 8176.78  197.58
  -1  -1   2 8390.66  197.98
   0   1  -2 2455.95   57.59
   0   1  -2 2404.86   57.99
   0  -1   2 2373.96   57.79
   0  -1   2 2398.56   58.19
  -1   1  -2  284.17    6.40
  -1   1  -2  246.68    6.40
  -1   1  -2  245.88    8.40
   1  -1   2  265.37    6.70
   1  -1   2  241.68    6.60
  -2   1  -2 2615.14   64.09
  -2   1  -2 2684.83   63.19
   2  -1   2 2617.34   63.29
   2  -1   2 2684.23   63.29
   2  -1   2 2628.04   64.59
  -3   1  -2   21.00    3.30
  -3   1  -2   22.40    2.00
  -3   1  -2   23.80    2.10
   3  -1   2   20.70    2.30
   3  -1   2   22.10    2.40
   3  -1   2   20.10    3.40
  -4   1  -2  122.49    6.80
  -5   1  -2   -2.40    2.00
  -5   1  -2    0.20    3.90
   5  -1   2    2.10    3.20
   5  -1   2   -0.90    2.20
  -6   1  -2   30.80    3.50
  -6   1  -2   38.30    5.80
   6  -1   2   32.30    4.70
   7  -1   2  128.29    8.60
   8  -1   2  160.58    9.60
   9  -1   2    1.30    4.90
  10   0  -2   44.10    7.00
   9   0  -2   44.10    6.40
   8   0  -2    1.40    4.40
  -8   0   2    1.00    4.30
   7   0  -2  141.59    8.50
  -7   0   2  129.69    7.20
   6   0  -2  392.06   13.20
   6   0  -2  393.16   12.20
  -6   0   2  394.66   12.60
   5   0  -2   72.09    5.10
   5   0  -2   69.39    5.80
  -5   0   2   66.79    5.20
   4   0  -2  117.79    5.70
   4   0  -2  118.89    5.30
  -4   0   2  115.49    5.20
  -4   0   2  122.59    5.60
   3   0  -2   17.40    2.70
   3   0  -2   18.40    2.40
  -3   0   2   14.60    2.20
  -3   0   2   17.50    2.50
  -3   0   2   23.10    2.70
   2   0  -2  103.09    4.40
   2   0  -2  105.99    4.60
  -2   0   2  110.99    4.40
  -2   0   2  105.99    4.40
   1   0  -2  988.50   24.10
   1   0  -2  986.90   24.10
  -1   0   2  963.00   24.10
  -1   0   2 1002.50   24.10
   0   0  -2 3403.86   82.29
   0   0  -2 3403.06   82.09
   0   0   2 3451.35   82.69
   0   0   2 3390.66   82.89
  -1   0  -2 4120.59  101.89
  -1   0  -2 4122.19  102.09
  -1   0  -2 4304.37  103.09
   1   0   2 4288.77  102.69
   1   0   2 4479.05  102.59
  -2   0  -2  203.28    7.20
  -2   0  -2  211.08    6.40
  -2   0  -2  203.58    6.30
   2   0   2  208.68    6.60
   2   0   2  206.48    6.50
  -3   0  -2    7.90    2.00
  -3   0  -2    6.90    2.80
   3   0   2    5.20    2.10
   3   0   2    8.00    2.40
  -4   0  -2   50.29    4.30
  -4   0  -2   47.60    4.00
   4   0   2   47.20    3.90
   4   0   2   50.29    4.00
  -5   0  -2  131.19    7.30
  -5   0  -2  116.69    5.80
   5   0   2  118.69    5.80
   5   0   2  127.79    6.90
  -6   0  -2   25.30    3.70
   6   0   2   27.10    4.80
   7   0   2  178.98    9.50
   8   0   2    0.10    4.60
   9   0   2   62.69    7.30
  10  -1  -2   -5.20    5.00
   9  -1  -2   -4.80    4.30
   8  -1  -2  195.18    9.90
   7  -1  -2  351.06   12.60
  -7   1   2  344.87   11.70
   6  -1  -2   15.40    4.00
  -6   1   2   12.90    3.40
  -6   1   2   20.40    4.10
   5  -1  -2   36.80    4.00
  -5   1   2   36.20    3.60
  -5   1   2   28.80    3.80
   4  -1  -2  253.17    8.50
   4  -1  -2  247.58    8.10
  -4   1   2  260.87    8.30
  -4   1   2  263.07    8.80
   3  -1  -2  351.26   10.00
   3  -1  -2  350.26    9.90
  -3   1   2  349.17    9.80
  -3   1   2  352.86   10.40
  -3   1   2  345.67   10.00
   2  -1  -2  770.82   19.30
   2  -1  -2  746.63   19.20
  -2   1   2  732.13   19.20
  -2   1   2  804.02   19.30
   1  -1  -2  333.47    9.20
   1  -1  -2  350.16    9.30
  -1   1   2  340.57    9.20
  -1   1   2  348.27    9.40
   0  -1  -2  123.19    4.40
   0  -1  -2  119.89    4.50
   0   1   2  121.19    4.70
   0   1   2  127.99    4.40
  -1  -1  -2  167.68    5.40
  -1  -1  -2  135.39    5.30
   1   1   2  142.69    5.50
   1   1   2  168.78    5.30
  -2  -1  -2  149.39    5.70
  -2  -1  -2  153.18    6.00
  -2  -1  -2  156.48    5.80
   2   1   2  154.28    6.00
   2   1   2  162.48    5.60
  -3  -1  -2  418.36   11.90
  -3  -1  -2  417.76   11.90
   3   1   2  413.56   12.20
   3   1   2  428.26   12.00
  -5  -1  -2   85.89    6.40
  -5  -1  -2   83.49    5.50
   5   1   2   74.89    5.60
  -6  -1  -2    4.20    3.10
   6   1   2    5.60    4.40
   7   1   2  199.78   10.70
   8   1   2  102.49    8.40
   9   1   2   13.40    5.90
  10  -2  -2   32.70    6.00
   9  -2  -2    8.30    4.70
   8  -2  -2    3.70    4.10
   7  -2  -2  950.30   26.50
  -7   2   2  970.00   25.90
  -7   2   2  981.10   27.10
   6  -2  -2  125.09    7.00
  -6   2   2  123.19    6.30
  -6   2   2  116.89    8.40
   5  -2  -2   33.30    3.30
   5  -2  -2   32.30    3.70
  -5   2   2   34.50    3.40
  -5   2   2   35.90    4.50
   4  -2  -2  304.97    9.30
   4  -2  -2  307.27    9.50
  -4   2   2  312.17    9.30
  -4   2   2  316.17   10.60
   3  -2  -2  537.05   14.50
   3  -2  -2  541.35   14.40
  -3   2   2  564.84   14.40
  -3   2   2  535.45   14.50
  -3   2   2  554.14   15.60
   2  -2  -2  107.09    4.50
   2  -2  -2  108.29    4.40
  -2   2   2  104.79    4.50
  -2   2   2  105.19    4.20
   1  -2  -2  391.76   11.00
   1  -2  -2  423.46   11.00
  -1   2   2  421.16   10.90
  -1   2   2  401.26   11.10
   0  -2  -2  796.62   20.40
   0  -2  -2  812.12   20.50
   0   2   2  824.32   20.40
   0   2   2  808.12   20.50
  -1  -2  -2 6381.16  160.68
  -1  -2  -2 6680.03  162.38
   1   2   2 6795.22  161.58
   1   2   2 6977.30  160.68
  -2  -2  -2  427.16   11.40
   2   2   2  356.96   11.00
   2   2   2  370.06   11.30
  -3  -2  -2    9.30    2.60
  -3  -2  -2    5.90    2.60
   3   2   2   15.10    3.30
  -4  -2  -2    5.50    2.90
  -4  -2  -2   10.20    2.80
   4   2   2   10.10    3.70
  -5  -2  -2   16.80    3.60
  -5  -2  -2   18.80    3.70
   5   2   2   16.40    4.40
  -6  -2  -2   16.40    3.80
   6   2   2    7.30    4.60
   7   2   2   27.60    5.70
   8   2   2   19.20    5.80
  10  -3  -2   39.00    6.20
   9  -3  -2    2.50    4.30
   8  -3  -2  208.58    9.80
  -8   3   2  208.18   11.10
   7  -3  -2   44.50    4.90
  -7   3   2   41.80    5.90
  -7   3   2   48.80    4.30
   6  -3  -2  196.98    8.40
  -6   3   2  209.98    7.90
  -6   3   2  228.48   10.80
   5  -3  -2  295.57    9.50
   5  -3  -2  322.87   10.10
  -5   3   2  308.27    9.60
  -5   3   2  304.07   11.80
   4  -3  -2   48.00    3.90
   3  -3  -2   77.69    4.20
   3  -3  -2   79.89    4.00
  -3   3   2   80.49    4.10
  -3   3   2   76.99    3.90
  -3   3   2   86.99    6.90
   2  -3  -2 2609.44   63.09
   2  -3  -2 2637.74   63.09
  -2   3   2 2569.34   62.99
  -2   3   2 2634.94   62.99
   1  -3  -2  652.23   17.30
   1  -3  -2  709.13   17.40
  -1   3   2  665.23   17.20
  -1   3   2  656.73   17.30
   0  -3  -2  362.26   10.20
   0  -3  -2  357.96   10.30
   0   3   2  343.07   10.00
   0   3   2  365.26   10.40
  -1  -3  -2  680.23   17.80
  -1  -3  -2  657.23   17.60
   1   3   2  651.83   17.50
   1   3   2  671.33   17.80
  -2  -3  -2   51.09    4.10
   2   3   2   56.09    4.30
  -3  -3  -2   44.60    4.20
  -3  -3  -2   40.70    3.40
   3   3   2   39.20    4.30
  -5  -3  -2   -0.20    3.10
   5   3   2    6.00    4.30
  -6  -3  -2  100.59    7.10
   6   3   2   96.09    7.50
   7   3   2   63.69    7.00
   8   3   2   11.80    5.70
  10  -4  -2   62.79    7.00
   9  -4  -2   29.90    5.40
  -9   4   2   18.90    6.00
   8  -4  -2  118.69    8.00
  -8   4   2  122.19   10.20
   7  -4  -2  655.73   19.00
  -7   4   2  651.03   18.30
  -7   4   2  665.33   21.10
   6  -4  -2   20.90    3.50
   6  -4  -2   26.80    3.30
  -6   4   2   29.50    3.50
  -6   4   2   21.60    5.50
   5  -4  -2  522.75   14.80
   5  -4  -2  519.95   14.70
  -5   4   2  528.45   14.50
  -5   4   2  517.65   17.20
   4  -4  -2  145.79    5.80
   4  -4  -2  125.69    5.50
  -4   4   2  144.59    8.90
  -4   4   2  131.09    5.50
   3  -4  -2  290.97    9.00
   3  -4  -2  295.67    9.00
  -3   4   2  297.87   11.90
  -3   4   2  307.97    9.00
   2  -4  -2 1898.91   47.30
   2  -4  -2 1922.81   47.30
  -2   4   2 1982.70   47.60
  -2   4   2 1936.61   47.30
   1  -4  -2  374.76   11.10
   1  -4  -2  390.36   11.20
  -1   4   2  388.26   11.20
  -1   4   2  414.36   11.60
   0  -4  -2  538.85   15.00
   0  -4  -2  561.94   15.10
   0   4   2  545.15   15.00
  -1  -4  -2 2474.75   60.29
   1   4   2 2448.46   60.29
  -2  -4  -2   40.80    4.10
   2   4   2   34.70    4.10
  -3  -4  -2  105.39    6.60
  -3  -4  -2  101.49    5.50
   3   4   2   99.59    7.10
  -4  -4  -2  358.06   12.30
   4   4   2  362.86   12.80
  -5  -4  -2   95.59    7.00
   5   4   2  111.49    7.70
  -6  -4  -2   60.89    6.10
   6   4   2   79.99    7.50
   7   4   2   40.30    6.40
  10  -5  -2    6.20    4.80
   9  -5  -2   18.40    4.80
  -9   5   2   11.90    6.00
   8  -5  -2    4.60    3.80
  -8   5   2   -0.20    5.20
   7  -5  -2   78.59    6.50
  -7   5   2   80.19    8.00
   6  -5  -2   36.60    4.10
   6  -5  -2   37.50    3.70
  -6   5   2   34.70    3.50
  -6   5   2   33.70    6.40
   5  -5  -2  235.78    8.60
   5  -5  -2  243.38    8.40
  -5   5   2  243.78    8.10
  -5   5   2  263.47   12.70
   4  -5  -2  137.19    5.90
   4  -5  -2  126.89    5.80
  -4   5   2  138.59    9.70
  -4   5   2  137.59    5.60
   3  -5  -2   91.89    4.80
   3  -5  -2   99.09    5.00
  -3   5   2  106.39    4.80
  -3   5   2  101.89    9.00
   2  -5  -2   72.69    4.30
   2  -5  -2   69.99    4.30
  -2   5   2   66.89    4.30
   1  -5  -2    6.60    2.40
   1  -5  -2    7.40    2.30
  -1   5   2    3.30    2.50
   0  -5  -2   19.00    3.10
   0  -5  -2   18.20    5.00
   0   5   2   23.10    3.40
  -1  -5  -2  217.88    8.30
   1   5   2  227.68    8.50
  -2  -5  -2   50.69    4.60
   2   5   2   43.40    4.70
  -3  -5  -2    6.10    3.00
  -3  -5  -2    4.80    3.30
   3   5   2    8.80    4.30
  -4  -5  -2   19.10    3.90
   4   5   2   14.20    4.60
  -5  -5  -2   17.60    4.40
   5   5   2   10.20    5.20
  -6  -5  -2    0.00    4.30
   6   5   2    5.90    5.20
   7   5   2    9.50    5.50
  10  -6  -2  145.49    9.50
 -10   6   2  129.69   13.50
   9  -6  -2   29.50    5.20
  -9   6   2   17.50    6.60
   8  -6  -2   10.50    4.00
  -8   6   2    4.00    6.00
   7  -6  -2   94.49    6.90
  -7   6   2  112.99   11.30
   6  -6  -2  230.08    8.50
   6  -6  -2  230.68    9.10
  -6   6   2  255.27   13.10
  -6   6   2  236.88    8.10
   5  -6  -2  688.03   19.00
   5  -6  -2  689.33   18.80
  -5   6   2  677.63   18.20
  -5   6   2  707.33   22.50
   4  -6  -2  193.38    7.40
   4  -6  -2  192.98    7.50
  -4   6   2  198.78   11.60
  -4   6   2  204.68    7.00
   3  -6  -2   31.80    3.30
   3  -6  -2   34.20    3.40
  -3   6   2   29.00    6.00
  -3   6   2   33.00    3.20
   2  -6  -2    6.50    2.50
   2  -6  -2    7.20    2.50
  -2   6   2    6.30    2.70
   1  -6  -2    1.30    2.30
   1  -6  -2    2.90    2.50
  -1   6   2    2.50    2.70
   0  -6  -2  397.56   12.40
   0   6   2  404.56   12.40
  -1  -6  -2 1661.73   42.80
   1   6   2 1703.33   42.80
  -2  -6  -2   31.20    4.50
   2   6   2   35.80    4.80
  -3  -6  -2  242.28   10.30
   3   6   2  241.88   10.70
  -4  -6  -2   39.40    5.00
   4   6   2   46.30    6.00
  -5  -6  -2   44.80    5.70
   5   6   2   73.49    7.20
  -6  -6  -2  137.29    9.60
   6   6   2  154.38   10.80
  10  -7  -2   49.99    6.50
 -10   7   2   52.19    8.70
   9  -7  -2   14.00    4.50
  -9   7   2   21.40    6.90
   8  -7  -2  172.88    8.90
  -8   7   2  158.28   13.30
   7  -7  -2   11.50    3.70
  -7   7   2    5.50    6.30
   6  -7  -2   62.39    5.00
  -6   7   2   55.59    7.70
   5  -7  -2    4.70    3.00
   5  -7  -2    4.00    2.90
  -5   7   2   -0.10    2.20
  -5   7   2    2.70    6.30
   3  -7  -2   20.50    3.30
   3  -7  -2   21.90    3.30
  -3   7   2   27.60    6.60
  -3   7   2   22.60    3.10
   2  -7  -2   98.29    5.70
   2  -7  -2   97.99    5.80
  -2   7   2   98.59    5.60
   1  -7  -2   23.20    3.40
   0  -7  -2    9.00    3.30
   0   7   2    9.40    3.50
  -1  -7  -2  119.69    7.20
   1   7   2  107.39    7.20
  -2  -7  -2   10.40    3.80
   2   7   2   17.20    4.20
  -3  -7  -2   29.90    4.90
   3   7   2   40.90    5.60
  -4  -7  -2   -3.30    3.70
   4   7   2    3.30    4.70
  -5  -7  -2   48.30    6.30
   5   7   2   63.09    7.30
  -6  -7  -2    1.40    6.70
   6   7   2    6.00    5.40
  10  -8  -2   13.00    6.40
 -10   8   2   14.70    7.80
   9  -8  -2   -0.10    4.10
  -9   8   2   -1.30    6.90
   8  -8  -2   30.10    4.60
  -8   8   2   26.40    7.80
   7  -8  -2   63.99    5.50
  -7   8   2   63.19    8.80
   6  -8  -2   25.50    4.00
  -6   8   2   24.80    7.20
   5  -8  -2   66.59    5.70
  -5   8   2   69.29    8.40
   4  -8  -2    4.40    2.90
   4  -8  -2    3.00    2.90
  -4   8   2    2.70    2.60
  -4   8   2    2.10    6.30
   3  -8  -2    8.80    3.20
   3  -8  -2    8.50    5.20
  -3   8   2   13.60    3.10
  -3   8   2   15.50    6.70
   2  -8  -2  564.04   16.70
  -2   8   2  570.84   20.70
  -2   8   2  581.34   16.30
   1  -8  -2    1.50    3.10
  -1   8   2   -0.40    3.00
   0  -8  -2  131.89    7.50
   0   8   2  130.89    7.30
  -1  -8  -2   60.29    5.70
   1   8   2   44.90    5.20
  -2  -8  -2   14.30    4.30
   2   8   2   27.90    5.00
  -3  -8  -2  101.09    8.20
   3   8   2   98.29    8.50
  -4  -8  -2   17.70    4.90
   4   8   2   35.40    6.00
  -5  -8  -2   36.10    5.90
   5   8   2   49.50    7.00
   9  -9  -2   12.50    4.60
  -9   9   2    6.50    7.50
   8  -9  -2   28.80    4.80
  -8   9   2   33.70    8.20
   7  -9  -2    1.90    3.60
  -7   9   2   -3.60    6.50
   6  -9  -2  124.09    7.30
  -6   9   2  118.79   12.80
   5  -9  -2  223.08    9.00
  -5   9   2  221.28   15.10
   4  -9  -2   33.50    4.30
  -4   9   2   30.30    7.50
   3  -9  -2  204.68    8.90
  -3   9   2  199.98   13.80
   2  -9  -2   12.70    3.70
  -2   9   2   15.60    6.80
   1  -9  -2   49.40    5.00
  -1   9   2   33.30    4.30
   0  -9  -2   -1.60    3.40
   0   9   2    5.40    3.50
  -1  -9  -2   48.10    5.50
   1   9   2   41.40    5.10
  -2  -9  -2    8.30    4.20
   2   9   2    8.80    7.10
  -3  -9  -2   41.60    5.80
  -4  -9  -2   -3.40    4.00
   9 -10  -2    2.20    4.20
  -9  10   2    4.10    7.90
   8 -10  -2   12.60    4.20
  -8  10   2    4.40    7.70
   7 -10  -2    9.40    4.00
  -7  10   2    1.50    7.30
   6 -10  -2   11.20    3.70
  -6  10   2    7.10    7.60
   5 -10  -2  102.49    6.90
  -5  10   2   98.99   10.50
   4 -10  -2   -0.70    3.20
  -4  10   2    1.50    7.00
   3 -10  -2  175.78    8.60
  -3  10   2  193.08   14.00
   2 -10  -2   13.30    4.00
  -2  10   2    4.50    6.60
   1 -10  -2   16.00    4.10
  -1  10   2   12.20    7.00
   0 -10  -2   13.80    4.30
   0  10   2  -15.70    6.00
  -1 -10  -2    1.80    3.90
  -2 -10  -2   29.50    5.40
  -3 -10  -2   76.79    7.30
   8 -11  -2   45.40    5.70
  -8  11   2   42.30   10.00
   7 -11  -2    8.60    3.70
  -7  11   2   -5.90    7.90
   6 -11  -2  221.08    9.80
  -6  11   2  201.68   16.60
   5 -11  -2   98.99    7.20
  -5  11   2   84.39   10.60
   4 -11  -2   43.80    5.20
  -4  11   2   24.50    8.10
   3 -11  -2  224.28   10.20
  -3  11   2  201.18   15.70
   2 -11  -2   -2.20    3.60
  -2  11   2   -2.70    6.60
   1 -11  -2   79.79    6.70
  -1  11   2   86.59   10.00
   0 -11  -2  100.19    8.10
   0  11   2   73.69    9.40
  -1 -11  -2   13.70    4.80
   1  11   2    5.80    7.10
  -2 -11  -2   43.30    6.20
   7 -12  -2    6.40    4.00
  -7  12   2   -0.20    8.80
   6 -12  -2   11.00    4.20
  -6  12   2    3.70    8.30
   5 -12  -2   11.20    4.10
  -5  12   2   10.60    8.70
   4 -12  -2    5.20    3.90
  -4  12   2    0.60    7.80
   3 -12  -2    8.30    4.10
  -3  12   2   -8.00    7.50
   2 -12  -2    7.90    4.10
  -2  12   2   -4.10    7.60
   1 -12  -2   32.60    5.40
  -1  12   2   18.80    8.20
   0 -12  -2    1.90    4.40
   0  12   2    2.40    7.50
  -5  13   2   -9.40    8.30
  -4  13   2   92.39   12.10
  -3  13   2   87.89   11.60
   0 -13   3    1.80    6.30
  -1  13  -3    5.80    7.10
   1 -13   3   -3.50    3.60
  -2  13  -3    1.00    7.30
   2 -13   3    6.90    3.60
  -3  13  -3    2.30    7.60
   3 -13   3    9.70    3.50
  -4  13  -3    5.10    7.80
   4 -13   3    1.90    2.90
  -5  13  -3   57.89   10.20
   5 -13   3   49.40    4.50
  -6  13  -3   17.80    9.10
   6 -13   3   11.80    3.20
  -1 -12   3   65.59    6.50
   0  12  -3  119.19   11.60
   0 -12   3  117.29    8.20
  -1  12  -3   10.90    6.50
   1 -12   3    7.10    3.60
  -2  12  -3   29.90    7.60
   2 -12   3   24.80    4.00
  -3  12  -3   -2.20    6.70
   3 -12   3    0.10    2.90
  -4  12  -3   -3.20    7.00
   4 -12   3    3.40    2.80
  -5  12  -3  104.59   11.40
   5 -12   3  101.29    6.00
  -6  12  -3   51.49    9.80
   6 -12   3   42.30    4.00
  -7  12  -3    1.40    8.30
   7 -12   3    3.60    2.80
  -3 -11   3  121.79    9.20
  -2 -11   3    6.00    4.10
   1  11  -3   35.80    6.40
  -1 -11   3   30.50    4.80
   0  11  -3   88.49    8.50
   0 -11   3   85.69    7.00
  -1  11  -3   46.20    7.40
   1 -11   3   51.59    4.80
  -2  11  -3   21.10    7.00
   2 -11   3   21.10    3.70
  -3  11  -3   30.10    7.70
   3 -11   3   24.20    3.50
  -4  11  -3    5.40    6.70
   4 -11   3    7.20    2.70
  -5  11  -3   19.50    7.70
   5 -11   3   20.10    3.10
  -6  11  -3   30.10    8.50
   6 -11   3   60.99    4.60
  -7  11  -3    9.10    8.40
   7 -11   3   22.10    3.30
  -8  11  -3    6.10    8.60
   8 -11   3   21.00    3.60
  -4 -10   3   -3.30    4.20
  -3 -10   3   -0.30    4.00
  -2 -10   3    3.60    3.70
   1  10  -3    9.50    5.00
  -1 -10   3    5.40    3.60
   0  10  -3   62.79    7.20
   0 -10   3   58.29    5.20
  -1  10  -3   36.10    6.70
   1 -10   3   33.80    4.00
  -2  10  -3  346.57   15.80
   2 -10   3  333.17   10.80
  -3  10  -3   63.89    8.30
   3 -10   3   74.59    4.90
  -4  10  -3   -0.90    6.40
   4 -10   3   -0.50    2.30
  -5  10  -3   10.20    7.10
   5 -10   3   15.10    2.60
  -6  10  -3   -1.90    7.00
   6 -10   3   -1.80    2.30
  -7  10  -3   45.20    8.80
   7 -10   3   37.00    3.60
  -8  10  -3  114.29   12.00
   8 -10   3  138.19    6.60
  -5  -9   3    0.20    4.70
  -4  -9   3   47.00    6.00
  -3  -9   3   15.40    4.50
   2   9  -3  158.78    9.40
  -2  -9   3  169.58    8.60
   1   9  -3  327.47   13.40
  -1  -9   3  318.87   11.40
   0   9  -3  120.69    9.80
   0  -9   3  109.59    6.50
  -1   9  -3   23.80    6.00
  -2   9  -3   93.39    8.60
   2  -9   3  109.09    5.40
  -3   9  -3   -4.50    5.90
   3  -9   3    0.50    2.20
  -4   9  -3  214.68   13.50
   4  -9   3  220.88    7.20
  -5   9  -3  493.95   20.50
   5  -9   3  505.75   13.60
  -6   9  -3   26.50    7.50
   6  -9   3   33.70    3.20
  -7   9  -3    1.60    6.90
   7  -9   3   10.40    2.90
  -8   9  -3   13.00    8.00
   8  -9   3   10.60    3.30
  -9   9  -3   -3.80    8.10
   9  -9   3   10.60    3.70
  -6  -8   3    7.60    5.00
  -5  -8   3   13.40    4.70
  -4  -8   3    4.60    4.00
  -3  -8   3    0.60    3.60
   2   8  -3   24.50    4.50
   2   8  -3   14.90    3.40
  -2  -8   3   18.90    3.90
   1   8  -3   69.39    4.80
   1   8  -3   52.39    6.00
  -1  -8   3   60.39    5.00
   0   8  -3   68.69    6.60
   0   8  -3   61.79    3.50
   0  -8   3   62.69    5.10
   0  -8   3   68.39    5.00
  -1   8  -3   57.49    6.70
   1  -8   3   56.59    4.30
   1  -8   3   53.09    4.40
  -2   8  -3   51.79    7.30
   2  -8   3   59.69    4.00
   2  -8   3   70.59    4.00
  -3   8  -3   18.50    6.50
   3  -8   3   18.70    2.30
   3  -8   3   17.40    2.40
  -4   8  -3   13.30    6.70
   4  -8   3    7.30    2.00
   4  -8   3    7.60    2.00
  -5   8  -3  203.48   13.70
   5  -8   3  183.18    6.70
   5  -8   3  183.48    6.10
  -6   8  -3   34.90    7.50
   6  -8   3   49.00    4.00
  -7   8  -3   13.20    7.00
   7  -8   3   14.30    3.00
  -8   8  -3    4.30    7.00
   8  -8   3    6.00    3.20
   9  -8   3   -6.00    3.50
  -7  -7   3   60.09    7.30
  -6  -7   3   10.70    4.70
   5   7  -3  102.69    8.30
  -5  -7   3   91.29    7.50
   4   7  -3   15.40    4.10
  -4  -7   3    7.70    4.00
   3   7  -3  343.07   11.40
   3   7  -3  360.66   12.00
  -3  -7   3  360.96   12.40
   2   7  -3   27.60    3.80
   2   7  -3   28.50    4.40
  -2  -7   3   29.10    4.00
   1   7  -3  100.69    5.50
   1   7  -3  120.79    8.20
  -1  -7   3  123.29    6.20
  -1  -7   3  149.09    6.50
   0   7  -3  175.88    5.80
   0   7  -3  190.98    9.90
   0  -7   3  186.98    7.00
   0  -7   3  181.98    6.90
  -1   7  -3 1344.17   35.80
  -1   7  -3 1292.47   34.90
   1  -7   3 1317.47   32.90
   1  -7   3 1330.47   32.80
  -2   7  -3  547.45   18.80
  -2   7  -3  562.44   18.00
   2  -7   3  556.94   14.30
   2  -7   3  537.25   14.30
  -3   7  -3   80.09    7.90
  -3   7  -3   91.89    9.00
   3  -7   3   80.29    3.40
  -4   7  -3  546.85   20.00
  -4   7  -3  568.44   19.20
   4  -7   3  575.04   14.30
   4  -7   3  555.24   14.20
  -5   7  -3    4.00    6.00
   5  -7   3   -1.90    1.90
   5  -7   3   -1.40    1.70
  -6   7  -3  134.39   12.30
   6  -7   3  116.89    5.40
  -7   7  -3  148.49   13.70
   7  -7   3  152.28    6.80
   8  -7   3   47.50    4.60
   9  -7   3   22.00    4.50
   7   6  -3   15.10    5.30
  -7  -6   3    5.60    4.80
   6   6  -3    1.50    4.70
  -6  -6   3    0.60    4.30
   5   6  -3  195.08    9.70
  -5  -6   3  198.78    9.90
   4   6  -3   -3.20    3.50
  -4  -6   3    3.00    3.60
   3   6  -3   45.30    4.70
   3   6  -3   54.29    4.90
  -3  -6   3   35.60    4.30
   2   6  -3    7.10    3.30
   2   6  -3   12.60    3.20
  -2  -6   3   14.00    3.10
   1   6  -3  474.15   12.90
   1   6  -3  463.65   13.60
   1   6  -3  450.35   14.30
  -1  -6   3  470.55   13.30
  -1  -6   3  456.85   13.30
   0   6  -3   89.89    6.50
   0   6  -3   91.39    3.80
   0   6  -3  102.99    7.20
   0  -6   3   94.29    4.70
   0  -6   3   98.09    4.60
  -1   6  -3    2.70    4.00
  -1   6  -3    4.00    3.70
   1  -6   3    3.60    1.70
   1  -6   3    4.20    1.70
  -2   6  -3   85.79    7.40
  -2   6  -3   83.19    8.40
   2  -6   3   80.49    3.30
   2  -6   3   85.69    3.30
  -3   6  -3   32.10    5.80
  -3   6  -3   34.70    5.40
  -4   6  -3   36.70    6.30
  -4   6  -3   43.10    6.50
   4  -6   3   40.30    2.60
   4  -6   3   42.60    2.50
  -5   6  -3   30.80    6.80
  -5   6  -3   45.20    7.10
   5  -6   3   52.19    3.70
   5  -6   3   48.20    3.10
  -6   6  -3   -3.90    5.90
   6  -6   3    2.90    2.50
  -7   6  -3    6.90    6.50
   7  -6   3    7.10    3.00
   8  -6   3    7.30    3.70
   9  -6   3    3.90    4.00
   8   5  -3   24.20    5.80
  -8  -5   3   16.90    5.60
   7   5  -3   27.70    5.80
  -7  -5   3   23.20    5.50
   6   5  -3   30.50    5.60
  -6  -5   3   34.20    5.30
   5   5  -3   90.79    6.70
  -5  -5   3   76.29    6.10
   4   5  -3 1202.28   31.90
  -4  -5   3 1207.98   32.10
   3   5  -3   18.30    3.70
  -3  -5   3   14.90    3.40
   2   5  -3  313.57    9.20
   2   5  -3  312.37    9.60
   2   5  -3  312.67    9.80
  -2  -5   3  290.27    9.70
  -2  -5   3  298.17    9.90
   1   5  -3   87.99    5.10
   1   5  -3   82.39    4.10
   1   5  -3   87.89    5.80
  -1  -5   3   84.09    4.60
  -1  -5   3   76.99    4.50
   0   5  -3  794.12   21.60
   0   5  -3  787.62   19.50
   0   5  -3  764.22   19.50
   0   5  -3  787.12   21.20
   0  -5   3  796.82   20.00
   0  -5   3  816.92   20.10
   0  -5   3  781.92   21.40
  -1   5  -3  248.88    9.50
  -1   5  -3  255.27   10.30
   1  -5   3  254.97    6.90
   1  -5   3  246.08    6.90
  -2   5  -3  457.35   15.20
  -2   5  -3  462.95   14.60
  -3   5  -3  151.58    9.40
  -3   5  -3  138.79    8.30
  -4   5  -3  582.04   18.50
  -4   5  -3  618.64   19.60
   4  -5   3  597.74   14.90
   4  -5   3  585.64   14.90
  -5   5  -3    8.80    5.90
  -5   5  -3   10.70    6.10
   5  -5   3    9.20    1.90
   5  -5   3   11.10    2.40
  -6   5  -3  341.37   15.90
  -6   5  -3  344.47   15.00
   6  -5   3  332.67   10.40
   6  -5   3  330.77   10.10
   7  -5   3   12.30    3.30
   8  -5   3   16.10    4.00
   9  -5   3   31.30    5.10
   8   4  -3   16.90    5.30
  -8  -4   3   19.10    5.30
   7   4  -3   81.79    7.10
  -7  -4   3   57.89    6.50
   6   4  -3   11.50    4.60
  -6  -4   3    8.40    4.20
   5   4  -3   30.90    4.90
  -5  -4   3   46.60    5.10
   4   4  -3   70.29    5.40
  -4  -4   3   57.29    4.80
   3   4  -3   80.49    5.60
  -3  -4   3   83.69    5.50
   2   4  -3  337.27    9.50
   2   4  -3  350.86   10.40
   2   4  -3  348.07    9.60
  -2  -4   3  339.97   10.30
  -2  -4   3  331.97   10.30
   1   4  -3  120.69    5.40
   1   4  -3  119.99    5.60
   1   4  -3  117.39    4.70
   1   4  -3  118.49    4.60
  -1  -4   3  121.09    5.00
  -1  -4   3  126.39    5.50
  -1  -4   3  119.79    4.90
   0   4  -3  158.98    4.60
   0   4  -3  163.48    4.60
   0   4  -3  171.88    7.00
   0   4  -3  151.08    6.60
   0  -4   3  155.38    5.20
   0  -4   3  153.68    6.70
   0  -4   3  170.88    5.30
  -1   4  -3  521.65   15.40
  -1   4  -3  570.44   16.20
   1  -4   3  546.65   13.40
   1  -4   3  559.94   13.40
   1  -4   3  538.95   15.80
  -2   4  -3  132.79    7.50
  -2   4  -3  127.59    7.70
  -3   4  -3   18.10    4.40
  -3   4  -3   20.80    4.40
  -4   4  -3   84.19    9.00
  -4   4  -3   79.89    7.70
   4  -4   3   66.39    3.20
   4  -4   3   74.29    3.70
  -5   4  -3  309.17   12.90
   5  -4   3  310.07    9.00
   5  -4   3  297.27    9.30
  -6   4  -3   22.10    6.30
   6  -4   3   24.40    3.70
   6  -4   3   28.90    3.10
   7  -4   3   -4.00    3.10
   8  -4   3    1.00    3.70
   9  -4   3    3.30    4.30
   9   3  -3   13.50    5.60
   8   3  -3   25.80    5.40
  -8  -3   3   14.70    4.90
   7   3  -3  110.49    8.50
  -7  -3   3   96.19    7.90
   6   3  -3   35.40    5.10
  -6  -3   3   30.10    4.90
   5   3  -3  660.63   19.20
  -5  -3   3  633.84   18.80
   4   3  -3   78.09    5.60
  -4  -3   3   76.99    5.60
   3   3  -3    9.30    2.90
   3   3  -3   10.30    1.90
  -3  -3   3    9.80    2.80
   2   3  -3  418.66   11.30
   2   3  -3  408.26   11.70
  -2  -3   3  414.56   11.80
  -2  -3   3  414.06   11.70
   1   3  -3  236.48    7.00
   1   3  -3  242.18    7.70
   1   3  -3  235.18    7.50
   1   3  -3  233.28    7.00
  -1  -3   3  241.78    7.20
  -1  -3   3  234.68    7.40
  -1  -3   3  243.28    7.30
   0   3  -3  854.11   22.30
   0   3  -3  858.11   20.70
   0   3  -3  856.91   20.70
   0   3  -3  825.02   22.10
   0  -3   3  880.81   21.10
   0  -3   3  859.81   21.00
   0  -3   3  861.71   22.30
  -1   3  -3  844.22   21.90
  -1   3  -3  807.72   22.20
   1  -3   3  824.82   22.10
  -2   3  -3  160.98    7.80
  -2   3  -3  151.28    7.40
  -3   3  -3  651.93   18.60
   3  -3   3  646.44   16.20
   3  -3   3  660.23   16.20
  -4   3  -3 1970.00   49.60
   4  -3   3 1966.00   47.50
   4  -3   3 1941.31   47.50
  -5   3  -3   26.70    5.50
   5  -3   3   23.00    2.80
   5  -3   3   26.20    3.30
  -6   3  -3  104.19    9.90
   6  -3   3   98.59    5.30
   6  -3   3   91.89    6.40
   7  -3   3   11.80    3.90
   8  -3   3   18.10    4.60
   9  -3   3   77.19    7.10
   9   2  -3   -2.50    4.70
   8   2  -3   38.80    6.00
  -8  -2   3   41.90    5.70
   7   2  -3   -1.80    4.00
  -7  -2   3   -1.00    3.50
   6   2  -3  639.94   19.50
  -6  -2   3  662.53   19.30
   5   2  -3  220.78    9.20
   5   2  -3  205.88    7.20
  -5  -2   3  229.48    8.80
   4   2  -3   92.09    5.70
  -4  -2   3   95.19    5.90
   3   2  -3  156.18    6.60
  -3  -2   3  169.18    6.50
  -3  -2   3  153.78    6.30
   2   2  -3  324.07    9.50
   2   2  -3  325.87    9.40
  -2  -2   3  324.77    9.50
  -2  -2   3  334.97    9.70
   1   2  -3   99.99    5.10
   1   2  -3  105.69    4.10
   1   2  -3  111.39    4.00
  -1  -2   3  104.09    4.30
  -1  -2   3  102.09    4.70
  -1  -2   3  104.99    4.30
   0   2  -3 1171.88   28.10
   0   2  -3 1142.69   29.30
   0   2  -3 1166.08   28.10
   0  -2   3 1192.28   29.50
   0  -2   3 1185.48   28.30
   0  -2   3 1146.99   28.20
  -1   2  -3  253.37    8.60
   1  -2   3  257.47    9.10
   1  -2   3  241.28    6.40
   1  -2   3  252.27    6.40
  -2   2  -3  307.17   10.40
   2  -2   3  306.37    8.10
   2  -2   3  315.17   11.40
   2  -2   3  322.57    8.20
  -3   2  -3 1115.09   28.90
   3  -2   3 1105.49   27.20
   3  -2   3 1090.09   27.10
  -4   2  -3  164.88    8.40
  -4   2  -3  161.08    5.00
  -4   2  -3  170.68    6.70
   4  -2   3  155.88    5.70
   4  -2   3  152.08    6.00
  -5   2  -3  103.89    8.20
  -5   2  -3  104.79    4.30
   5  -2   3  113.19    5.20
   5  -2   3  111.29    6.00
  -6   2  -3  205.58   10.90
   6  -2   3  201.28    8.60
   6  -2   3  181.28    7.60
   7  -2   3   86.09    7.20
   8  -2   3    4.20    4.30
   9  -2   3   12.70    5.30
   9   1  -3    2.70    4.90
   8   1  -3    3.90    4.50
  -8  -1   3    6.50    4.00
   7   1  -3  100.29    8.00
  -7  -1   3   90.29    7.30
   6   1  -3   11.90    4.20
  -6  -1   3   10.30    3.60
   5   1  -3   58.59    5.10
  -5  -1   3   46.50    4.40
   4   1  -3  857.91   22.60
  -4  -1   3  845.52   22.50
   3   1  -3  772.82   20.30
   3   1  -3  795.82   20.50
  -3  -1   3  772.52   20.30
  -3  -1   3  795.02   20.50
   2   1  -3 1258.17   31.20
   2   1  -3 1231.98   31.20
  -2  -1   3 1299.87   31.30
  -2  -1   3 1269.27   31.20
   1   1  -3  427.66   11.50
   1   1  -3  455.65   11.50
  -1  -1   3  435.26   11.60
  -1  -1   3  442.76   11.60
   0   1  -3 1761.42   43.50
   0   1  -3 1817.02   42.60
   0   1  -3 1749.92   42.60
   0  -1   3 1723.53   42.60
   0  -1   3 1824.82   42.70
  -1   1  -3  109.99    3.70
  -1   1  -3  133.39    6.20
  -1   1  -3  137.39    3.90
   1  -1   3  124.49    4.10
   1  -1   3  141.19    4.40
  -2   1  -3  150.68    4.70
  -2   1  -3  153.78    6.80
   2  -1   3  152.88    5.00
   2  -1   3  156.48    5.20
  -3   1  -3  614.44   17.40
  -3   1  -3  617.34   15.80
  -3   1  -3  614.34   15.80
   3  -1   3  622.24   16.10
   3  -1   3  626.54   16.20
  -4   1  -3  492.95   12.90
  -4   1  -3  507.85   14.80
   4  -1   3  433.06   13.10
   4  -1   3  485.05   13.50
  -5   1  -3  462.75   15.20
  -5   1  -3  464.75   13.10
   5  -1   3  470.15   14.10
   5  -1   3  475.85   13.60
  -6   1  -3  747.73   20.50
  -6   1  -3  772.92   22.20
   6  -1   3  766.02   21.40
   7  -1   3   60.29    6.10
   8  -1   3   98.99    8.60
   9  -1   3   64.89    7.30
  10   0  -3    3.50    5.10
   9   0  -3   43.00    6.20
   8   0  -3   -0.60    4.20
  -8   0   3   -2.90    3.40
   7   0  -3    0.40    3.90
  -7   0   3   10.10    3.70
   6   0  -3  202.68    9.10
  -6   0   3  210.18    8.60
   5   0  -3  282.67    9.90
  -5   0   3  252.17    9.40
  -5   0   3  280.57    8.80
   4   0  -3  101.29    5.70
  -4   0   3  101.59    4.90
  -4   0   3  104.49    5.50
   3   0  -3 1626.24   39.30
   3   0  -3 1562.04   39.10
  -3   0   3 1567.04   39.20
  -3   0   3 1597.64   39.30
   2   0  -3  272.67    8.20
   2   0  -3  280.27    8.20
  -2   0   3  277.57    8.30
  -2   0   3  283.37    8.30
   1   0  -3    0.60    1.70
   1   0  -3   -1.10    1.70
  -1   0   3    2.20    1.80
  -1   0   3    4.40    1.90
   0   0  -3  169.88    5.40
   0   0  -3  186.08    5.60
   0   0   3  173.78    5.60
   0   0   3  178.98    5.50
  -1   0  -3 1636.44   39.70
  -1   0  -3 1600.64   40.50
  -1   0  -3 1643.74   39.70
   1   0   3 1682.03   39.80
   1   0   3 1637.14   39.90
  -2   0  -3 2296.37   55.39
  -2   0  -3 2280.07   55.39
  -2   0  -3 2256.67   56.09
   2   0   3 2283.67   55.49
   2   0   3 2349.67   55.49
  -3   0  -3  188.68    6.40
  -3   0  -3  182.88    7.70
   3   0   3  183.58    6.50
   3   0   3  183.18    6.80
  -4   0  -3   25.90    4.10
  -4   0  -3   28.50    3.00
   4   0   3   25.00    3.60
   4   0   3   29.40    3.10
  -5   0  -3  117.09    5.80
  -5   0  -3  117.89    7.90
   5   0   3  118.49    7.10
  -6   0  -3   77.69    7.30
  -6   0  -3   81.09    5.40
   6   0   3   78.59    6.20
   7   0   3   34.40    5.50
   8   0   3   66.19    6.80
   9   0   3    0.60    5.50
  10  -1  -3   -1.80    5.00
   9  -1  -3   -1.30    4.50
   8  -1  -3    8.20    4.40
  -8   1   3    2.40    3.40
   7  -1  -3   23.30    4.70
  -7   1   3   22.80    4.00
   6  -1  -3    8.80    3.70
  -6   1   3   19.70    3.60
  -6   1   3   13.90    3.80
   5  -1  -3    4.30    2.90
  -5   1   3    1.70    2.90
  -5   1   3    3.90    2.70
   4  -1  -3  710.43   18.80
   4  -1  -3  697.03   18.90
  -4   1   3  700.93   19.00
  -4   1   3  726.23   18.90
   3  -1  -3 2231.28   56.69
   3  -1  -3 2357.66   56.79
  -3   1   3 2376.46   56.79
  -3   1   3 2376.66   56.89
   2  -1  -3   69.59    3.90
   2  -1  -3   77.39    4.10
  -2   1   3   76.39    4.20
  -2   1   3   75.59    4.00
   1  -1  -3  315.87    9.00
   1  -1  -3  327.17    9.00
  -1   1   3  318.57    8.90
  -1   1   3  309.07    9.10
   0  -1  -3 2600.44   63.29
   0  -1  -3 2636.74   63.29
   0   1   3 2624.94   63.29
   0   1   3 2661.93   63.39
  -1  -1  -3  582.74   14.40
  -1  -1  -3  493.35   14.30
   1   1   3  536.65   14.50
   1   1   3  565.04   14.40
  -2  -1  -3 4208.38  101.59
  -2  -1  -3 4200.08  101.29
   2   1   3 4311.07  101.39
   2   1   3 4169.98  101.39
  -3  -1  -3   18.50    2.70
  -3  -1  -3   21.60    3.60
   3   1   3   21.90    3.20
   3   1   3   22.10    2.90
  -4  -1  -3   21.50    3.10
  -4  -1  -3   26.60    3.90
   4   1   3   25.90    3.90
  -5  -1  -3  110.99    6.10
  -5  -1  -3  119.69    7.60
   5   1   3  126.69    7.80
  -6  -1  -3   24.10    3.70
  -6  -1  -3   25.00    4.40
   6   1   3   24.60    4.70
   7   1   3   64.39    6.80
   8   1   3   75.99    7.40
  10  -2  -3   11.80    5.20
   9  -2  -3   99.79    8.60
   8  -2  -3   88.09    6.80
  -8   2   3   86.99    8.00
   7  -2  -3   12.90    4.10
  -7   2   3   15.80    4.60
  -7   2   3   22.90    3.90
   6  -2  -3 1008.70   27.30
  -6   2   3 1039.20   27.10
  -6   2   3 1030.60   27.90
   5  -2  -3  125.09    5.90
  -5   2   3  126.69    7.40
  -5   2   3  115.99    5.90
   4  -2  -3    4.80    2.40
   4  -2  -3    8.20    2.20
  -4   2   3    1.80    3.20
  -4   2   3    8.60    2.50
   3  -2  -3  354.36   10.30
   3  -2  -3  340.67   10.10
  -3   2   3  353.46   10.20
  -3   2   3  349.57   10.10
   2  -2  -3  801.52   20.70
   2  -2  -3  796.72   20.70
  -2   2   3  823.62   20.60
  -2   2   3  822.82   20.80
   1  -2  -3 4491.55  107.69
   1  -2  -3 4473.35  106.49
  -1   2   3 4518.75  107.59
  -1   2   3 4318.17  106.39
   0  -2  -3 5641.64  133.49
   0  -2  -3 5312.67  131.19
   0   2   3 5649.53  134.69
   0   2   3 5374.36  131.09
  -1  -2  -3  561.64   15.20
  -1  -2  -3  571.24   15.20
   1   2   3  584.74   15.40
   1   2   3  545.95   15.10
  -2  -2  -3  328.87    9.90
   2   2   3  314.17    9.80
   2   2   3  320.37   10.20
  -3  -2  -3  100.29    6.10
  -3  -2  -3  101.39    5.60
   3   2   3  110.19    6.20
  -4  -2  -3   86.09    6.00
  -4  -2  -3   80.59    5.50
   4   2   3   79.79    6.40
  -5  -2  -3   99.89    6.60
  -5  -2  -3   94.39    6.10
   5   2   3  102.69    7.80
  -6  -2  -3   51.79    5.10
   6   2   3   60.79    6.30
   7   2   3   83.39    7.90
   8   2   3   38.40    6.60
  10  -3  -3   12.80    5.30
   9  -3  -3   38.90    5.60
   8  -3  -3   11.00    4.20
  -8   3   3    7.70    4.50
   7  -3  -3   11.40    3.90
  -7   3   3   18.80    3.60
  -7   3   3   18.80    5.20
   6  -3  -3   35.50    4.20
  -6   3   3   37.90    5.30
  -6   3   3   45.00    4.30
   5  -3  -3   12.10    3.00
   5  -3  -3    9.70    2.60
  -5   3   3    5.70    4.20
  -5   3   3    6.90    2.80
   4  -3  -3    4.50    2.10
   4  -3  -3    4.30    2.50
  -4   3   3    3.80    3.80
  -4   3   3    4.30    2.50
   3  -3  -3   10.80    2.30
   3  -3  -3    4.70    2.30
  -3   3   3   10.00    2.60
   2  -3  -3  689.53   18.00
   2  -3  -3  695.73   18.10
  -2   3   3  686.03   18.10
  -2   3   3  678.53   17.90
   0  -3  -3   64.29    4.20
   0  -3  -3   69.49    4.40
   0   3   3   65.69    3.90
   0   3   3   71.19    4.50
  -1  -3  -3  434.96   12.40
   1   3   3  418.06   12.50
  -2  -3  -3   26.00    3.40
   2   3   3   25.20    3.70
  -3  -3  -3   30.90    4.00
  -3  -3  -3   31.30    3.80
   3   3   3   30.10    4.20
  -5  -3  -3    9.00    3.40
  -5  -3  -3   10.70    3.20
   5   3   3   -5.00    4.10
  -6  -3  -3  111.69    7.60
   6   3   3  121.69    9.50
   7   3   3   21.60    6.00
   8   3   3   20.60    6.40
  10  -4  -3   25.00    5.80
   9  -4  -3  211.08   10.80
  -9   4   3  207.78   11.80
   8  -4  -3   44.20    5.30
  -8   4   3   40.90    6.10
   7  -4  -3   83.89    6.90
  -7   4   3   71.69    5.70
  -7   4   3   77.39    7.20
   6  -4  -3  215.48    8.60
  -6   4   3  213.78    8.30
  -6   4   3  197.28   11.20
   5  -4  -3   77.19    4.90
   5  -4  -3   89.09    5.60
  -5   4   3   92.29    5.40
  -5   4   3   95.59    8.90
   4  -4  -3  203.28    7.50
   4  -4  -3  204.38    7.40
  -4   4   3  206.28    7.50
  -4   4   3  225.38   10.30
   3  -4  -3  493.55   13.70
   3  -4  -3  462.15   13.50
  -3   4   3  499.85   13.70
   2  -4  -3   72.29    4.50
   2  -4  -3   67.99    4.20
  -2   4   3   70.59    4.60
   1  -4  -3 1508.15   37.30
   1  -4  -3 1485.25   37.30
  -1   4   3 1488.15   37.30
   0  -4  -3  492.55   13.90
   0   4   3  485.35   14.00
  -1  -4  -3   13.10    2.90
   1   4   3   10.40    3.20
  -2  -4  -3  263.17    9.50
   2   4   3  262.27    9.90
  -3  -4  -3   20.70    3.90
  -3  -4  -3   23.30    4.00
   3   4   3   13.40    4.20
  -4  -4  -3    4.30    3.30
  -4  -4  -3    3.10    3.00
   4   4   3    5.20    4.40
  -5  -4  -3   71.49    6.00
   5   4   3   95.69    7.50
   6   4   3   -2.80    4.70
   7   4   3   35.30    6.60
  10  -5  -3   22.40    5.70
   9  -5  -3    7.30    4.50
  -9   5   3    6.30    5.60
   8  -5  -3    6.00    3.90
  -8   5   3    4.90    5.60
   7  -5  -3   12.90    3.80
  -7   5   3   -1.40    5.10
   6  -5  -3  107.79    6.70
  -6   5   3  103.49    5.80
   5  -5  -3   62.99    4.80
   5  -5  -3   75.09    5.40
  -5   5   3   70.29    7.20
  -5   5   3   72.69    5.20
   4  -5  -3  121.49    5.90
   3  -5  -3  126.49    5.80
   3  -5  -3  136.29    6.10
  -3   5   3  129.89    5.90
   2  -5  -3  161.18    6.70
   2  -5  -3  171.08    6.70
  -2   5   3  182.08    6.80
   1  -5  -3  178.08    7.10
  -1   5   3  176.28    7.20
   0  -5  -3   44.60    4.10
   0   5   3   35.60    4.00
  -1  -5  -3   88.69    5.90
   1   5   3   90.79    6.50
  -2  -5  -3  231.48    9.50
   2   5   3  231.18    9.70
  -3  -5  -3   24.70    4.20
  -3  -5  -3   24.30    4.10
   3   5   3   30.60    5.10
  -4  -5  -3   71.79    5.90
   4   5   3   69.39    6.60
  -5  -5  -3  138.79    8.60
   5   5   3  135.59    9.90
   6   5   3    9.70    5.50
   7   5   3    9.50    6.00
  10  -6  -3   24.90    5.70
   9  -6  -3  139.89    9.10
  -9   6   3  161.98   12.40
   8  -6  -3    1.10    3.90
  -8   6   3   -1.00    5.90
   7  -6  -3  172.18    8.70
  -7   6   3  177.78   12.10
   6  -6  -3   76.39    5.50
  -6   6   3   64.09    8.00
  -6   6   3   62.39    5.20
   5  -6  -3  284.07   11.50
   5  -6  -3  318.67   10.60
  -5   6   3  321.67   14.60
  -5   6   3  309.27   10.20
   4  -6  -3   49.00    4.30
   4  -6  -3   48.50    4.20
  -4   6   3   49.00    4.00
  -4   6   3   51.19    7.10
   3  -6  -3   98.59    5.40
   3  -6  -3   84.59    5.40
  -3   6   3  101.69    5.50
  -2   6   3   28.00    3.70
   1  -6  -3  548.45   15.80
  -1   6   3  546.05   15.70
   0  -6  -3  307.37   10.70
   0   6   3  318.97   11.10
  -1  -6  -3  546.95   16.50
   1   6   3  548.15   16.50
  -2  -6  -3  435.66   14.00
   2   6   3  410.06   14.20
  -3  -6  -3   15.20    4.00
   3   6   3   10.10    4.60
  -4  -6  -3   31.90    4.80
   4   6   3   34.50    5.80
  -5  -6  -3   26.30    5.00
   5   6   3   31.50    6.10
   6   6   3   38.60    6.90
  10  -7  -3   67.59    7.10
 -10   7   3   53.69    8.90
   9  -7  -3    4.30    4.60
  -9   7   3   -1.30    6.30
   8  -7  -3   10.90    4.40
  -8   7   3    9.60    6.50
   7  -7  -3  142.69    8.20
  -7   7   3  137.99   12.30
   6  -7  -3   34.70    4.20
  -6   7   3   32.90    7.10
   5  -7  -3   30.30    4.10
  -5   7   3   32.40    3.60
  -5   7   3   32.50    7.20
   4  -7  -3    3.40    3.10
  -4   7   3   -2.30    6.30
  -4   7   3    0.90    2.80
   3  -7  -3    1.60    2.80
  -3   7   3    2.50    2.90
   2  -7  -3  154.58    7.20
  -2   7   3  143.09    7.00
   1  -7  -3   16.30    3.60
  -1   7   3   19.10    3.80
   0  -7  -3    3.60    3.30
   0   7   3   -2.40    3.50
  -1  -7  -3   86.59    6.90
   1   7   3   98.79    7.20
  -2  -7  -3   28.00    4.60
   2   7   3   29.70    4.90
  -3  -7  -3    4.50    3.80
   3   7   3    7.30    4.60
  -4  -7  -3   -1.60    3.70
   4   7   3    2.10    5.00
  -5  -7  -3   -1.20    4.10
   5   7   3    1.50    5.30
 -10   8   3   10.10    7.20
   9  -8  -3   17.60    4.90
  -9   8   3    9.20    7.30
   8  -8  -3   27.40    4.90
  -8   8   3   27.60    7.80
   7  -8  -3  157.48    8.40
  -7   8   3  138.79   13.40
   6  -8  -3    2.60    3.50
  -6   8   3    5.90    6.70
   5  -8  -3   68.09    5.40
  -5   8   3   65.49    8.60
   4  -8  -3   54.19    4.80
  -4   8   3   54.09    8.10
  -4   8   3   53.09    4.30
   3  -8  -3    5.30    3.20
  -3   8   3    4.00    6.60
  -3   8   3    4.10    2.90
   2  -8  -3  297.57   10.80
  -2   8   3  294.67   10.40
   1  -8  -3  304.47   11.00
  -1   8   3  296.47   10.70
   0  -8  -3   13.00    3.90
   0   8   3   12.20    3.90
  -1  -8  -3   77.79    6.30
   1   8   3   87.09    7.10
  -2  -8  -3    6.50    4.00
   2   8   3    2.10    4.10
  -3  -8  -3  126.59    8.90
   3   8   3  140.59    9.60
  -4  -8  -3  139.69    9.40
   4   8   3  187.78   11.30
   9  -9  -3    7.60    4.50
  -9   9   3   -2.20    7.50
   8  -9  -3   92.89    7.80
  -8   9   3   81.59   10.30
   7  -9  -3  177.68    9.10
  -7   9   3  174.18   14.90
   6  -9  -3    8.30    3.70
  -6   9   3    3.30    7.30
   5  -9  -3  145.69    7.60
  -5   9   3  126.99   13.80
   4  -9  -3   52.79    5.10
  -4   9   3   58.99    8.60
   3  -9  -3   18.40    4.00
  -3   9   3   10.90    7.10
   2  -9  -3   52.29    5.30
   1  -9  -3   14.00    4.00
  -1   9   3    6.40    3.60
   0  -9  -3    0.30    3.50
   0   9   3   -5.00    3.30
  -1  -9  -3  243.08   10.90
   1   9   3  226.88   10.40
  -2  -9  -3   84.89    7.20
   2   9   3   99.79    9.70
  -3  -9  -3   19.50    5.10
  -9  10   3   32.70    9.40
   8 -10  -3    7.70    4.10
  -8  10   3    8.20    8.10
   7 -10  -3  126.79    8.20
  -7  10   3   95.09   11.00
   6 -10  -3    5.70    3.60
  -6  10   3   -8.40    7.40
   5 -10  -3  133.89    8.10
  -5  10   3  151.68   14.00
   4 -10  -3   35.40    4.70
  -4  10   3   24.60    8.00
   3 -10  -3   -2.80    3.40
  -3  10   3    0.40    7.00
   2 -10  -3  137.29    8.20
  -2  10   3  118.59   11.20
   1 -10  -3    4.20    3.80
   0 -10  -3   18.50    4.70
  -1 -10  -3   52.09    6.20
  -2 -10  -3    6.30    4.70
   8 -11  -3   57.89    6.80
  -8  11   3   42.40   10.10
   7 -11  -3    5.10    3.90
  -7  11   3    2.40    8.30
   6 -11  -3   -0.10    3.70
  -6  11   3    3.20    8.00
   5 -11  -3   77.99    6.50
  -5  11   3   57.79    9.80
   4 -11  -3   -1.70    3.60
  -4  11   3    5.40    7.70
   3 -11  -3   91.89    7.10
  -3  11   3   86.99   10.70
   2 -11  -3   85.99    7.10
  -2  11   3   93.39   10.60
   1 -11  -3    3.40    4.00
  -1  11   3  -10.10    6.80
   0 -11  -3   30.20    5.40
   0  11   3   18.80    8.10
  -1 -11  -3   11.20    4.70
   6 -12  -3    2.10    4.00
  -6  12   3   -0.40    8.80
   5 -12  -3   54.19    6.00
  -5  12   3   51.09   10.20
   4 -12  -3   13.60    4.50
  -4  12   3    9.60    8.70
   3 -12  -3   16.40    4.60
  -3  12   3    5.30    8.30
   2 -12  -3   48.00    6.10
  -2  12   3   40.80    9.40
   1 -12  -3   -0.10    4.20
  -1  12   3   -6.40    7.60
   0 -13   4   19.60    5.00
  -1  13  -4   14.40    7.30
   1 -13   4   22.70    4.50
  -2  13  -4    4.80    7.00
   2 -13   4    3.90    3.40
  -3  13  -4   11.60    7.70
   3 -13   4   -0.10    3.00
  -4  13  -4   -3.80    7.40
   4 -13   4    1.90    2.90
  -5  13  -4   12.30    8.80
   5 -13   4   21.30    3.40
  -1 -12   4    1.50    4.00
   0  12  -4   12.60    6.10
   0 -12   4    8.60    3.90
  -1  12  -4   26.80    6.90
   1 -12   4   25.80    4.30
  -2  12  -4   -7.80    6.10
   2 -12   4    4.00    3.10
  -3  12  -4   57.29    9.00
   3 -12   4   67.69    5.40
  -4  12  -4   22.20    7.80
   4 -12   4   20.00    3.20
  -5  12  -4    7.00    7.70
   5 -12   4    3.60    2.60
  -6  12  -4   80.69   11.30
   6 -12   4   75.29    4.90
  -7  12  -4    9.60    8.80
  -3 -11   4   49.40    6.30
  -2 -11   4   23.00    5.00
  -1 -11   4   41.50    5.20
   0  11  -4   29.60    6.50
   0 -11   4   33.30    4.50
  -1  11  -4   44.80    7.40
   1 -11   4   46.50    4.70
  -2  11  -4    4.20    6.30
   2 -11   4   -0.90    2.80
  -3  11  -4   12.70    6.90
   3 -11   4    6.50    2.60
  -4  11  -4   41.60    8.10
   4 -11   4   37.70    3.40
  -5  11  -4   12.60    7.60
   5 -11   4   21.60    2.80
  -6  11  -4   47.80    9.00
   6 -11   4   49.70    4.00
  -7  11  -4   -2.40    7.50
   7 -11   4    4.40    2.40
  -8  11  -4   18.70    9.10
  -4 -10   4    1.20    4.50
  -3 -10   4    5.50    4.20
  -2 -10   4  170.28    9.10
   1  10  -4   27.80    5.50
  -1 -10   4   30.40    4.50
   0  10  -4   14.70    5.60
   0 -10   4   16.70    3.60
  -1  10  -4   73.29    7.80
   1 -10   4   69.09    5.40
  -2  10  -4   84.59    8.70
   2 -10   4   89.19    5.30
  -3  10  -4   36.20    7.40
   3 -10   4   35.70    3.30
  -4  10  -4    6.70    6.80
   4 -10   4    6.90    2.30
  -5  10  -4   11.80    7.30
   5 -10   4   16.50    2.40
  -6  10  -4   58.59    9.10
   6 -10   4   72.09    4.20
  -7  10  -4   13.20    7.60
   7 -10   4    3.70    2.40
  -8  10  -4  104.59   12.10
   8 -10   4  110.39    5.90
  -5  -9   4   20.80    5.40
  -4  -9   4   14.40    4.90
  -3  -9   4   38.80    5.20
   2   9  -4   19.70    4.50
  -2  -9   4   28.40    4.50
   1   9  -4   20.70    4.90
  -1  -9   4   25.10    3.90
   0   9  -4  174.58   10.50
   0  -9   4  164.08    7.40
  -1   9  -4   19.20    5.70
   1  -9   4   26.50    3.30
  -2   9  -4   80.99    8.30
   2  -9   4   71.79    4.50
  -3   9  -4  146.39   12.00
   3  -9   4  131.19    5.20
  -4   9  -4    3.10    6.30
   4  -9   4    6.10    1.90
  -5   9  -4  180.58   13.70
   5  -9   4  163.88    5.60
  -6   9  -4   46.10    8.40
   6  -9   4   50.39    3.70
  -7   9  -4   18.20    8.00
   7  -9   4   28.90    3.20
  -8   9  -4   11.90    8.20
   8  -9   4   22.00    3.60
   9  -9   4    5.30    3.50
  -6  -8   4   -2.70    4.60
  -5  -8   4   13.00    4.70
  -4  -8   4   62.59    6.20
  -3  -8   4   69.29    5.90
   2   8  -4  122.39    7.50
  -2  -8   4  115.39    7.00
   1   8  -4   -0.90    4.10
  -1  -8   4    0.20    3.00
  -1  -8   4   -0.90    2.80
   0   8  -4  114.59    4.90
   0   8  -4  118.09    9.30
   0  -8   4  114.99    6.00
   0  -8   4  115.49    5.90
  -1   8  -4   74.99    7.30
  -1   8  -4   71.59    7.20
   1  -8   4   73.19    4.60
   1  -8   4   71.49    4.60
  -2   8  -4  122.89   10.80
  -2   8  -4  129.79   10.20
   2  -8   4  103.49    4.60
   2  -8   4  114.79    4.80
  -3   8  -4   72.09    8.00
  -3   8  -4   66.39    7.80
   3  -8   4   68.39    3.50
   3  -8   4   71.09    3.60
  -4   8  -4   88.79    8.60
  -4   8  -4   83.59    8.60
  -5   8  -4   26.50    7.00
   5  -8   4   35.50    2.70
   5  -8   4   37.30    2.90
  -6   8  -4  103.49   10.10
   6  -8   4  123.99    5.10
  -7   8  -4   -2.50    6.80
   7  -8   4    1.20    2.60
   8  -8   4   14.00    3.40
   9  -8   4   39.80    4.80
  -7  -7   4    2.10    5.10
  -6  -7   4   21.30    5.40
  -5  -7   4   20.00    4.90
   4   7  -4    8.50    3.60
  -4  -7   4   14.30    4.20
   3   7  -4  258.57    9.60
   3   7  -4  241.18    8.40
  -3  -7   4  252.67   10.00
   2   7  -4   56.39    4.70
   2   7  -4   58.79    4.90
  -2  -7   4   56.79    4.70
   1   7  -4  196.58    7.00
   1   7  -4  223.18    9.20
   1   7  -4  198.78    9.40
  -1  -7   4  194.88    7.70
  -1  -7   4  224.88    8.10
   0   7  -4  188.98    9.40
   0   7  -4  184.48    9.90
   0   7  -4  199.18    5.70
   0  -7   4  204.78    7.10
   0  -7   4  195.48    7.00
  -1   7  -4   77.09    6.90
  -1   7  -4   78.49    6.60
   1  -7   4   82.09    4.20
   1  -7   4   72.39    4.10
  -2   7  -4  369.76   13.90
  -2   7  -4  376.56   14.80
   2  -7   4  352.46    9.80
   2  -7   4  364.86    9.80
  -3   7  -4  184.08   11.40
  -3   7  -4  180.18   10.80
  -4   7  -4   28.20    6.40
  -4   7  -4   16.40    6.50
  -5   7  -4  165.68   11.90
  -5   7  -4  139.29   12.60
   5  -7   4  153.38    4.90
   5  -7   4  153.28    5.10
  -6   7  -4   94.79    9.40
  -6   7  -4   90.29    9.00
   6  -7   4  104.39    4.90
   7  -7   4   40.80    3.80
   8  -7   4   65.19    5.00
   9  -7   4    5.30    3.80
   7   6  -4   -1.10    5.30
  -7  -6   4   -5.10    4.60
   6   6  -4    6.60    4.40
  -6  -6   4    6.30    4.40
   5   6  -4   36.10    4.90
  -5  -6   4   26.00    4.90
   4   6  -4   64.09    5.50
  -4  -6   4   44.00    5.10
   3   6  -4   65.99    5.00
  -3  -6   4   58.19    5.00
   2   6  -4   78.69    5.10
   2   6  -4   72.39    5.40
   2   6  -4   66.29    5.50
  -2  -6   4   70.59    5.20
  -2  -6   4   71.09    5.20
   1   6  -4   69.99    4.00
   1   6  -4   89.59    6.30
   1   6  -4   70.49    6.10
  -1  -6   4   73.99    4.70
  -1  -6   4   79.49    4.90
   0   6  -4  396.96   10.30
   0   6  -4  392.36   13.50
   0   6  -4  395.56   13.10
   0   6  -4  443.36   10.90
   0  -6   4  406.56   11.40
   0  -6   4  386.76   11.30
  -1   6  -4  230.28   10.50
  -1   6  -4  235.58   10.10
   1  -6   4  223.18    6.80
   1  -6   4  234.88    6.90
  -2   6  -4  137.29    9.00
  -2   6  -4  122.09    8.50
  -3   6  -4    1.80    5.10
  -3   6  -4    4.80    5.10
  -4   6  -4   20.00    5.70
  -4   6  -4   26.00    6.40
  -5   6  -4  156.58   12.10
  -5   6  -4  168.28   11.40
   5  -6   4  143.89    5.30
   5  -6   4  148.09    5.00
  -6   6  -4    1.30    6.10
   6  -6   4   10.40    2.60
   7  -6   4   20.90    3.40
   8  -6   4   94.79    6.70
   9  -6   4   23.20    4.60
   8   5  -4   56.69    7.10
  -8  -5   4   60.19    7.40
   7   5  -4   11.40    4.90
  -7  -5   4    8.30    4.80
   6   5  -4  116.29    8.20
  -6  -5   4  111.99    8.50
   5   5  -4    6.50    3.80
  -5  -5   4   -0.50    3.70
   4   5  -4  134.99    7.60
  -4  -5   4  150.18    7.90
   3   5  -4  686.93   18.90
   3   5  -4  678.83   17.60
  -3  -5   4  670.63   19.10
   2   5  -4  164.18    6.60
   2   5  -4  163.98    6.60
   2   5  -4  168.88    6.50
  -2  -5   4  154.68    6.70
  -2  -5   4  163.88    6.80
   1   5  -4  571.04   15.00
   1   5  -4  581.34   16.20
   1   5  -4  565.84   16.00
  -1  -5   4  561.74   16.10
  -1  -5   4  580.14   15.50
  -1  -5   4  589.34   15.50
   0   5  -4  245.68    6.60
   0   5  -4  257.77    9.70
   0   5  -4  256.77    6.60
   0   5  -4  247.28    9.30
   0  -5   4  252.37    7.50
   0  -5   4  256.77    7.60
  -1   5  -4   58.39    5.20
  -1   5  -4   67.69    6.00
   1  -5   4   60.19    2.90
   1  -5   4   51.09    2.70
  -2   5  -4 1257.17   34.00
  -2   5  -4 1282.47   33.60
  -3   5  -4  539.45   17.30
  -3   5  -4  526.55   18.30
  -4   5  -4   43.00    6.40
  -4   5  -4   34.50    6.30
   4  -5   4   42.20    2.40
   4  -5   4   40.10    2.70
  -5   5  -4  120.79    9.70
   5  -5   4  111.99    4.40
   5  -5   4  106.59    5.00
  -6   5  -4   48.00    7.00
   6  -5   4   53.49    4.10
  -7   5  -4   37.60    7.80
   7  -5   4   48.50    4.50
   8  -5   4   24.80    4.40
   9  -5   4   20.10    4.60
   8   4  -4    8.20    5.00
  -8  -4   4    2.30    4.70
   7   4  -4   22.10    5.20
  -7  -4   4   23.00    5.20
   6   4  -4   12.90    4.30
  -6  -4   4    8.00    4.30
   5   4  -4   53.69    5.40
  -5  -4   4   58.09    5.50
   4   4  -4   28.10    4.20
  -4  -4   4   43.10    4.50
   3   4  -4   43.40    3.90
   3   4  -4   46.00    4.10
  -3  -4   4   45.70    4.10
   2   4  -4  185.68    6.70
   2   4  -4  176.58    6.80
  -2  -4   4  191.68    7.00
  -2  -4   4  188.18    6.90
   1   4  -4  114.19    4.40
   1   4  -4  117.19    5.90
  -1  -4   4  113.09    5.60
  -1  -4   4  118.59    4.80
  -1  -4   4  119.69    5.00
   0   4  -4   96.39    3.00
   0   4  -4   92.19    6.00
   0   4  -4   95.99    2.90
   0   4  -4   99.39    6.00
   0  -4   4   93.69    3.90
   0  -4   4   90.49    3.80
   0  -4   4   90.99    5.80
  -1   4  -4  580.24   17.20
  -1   4  -4  616.64   17.70
   1  -4   4  584.94   14.70
   1  -4   4  616.54   14.80
  -2   4  -4   29.50    4.60
  -2   4  -4   25.80    4.50
  -3   4  -4   33.20    5.10
  -4   4  -4  293.57   12.20
   4  -4   4  285.97    8.30
   4  -4   4  301.17    8.20
  -5   4  -4  153.98   10.60
   5  -4   4  157.78    5.70
   5  -4   4  152.58    6.30
  -6   4  -4   21.40    6.10
   6  -4   4   36.90    4.00
  -7   4  -4   35.90    7.10
   7  -4   4   46.70    4.70
   8  -4   4    9.70    4.10
   9  -4   4    4.60    4.40
   9   3  -4   59.09    7.30
   8   3  -4   15.20    5.20
  -8  -3   4   13.40    4.90
   7   3  -4   90.99    7.70
  -7  -3   4   95.09    7.80
   6   3  -4  148.49    8.40
  -6  -3   4  137.79    8.30
   5   3  -4   92.49    7.00
  -5  -3   4   94.79    6.80
   4   3  -4  349.27   11.50
   4   3  -4  340.17   10.00
  -4  -3   4  351.66   11.60
   3   3  -4    0.70    2.40
   3   3  -4    0.40    2.60
  -3  -3   4   -1.10    2.60
  -3  -3   4    0.70    4.10
   2   3  -4  608.64   16.10
   2   3  -4  590.54   16.20
  -2  -3   4  605.24   16.30
  -2  -3   4  616.14   15.50
  -2  -3   4  607.24   16.20
   1   3  -4  325.27    8.60
   1   3  -4  320.87    9.80
   1   3  -4  300.97    8.60
  -1  -3   4  302.97    8.90
  -1  -3   4  305.67    8.80
  -1  -3   4  293.57    9.30
   0   3  -4    6.20    1.20
   0   3  -4    7.50    1.10
   0   3  -4    5.40    3.20
   0  -3   4    4.90    2.70
   0  -3   4    7.70    1.70
   0  -3   4    7.50    1.60
  -1   3  -4  677.53   19.10
   1  -3   4  714.43   17.00
   1  -3   4  687.33   17.00
  -2   3  -4 2284.47   56.89
   2  -3   4 2277.57   54.49
   2  -3   4 2293.97   54.49
  -3   3  -4  118.59    8.10
   3  -3   4  132.89    4.50
   3  -3   4  127.29    4.30
   4  -3   4   65.99    3.70
   4  -3   4   84.39    4.10
  -5   3  -4  189.78   10.70
   5  -3   4  181.18    7.30
   5  -3   4  184.98    6.60
  -6   3  -4  163.58   10.50
   6  -3   4  174.78    7.80
  -7   3  -4  141.89   11.40
   7  -3   4  154.88    8.30
   8  -3   4   34.80    5.20
   9  -3   4   59.89    6.60
   9   2  -4    4.30    4.90
   8   2  -4   35.70    5.70
  -8  -2   4   37.50    5.70
   7   2  -4   65.69    6.30
  -7  -2   4   69.79    6.30
   6   2  -4    3.50    3.90
  -6  -2   4   -3.30    3.40
   5   2  -4  168.38    8.20
  -5  -2   4  175.08    8.00
   4   2  -4  276.17    9.60
  -4  -2   4  270.37    9.60
   3   2  -4   24.50    3.00
  -3  -2   4   24.90    3.20
  -3  -2   4   29.30    3.10
   2   2  -4 1096.29   27.60
  -2  -2   4 1113.19   27.60
  -2  -2   4 1089.89   27.70
   1   2  -4   79.19    3.70
   1   2  -4   79.59    5.20
   1   2  -4   74.09    3.60
  -1  -2   4   83.99    4.00
  -1  -2   4   81.19    3.80
   0   2  -4 1711.53   43.80
   0   2  -4 1790.02   42.30
   0  -2   4 1755.72   42.50
   0  -2   4 1794.32   42.60
  -1   2  -4  640.64   18.10
   1  -2   4  658.73   16.30
   1  -2   4  655.83   16.20
  -2   2  -4    4.00    3.60
   2  -2   4    4.00    1.50
  -3   2  -4   77.59    7.00
   3  -2   4   69.19    3.90
   3  -2   4   76.79    3.60
  -4   2  -4   94.69    3.50
  -4   2  -4   98.89    7.80
   4  -2   4   94.99    4.50
   4  -2   4   96.89    4.90
  -5   2  -4   -0.30    5.10
  -5   2  -4    4.00    1.70
   5  -2   4    7.80    3.20
   5  -2   4    6.30    2.40
  -6   2  -4    3.20    5.00
   6  -2   4   -0.30    3.50
  -7   2  -4   10.60    5.90
   7  -2   4   16.40    4.50
   8  -2   4    0.60    4.40
   9  -2   4    3.00    5.00
   9   1  -4    0.70    4.50
   8   1  -4   17.90    5.00
  -8  -1   4   17.90    4.80
   7   1  -4   30.90    5.00
  -7  -1   4   35.70    5.00
   6   1  -4   10.20    4.00
  -6  -1   4   10.30    3.70
   5   1  -4  117.09    6.60
  -5  -1   4  112.59    6.70
   4   1  -4   78.99    5.30
  -4  -1   4   75.79    5.40
   3   1  -4   52.79    4.20
  -3  -1   4   58.79    4.20
  -3  -1   4   62.79    4.60
   2   1  -4 1794.82   44.30
   2   1  -4 1796.42   44.30
  -2  -1   4 1839.82   44.40
  -2  -1   4 1816.42   44.30
   1   1  -4  640.84   16.30
   1   1  -4  618.44   16.30
  -1  -1   4  638.54   16.50
  -1  -1   4  659.63   16.40
   0   1  -4 1304.57   32.10
   0   1  -4 1296.47   32.10
   0  -1   4 1339.47   32.30
   0  -1   4 1341.87   32.20
  -1   1  -4    9.50    1.30
  -1   1  -4    6.50    3.30
  -1   1  -4   11.90    1.60
   1  -1   4   12.50    2.00
   1  -1   4   10.40    1.80
  -2   1  -4 1009.90   26.70
  -2   1  -4  998.30   24.90
   2  -1   4 1030.80   25.20
   2  -1   4 1017.60   25.30
  -3   1  -4   33.90    4.60
  -3   1  -4   36.50    2.60
   3  -1   4   36.90    3.20
   3  -1   4   40.10    3.30
  -4   1  -4  712.13   18.70
  -4   1  -4  753.02   21.10
   4  -1   4  723.13   19.50
   4  -1   4  738.63   19.40
  -5   1  -4   40.40    3.20
  -5   1  -4   32.50    5.50
   5  -1   4   41.90    3.80
   5  -1   4   36.00    4.50
  -6   1  -4  461.45   16.00
   6  -1   4  465.85   14.90
  -7   1  -4   66.29    7.30
   7  -1   4   62.49    6.10
   8  -1   4   17.00    5.10
   9  -1   4   19.40    6.30
  10   0  -4   29.50    6.10
   9   0  -4    7.30    4.70
   8   0  -4   88.89    7.30
  -8   0   4   78.79    6.60
   7   0  -4  168.78    8.70
  -7   0   4  179.48    8.70
   6   0  -4   23.30    4.30
  -6   0   4   22.50    3.40
  -6   0   4   24.60    4.20
   5   0  -4  404.66   12.60
  -5   0   4  397.36   11.60
  -5   0   4  395.16   12.50
   4   0  -4   56.09    4.50
  -4   0   4   54.39    4.10
  -4   0   4   57.69    4.60
   3   0  -4    8.70    2.50
  -3   0   4    8.60    2.40
  -3   0   4    3.20    2.40
   2   0  -4  969.10   24.50
   2   0  -4  964.80   24.50
  -2   0   4  974.90   24.60
  -2   0   4  972.00   24.50
   1   0  -4   24.70    2.30
   1   0  -4   21.70    2.40
  -1   0   4   27.00    2.40
  -1   0   4   27.30    2.60
   0   0  -4  137.49    4.90
   0   0  -4  129.69    4.80
   0   0   4  149.69    5.10
   0   0   4  140.29    5.30
  -1   0  -4 1603.74   39.00
  -1   0  -4 1555.94   38.90
   1   0   4 1606.24   39.20
   1   0   4 1624.04   39.10
  -2   0  -4   17.60    3.70
  -2   0  -4   17.00    2.30
   2   0   4   19.60    2.40
   2   0   4   19.60    2.70
  -3   0  -4  205.28    6.90
  -3   0  -4  208.58    8.90
   3   0   4  207.68    7.20
   3   0   4  207.68    7.50
  -4   0  -4   28.00    4.70
  -4   0  -4   32.10    3.10
   4   0   4   30.20    3.80
   4   0   4   32.10    3.40
  -5   0  -4    2.40    4.50
  -5   0  -4    4.40    2.50
   5   0   4    1.20    3.80
  -6   0  -4    7.40    4.70
   6   0   4    5.30    4.20
  -7   0  -4   10.80    5.20
   7   0   4   14.50    4.80
   8   0   4   24.40    5.80
  10  -1  -4   16.30    5.60
   9  -1  -4   12.20    5.00
   8  -1  -4   36.90    5.30
  -8   1   4   32.60    4.80
   7  -1  -4    3.50    3.80
  -7   1   4    4.50    3.50
  -7   1   4    2.20    3.40
   6  -1  -4  185.48    8.60
  -6   1   4  184.78    8.50
  -6   1   4  190.18    8.30
   5  -1  -4  600.64   17.00
  -5   1   4  588.24   16.90
  -5   1   4  596.94   17.00
   4  -1  -4 1164.08   29.80
  -4   1   4 1157.68   29.70
  -4   1   4 1164.18   29.90
   3  -1  -4   16.50    2.70
   3  -1  -4   18.80    2.60
  -3   1   4   21.50    3.00
  -3   1   4   18.40    2.80
   2  -1  -4  317.67    9.60
   2  -1  -4  325.77    9.70
  -2   1   4  349.17    9.90
  -2   1   4  333.77    9.70
   1  -1  -4    9.70    2.20
   1  -1  -4    7.30    2.00
  -1   1   4    3.90    1.90
  -1   1   4   11.00    2.50
   0  -1  -4 1675.23   40.60
   0  -1  -4 1676.23   40.70
   0   1   4 1679.73   40.80
   0   1   4 1602.74   40.60
  -1  -1  -4  544.65   14.60
   1   1   4  536.85   14.80
   1   1   4  550.14   14.60
  -2  -1  -4   65.89    5.70
  -2  -1  -4   61.39    4.30
   2   1   4   58.39    4.70
   2   1   4   57.59    4.00
  -3  -1  -4 1189.78   29.60
  -3  -1  -4 1154.38   30.30
   3   1   4 1183.68   30.00
   3   1   4 1114.89   29.60
  -4  -1  -4   87.29    5.20
  -4  -1  -4   84.79    7.30
   4   1   4   89.39    6.40
  -5  -1  -4    3.80    4.10
  -5  -1  -4    0.90    2.80
   5   1   4    4.40    4.00
  -6  -1  -4   24.80    4.90
   6   1   4   21.90    4.90
   7   1   4   73.49    7.20
   8   1   4   59.79    7.20
  10  -2  -4   47.60    6.80
   9  -2  -4   18.80    5.20
   8  -2  -4   99.89    7.90
  -8   2   4   88.39    6.90
   7  -2  -4  231.98   10.10
  -7   2   4  240.18   10.30
  -7   2   4  253.47    9.70
   6  -2  -4   -0.40    3.20
  -6   2   4    1.60    3.10
  -6   2   4   -1.20    3.90
   5  -2  -4  124.59    6.40
  -5   2   4  127.89    6.50
  -5   2   4  124.79    8.10
   4  -2  -4 1155.38   29.70
  -4   2   4 1160.88   29.70
   3  -2  -4  195.68    6.80
   3  -2  -4  176.48    6.90
  -3   2   4  208.58    7.20
   2  -2  -4  570.84   15.30
   2  -2  -4  571.64   15.20
  -2   2   4  571.34   15.40
  -2   2   4  553.04   15.20
   1  -2  -4  541.25   14.80
   1  -2  -4  565.74   14.90
  -1   2   4  561.64   15.10
  -1   2   4  539.25   14.80
   0  -2  -4  348.37   10.00
   0  -2  -4  365.26   11.10
   0   2   4  332.27   10.20
   0   2   4  304.57    9.70
  -1  -2  -4 1146.79   28.80
   1   2   4 1138.29   29.00
   1   2   4 1126.09   28.80
  -2  -2  -4   97.99    5.30
   2   2   4  104.69    6.00
  -3  -2  -4   34.40    3.70
  -3  -2  -4   41.90    4.70
   3   2   4   26.70    4.00
  -4  -2  -4  150.58    8.30
  -4  -2  -4  154.98    7.10
   4   2   4  148.79    8.20
  -5  -2  -4   45.10    4.50
  -5  -2  -4   52.79    5.10
   5   2   4   58.99    6.00
   6   2   4   59.79    6.60
   7   2   4    0.90    5.00
   8   2   4   32.60    6.70
  10  -3  -4   11.50    5.40
   9  -3  -4   14.30    4.80
   8  -3  -4   58.29    6.10
  -8   3   4   62.49    6.20
   7  -3  -4   -2.30    3.40
  -7   3   4   -3.20    4.20
  -7   3   4    1.30    3.30
   6  -3  -4   17.70    3.80
  -6   3   4   24.80    5.30
  -6   3   4   23.00    3.90
   5  -3  -4  292.17   10.20
  -5   3   4  292.77   12.20
  -5   3   4  301.97   10.20
   4  -3  -4  627.54   18.50
  -4   3   4  732.73   18.70
   3  -3  -4  351.06   10.70
   3  -3  -4  343.47   10.50
  -3   3   4  358.96   10.80
   2  -3  -4  562.64   15.70
   2  -3  -4  573.54   15.60
  -2   3   4  583.04   15.80
   1  -3  -4   87.89    4.90
  -1   3   4   88.59    5.40
   0  -3  -4 1453.45   36.60
   0   3   4 1471.35   36.80
  -1  -3  -4   65.29    4.70
   1   3   4   66.49    5.40
  -2  -3  -4   13.30    2.90
   2   3   4    9.80    3.50
  -3  -3  -4    5.60    3.20
  -3  -3  -4   10.60    4.10
   3   3   4    3.10    3.80
  -4  -3  -4  141.89    7.40
  -4  -3  -4  160.78    8.00
   4   3   4  157.28    8.90
  -5  -3  -4   -2.50    3.50
  -5  -3  -4    3.70    3.30
   5   3   4   -2.60    4.40
   6   3   4  182.48   10.70
   7   3   4   -5.60    5.10
  10  -4  -4   20.80    5.70
   9  -4  -4   10.70    4.90
   8  -4  -4   42.30    5.50
  -8   4   4   34.50    6.00
   7  -4  -4   36.30    4.90
  -7   4   4   31.90    5.80
  -7   4   4   27.50    4.10
   6  -4  -4  773.42   21.80
  -6   4   4  799.62   23.80
  -6   4   4  768.92   21.50
   5  -4  -4  833.72   22.90
  -5   4   4  826.42   22.60
  -5   4   4  867.71   25.20
   4  -4  -4    0.40    2.60
  -4   4   4    6.00    2.90
   3  -4  -4  182.78    7.20
  -3   4   4  175.48    7.20
   2  -4  -4  692.33   18.40
  -2   4   4  672.13   18.50
   1  -4  -4  215.68    7.80
  -1   4   4  216.48    8.10
   0  -4  -4  247.18    8.70
  -1  -4  -4   89.19    5.60
   1   4   4   92.19    6.40
  -2  -4  -4  226.58    8.80
   2   4   4  213.28    9.20
  -3  -4  -4  187.38    8.70
  -3  -4  -4  196.48    9.20
   3   4   4  192.48    9.50
  -4  -4  -4   23.40    4.20
  -4  -4  -4   20.10    4.00
   4   4   4   20.30    5.00
  -5  -4  -4   26.00    4.50
   5   4   4   29.10    5.70
   6   4   4   34.00    6.30
   7   4   4    4.10    5.80
  10  -5  -4    0.90    4.90
   9  -5  -4   25.50    5.20
  -9   5   4   21.90    6.40
   8  -5  -4    6.40    4.30
  -8   5   4   -8.50    5.10
   7  -5  -4    9.30    3.90
  -7   5   4    0.90    5.30
   5  -5  -4    4.30    3.10
  -5   5   4    2.10    5.60
  -5   5   4    9.30    3.40
   4  -5  -4    1.70    2.90
  -4   5   4    6.40    3.20
   3  -5  -4   93.39    5.60
  -3   5   4   84.19    5.60
   2  -5  -4    1.40    2.70
  -2   5   4   -2.20    2.80
   0  -5  -4  111.99    6.30
   0   5   4   92.99    6.60
  -1  -5  -4  261.27    9.60
   1   5   4  241.28   10.00
  -2  -5  -4   16.90    3.80
   2   5   4   11.10    4.20
  -3  -5  -4  236.78    9.90
  -3  -5  -4  235.78    9.80
   3   5   4  244.78   10.80
  -4  -5  -4    1.30    3.50
   4   5   4   -1.60    4.60
  -5  -5  -4    4.80    3.90
   5   5   4    0.20    5.00
   6   5   4   28.90    6.40
  10  -6  -4   25.90    6.00
   9  -6  -4  156.58    9.50
  -9   6   4  128.19   12.30
   8  -6  -4   27.00    5.20
  -8   6   4   18.70    6.50
   7  -6  -4  125.49    8.00
  -7   6   4  118.09   11.40
   6  -6  -4  280.17   10.60
  -6   6   4  266.87    9.90
  -6   6   4  269.87   14.40
   5  -6  -4   26.90    4.10
  -5   6   4   19.20    6.60
  -5   6   4   33.10    4.20
   4  -6  -4  112.99    6.60
  -4   6   4  125.99    6.40
   3  -6  -4   62.59    5.20
  -3   6   4   64.79    5.50
   2  -6  -4   54.99    4.70
  -2   6   4   47.10    4.50
   1  -6  -4  189.18    8.10
  -1   6   4  195.08    8.50
   0  -6  -4  348.07   11.90
   0   6   4  348.57   12.00
  -1  -6  -4    2.40    3.40
   1   6   4    6.00    3.90
  -2  -6  -4  345.47   12.40
   2   6   4  349.87   13.00
  -3  -6  -4    8.00    3.90
  -3  -6  -4    1.50    4.10
   3   6   4    1.60    4.50
  -4  -6  -4   14.30    4.30
   4   6   4   14.10    5.30
  -5  -6  -4   64.29    6.60
   5   6   4   69.09    7.60
   6   6   4  131.99   11.40
 -10   7   4    6.80    6.80
   9  -7  -4   30.60    5.40
  -9   7   4   24.60    7.40
   8  -7  -4   -4.50    3.80
  -8   7   4    3.00    6.40
   7  -7  -4    3.70    3.70
  -7   7   4   -2.40    6.40
   6  -7  -4  124.59    7.70
  -6   7   4  116.09   12.50
   5  -7  -4   17.10    3.90
  -5   7   4   18.70    3.50
  -5   7   4   18.00    6.90
   4  -7  -4   91.59    6.20
  -4   7   4  116.99   11.90
  -4   7   4   86.69    5.90
   3  -7  -4    8.60    3.50
  -3   7   4   13.90    3.60
   2  -7  -4    9.90    3.50
  -2   7   4   10.90    3.70
   1  -7  -4    7.50    3.40
  -1   7   4   -1.40    3.40
   0  -7  -4   80.59    6.60
   0   7   4   87.59    7.10
  -1  -7  -4   28.70    4.40
   1   7   4   30.60    4.80
  -2  -7  -4   35.70    4.90
   2   7   4   30.20    5.30
  -3  -7  -4    3.00    3.80
   3   7   4  -11.60    4.50
  -4  -7  -4    4.30    4.00
   4   7   4    2.80    5.10
   5   7   4   12.80    6.00
   9  -8  -4   26.70    5.40
  -9   8   4   30.50    8.10
   8  -8  -4   15.90    4.60
  -8   8   4   14.10    7.40
   7  -8  -4   12.80    4.30
  -7   8   4   20.80    7.50
   6  -8  -4  308.07   11.80
  -6   8   4  328.87   17.30
   5  -8  -4   28.40    4.40
  -5   8   4   27.10    7.60
   4  -8  -4   53.59    5.10
  -4   8   4   41.10    8.10
   3  -8  -4   56.59    5.30
  -3   8   4   77.79    5.90
   2  -8  -4  121.29    7.20
  -2   8   4  107.69    6.70
   1  -8  -4  227.88    9.80
  -1   8   4  226.38    9.70
   0  -8  -4   61.49    5.70
   0   8   4   48.30    5.40
  -1  -8  -4   20.20    4.70
   1   8   4    8.90    4.60
  -2  -8  -4  156.68    9.30
   2   8   4  180.68   10.00
  -3  -8  -4   25.10    5.10
   3   8   4   28.90    5.80
  -4  -8  -4   64.89    6.80
   4   8   4   82.39    8.20
   9  -9  -4   61.09    6.70
  -9   9   4   67.89   10.30
   8  -9  -4   11.00    4.40
  -8   9   4    1.10    7.30
   7  -9  -4   79.19    6.60
  -7   9   4   78.69   10.10
   6  -9  -4    7.20    3.90
  -6   9   4    3.40    7.40
   5  -9  -4    0.80    3.40
  -5   9   4    5.50    7.20
   4  -9  -4   21.30    4.20
  -4   9   4   17.60    7.70
   3  -9  -4   15.00    4.10
   2  -9  -4   12.50    4.10
   1  -9  -4   70.89    6.10
  -1   9   4   62.59    5.80
   0  -9  -4   51.29    5.80
   0   9   4   54.09    5.80
  -1  -9  -4    1.10    4.00
   1   9   4   -3.10    4.00
  -2  -9  -4   -2.20    4.00
   2   9   4    7.70    6.30
  -3  -9  -4    0.50    4.40
   8 -10  -4    9.40    4.60
  -8  10   4    4.60    8.20
   7 -10  -4  183.68    9.60
  -7  10   4  166.58   16.10
   6 -10  -4  176.38    9.20
  -6  10   4  183.98   15.80
   5 -10  -4   23.70    4.50
  -5  10   4   23.70    8.20
   4 -10  -4  101.69    7.60
  -4  10   4   97.39   10.80
   3 -10  -4   50.59    5.70
  -3  10   4   32.80    8.50
   2 -10  -4    0.70    3.80
   1 -10  -4  200.28   10.30
   0 -10  -4   32.60    5.40
  -1 -10  -4   61.99    6.70
  -2 -10  -4   96.39    8.30
   7 -11  -4    7.70    4.30
  -7  11   4    5.10    8.70
   6 -11  -4   10.40    4.40
  -6  11   4    5.10    8.20
   5 -11  -4    7.10    4.20
  -5  11   4  -10.50    7.50
   4 -11  -4   63.19    6.30
  -4  11   4   42.80    9.60
   3 -11  -4    4.00    4.20
  -3  11   4   -3.60    7.60
   2 -11  -4   94.19    8.10
  -2  11   4   65.89   10.20
   1 -11  -4    5.00    4.30
   0 -11  -4    5.70    4.60
  -6  12   4   -3.90    8.80
   5 -12  -4   21.80    5.30
  -5  12   4   16.80    9.30
   4 -12  -4  144.89    9.60
  -4  12   4  133.59   13.50
   3 -12  -4   -0.30    4.20
  -3  12   4    2.60    8.30
   2 -12  -4   32.60    6.20
  -2  12   4   16.60    9.00
  -1  13  -5   36.50    8.00
   1 -13   5   38.90    5.00
  -2  13  -5    1.50    7.00
   2 -13   5    7.00    3.50
  -3  13  -5   -0.70    7.40
   3 -13   5    3.20    2.90
  -4  13  -5   10.80    7.80
   4 -13   5    3.70    2.80
  -5  13  -5    8.70    8.30
   5 -13   5    4.50    4.00
  -1 -12   5   32.60    5.20
   0  12  -5   14.50    7.30
   0 -12   5   10.40    3.90
  -1  12  -5   47.80    7.80
   1 -12   5   42.50    4.70
  -2  12  -5   28.50    7.50
   2 -12   5   34.40    4.10
  -3  12  -5    8.90    7.10
   3 -12   5   -0.50    2.60
  -4  12  -5    6.40    7.40
   4 -12   5    2.70    2.60
  -5  12  -5   28.40    8.60
   5 -12   5   24.70    2.90
  -6  12  -5    3.20    8.30
  -3 -11   5    6.60    4.60
  -2 -11   5   49.80    5.80
  -1 -11   5    9.60    4.00
   0  11  -5    2.00    5.10
   0 -11   5    4.50    3.30
  -1  11  -5    7.60    5.70
   1 -11   5    0.80    3.00
  -2  11  -5    4.30    6.30
   2 -11   5    3.70    2.80
  -3  11  -5   14.70    7.10
   3 -11   5   25.10    3.10
  -4  11  -5   30.30    7.90
   4 -11   5   41.70    3.20
  -5  11  -5    6.60    7.30
   5 -11   5    2.50    1.90
  -6  11  -5   11.00    7.90
  -7  11  -5   -2.10    8.20
  -4 -10   5   42.00    6.10
  -3 -10   5    5.60    4.20
  -2 -10   5   95.29    7.20
   1  10  -5   63.29    6.40
  -1 -10   5   74.09    5.90
   0  10  -5    2.60    5.00
   0 -10   5    3.90    3.10
  -1  10  -5   66.09    7.50
   1 -10   5   59.49    4.60
  -2  10  -5   73.69    8.30
   2 -10   5   97.29    5.20
  -3  10  -5   23.10    6.90
   3 -10   5   24.30    2.70
  -4  10  -5  175.38   13.30
   4 -10   5  172.68    5.90
  -5  10  -5  121.29   12.90
  -6  10  -5    5.40    7.40
  -7  10  -5   99.59   11.60
  -5  -9   5   30.00    5.70
  -4  -9   5   33.20    5.40
  -3  -9   5   22.40    4.70
  -2  -9   5   32.70    4.50
   1   9  -5    1.00    3.90
  -1  -9   5    6.20    3.10
   0   9  -5   -0.10    4.50
   0  -9   5   -1.70    2.60
  -1   9  -5   54.69    6.90
  -1   9  -5   49.90    6.60
   1  -9   5   56.89    4.50
  -2   9  -5   -1.60    5.60
  -2   9  -5    7.60    5.60
   2  -9   5    2.20    2.10
  -3   9  -5   23.80    6.50
  -3   9  -5   22.00    6.80
   3  -9   5   22.60    2.30
  -4   9  -5   41.90    7.70
  -4   9  -5   46.30    7.80
  -5   9  -5   10.80    7.10
  -5   9  -5   23.50    7.50
  -6   9  -5   61.59    9.40
  -7   9  -5   -8.70    7.00
   7  -9   5    1.90    2.30
   8  -9   5    4.00    2.90
  -6  -8   5   -5.40    4.30
  -5  -8   5   44.00    6.10
  -4  -8   5   28.60    5.00
  -3  -8   5    4.20    3.70
   2   8  -5    5.20    3.50
  -2  -8   5   13.30    3.60
   1   8  -5  138.09    8.50
   1   8  -5  136.49    8.50
  -1  -8   5  129.59    6.80
   0   8  -5  138.09    9.50
   0   8  -5  145.29    9.40
   0  -8   5  135.59    6.20
   0  -8   5  141.39    6.30
  -1   8  -5  481.95   17.10
  -1   8  -5  482.25   16.60
   1  -8   5  466.15   13.10
   1  -8   5  448.56   13.00
  -2   8  -5  144.09   10.20
  -2   8  -5  105.19   10.40
   2  -8   5  100.99    4.50
   2  -8   5  103.19    4.40
  -3   8  -5  778.92   24.20
  -3   8  -5  754.62   25.00
  -4   8  -5  123.79   10.80
  -4   8  -5  139.69   12.40
  -5   8  -5   10.50    6.70
  -5   8  -5   25.30    7.50
  -6   8  -5   69.79    9.30
  -6   8  -5   74.99    9.20
   6  -8   5   87.29    4.10
   7  -8   5   70.49    4.80
   8  -8   5    4.10    3.10
  -7  -7   5   35.20    6.50
  -6  -7   5   13.20    4.90
  -5  -7   5   88.69    7.60
  -4  -7   5    6.70    3.90
   3   7  -5   40.30    4.20
  -3  -7   5   41.20    4.70
   2   7  -5  468.35   13.50
   2   7  -5  467.95   14.20
   2   7  -5  464.25   14.30
  -2  -7   5  462.85   14.30
   1   7  -5   17.40    4.20
   1   7  -5    9.50    4.30
  -1  -7   5   13.10    3.00
   0   7  -5  253.47   11.20
   0   7  -5  246.28   11.00
   0  -7   5  246.68    8.20
   0  -7   5  254.57    8.30
  -1   7  -5  191.38   10.30
  -1   7  -5  199.58   10.70
   1  -7   5  176.28    6.30
   1  -7   5  188.98    6.30
  -2   7  -5   44.70    6.50
  -2   7  -5   43.20    6.50
   2  -7   5   38.90    2.90
   2  -7   5   44.40    2.80
  -3   7  -5   69.49    7.50
  -3   7  -5   66.29    7.70
  -4   7  -5  129.69   10.60
  -4   7  -5  163.18   12.80
  -5   7  -5   48.20    7.20
  -5   7  -5   54.89    7.80
  -6   7  -5  152.38   13.00
   6  -7   5  179.08    6.20
  -7   7  -5   11.40    7.80
   7  -7   5   11.20    2.90
   8  -7   5    9.50    3.40
   9  -7   5    4.70    3.90
  -7  -6   5   -3.40    4.60
   6   6  -5    3.50    4.20
  -6  -6   5   -1.70    4.30
   5   6  -5   32.30    4.80
  -5  -6   5   36.30    5.20
   4   6  -5    5.70    3.30
  -4  -6   5   -2.10    3.50
   3   6  -5  152.68    7.10
   3   6  -5  144.09    6.60
  -3  -6   5  142.49    7.30
   2   6  -5   25.70    4.10
   2   6  -5   17.70    3.00
  -2  -6   5   24.10    3.50
  -2  -6   5   15.30    3.30
   1   6  -5   92.59    6.80
   1   6  -5   72.09    3.40
   1   6  -5   87.79    6.60
  -1  -6   5   85.39    5.00
  -1  -6   5   83.49    4.90
   0   6  -5  251.57   10.50
   0   6  -5  240.48   10.20
   0  -6   5  237.88    7.70
   0  -6   5  236.98    7.60
  -1   6  -5   18.30    5.00
  -1   6  -5   15.40    4.80
   1  -6   5   14.00    1.90
   1  -6   5   20.20    2.10
  -2   6  -5  246.18   11.30
  -2   6  -5  234.68   11.80
  -3   6  -5   51.79    6.80
  -3   6  -5   51.89    6.70
  -4   6  -5   -1.70    5.90
  -5   6  -5   31.90    6.80
   5  -6   5   49.99    3.10
   5  -6   5   48.20    3.60
  -6   6  -5  151.88   11.70
   6  -6   5  164.98    6.50
  -7   6  -5    2.90    7.10
   7  -6   5    2.50    3.00
   8  -6   5   11.80    3.80
   9  -6   5   12.60    4.20
   8   5  -5   59.49   11.60
  -8  -5   5   51.89    7.10
   7   5  -5    1.40    4.40
  -7  -5   5   -2.10    4.40
   6   5  -5   25.90    4.90
  -6  -5   5   14.00    4.70
   5   5  -5   87.99    6.90
  -5  -5   5   91.39    7.10
   4   5  -5    6.30    3.50
   4   5  -5    6.70    2.50
  -4  -5   5    7.10    3.60
   3   5  -5  610.04   17.00
   3   5  -5  639.84   17.60
  -3  -5   5  636.74   18.00
   2   5  -5  489.65   13.60
   2   5  -5  484.95   14.30
  -2  -5   5  476.45   13.90
  -2  -5   5  490.05   13.70
  -2  -5   5  479.45   14.00
   1   5  -5   12.10    3.70
  -1  -5   5   13.50    2.40
  -1  -5   5   13.10    2.50
  -1  -5   5   16.10    3.40
   0   5  -5  106.59    7.10
   0  -5   5   98.69    4.30
   0  -5   5  100.09    4.40
  -1   5  -5   49.00    5.40
   1  -5   5   52.59    2.90
   1  -5   5   52.19    2.80
  -2   5  -5  160.98    9.60
  -3   5  -5  535.95   17.50
  -4   5  -5   13.00    6.10
   4  -5   5    8.50    1.80
   4  -5   5    6.70    1.50
  -5   5  -5  103.99    8.90
   5  -5   5   84.59    4.70
   5  -5   5   91.89    4.10
  -6   5  -5    0.90    5.70
   6  -5   5    6.30    2.90
  -7   5  -5   -9.90    6.30
   7  -5   5    0.60    3.30
  -8   5  -5   -0.70    7.60
   8  -5   5   10.70    3.90
   9  -5   5   23.20    4.90
   8   4  -5    9.20    4.80
  -8  -4   5   16.70    5.20
   7   4  -5   89.79    7.50
  -7  -4   5   74.09    7.10
   6   4  -5    7.00    4.10
  -6  -4   5    5.10    4.20
   5   4  -5    6.70    3.80
  -5  -4   5    2.80    3.70
   4   4  -5   72.19    5.10
   4   4  -5   84.29    6.30
  -4  -4   5   75.09    6.40
   3   4  -5    2.70    2.80
   3   4  -5    6.20    3.10
  -3  -4   5    2.70    2.90
   2   4  -5   78.99    4.50
   2   4  -5   75.29    5.70
  -2  -4   5   82.49    4.80
  -2  -4   5   81.99    5.10
  -2  -4   5   82.49    4.70
   1   4  -5 1043.10   25.50
   1   4  -5 1007.20   26.90
  -1  -4   5 1033.50   25.80
  -1  -4   5  995.40   26.50
  -1  -4   5 1037.40   25.90
   0   4  -5  557.04   16.50
   0  -4   5  558.44   14.50
   0  -4   5  556.04   14.40
  -1   4  -5    3.70    3.80
   1  -4   5    0.30    1.40
   1  -4   5    2.70    1.30
   2  -4   5   46.80    2.10
   2  -4   5   43.10    2.30
  -3   4  -5 1023.70   28.30
   3  -4   5 1015.50   24.90
   3  -4   5 1021.30   24.90
  -4   4  -5   11.20    5.50
   4  -4   5   11.50    2.20
   4  -4   5   12.60    1.90
  -5   4  -5   23.30    6.50
   5  -4   5   17.50    2.40
   5  -4   5   20.90    3.00
  -6   4  -5   -3.80    5.50
   6  -4   5    3.60    3.20
  -7   4  -5    6.60    6.30
   7  -4   5    1.10    3.60
  -8   4  -5  -13.80    6.80
   8  -4   5   -3.80    3.80
   9  -4   5   31.10    5.50
   9   3  -5   11.20    5.30
   8   3  -5   59.79    6.70
  -8  -3   5   41.90    6.20
   7   3  -5   81.39    6.90
  -7  -3   5   91.29    7.20
   6   3  -5  246.58   10.60
  -6  -3   5  242.48   10.50
   5   3  -5  142.79    7.80
  -5  -3   5  147.79    7.90
   4   3  -5  191.28    7.60
   4   3  -5  195.78    8.10
  -4  -3   5  193.68    8.20
   3   3  -5  302.67    9.90
   3   3  -5  311.57   10.20
  -3  -3   5  320.67   10.30
   2   3  -5   68.59    5.60
   2   3  -5   80.69    4.30
  -2  -3   5   89.79    4.80
  -2  -3   5   84.49    4.50
  -2  -3   5   84.79    4.70
   1   3  -5  740.53   18.50
   1   3  -5  736.43   20.00
  -1  -3   5  710.33   19.50
  -1  -3   5  720.23   18.70
  -1  -3   5  729.33   18.80
   0   3  -5  233.28    6.30
   0   3  -5  237.28    9.30
   0   3  -5  225.48    6.30
   0  -3   5  238.88    6.90
   0  -3   5  234.38    7.00
  -1   3  -5  120.89    7.50
   1  -3   5  111.09    4.00
   1  -3   5  125.89    4.20
  -2   3  -5   27.50    4.80
   2  -3   5   30.00    2.60
   2  -3   5   26.80    2.30
  -3   3  -5   18.40    5.20
   3  -3   5   17.10    2.20
   3  -3   5   19.00    2.00
  -5   3  -5  727.73   22.40
   5  -3   5  701.83   19.20
   5  -3   5  705.43   18.90
  -6   3  -5  253.87   12.60
   6  -3   5  247.28    9.60
  -7   3  -5   10.90    6.30
   7  -3   5   16.90    4.30
  -8   3  -5   -1.10    6.60
   8  -3   5    9.20    4.40
   9  -3   5   10.50    5.10
   9   2  -5   16.10    5.10
   8   2  -5    4.80    4.60
  -8  -2   5   -0.80    4.20
   7   2  -5   19.80    4.60
  -7  -2   5   15.10    4.50
   6   2  -5   24.50    4.50
  -6  -2   5   31.30    4.70
   5   2  -5   16.00    3.70
  -5  -2   5   15.00    3.80
   4   2  -5   44.20    4.10
  -4  -2   5   43.40    4.20
   3   2  -5   13.00    2.70
  -3  -2   5   18.30    3.10
  -3  -2   5   16.30    3.20
   2   2  -5  196.38    6.80
  -2  -2   5  209.88    7.20
  -2  -2   5  196.88    6.80
   1   2  -5   14.00    2.00
   1   2  -5   12.80    2.00
   1   2  -5   17.70    3.60
  -1  -2   5   16.80    2.40
  -1  -2   5   18.40    2.30
   0   2  -5   72.59    3.20
   0   2  -5   80.79    6.00
   0  -2   5   77.99    3.50
   0  -2   5   73.79    3.80
  -1   2  -5   24.80    1.90
  -1   2  -5   27.40    1.80
  -1   2  -5   21.80    4.10
   1  -2   5   26.40    2.40
   1  -2   5   23.00    2.00
  -2   2  -5  103.39    7.20
   2  -2   5   86.89    3.90
   2  -2   5  107.99    4.30
  -3   2  -5   23.20    5.00
   3  -2   5   18.10    2.60
   3  -2   5   19.80    2.40
  -4   2  -5    1.80    5.00
  -4   2  -5    2.00    1.40
   4  -2   5    1.90    2.80
   4  -2   5   -2.10    2.00
  -5   2  -5   48.20    6.50
   5  -2   5   57.09    4.50
   5  -2   5   57.49    4.70
  -6   2  -5   91.19    9.10
   6  -2   5   99.49    7.10
  -7   2  -5   11.20    6.10
   7  -2   5    7.80    4.20
  -8   2  -5   -9.70    6.20
   8  -2   5    9.60    4.90
   9   1  -5  104.59    8.40
   8   1  -5   28.50    5.40
  -8  -1   5   14.30    4.70
   7   1  -5   22.80    4.70
  -7  -1   5   31.20    5.00
   6   1  -5  203.68    9.40
  -6  -1   5  212.68    9.40
   5   1  -5    4.50    3.20
  -5  -1   5    7.00    3.40
   4   1  -5 1117.99   29.10
  -4  -1   5 1124.49   29.20
   3   1  -5 1567.64   40.20
  -3  -1   5 1609.24   40.40
  -3  -1   5 1669.33   41.00
   2   1  -5    0.30    2.00
  -2  -1   5   -0.90    2.00
  -2  -1   5    0.10    2.40
   1   1  -5  328.37    9.40
   1   1  -5  336.07    9.30
  -1  -1   5  331.37    9.50
  -1  -1   5  325.47    9.60
   0   1  -5  236.68    7.10
   0   1  -5  244.78    7.10
   0  -1   5  240.48    7.30
   0  -1   5  241.78    7.50
  -2   1  -5  536.75   13.90
  -2   1  -5  533.85   16.30
   2  -1   5  536.55   14.50
   2  -1   5  550.74   14.40
  -3   1  -5  570.94   15.20
  -3   1  -5  599.24   18.00
   3  -1   5  591.14   15.90
   3  -1   5  605.04   16.10
  -4   1  -5  801.62   20.60
  -4   1  -5  821.22   23.30
   4  -1   5  807.92   21.40
   4  -1   5  793.52   21.60
  -5   1  -5  615.44   19.20
   5  -1   5  604.24   17.70
   5  -1   5  603.44   17.30
  -6   1  -5   36.70    6.20
   6  -1   5   30.00    4.80
  -7   1  -5  115.99   10.10
   7  -1   5   97.39    8.30
   8  -1   5   53.09    6.70
  10   0  -5   30.50    6.40
   9   0  -5  101.39    8.50
   8   0  -5   20.00    5.00
  -8   0   5   19.70    4.60
   7   0  -5  136.29    8.50
  -7   0   5  128.79    8.00
   6   0  -5  123.19    7.60
  -6   0   5  144.79    7.40
  -6   0   5  119.39    6.30
   5   0  -5   43.90    4.40
  -5   0   5   46.00    5.00
  -5   0   5   46.60    4.40
   4   0  -5  195.78    7.70
  -4   0   5  196.48    7.90
   3   0  -5    0.30    2.40
  -3   0   5   -2.20    2.40
   2   0  -5   10.00    2.30
  -2   0   5    9.90    2.50
  -2   0   5   11.90    2.30
   1   0  -5   63.79    3.90
   1   0  -5   63.69    4.00
  -1   0   5   64.79    4.30
  -1   0   5   65.09    3.80
   0   0  -5 1752.72   42.70
   0   0  -5 1706.23   42.40
   0   0   5 1699.63   42.60
   0   0   5 1774.52   42.50
  -1   0  -5  310.57    9.00
   1   0   5  308.47    9.40
   1   0   5  304.27    9.10
  -2   0  -5  353.86   10.20
  -2   0  -5  354.06   12.20
   2   0   5  350.26   10.40
   2   0   5  358.66   10.70
  -3   0  -5  230.08   10.30
  -3   0  -5  211.98    7.20
   3   0   5  209.08    7.60
   3   0   5  217.48    8.10
  -4   0  -5  298.07   12.00
  -4   0  -5  302.77    9.20
   4   0   5  280.67    9.70
   4   0   5  278.97   10.40
  -5   0  -5   65.69    6.40
   5   0   5   67.89    5.70
  -6   0  -5    3.70    5.10
   6   0   5   11.90    4.50
  -7   0  -5    8.90    5.40
   7   0   5   12.00    4.80
   8   0   5   -0.10    5.10
  10  -1  -5   10.50    5.50
   9  -1  -5   41.40    6.10
   8  -1  -5   24.60    5.10
  -8   1   5   25.30    4.80
   7  -1  -5   60.19    5.80
  -7   1   5   57.89    5.90
  -7   1   5   68.79    5.80
   6  -1  -5    3.50    3.60
  -6   1   5    7.40    3.50
  -6   1   5    5.60    3.60
   5  -1  -5   41.60    4.50
  -5   1   5   37.20    4.20
  -5   1   5   40.10    4.50
   4  -1  -5  776.62   21.00
  -4   1   5  785.62   21.10
   3  -1  -5 1375.76   34.70
  -3   1   5 1374.06   34.70
   2  -1  -5   75.79    4.50
  -2   1   5   77.79    4.40
  -2   1   5   79.99    4.90
   1  -1  -5  476.85   13.20
  -1   1   5  458.95   13.10
  -1   1   5  497.15   13.50
   0  -1  -5   55.29    3.90
   0   1   5   58.59    4.50
   0   1   5   54.99    3.80
  -1  -1  -5  242.38    7.90
   1   1   5  250.37    8.40
   1   1   5  237.78    7.90
  -2  -1  -5 1041.20   26.20
  -2  -1  -5 1040.60   27.50
   2   1   5 1035.10   26.60
   2   1   5  973.60   26.30
  -3  -1  -5    9.40    4.50
  -3  -1  -5    9.60    2.70
   3   1   5    9.50    3.60
   3   1   5   13.00    3.10
  -4  -1  -5   69.49    5.00
  -4  -1  -5   56.99    6.00
   4   1   5   55.19    5.10
  -5  -1  -5  105.09    8.30
   5   1   5  104.29    7.80
  -6  -1  -5   71.69    6.50
   6   1   5   64.39    6.40
   7   1   5  187.88   10.60
   8   1   5   35.40    7.00
  10  -2  -5  118.99    9.40
   9  -2  -5   18.70    5.40
   8  -2  -5  141.99    9.00
  -8   2   5  121.79    7.70
   7  -2  -5   17.90    4.40
  -7   2   5   14.60    3.90
  -7   2   5    8.30    4.10
   6  -2  -5  392.06   13.20
  -6   2   5  409.26   14.00
  -6   2   5  388.66   13.00
   5  -2  -5  207.98    8.80
  -5   2   5  223.38   10.40
  -5   2   5  232.48    8.90
   4  -2  -5    3.60    2.90
  -4   2   5    6.50    3.10
   3  -2  -5   58.89    4.60
  -3   2   5   47.80    4.00
   2  -2  -5  716.43   19.20
  -2   2   5  726.33   19.40
   1  -2  -5 1047.30   27.00
  -1   2   5 1052.49   27.00
  -1   2   5 1066.69   27.20
   0  -2  -5  122.69    5.50
   0   2   5  129.09    5.50
   0   2   5  126.79    6.20
  -1  -2  -5   19.10    2.90
   1   2   5   21.30    3.40
  -2  -2  -5   63.59    4.80
   2   2   5   61.79    4.90
  -3  -2  -5   28.30    3.70
  -3  -2  -5   20.50    4.90
   3   2   5   30.80    4.50
  -4  -2  -5    0.60    2.80
  -4  -2  -5    2.30    4.50
   4   2   5    6.60    4.10
  -5  -2  -5    8.70    4.40
   5   2   5    8.10    4.70
   6   2   5   33.40    5.90
   7   2   5   19.70    5.60
  10  -3  -5   30.40    6.10
   9  -3  -5   15.20    5.00
   8  -3  -5    5.10    4.30
  -8   3   5    0.40    4.50
   7  -3  -5   62.09    5.80
  -7   3   5   51.79    5.90
  -7   3   5   58.39    5.40
   6  -3  -5  296.57   11.00
  -6   3   5  275.27   12.60
  -6   3   5  285.27   10.60
   5  -3  -5    6.10    3.10
  -5   3   5   -1.60    4.70
  -5   3   5    3.20    3.30
   4  -3  -5  397.26   12.20
  -4   3   5  384.76   12.30
   3  -3  -5   43.20    3.90
  -3   3   5   41.80    4.10
   2  -3  -5  461.15   13.40
  -2   3   5  464.75   13.70
   1  -3  -5  295.47    9.70
  -1   3   5  301.37   10.00
   0  -3  -5    4.00    2.60
   0   3   5    2.80    3.10
  -2  -3  -5  108.09    6.20
   2   3   5  119.09    7.00
  -3  -3  -5    8.30    3.40
  -3  -3  -5   10.10    4.90
   3   3   5    7.70    4.20
  -4  -3  -5  119.99    8.60
  -4  -3  -5  119.69    7.10
   4   3   5  139.89    8.60
  -5  -3  -5   70.69    6.40
   5   3   5   63.59    6.80
   6   3   5   10.90    5.30
   7   3   5  136.99   11.50
  10  -4  -5   21.30    5.80
   9  -4  -5   23.30    5.40
   8  -4  -5   15.40    4.80
  -8   4   5   16.60    5.60
   7  -4  -5   94.69    7.40
  -7   4   5   81.99    6.20
  -7   4   5   93.39    9.50
   6  -4  -5   35.90    4.60
  -6   4   5   31.90    6.30
  -6   4   5   33.40    4.50
   5  -4  -5  756.02   21.20
  -5   4   5  780.92   23.80
  -5   4   5  745.03   21.10
   4  -4  -5  159.38    7.50
  -4   4   5  168.68    7.60
   3  -4  -5   70.99    5.30
  -3   4   5   94.19    6.00
   2  -4  -5    3.50    2.80
  -2   4   5    5.70    3.20
   1  -4  -5   64.69    5.20
  -1   4   5   69.39    5.70
   0  -4  -5  728.53   20.30
   0   4   5  749.92   20.70
  -1  -4  -5 1081.39   28.70
   1   4   5 1089.19   29.00
  -2  -4  -5  131.79    6.90
   2   4   5  130.19    8.20
  -3  -4  -5   38.30    4.60
  -3  -4  -5   30.80    5.10
   3   4   5   30.30    5.00
  -4  -4  -5   47.20    5.60
  -4  -4  -5   49.90    5.00
   4   4   5   54.69    6.30
   5   4   5   11.30    5.40
   6   4   5   52.99    7.20
  10  -5  -5   34.20    6.30
   9  -5  -5   33.10    5.80
  -9   5   5   30.00    6.80
   8  -5  -5    6.50    4.40
  -8   5   5    6.30    5.60
   7  -5  -5   11.80    4.30
  -7   5   5    8.30    5.70
  -7   5   5    8.50    3.80
   6  -5  -5  141.29    8.00
  -6   5   5  132.39    7.10
  -6   5   5  125.49   11.40
   5  -5  -5  159.18    7.80
  -5   5   5  134.49    7.40
  -5   5   5  152.38   12.10
   4  -5  -5   76.19    5.90
  -4   5   5   75.59    6.30
   3  -5  -5    3.40    2.90
  -3   5   5    2.10    3.40
   2  -5  -5    2.90    3.00
  -2   5   5    2.80    3.30
   1  -5  -5  118.49    6.50
  -1   5   5  109.69    7.00
   0  -5  -5  233.38    9.30
   0   5   5  240.88    9.80
  -1  -5  -5  141.89    7.50
   1   5   5  154.08    8.40
  -2  -5  -5   12.20    3.90
   2   5   5   10.20    4.50
  -3  -5  -5   27.40    5.40
  -3  -5  -5   23.20    4.30
   3   5   5   30.90    5.40
  -4  -5  -5   15.80    4.20
   4   5   5   18.60    5.50
   5   5   5   -2.20    5.10
   6   5   5   50.09    7.30
  10  -6  -5   56.79    9.20
   9  -6  -5   22.00    5.30
  -9   6   5   10.20    6.30
   8  -6  -5  208.28   10.20
  -8   6   5  187.28   13.40
   7  -6  -5   54.09    5.60
  -7   6   5   39.00    7.20
   6  -6  -5    4.20    3.50
  -6   6   5    0.50    6.10
  -6   6   5   -1.80    3.20
   5  -6  -5  275.27   10.60
  -5   6   5  268.87   10.50
  -5   6   5  283.77   15.20
   4  -6  -5  170.68    8.00
  -4   6   5  152.28    7.70
   3  -6  -5   12.70    3.60
  -3   6   5   15.40    3.80
   2  -6  -5  480.15   14.90
  -2   6   5  481.05   15.00
   1  -6  -5   17.00    3.80
  -1   6   5   12.80    4.00
   0  -6  -5  426.16   14.00
   0   6   5  435.86   14.30
  -1  -6  -5   21.20    4.20
   1   6   5   14.80    4.70
  -2  -6  -5   38.90    5.00
   2   6   5   25.50    5.20
  -3  -6  -5   39.20    5.30
  -3  -6  -5   34.50    8.90
   3   6   5   46.40    6.20
  -4  -6  -5   48.70    5.80
   4   6   5   57.69    7.20
   5   6   5    7.00    5.80
   9  -7  -5    3.20    4.60
  -9   7   5   -7.00    6.40
   8  -7  -5    9.60    4.40
  -8   7   5    1.50    6.40
   7  -7  -5   34.80    5.10
  -7   7   5   26.70    7.50
   6  -7  -5   36.80    4.90
  -6   7   5   29.50    7.50
   5  -7  -5    9.80    3.90
  -5   7   5   11.50    6.90
  -5   7   5    4.60    3.40
   4  -7  -5   20.50    3.90
  -4   7   5   14.50    3.80
   3  -7  -5   59.89    5.30
  -3   7   5   55.39    5.10
   2  -7  -5  137.09    7.40
  -2   7   5  120.89    7.50
   1  -7  -5  104.19    7.10
  -1   7   5  107.09    7.30
   0  -7  -5   -0.20    3.50
   0   7   5    3.00    4.00
  -1  -7  -5    0.80    3.70
   1   7   5   10.70    4.50
  -2  -7  -5   40.20    5.40
   2   7   5   49.10    6.30
  -3  -7  -5  107.09    8.40
   3   7   5  104.49    9.00
  -4  -7  -5    3.70    4.20
   4   7   5    6.00    5.70
   9  -8  -5   -3.30    4.20
  -9   8   5    1.20    7.30
   8  -8  -5  116.99    8.80
  -8   8   5  117.99   11.20
   7  -8  -5   50.09    5.70
  -7   8   5   41.60    8.40
   6  -8  -5  136.59    8.40
  -6   8   5  144.89   13.60
   5  -8  -5  341.37   12.60
  -5   8   5  367.96   17.80
   4  -8  -5   16.80    4.10
  -4   8   5   16.10    4.00
   3  -8  -5    6.90    3.70
  -3   8   5   10.60    3.80
   2  -8  -5   36.70    4.80
  -2   8   5   32.40    4.60
   1  -8  -5   98.09    7.10
  -1   8   5   90.69    7.50
   0  -8  -5  187.38    9.70
   0   8   5  210.88   10.00
  -1  -8  -5  144.09    9.20
   1   8   5  155.38    9.50
  -2  -8  -5   36.70    5.50
   2   8   5   28.30    5.70
  -3  -8  -5   79.89    7.30
   3   8   5   87.29    8.40
  -9   9   5   12.50    8.40
   8  -9  -5   -4.50    4.00
  -8   9   5   12.10    8.00
   7  -9  -5   40.00    5.60
  -7   9   5   43.90    8.90
   6  -9  -5   22.80    4.60
  -6   9   5   19.50    8.30
   5  -9  -5    2.00    3.80
  -5   9   5   -0.10    7.40
   4  -9  -5    6.70    4.00
  -4   9   5  -11.10    7.00
   3  -9  -5    7.80    4.00
   2  -9  -5    1.70    3.80
   1  -9  -5   89.19    7.40
  -1   9   5   90.19    8.20
   0  -9  -5   45.00    5.90
   0   9   5   39.10    5.60
  -1  -9  -5    3.80    4.40
   1   9   5   -1.30    4.70
  -2  -9  -5    2.50    4.40
   8 -10  -5  152.88   12.10
  -8  10   5  115.79   12.70
   7 -10  -5   15.60    4.70
  -7  10   5    7.40    8.30
   6 -10  -5   94.29    7.30
  -6  10   5   76.79   11.00
   5 -10  -5   17.40    4.60
  -5  10   5   -0.80    7.70
   4 -10  -5    4.50    4.20
  -4  10   5   -5.20    7.20
   3 -10  -5  109.39    8.20
   2 -10  -5  244.78   11.40
   1 -10  -5   85.09    7.40
   0 -10  -5  198.48   10.80
  -1 -10  -5    7.80    4.80
  -7  11   5  -11.50    8.00
   6 -11  -5    4.40    4.30
  -6  11   5   -5.10    8.40
   5 -11  -5   -3.20    3.90
  -5  11   5    1.30    8.30
   4 -11  -5   28.00    5.20
  -4  11   5   15.60    8.80
   3 -11  -5   16.80    5.00
  -3  11   5   14.70    8.80
   2 -11  -5   15.90    4.90
   1 -11  -5   10.50    4.80
  -1  13  -6    7.70    8.90
   1 -13   6    9.20    3.70
  -2  13  -6    0.10    7.10
   2 -13   6    5.10    3.40
  -3  13  -6    0.50    7.40
   3 -13   6    3.10    3.00
  -4  13  -6    7.90    8.00
   4 -13   6    6.40    2.70
  -1 -12   6   10.40    4.20
   0 -12   6   70.09    5.90
  -1  12  -6    1.30    6.00
   1 -12   6    2.20    3.30
  -2  12  -6   67.69    9.10
   2 -12   6   77.49    5.60
  -3  12  -6   59.39    9.10
   3 -12   6   57.49    4.80
  -4  12  -6   -2.70    7.20
   4 -12   6   -2.00    2.10
  -5  12  -6   22.20    8.80
  -6  12  -6   35.70    9.90
  -3 -11   6    3.50    5.30
  -2 -11   6    0.40    3.90
  -1 -11   6   49.40    5.30
   0  11  -6    5.00    5.40
   0 -11   6   15.90    3.70
  -1  11  -6    1.90    5.70
   1 -11   6   12.10    3.30
  -2  11  -6   10.60    6.50
   2 -11   6   13.00    3.00
  -3  11  -6    8.20    6.80
   3 -11   6    8.00    2.50
  -4  11  -6   14.30    7.40
   4 -11   6    9.00    2.10
  -5  11  -6    6.40    7.70
  -6  11  -6   -2.80    8.00
  -4 -10   6   67.39    6.90
  -3 -10   6   13.60    4.60
  -2 -10   6    7.90    3.90
   1  10  -6  154.18    9.90
  -1 -10   6  157.08    8.00
   0  10  -6   24.20    5.70
   0 -10   6   35.20    4.20
  -1  10  -6    2.50    6.00
  -1  10  -6   -5.20    5.20
   1 -10   6   -2.70    2.60
  -2  10  -6  158.68   12.70
  -2  10  -6  163.38   12.00
   2 -10   6  172.68    6.50
  -3  10  -6    5.80    6.60
  -3  10  -6   12.90    7.00
  -4  10  -6   86.79   10.00
  -4  10  -6   82.39    9.60
  -5  10  -6  164.68   14.80
  -5  10  -6  162.68   14.10
  -6  10  -6  -10.50    7.00
  -5  -9   6   22.60    5.50
  -4  -9   6   33.80    5.30
  -3  -9   6   -0.30    3.50
  -2  -9   6   29.00    4.50
   1   9  -6   -1.10    4.10
   1   9  -6  -10.00    4.40
  -1  -9   6    3.80    3.10
   0   9  -6    7.60    4.90
   0   9  -6    0.30    5.10
   0  -9   6   11.30    3.00
  -1   9  -6   80.69    7.80
  -1   9  -6   74.99    7.50
   1  -9   6   77.29    4.90
  -2   9  -6   65.79    7.60
  -2   9  -6   60.29    7.70
   2  -9   6   69.99    4.10
  -3   9  -6   12.40    6.40
  -3   9  -6   17.30    6.60
   3  -9   6   19.30    2.10
  -4   9  -6   -3.30    6.50
  -4   9  -6    8.00    6.30
  -5   9  -6   -1.60    6.90
  -5   9  -6   11.10    7.20
  -6   9  -6   20.80    8.10
  -6  -8   6    7.70    5.10
  -5  -8   6    5.90    4.40
  -4  -8   6    9.50    4.20
  -3  -8   6   18.60    4.30
   2   8  -6   -0.10    4.00
  -2  -8   6   -3.90    3.00
   1   8  -6   76.19    7.40
   1   8  -6   77.09    6.50
  -1  -8   6   69.19    5.50
   0   8  -6   40.30    5.80
   0   8  -6   33.10    5.70
   0  -8   6   41.30    3.70
  -1   8  -6  264.87   12.80
  -1   8  -6  272.47   12.50
   1  -8   6  246.78    9.70
   1  -8   6  268.77    8.40
  -2   8  -6  338.17   14.40
  -2   8  -6  324.47   15.30
   2  -8   6  348.17    9.70
   2  -8   6  361.56    9.80
  -3   8  -6   -4.80    5.60
  -3   8  -6   -4.70    5.60
  -4   8  -6   16.40    6.30
  -4   8  -6   14.50    6.70
  -5   8  -6   48.90    7.70
  -6   8  -6    0.00    7.00
  -7   8  -6  408.86   19.70
   7  -8   6  399.96   11.60
   8  -8   6   43.80    4.20
  -6  -7   6   10.60    4.90
  -5  -7   6    2.80    4.30
  -4  -7   6   96.39    7.70
   3   7  -6    6.30    5.30
  -3  -7   6    1.00    3.20
   2   7  -6    0.80    3.80
  -2  -7   6   -1.00    2.90
   1   7  -6   63.49    6.10
  -1  -7   6   57.99    4.90
  -1  -7   6   53.69    4.30
   0   7  -6   32.20    5.80
   0  -7   6   38.00    3.50
   0  -7   6   37.20    3.30
  -1   7  -6   26.20    5.70
  -1   7  -6   19.30    5.90
   1  -7   6   31.70    2.70
   1  -7   6   29.90    2.70
  -2   7  -6   37.80    6.90
  -2   7  -6   47.70    6.80
   2  -7   6   42.60    3.00
   2  -7   6   46.30    2.90
  -3   7  -6   45.00    7.30
  -4   7  -6   -2.70    5.70
  -5   7  -6   26.80    6.60
  -6   7  -6  150.98   12.10
   6  -7   6  152.18    5.90
  -7   7  -6    4.50    7.60
   7  -7   6    2.70    2.80
  -8   7  -6  -12.10    8.40
   8  -7   6   -0.20    3.20
  -7  -6   6   -7.90    4.40
  -6  -6   6   53.79    6.30
  -5  -6   6   35.00    5.40
   4   6  -6  130.09    7.10
  -4  -6   6  136.99    8.00
   3   6  -6   12.90    3.10
  -3  -6   6   17.30    3.70
   2   6  -6    7.00    2.40
   2   6  -6   14.10    4.10
  -2  -6   6    1.70    3.30
  -2  -6   6   12.80    3.10
  -2  -6   6    8.10    3.10
   1   6  -6  499.15   13.10
   1   6  -6  498.25   15.70
  -1  -6   6  503.75   14.10
  -1  -6   6  492.35   14.20
   0   6  -6   58.19    6.10
   0  -6   6   71.59    4.30
   0  -6   6   69.19    4.10
  -1   6  -6  265.47   11.90
   1  -6   6  261.27    7.60
   1  -6   6  249.58    7.50
  -2   6  -6  107.49    9.70
   2  -6   6  111.29    3.80
   2  -6   6  111.59    3.90
  -3   6  -6    6.00    5.90
  -4   6  -6   31.40    7.10
  -5   6  -6   -7.90    5.50
   5  -6   6    1.50    2.00
  -6   6  -6   88.69    9.10
   6  -6   6   95.89    5.40
  -7   6  -6   30.10    7.90
   7  -6   6   30.80    3.90
  -8   6  -6  -16.60    8.00
   8  -6   6   -1.80    3.50
  -8  -5   6   18.70    5.80
   7   5  -6  110.69    9.30
  -7  -5   6  117.49    8.80
   6   5  -6   -0.60    3.80
  -6  -5   6    0.70    4.30
   5   5  -6  101.19    7.00
  -5  -5   6   91.29    7.50
   4   5  -6  201.18    7.80
   4   5  -6  200.68    8.50
  -4  -5   6  215.78    9.30
   3   5  -6  188.38    8.40
   3   5  -6  189.98    7.60
  -3  -5   6  196.28    8.30
   2   5  -6  639.94   18.40
   2   5  -6  639.84   17.10
  -2  -5   6  638.04   17.70
  -2  -5   6  640.94   17.60
  -2  -5   6  629.24   17.50
   1   5  -6   33.40    4.80
  -1  -5   6   27.70    3.00
  -1  -5   6   30.30    3.30
   0   5  -6  159.68    8.90
   0  -5   6  151.78    5.90
   0  -5   6  167.58    5.70
  -1   5  -6  362.46   13.80
   1  -5   6  377.46   10.10
   1  -5   6  369.16   10.00
  -2   5  -6  165.38   10.60
   2  -5   6  179.68    5.30
   2  -5   6  175.48    5.20
  -3   5  -6   25.00    6.10
   3  -5   6   29.70    2.30
   3  -5   6   32.40    2.60
  -4   5  -6  166.48   10.80
   4  -5   6  156.98    5.20
  -5   5  -6    7.10    6.00
   5  -5   6    3.40    2.30
  -6   5  -6   56.39    8.20
   6  -5   6   64.99    5.50
  -7   5  -6   -0.70    6.70
   7  -5   6    0.40    3.50
  -8   5  -6    2.50    7.70
   8  -5   6    1.70    3.80
   8   4  -6    2.70    4.60
  -8  -4   6    4.50    5.00
   7   4  -6   84.29    7.30
  -7  -4   6   89.39    7.60
   6   4  -6   21.40    4.60
  -6  -4   6   22.20    4.80
   5   4  -6   56.89    5.30
   5   4  -6   48.60    5.10
  -5  -4   6   50.99    5.40
   4   4  -6   44.90    4.50
   4   4  -6   45.50    4.60
  -4  -4   6   46.80    4.90
   3   4  -6  104.99    6.90
   3   4  -6  109.19    5.80
  -3  -4   6  106.89    6.20
   2   4  -6  133.49    7.50
   2   4  -6  120.89    5.30
  -2  -4   6  113.49    5.60
  -2  -4   6  123.89    6.00
  -2  -4   6  126.29    6.40
   1   4  -6  232.98    7.10
   1   4  -6  249.97   10.00
  -1  -4   6  240.48    7.90
  -1  -4   6  236.48    7.70
   0   4  -6  103.49    7.40
   0  -4   6  111.99    4.60
   0  -4   6  101.19    4.40
  -1   4  -6  299.07   12.10
   1  -4   6  300.07    8.40
   1  -4   6  314.27    8.60
  -2   4  -6   19.30    5.40
   2  -4   6   27.90    2.10
   2  -4   6   26.00    2.30
  -3   4  -6  144.59   10.50
   3  -4   6  134.89    4.70
   3  -4   6  139.99    5.10
  -4   4  -6   56.39    7.30
   4  -4   6   57.69    4.20
   4  -4   6   60.29    3.60
  -5   4  -6   53.79    7.40
   5  -4   6   63.39    4.90
  -6   4  -6   48.90    7.60
   6  -4   6   47.90    4.50
  -7   4  -6   12.50    6.90
   7  -4   6   26.70    4.40
  -8   4  -6   -2.60    7.30
   8  -4   6    7.40    4.50
   9   3  -6    3.80    5.00
   8   3  -6  121.29    9.40
  -8  -3   6  120.29    9.20
   7   3  -6   15.50    4.70
  -7  -3   6    7.30    4.50
   6   3  -6   77.59    6.30
  -6  -3   6   68.99    6.20
   5   3  -6  631.34   18.50
  -5  -3   6  620.84   18.80
   4   3  -6  509.85   15.10
  -4  -3   6  497.75   15.30
   3   3  -6   47.10    4.90
   3   3  -6   41.40    3.80
  -3  -3   6   48.20    4.20
  -3  -3   6   45.70    4.10
   2   3  -6  294.27    8.90
   2   3  -6  283.87   10.60
  -2  -3   6  281.67    9.30
  -2  -3   6  280.77    9.00
  -2  -3   6  282.87    9.60
   1   3  -6  140.19    5.10
   1   3  -6  151.98    7.90
  -1  -3   6  153.28    5.80
  -1  -3   6  136.59    5.50
   0   3  -6 1884.71   44.90
   0   3  -6 1833.82   47.20
   0   3  -6 1850.51   44.80
   0  -3   6 1886.91   45.50
   0  -3   6 1865.11   45.40
  -1   3  -6  557.24   17.10
   1  -3   6  544.85   14.30
   1  -3   6  541.55   14.20
  -2   3  -6   25.90    5.50
   2  -3   6   33.50    2.70
   2  -3   6   37.60    2.90
  -3   3  -6  372.96   14.30
   3  -3   6  367.76   10.50
   3  -3   6  364.26   10.30
  -4   3  -6   91.19    8.20
   4  -3   6   87.99    4.70
   4  -3   6   93.59    5.30
  -5   3  -6    5.30    5.40
   5  -3   6    4.10    3.00
  -6   3  -6  143.79   11.40
   6  -3   6  156.98    8.00
  -7   3  -6    2.30    6.20
   7  -3   6    3.30    4.00
  -8   3  -6    9.20    7.50
   8  -3   6   11.10    4.70
   9   2  -6    7.90    5.20
   8   2  -6   11.90    4.80
  -8  -2   6   15.20    5.00
   7   2  -6    8.80    4.30
  -7  -2   6    1.50    4.10
   6   2  -6    2.60    3.80
  -6  -2   6    3.40    3.80
   5   2  -6    4.90    3.50
  -5  -2   6   11.30    3.90
   4   2  -6   -6.60    2.70
  -4  -2   6    0.10    3.10
   3   2  -6  242.88    8.40
  -3  -2   6  238.68    8.70
   2   2  -6    5.00    2.10
  -2  -2   6    5.50    2.30
  -2  -2   6   -0.30    2.60
   1   2  -6   29.60    2.70
   1   2  -6   31.10    4.60
  -1  -2   6   36.70    2.90
  -1  -2   6   38.40    3.20
   0   2  -6   86.69    3.60
   0   2  -6   92.59    7.40
   0  -2   6   86.69    4.10
   0  -2   6   91.49    4.50
  -1   2  -6    7.00    4.20
  -1   2  -6   15.10    1.60
  -1   2  -6   15.80    1.70
   1  -2   6   12.70    2.40
   1  -2   6   14.50    2.10
  -2   2  -6  127.69    4.00
  -2   2  -6  132.39    4.00
  -2   2  -6  121.09    8.60
   2  -2   6  131.99    5.00
   2  -2   6  133.59    5.40
  -3   2  -6  231.78   11.00
  -3   2  -6  224.28    6.10
   3  -2   6  221.88    7.30
   3  -2   6  214.78    7.70
  -4   2  -6  216.98    6.20
  -4   2  -6  217.18   11.80
   4  -2   6  226.98    8.30
   4  -2   6  227.28    7.80
  -5   2  -6  132.59   10.30
   5  -2   6  124.49    7.10
  -6   2  -6  225.38   12.60
   6  -2   6  238.58   10.00
  -7   2  -6   -1.90    5.90
   7  -2   6   -1.30    4.10
  -8   2  -6   -1.10    6.70
   8  -2   6   -7.40    4.40
   9   1  -6   -1.50    4.60
   8   1  -6  102.79    8.60
  -8  -1   6   94.69    7.70
   7   1  -6    8.70    4.20
  -7  -1   6    6.50    4.30
   6   1  -6   95.29    7.20
  -6  -1   6   89.79    7.10
   5   1  -6  278.47   10.40
  -5  -1   6  279.17    8.80
  -5  -1   6  287.27   10.60
   4   1  -6   -0.20    2.80
  -4  -1   6    4.50    3.10
   3   1  -6   -2.30    2.30
  -3  -1   6    2.20    2.80
   2   1  -6  459.65   12.80
  -2  -1   6  453.55   13.10
  -2  -1   6  443.46   12.80
   1   1  -6   67.79    4.00
  -1  -1   6   75.49    4.70
  -1  -1   6   75.69    4.10
   0   1  -6    4.70    1.90
   0  -1   6    5.90    2.00
   0  -1   6    3.60    2.30
  -1   1  -6   19.20    4.60
  -1   1  -6   31.80    2.40
   1  -1   6   28.00    2.60
   1  -1   6   34.30    3.30
  -2   1  -6  180.48    9.30
  -2   1  -6  171.58    5.80
   2  -1   6  181.08    6.50
   2  -1   6  190.68    7.00
  -3   1  -6 1835.42   47.90
  -3   1  -6 2063.09   50.89
   3  -1   6 1959.10   48.90
   3  -1   6 2048.00   48.80
  -4   1  -6  850.11   24.50
   4  -1   6  760.72   21.90
   4  -1   6  867.71   22.40
  -5   1  -6   13.10    5.60
   5  -1   6   12.90    4.00
  -6   1  -6   38.00    6.30
   6  -1   6   14.90    4.40
  -7   1  -6   71.89    7.80
   7  -1   6   72.09    6.80
   8  -1   6   39.00    6.30
   9   0  -6  100.89    8.40
   8   0  -6   12.00    4.80
  -8   0   6    6.60    4.40
   7   0  -6  146.89    8.90
  -7   0   6  155.28    8.70
   6   0  -6   40.40    4.80
  -6   0   6   50.19    5.30
  -6   0   6   57.19    5.50
   5   0  -6   25.60    3.90
  -5   0   6   30.90    4.30
  -5   0   6   25.50    4.00
   4   0  -6   14.80    3.20
  -4   0   6   14.40    3.40
   3   0  -6   19.00    3.10
  -3   0   6   23.90    3.30
   2   0  -6   24.60    3.00
  -2   0   6   29.30    3.30
  -2   0   6   26.20    3.00
   1   0  -6  118.29    5.10
  -1   0   6  119.39    5.70
  -1   0   6  115.79    5.10
   0   0  -6    2.40    2.00
   0   0   6    5.30    2.60
   0   0   6    5.60    2.20
  -1   0  -6   54.09    3.80
  -1   0  -6   54.19    5.60
   1   0   6   48.20    3.70
   1   0   6   48.90    4.00
  -2   0  -6  419.06   14.60
  -2   0  -6  426.16   12.00
   2   0   6  411.86   12.70
   2   0   6  439.56   12.50
  -3   0  -6  116.69    5.30
  -3   0  -6  135.39    9.30
   3   0   6  109.59    6.60
   3   0   6  105.29    5.60
  -4   0  -6    0.20    5.10
  -4   0  -6    1.50    2.30
   4   0   6   -6.40    3.50
  -5   0  -6   68.19    7.10
   5   0   6   58.89    5.60
  -6   0  -6    3.30    5.30
   6   0   6    7.30    4.50
   7   0   6    3.10    4.80
  10  -1  -6   36.50    6.70
   9  -1  -6   53.29    6.40
   8  -1  -6  126.59    8.80
  -8   1   6  108.79    8.20
   7  -1  -6   -0.20    3.80
  -7   1   6    0.20    3.70
   5  -1  -6  244.38    9.50
  -5   1   6  233.38    9.50
   3  -1  -6  303.07    9.90
  -3   1   6  305.77   10.20
   2  -1  -6  479.05   13.70
  -2   1   6  481.05   14.00
   1  -1  -6   18.70    2.70
  -1   1   6   22.90    3.40
  -1   1   6   16.00    2.60
   0  -1  -6  210.98    7.30
   0   1   6  209.08    7.40
   0   1   6  211.48    8.00
  -2  -1  -6   76.79    6.70
  -2  -1  -6   72.49    4.70
   2   1   6   71.89    4.70
   2   1   6   76.19    5.80
  -3  -1  -6 1002.00   25.70
  -3  -1  -6  971.60   27.50
   3   1   6  969.00   26.30
  -4  -1  -6   15.20    3.00
  -4  -1  -6   18.40    5.30
   4   1   6   17.30    4.40
  -5  -1  -6   67.79    6.90
   5   1   6   59.39    6.10
  -6  -1  -6   39.30    6.20
   6   1   6   49.20    6.20
   7   1   6   36.20    6.30
  10  -2  -6    8.90    5.30
   9  -2  -6   12.90    4.90
   8  -2  -6    0.60    4.20
  -8   2   6   -3.10    3.70
   7  -2  -6   93.99    7.10
  -7   2   6   82.39    7.10
  -7   2   6   77.59    7.70
   6  -2  -6  207.08    9.40
  -6   2   6  210.98   10.50
  -6   2   6  189.78    8.90
   5  -2  -6   39.80    4.60
  -5   2   6   30.20    4.40
   4  -2  -6  587.54   17.00
  -4   2   6  598.04   17.30
   3  -2  -6   33.90    3.80
  -3   2   6   35.40    4.10
   2  -2  -6    5.40    2.60
  -2   2   6    0.50    2.90
   1  -2  -6  215.88    7.90
  -1   2   6  216.98    8.40
   0  -2  -6  106.49    5.50
   0   2   6  110.29    6.30
  -1  -2  -6   -1.00    2.50
   1   2   6    0.40    3.20
  -2  -2  -6  974.50   25.80
  -2  -2  -6  976.20   27.40
   2   2   6  977.10   26.30
  -3  -2  -6    5.60    3.00
  -3  -2  -6    2.20    5.10
   3   2   6    8.20    4.10
  -4  -2  -6   32.70    4.00
  -4  -2  -6   28.10    5.60
   4   2   6   30.50    5.00
  -5  -2  -6   18.90    5.20
   5   2   6   10.90    4.90
   6   2   6    4.00    5.10
   7   2   6   -4.30    5.20
  10  -3  -6    5.50    5.40
   9  -3  -6   49.50    6.40
   8  -3  -6   30.90    5.50
  -8   3   6   32.90    5.80
   7  -3  -6   54.99    5.90
  -7   3   6   47.90    5.40
  -7   3   6   48.90    5.90
   6  -3  -6   25.40    4.40
  -6   3   6   23.10    4.30
  -6   3   6   28.60    5.70
   5  -3  -6  282.87   10.60
  -5   3   6  264.37   10.40
   4  -3  -6  823.32   22.40
  -4   3   6  808.62   22.40
   3  -3  -6  773.82   20.90
  -3   3   6  742.23   20.90
   2  -3  -6   95.29    5.60
  -2   3   6  102.49    6.50
   1  -3  -6  144.59    6.80
  -1   3   6  148.99    7.50
   0  -3  -6   15.80    3.30
   0   3   6   20.40    3.90
  -1  -3  -6   39.70    4.10
   1   3   6   44.90    4.70
  -2  -3  -6   46.20    4.50
   2   3   6   47.10    5.30
  -3  -3  -6   93.39    8.70
  -3  -3  -6  105.89    6.70
   3   3   6   90.99    7.80
  -4  -3  -6   39.60    6.00
  -4  -3  -6   33.90    4.30
   4   3   6   33.70    5.50
   5   3   6  195.48   11.00
   6   3   6   16.90    5.80
  10  -4  -6   14.50    5.80
   9  -4  -6   79.49    7.60
   8  -4  -6   31.20    5.60
  -8   4   6   34.00    6.10
   7  -4  -6   39.90    5.40
  -7   4   6   32.50    4.90
  -7   4   6   23.80    5.90
   6  -4  -6  210.28    9.60
  -6   4   6  211.18    9.60
  -6   4   6  208.08   12.50
   5  -4  -6  106.59    7.00
  -5   4   6   95.19    6.80
   4  -4  -6  151.68    7.70
  -4   4   6  149.49    7.90
   3  -4  -6  423.66   13.60
  -3   4   6  456.55   14.10
   2  -4  -6  105.79    6.20
  -2   4   6  114.99    7.20
   1  -4  -6  287.67   10.30
  -1   4   6  298.67   10.80
   0  -4  -6   99.39    6.30
   0   4   6  102.19    7.20
  -1  -4  -6  405.46   13.20
   1   4   6  406.56   13.90
  -3  -4  -6   29.40    6.00
  -3  -4  -6   24.10    4.20
   3   4   6   24.60    5.10
  -4  -4  -6    6.70    3.70
  -4  -4  -6   11.70    5.20
   4   4   6    7.70    4.90
   5   4   6   21.10    5.90
   6   4   6   -1.80    5.60
  10  -5  -6   38.60   10.30
   9  -5  -6    7.30    4.90
   8  -5  -6   -0.50    4.30
  -8   5   6    6.10    5.70
   7  -5  -6   50.99    5.80
  -7   5   6   51.69    5.50
  -7   5   6   49.10    7.40
   6  -5  -6   11.60    4.00
  -6   5   6   14.10    4.00
  -6   5   6    3.50    6.10
   5  -5  -6   34.30    4.60
  -5   5   6   35.10    4.70
   4  -5  -6  267.27   10.40
  -4   5   6  259.47   10.50
   3  -5  -6  103.69    6.60
  -3   5   6   96.69    7.10
   2  -5  -6   39.60    4.50
  -2   5   6   46.00    4.80
   1  -5  -6  206.98    8.80
  -1   5   6  218.38    9.40
   0  -5  -6   74.69    5.60
   0   5   6   79.99    6.30
  -1  -5  -6  225.08    9.60
   1   5   6  232.68   10.40
  -2  -5  -6  109.69    7.40
   2   5   6  120.39    8.80
  -3  -5  -6    7.00    3.90
  -3  -5  -6    5.90    5.20
   3   5   6    7.70    4.90
   4   5   6   68.59    7.30
   5   5   6   66.59    8.00
   9  -6  -6   53.99    6.80
  -9   6   6   51.49    8.20
   8  -6  -6    3.40    4.30
  -8   6   6    5.20    6.30
   7  -6  -6   63.19    6.30
  -7   6   6   66.29    8.70
   6  -6  -6  294.17   11.60
  -6   6   6  284.27   11.10
  -6   6   6  291.17   15.90
   5  -6  -6    3.10    3.60
  -5   6   6    4.70    3.90
   4  -6  -6  346.77   12.30
  -4   6   6  363.56   12.40
   3  -6  -6   12.70    3.80
  -3   6   6   13.70    4.00
   2  -6  -6   21.40    4.20
  -2   6   6   23.70    4.50
   1  -6  -6   85.89    6.80
   0  -6  -6  144.89    8.10
   0   6   6  142.99    8.70
  -1  -6  -6   18.90    4.30
   1   6   6   27.20    5.20
  -2  -6  -6   20.20    4.60
   2   6   6   25.00    5.30
  -3  -6  -6   39.40    5.40
   3   6   6   31.40    5.80
   4   6   6   35.60    6.60
   5   6   6   38.70    7.10
   9  -7  -6    3.10    4.60
  -9   7   6   -3.10    6.60
   8  -7  -6    5.10    4.40
  -8   7   6   -2.60    6.60
   7  -7  -6   18.90    4.70
  -7   7   6   15.00    7.60
   6  -7  -6   21.70    4.60
  -6   7   6   24.50    7.90
   5  -7  -6   52.59    5.50
  -5   7   6   62.49    5.60
   4  -7  -6   78.19    6.20
  -4   7   6   84.99    6.30
   3  -7  -6   59.79    5.60
  -3   7   6   44.90    5.10
   2  -7  -6   86.69    7.00
   1  -7  -6   80.79    7.00
  -1   7   6   86.19    7.40
   0  -7  -6    0.00    3.70
   0   7   6    1.80    4.20
  -1  -7  -6  103.29    8.10
   1   7   6   94.19    7.50
  -2  -7  -6   19.60    4.70
   2   7   6   32.10    5.90
  -3  -7  -6    9.40    4.60
   3   7   6   13.50    5.60
   4   7   6  115.19    9.70
   9  -8  -6   39.10    7.90
  -9   8   6   15.60    8.10
   8  -8  -6   54.49    6.30
  -8   8   6   56.39    9.50
   7  -8  -6  248.18   11.40
  -7   8   6  236.08   16.60
   6  -8  -6   24.20    5.00
  -6   8   6   24.20    8.40
   5  -8  -6  110.49    7.80
  -5   8   6   92.89   10.40
   4  -8  -6   30.60    4.90
  -4   8   6   25.40    6.50
   3  -8  -6    7.80    4.00
   2  -8  -6   66.79    6.20
  -2   8   6   68.39    6.30
   1  -8  -6  411.76   14.70
  -1   8   6  413.36   14.60
   0  -8  -6   23.70    4.80
   0   8   6   18.00    5.10
  -1  -8  -6  133.09    9.20
   1   8   6  154.58   10.10
  -2  -8  -6   25.60    5.00
   2   8   6   16.00    5.70
  -3  -8  -6    2.00    4.30
   3   8   6    3.10    5.70
   8  -9  -6   24.00    5.50
  -8   9   6   19.90    8.90
   7  -9  -6   15.40    4.90
  -7   9   6    0.60    8.10
   6  -9  -6   14.50    4.60
  -6   9   6    4.00    8.10
   5  -9  -6    0.60    3.90
  -5   9   6    3.70    8.00
   4  -9  -6   10.40    4.20
   3  -9  -6   31.20    5.10
   2  -9  -6   48.90    5.80
   1  -9  -6   11.30    4.50
   0  -9  -6    9.60    4.70
  -1  -9  -6  132.59    9.60
  -2  -9  -6    9.00    4.80
   7 -10  -6   13.80    4.90
  -7  10   6    2.10    8.90
   6 -10  -6    9.70    4.50
  -6  10   6   -0.50    8.50
   5 -10  -6   87.99    7.30
  -5  10   6   89.19   11.50
   4 -10  -6   33.00    5.50
  -4  10   6    6.20    8.40
   3 -10  -6   54.69    6.20
   2 -10  -6   83.99    7.40
   1 -10  -6   28.40    5.50
   0 -10  -6   85.19    7.70
  -6  11   6   -8.80    8.80
   5 -11  -6   -0.40    4.50
  -5  11   6  -14.10    8.30
   4 -11  -6   10.80    4.90
  -4  11   6   -4.80    8.50
   3 -11  -6   11.00    4.90
   2 -11  -6    3.00    4.80
  -2  13  -7   14.30    7.80
  -3  13  -7    4.40    8.10
  -1 -12   7    5.80    4.20
   0 -12   7   17.80    4.30
  -1  12  -7   50.79    8.40
   1 -12   7   59.19    5.10
  -2  12  -7   17.40    7.50
   2 -12   7   11.80    3.20
  -3  12  -7   84.09   10.40
   3 -12   7  103.89    5.50
  -4  12  -7   21.60    8.70
  -5  12  -7   -9.60    7.90
  -2 -11   7    1.70    3.90
  -1 -11   7   17.00    4.20
   0  11  -7    0.40    5.30
   0 -11   7    4.00    3.40
  -1  11  -7   12.50    6.30
   1 -11   7   12.60    3.30
  -2  11  -7   -8.60    6.70
  -2  11  -7   -4.90    6.30
   2 -11   7    2.70    2.60
  -3  11  -7   -2.40    7.10
  -3  11  -7    4.20    7.00
   3 -11   7    0.00    2.20
  -4  11  -7   56.69    9.40
  -4  11  -7   59.69    9.40
  -4 -10   7    6.70    6.50
  -3 -10   7   36.00    5.40
  -2 -10   7   34.90    5.00
   1  10  -7   -9.30    4.90
  -1 -10   7    7.60    3.60
   0  10  -7   43.80    7.00
   0 -10   7   50.39    4.60
  -1  10  -7   11.80    6.10
  -1  10  -7    8.90    6.00
   1 -10   7    4.20    2.90
  -2  10  -7   53.69    8.10
  -2  10  -7   43.40    7.70
   2 -10   7   50.69    4.30
  -3  10  -7  251.97   15.10
  -3  10  -7  305.17   16.20
   3 -10   7  289.77    8.50
  -4  10  -7   14.30    7.70
  -5  10  -7   10.40    7.80
  -6  10  -7   38.50    9.30
  -5  -9   7    0.20    5.10
  -4  -9   7   25.40    5.00
  -3  -9   7    0.70    3.90
  -2  -9   7    3.80    3.50
   1   9  -7    4.70    4.70
  -1  -9   7    5.90    3.20
   0   9  -7    4.00    5.10
   0  -9   7   -0.30    2.80
  -1   9  -7    4.60    5.50
   1  -9   7   -1.20    2.40
  -2   9  -7   16.50    6.30
   2  -9   7   10.90    2.50
  -3   9  -7   38.00    7.40
  -4   9  -7    8.30    6.60
  -5   9  -7    4.40    6.80
  -6   9  -7    7.80    8.10
  -7   9  -7   34.50   10.20
  -6  -8   7    2.80    5.10
  -5  -8   7   64.49    7.10
  -4  -8   7    4.80    4.00
  -3  -8   7  138.79    8.10
   2   8  -7   21.90    4.70
  -2  -8   7   11.00    3.70
   1   8  -7    4.10    4.70
  -1  -8   7   -4.00    2.80
   0   8  -7  100.99    8.10
   0  -8   7   85.49    5.30
  -1   8  -7   14.30    5.90
   1  -8   7    6.10    2.50
  -2   8  -7  135.09   10.90
   2  -8   7  137.29    5.10
  -3   8  -7  142.49   11.10
  -4   8  -7    5.80    6.50
  -5   8  -7  129.49   11.70
  -6   8  -7   43.90    8.20
  -7   8  -7    4.10    8.30
   7  -8   7   16.40    2.80
  -8   8  -7   34.00   11.10
   8  -8   7   58.09    5.00
  -6  -7   7   63.29    7.00
  -5  -7   7   -4.30    3.90
  -4  -7   7  118.59    8.10
   3   7  -7   62.89    6.20
  -3  -7   7   65.49    5.60
   2   7  -7   70.99    6.00
  -2  -7   7   64.89    5.10
   1   7  -7   10.10    4.70
  -1  -7   7   10.90    3.10
   0   7  -7   13.20    5.50
   0  -7   7   11.40    2.70
   0  -7   7   13.00    3.00
  -1   7  -7   23.20    6.00
   1  -7   7   18.30    2.60
   1  -7   7   20.50    2.60
  -2   7  -7    3.30    5.80
   2  -7   7   -2.40    1.70
   2  -7   7    2.70    1.70
  -3   7  -7   70.29    8.10
  -4   7  -7    4.90    6.10
  -5   7  -7    0.80    6.40
  -6   7  -7   32.20    7.80
   6  -7   7   27.60    3.10
  -7   7  -7   61.29   10.00
   7  -7   7   69.49    5.40
  -8   7  -7   38.00   10.50
   8  -7   7   53.99    4.80
  -7  -6   7   -0.10    4.70
  -6  -6   7   26.30    5.30
  -5  -6   7   43.80    5.60
  -4  -6   7  113.09    7.60
   3   6  -7  175.88    8.30
  -3  -6   7  173.58    8.20
   2   6  -7   67.39    5.30
   2   6  -7   68.39    6.10
  -2  -6   7   60.89    5.10
  -2  -6   7   50.29    4.70
   1   6  -7   48.00    2.90
   1   6  -7   44.90    5.90
  -1  -6   7   48.90    3.90
  -1  -6   7   49.90    4.20
   0   6  -7  386.96   14.50
   0  -6   7  369.36   11.00
   0  -6   7  393.26   11.20
  -1   6  -7   13.20    5.80
   1  -6   7   12.20    2.20
   1  -6   7   11.40    2.30
  -2   6  -7  282.97   13.60
   2  -6   7  267.57    7.70
   2  -6   7  272.57    7.80
  -3   6  -7   15.60    6.20
   3  -6   7   13.20    1.70
  -4   6  -7   93.39    8.80
   4  -6   7   91.89    3.80
   4  -6   7   98.79    4.10
  -5   6  -7  134.79   11.50
   5  -6   7  135.29    5.60
  -6   6  -7  205.88   14.30
   6  -6   7  209.38    7.90
  -7   6  -7   14.40    7.90
   7  -6   7   14.90    3.60
  -8   6  -7   27.40    9.80
   8  -6   7   35.40    4.70
  -7  -5   7   58.09    6.80
  -6  -5   7   67.29    6.60
   5   5  -7    3.00    3.40
  -5  -5   7    3.60    4.00
   4   5  -7  179.18    7.70
   4   5  -7  158.78    7.90
  -4  -5   7  161.48    8.30
   3   5  -7  156.98    6.80
   3   5  -7  162.48    8.70
  -3  -5   7  157.58    7.70
   2   5  -7   52.19    4.00
   2   5  -7   59.79    6.00
  -2  -5   7   55.09    4.50
  -2  -5   7   54.29    4.60
   1   5  -7  602.74   18.70
   1   5  -7  617.14   15.60
  -1  -5   7  594.74   16.70
  -1  -5   7  605.34   16.50
   0   5  -7   30.80    5.80
   0  -5   7   36.50    3.20
   0  -5   7   32.30    3.00
  -1   5  -7   70.19    7.00
   1  -5   7   68.59    3.90
   1  -5   7   63.49    3.60
  -2   5  -7   43.20    6.60
   2  -5   7   36.40    2.90
   2  -5   7   42.90    2.80
  -3   5  -7   37.10    7.10
   3  -5   7   49.90    3.50
   3  -5   7   43.60    3.00
  -4   5  -7   49.60    7.40
   4  -5   7   44.60    3.30
   4  -5   7   43.30    3.70
  -5   5  -7   68.39    8.30
   5  -5   7   75.29    5.10
  -6   5  -7   50.39    8.20
   6  -5   7   36.40    4.00
  -7   5  -7    0.60    7.00
   7  -5   7   -0.90    3.60
  -8   5  -7    4.80    8.60
   8  -5   7    3.00    4.30
  -8  -4   7    5.40    5.10
   7   4  -7   12.50    4.70
  -7  -4   7    7.00    4.80
   6   4  -7   43.70    5.30
  -6  -4   7   59.59    6.20
   5   4  -7   24.00    4.10
   5   4  -7   17.90    4.10
  -5  -4   7   17.70    4.40
   4   4  -7  109.49    6.30
   4   4  -7   98.29    7.40
  -4  -4   7  117.59    7.10
   3   4  -7   62.09    4.90
   3   4  -7   76.69    7.40
  -3  -4   7   65.99    5.20
  -3  -4   7   72.39    5.60
   2   4  -7    2.50    4.20
   2   4  -7    2.00    2.10
  -2  -4   7    3.80    2.80
  -2  -4   7   -1.20    2.40
   1   4  -7  785.52   22.90
  -1  -4   7  803.82   21.00
  -1  -4   7  810.02   21.10
   0   4  -7  189.08   10.40
   0  -4   7  196.88    6.60
   0  -4   7  186.88    6.80
  -1   4  -7   87.79    7.50
   1  -4   7   81.89    4.00
   1  -4   7   87.59    4.40
  -2   4  -7    6.30    5.40
   2  -4   7    5.70    1.80
   2  -4   7    4.40    2.20
  -3   4  -7    3.80    5.80
   3  -4   7   13.50    2.60
   3  -4   7    8.10    2.00
  -4   4  -7  439.66   16.50
   4  -4   7  395.86   12.90
  -5   4  -7  232.68   13.30
   5  -4   7  266.17    9.10
  -6   4  -7   -0.40    6.60
   6  -4   7    7.50    3.50
  -7   4  -7   66.49    9.00
   7  -4   7   63.79    5.60
  -8   4  -7   55.09    9.70
   8  -4   7   44.90    5.70
   8   3  -7    5.10    4.70
  -8  -3   7  -10.80    4.40
   7   3  -7   27.40    5.20
  -7  -3   7   33.50    5.60
   6   3  -7    3.80    3.80
  -6  -3   7    1.70    3.90
   5   3  -7    1.10    3.30
  -5  -3   7    6.60    3.90
   4   3  -7  380.86   12.30
  -4  -3   7  376.76   12.70
   3   3  -7   90.39    5.40
   3   3  -7   90.59    7.90
  -3  -3   7   85.89    5.90
  -3  -3   7   87.69    5.90
   2   3  -7  418.76   14.20
   2   3  -7  409.56   11.90
  -2  -3   7  415.46   12.20
  -2  -3   7  413.86   12.50
   1   3  -7  391.96   13.70
   1   3  -7  364.06   10.40
  -1  -3   7  383.36   11.30
  -1  -3   7  361.56   11.00
   0   3  -7   28.70    2.40
   0   3  -7   24.10    5.10
   0  -3   7   33.30    3.00
   0  -3   7   31.40    3.10
  -1   3  -7   23.60    5.40
  -2   3  -7   39.00    6.30
   2  -3   7   51.09    4.20
   2  -3   7   56.09    3.50
  -3   3  -7    7.70    6.00
   3  -3   7    0.70    2.00
   3  -3   7    2.80    2.60
  -4   3  -7  544.15   19.20
   4  -3   7  541.55   15.40
  -5   3  -7  105.39   10.50
   5  -3   7  111.39    6.70
  -6   3  -7   66.69    8.30
   6  -3   7   69.79    5.70
  -7   3  -7   52.29    8.50
   7  -3   7   51.59    5.70
  -8   3  -7   -4.00    7.10
   8  -3   7   -6.60    4.50
   9   2  -7    1.00    4.90
  -9  -2   7   -5.60    4.90
   8   2  -7   11.80    5.00
  -8  -2   7   -0.70    4.60
   7   2  -7   31.60    5.30
  -7  -2   7   38.40    5.60
   6   2  -7    4.20    3.70
  -6  -2   7   -1.40    3.80
   5   2  -7   12.40    3.80
  -5  -2   7    9.00    4.10
   4   2  -7   55.99    4.60
  -4  -2   7   61.79    5.20
   3   2  -7   15.90    2.90
  -3  -2   7   17.20    3.50
   2   2  -7    2.20    2.20
  -2  -2   7    1.80    2.20
  -2  -2   7    1.90    2.70
   1   2  -7   41.60    5.50
   1   2  -7   33.50    2.80
  -1  -2   7   31.70    3.30
  -1  -2   7   39.90    3.40
   0   2  -7  339.77   12.80
   0   2  -7  353.56    9.60
   0  -2   7  334.17   10.10
   0  -2   7  337.07   10.40
  -1   2  -7   41.20    5.80
  -1   2  -7   59.79    2.90
   1  -2   7   58.89    4.30
   1  -2   7   58.99    3.80
  -2   2  -7  107.69    3.80
  -2   2  -7  120.09    9.30
   2  -2   7  103.99    5.50
   2  -2   7  106.59    4.90
  -3   2  -7  138.19   10.20
  -3   2  -7  137.79    4.30
   3  -2   7  144.39    6.60
   3  -2   7  141.59    6.00
  -4   2  -7  312.37   13.80
   4  -2   7  301.37   10.50
  -5   2  -7    8.30    5.90
   5  -2   7    4.30    3.60
  -6   2  -7   23.50    6.50
   6  -2   7   18.20    4.50
  -7   2  -7   95.59    9.50
   7  -2   7   80.99    6.90
  -8   2  -7   10.50    7.50
   8  -2   7   22.20    5.70
   9   1  -7  111.29    8.90
  -9  -1   7   90.79    9.40
   8   1  -7   34.90    5.70
  -8  -1   7   16.00    5.20
   7   1  -7  136.39    8.80
  -7  -1   7  148.79    9.10
   6   1  -7    5.40    3.70
  -6  -1   7    5.30    3.90
   5   1  -7   99.39    6.80
  -5  -1   7   98.19    7.20
   4   1  -7   18.60    3.50
  -4  -1   7   19.00    3.80
   3   1  -7   54.09    4.60
  -3  -1   7   57.49    4.60
   2   1  -7    1.60    2.40
  -2  -1   7    3.80    2.70
  -2  -1   7    0.70    2.30
   1   1  -7  388.26   11.20
  -1  -1   7  381.96   11.40
  -1  -1   7  392.36   11.70
   0   1  -7   31.00    2.80
   0  -1   7   30.00    3.50
   0  -1   7   33.50    3.00
  -1   1  -7  198.88   10.60
  -1   1  -7  194.78    6.50
   1  -1   7  199.48    7.60
   1  -1   7  195.78    7.00
  -2   1  -7   20.80    5.60
  -2   1  -7   17.00    2.20
   2  -1   7   25.60    3.50
   2  -1   7   20.60    2.90
  -3   1  -7   11.50    5.90
   3  -1   7   22.10    3.10
   3  -1   7   21.20    3.70
  -4   1  -7   20.30    6.00
   4  -1   7   17.60    4.00
  -5   1  -7   52.89    7.20
   5  -1   7   62.09    5.50
  -6   1  -7   51.69    7.40
   6  -1   7   46.90    5.70
  -7   1  -7   42.30    7.50
   7  -1   7   41.60    6.00
   9   0  -7    5.40    5.00
   8   0  -7   35.60    5.50
  -8   0   7   29.70    5.60
   7   0  -7    6.10    4.20
  -7   0   7    5.80    4.20
   6   0  -7    8.60    3.90
  -6   0   7    5.50    3.90
  -6   0   7    2.00    3.20
   5   0  -7    6.80    3.50
  -5   0   7    5.40    3.70
   4   0  -7    1.90    2.90
  -4   0   7    0.80    3.30
   3   0  -7  130.49    6.30
  -3   0   7  135.69    7.00
   2   0  -7  253.37    8.90
  -2   0   7  280.87    9.60
   1   0  -7  169.48    6.50
  -1   0   7  160.58    7.00
  -1   0   7  156.58    6.40
   0   0  -7   -4.20    2.00
   0   0   7   -0.70    2.90
   0   0   7    4.90    2.30
  -1   0  -7   48.00    3.90
  -1   0  -7   48.40    6.20
   1   0   7   47.70    4.00
   1   0   7   46.90    4.30
  -2   0  -7   34.80    3.20
  -2   0  -7   39.10    6.30
   2   0   7   36.90    3.50
   2   0   7   32.40    4.10
  -3   0  -7   26.70    3.00
  -3   0  -7   23.20    6.10
   3   0   7   28.60    4.30
   3   0   7   29.50    3.70
  -4   0  -7  154.68   10.80
   4   0   7  149.09    8.10
  -5   0  -7    9.20    5.90
   5   0   7   15.30    4.50
  -6   0  -7   41.00    6.90
   6   0   7   33.80    5.70
   7   0   7    4.00    5.10
   9  -1  -7   11.70    5.10
   8  -1  -7  208.38   10.90
  -8   1   7  202.58   10.40
   7  -1  -7  141.09    8.50
  -7   1   7  141.99    8.70
   6  -1  -7  104.09    7.10
  -6   1   7  102.19    7.30
  -6   1   7  105.69    7.90
   5  -1  -7   -1.00    3.20
  -5   1   7    2.70    3.60
   4  -1  -7  418.66   13.40
  -4   1   7  435.96   13.70
   3  -1  -7  177.28    7.60
  -3   1   7  196.18    8.30
   2  -1  -7  997.80   26.60
  -2   1   7 1042.50   27.00
   1  -1  -7   39.30    3.60
   0  -1  -7   61.19    4.60
   0   1   7   62.89    4.90
  -1  -1  -7  126.79    6.00
   1   1   7  124.69    6.80
  -2  -1  -7  348.67   14.10
  -2  -1  -7  331.07   10.80
   2   1   7  361.06   12.00
  -3  -1  -7    7.20    5.30
  -3  -1  -7    5.20    2.80
   3   1   7    2.20    3.90
  -4  -1  -7  197.88   11.60
   4   1   7  218.08   10.00
  -5  -1  -7   71.89    7.50
   5   1   7   66.89    6.50
  -6  -1  -7  179.98   11.20
   6   1   7  174.68   10.40
   7   1   7    4.70    5.60
   9  -2  -7   15.30    5.30
   8  -2  -7   60.69    6.60
  -8   2   7   54.39    6.20
   7  -2  -7   14.00    4.50
  -7   2   7   15.00    4.60
  -7   2   7   24.60    4.80
   6  -2  -7   10.10    4.10
  -6   2   7    3.60    3.80
  -6   2   7    1.30    4.60
   5  -2  -7  196.28    8.80
  -5   2   7  200.38    9.20
   4  -2  -7   12.60    3.60
  -4   2   7   16.90    4.10
   3  -2  -7  196.28    8.30
  -3   2   7  199.58    8.70
   2  -2  -7   20.40    3.40
  -2   2   7   20.30    3.90
   1  -2  -7   -0.80    2.70
  -1   2   7    3.10    3.40
   0  -2  -7  128.99    6.30
   0   2   7  120.49    7.10
  -1  -2  -7   41.90    4.10
   1   2   7   51.39    5.00
  -2  -2  -7    9.60    3.00
  -2  -2  -7    3.60    5.70
  -3  -2  -7    5.90    5.30
  -3  -2  -7    7.50    3.00
   3   2   7   11.00    4.30
  -4  -2  -7  120.79   10.30
   4   2   7  129.89    8.70
  -5  -2  -7   22.10    5.80
   5   2   7   19.20    5.50
   6   2   7    0.50    5.30
   9  -3  -7   11.40    5.00
   8  -3  -7   29.80    5.50
  -8   3   7   23.10    5.30
   7  -3  -7   19.60    4.90
  -7   3   7   15.50    4.60
  -7   3   7   18.30    5.50
   6  -3  -7  248.58   10.80
  -6   3   7  265.27   10.90
  -6   3   7  267.47   12.90
   5  -3  -7 1134.99   31.00
  -5   3   7 1175.48   31.10
   4  -3  -7   74.39    6.40
  -4   3   7   80.79    6.70
   3  -3  -7  493.25   15.10
  -3   3   7  499.15   15.60
   2  -3  -7  255.97    9.50
  -2   3   7  257.17   10.20
   1  -3  -7   63.09    4.90
  -1   3   7   65.89    5.50
   0  -3  -7  604.84   17.60
   0   3   7  617.04   18.10
  -1  -3  -7  861.91   23.40
   1   3   7  840.62   24.00
  -2  -3  -7    4.40    3.10
   2   3   7    0.50    4.10
  -3  -3  -7  451.25   16.80
  -3  -3  -7  456.45   14.60
   3   3   7  472.45   15.70
  -4  -3  -7    2.90    5.50
   4   3   7    5.00    4.60
   5   3   7   62.79    7.20
   6   3   7   77.99    8.30
   9  -4  -7   11.40    5.30
   8  -4  -7   73.69    6.90
  -8   4   7   57.19    7.20
   7  -4  -7   18.80    4.90
  -7   4   7   10.10    4.40
  -7   4   7   12.60    6.00
   6  -4  -7    3.30    3.70
  -6   4   7   -5.00    5.50
  -6   4   7    0.70    3.80
   5  -4  -7  277.77   11.00
  -5   4   7  277.07   10.90
   4  -4  -7   53.59    5.20
  -4   4   7   45.10    5.20
   3  -4  -7   18.30    3.80
  -3   4   7   27.70    4.70
   2  -4  -7    2.10    3.10
  -2   4   7    5.00    3.80
   1  -4  -7   10.10    3.50
  -1   4   7    9.70    4.20
   0  -4  -7  331.07   11.30
   0   4   7  312.27   12.10
  -1  -4  -7   57.09    5.20
   1   4   7   64.79    6.10
  -2  -4  -7    1.50    3.20
   2   4   7   -1.00    4.20
  -3  -4  -7    5.70    5.80
  -3  -4  -7    8.00    3.50
   3   4   7   11.90    4.80
  -4  -4  -7    7.70    5.40
   4   4   7   10.00    5.20
   5   4   7   14.10    5.80
   9  -5  -7   19.80    5.70
   8  -5  -7    9.60    4.80
  -8   5   7   13.00    6.40
   7  -5  -7   -4.80    3.80
  -7   5   7    2.20    4.00
  -7   5   7   -0.50    6.20
   6  -5  -7   35.80    5.10
  -6   5   7   21.10    4.60
  -6   5   7   28.70    7.20
   5  -5  -7  119.09    7.80
  -5   5   7  113.19    7.70
   4  -5  -7   -0.50    3.30
  -4   5   7   -1.10    3.80
   3  -5  -7  466.75   15.00
  -3   5   7  471.15   15.40
   2  -5  -7   86.59    6.70
  -2   5   7   80.89    7.00
   1  -5  -7  185.38    8.70
  -1   5   7  184.38    9.20
   0  -5  -7  183.58    8.50
  -1  -5  -7  113.89    7.50
   1   5   7  114.79    8.60
  -2  -5  -7   64.19    5.90
   2   5   7   65.09    6.70
  -3  -5  -7  117.99    9.20
  -3  -5  -7  100.29    7.60
   3   5   7  111.89    8.50
   4   5   7   55.29    7.10
   5   5   7   65.39    8.20
   9  -6  -7   -2.40    4.60
  -9   6   7    0.00    8.30
   8  -6  -7   71.69    6.90
  -8   6   7   64.89    8.70
   7  -6  -7   59.89    6.30
  -7   6   7   62.49    8.90
   6  -6  -7  237.58   10.80
  -6   6   7  243.18   10.50
  -6   6   7  209.38   14.90
   5  -6  -7  181.78    9.30
  -5   6   7  187.28    9.50
   4  -6  -7   22.40    4.20
  -4   6   7   16.20    4.40
   3  -6  -7   -3.00    3.40
  -3   6   7    4.90    4.00
   2  -6  -7   16.70    4.20
  -2   6   7   21.10    4.50
   1  -6  -7   82.39    7.00
  -1   6   7   70.29    6.30
   0  -6  -7   82.59    7.20
   0   6   7   94.29    7.20
  -1  -6  -7   -1.00    3.70
   1   6   7   -0.20    4.50
  -2  -6  -7   14.00    4.40
   2   6   7   22.10    5.60
   3   6   7   19.60    5.70
   4   6   7    4.20    5.80
   9  -7  -7    8.00    5.30
  -9   7   7   -3.60    7.10
   8  -7  -7   32.60    5.70
  -8   7   7   19.00    7.90
   7  -7  -7   61.99    6.60
  -7   7   7   40.60    8.80
   6  -7  -7    7.50    4.30
  -6   7   7   -0.60    7.20
   5  -7  -7   36.40    5.10
  -5   7   7   36.60    5.00
   4  -7  -7   13.00    4.20
  -4   7   7   12.10    4.20
   3  -7  -7   79.29    6.50
  -3   7   7   94.79    7.60
   2  -7  -7   33.60    5.00
  -2   7   7   40.70    5.50
   1  -7  -7   39.80    5.20
  -1   7   7   32.10    5.60
   0  -7  -7   13.60    4.50
   0   7   7   13.80    4.80
  -1  -7  -7    9.50    4.30
   1   7   7   11.70    5.30
  -2  -7  -7  117.89    8.90
   2   7   7  117.99    9.90
   3   7   7   78.49    8.20
   8  -8  -7   -0.30    4.50
  -8   8   7   -6.30    7.50
   7  -8  -7   86.79    7.50
  -7   8   7   95.89   11.10
   6  -8  -7   76.59    6.70
  -6   8   7   59.19    9.90
   5  -8  -7   17.60    4.60
   4  -8  -7  109.49    8.20
   3  -8  -7   25.10    4.90
   2  -8  -7    7.70    4.20
  -2   8   7   -1.90    4.50
   1  -8  -7   12.40    4.50
  -1   8   7   21.60    5.10
   0  -8  -7   68.89    6.80
   0   8   7   56.29    6.80
  -1  -8  -7   30.50    5.60
   1   8   7   39.90    6.40
  -2  -8  -7   14.10    4.90
   2   8   7   17.60    5.90
  -8   9   7   -7.50    8.00
   7  -9  -7    2.30    4.40
  -7   9   7  -16.30    7.90
   6  -9  -7    1.50    4.40
  -6   9   7  -10.40    7.90
   5  -9  -7   13.30    4.60
   4  -9  -7    8.70    4.30
   3  -9  -7   59.19    6.30
   2  -9  -7    2.00    4.10
   1  -9  -7   96.69    8.10
   0  -9  -7  143.49    9.80
  -1  -9  -7   29.70    5.70
   6 -10  -7   19.20    5.20
  -6  10   7   -5.50    8.60
   5 -10  -7   47.90    6.20
  -5  10   7   28.20    9.70
   4 -10  -7  154.78    9.90
   3 -10  -7  123.69    9.40
   2 -10  -7   -3.70    4.20
   1 -10  -7   41.80    6.20
   0 -12   8   12.60    4.00
   1 -12   8   29.40    4.30
   2 -12   8   29.20    3.80
   3 -12   8   42.20    5.50
  -2 -11   8   20.00    4.80
  -1 -11   8   -3.00    3.40
   0  11  -8    0.00    6.40
   0 -11   8    8.60    3.60
  -1  11  -8   -5.60    6.60
   1 -11   8   -1.90    2.90
  -2  11  -8   37.90    8.30
   2 -11   8   34.70    3.70
  -3  11  -8   28.00    8.40
   3 -11   8   25.10    2.90
  -4  11  -8   34.70    9.00
  -5  11  -8    7.20    8.50
  -3 -10   8   26.80    5.20
  -2 -10   8   37.30    5.10
   1  10  -8   56.49    7.00
  -1 -10   8   59.59    5.40
   0  10  -8   24.40    6.30
   0 -10   8   21.70    3.80
  -1  10  -8   59.19    8.20
   1 -10   8   65.39    5.10
  -2  10  -8   74.39    8.80
   2 -10   8   67.49    4.70
  -3  10  -8   30.00    7.60
   3 -10   8   15.20    2.40
  -4  10  -8   42.30    8.50
  -5  10  -8   14.00    7.90
  -6  10  -8   26.80    9.30
  -4  -9   8    9.10    4.70
  -3  -9   8   -6.20    3.60
  -2  -9   8    5.80    3.70
   1   9  -8   13.00    5.50
  -1  -9   8   13.60    3.60
   0   9  -8   12.90    5.90
   0  -9   8    5.50    3.00
  -1   9  -8   47.90    7.40
   1  -9   8   44.60    3.80
  -2   9  -8    2.20    6.30
   2  -9   8    1.70    2.30
  -3   9  -8   11.30    6.90
  -4   9  -8   22.90    7.30
  -5   9  -8   12.00    7.30
  -6   9  -8   20.90    8.60
  -7   9  -8   34.90   10.50
  -5  -8   8   80.39    7.60
  -4  -8   8   15.50    4.60
  -3  -8   8    5.30    3.90
   2   8  -8   49.30    6.00
  -2  -8   8   54.99    5.20
   1   8  -8   -0.60    4.60
  -1  -8   8   -2.80    2.90
   0   8  -8   79.09    7.50
   0  -8   8   65.69    5.20
  -1   8  -8  360.06   15.30
   1  -8   8  376.76   11.10
  -2   8  -8   98.49    9.10
   2  -8   8   92.79    4.60
  -3   8  -8   62.49    8.60
  -4   8  -8   16.20    7.20
  -5   8  -8   22.00    7.50
  -6   8  -8   64.89    9.60
  -7   8  -8   97.49   11.80
  -6  -7   8    9.40    5.10
  -5  -7   8   48.20    6.00
  -4  -7   8    8.00    4.20
   3   7  -8   40.70    5.40
  -3  -7   8   49.60    5.20
   2   7  -8   16.40    4.90
  -2  -7   8   24.80    4.10
   1   7  -8  180.08   10.30
  -1  -7   8  170.58    7.50
   0   7  -8    9.00    5.30
   0  -7   8    4.60    2.80
  -1   7  -8   14.80    5.80
   1  -7   8   18.20    2.80
  -2   7  -8   15.90    6.20
   2  -7   8   12.20    2.40
  -3   7  -8   35.80    7.00
   3  -7   8   35.50    2.70
  -4   7  -8   23.20    7.20
   4  -7   8   11.30    2.10
  -5   7  -8   11.40    7.00
   5  -7   8   12.50    2.40
  -6   7  -8   12.50    7.40
   6  -7   8    0.50    2.60
  -7   7  -8    6.10    8.50
   7  -7   8    1.60    3.10
  -7  -6   8    1.20    5.10
  -6  -6   8   -7.50    4.10
  -5  -6   8  137.99    8.80
  -4  -6   8   46.80    5.40
   3   6  -8  224.98   10.10
  -3  -6   8  219.78    9.50
   2   6  -8   53.79    5.90
  -2  -6   8   44.30    4.50
   1   6  -8   94.99    8.90
  -1  -6   8   93.09    5.80
   0   6  -8  408.26   15.40
   0  -6   8  403.86   12.00
   0  -6   8  400.36   12.40
  -1   6  -8   44.20    7.00
   1  -6   8   49.30    3.50
   1  -6   8   44.40    3.30
  -2   6  -8   73.99    8.10
   2  -6   8   67.99    4.10
   2  -6   8   70.99    3.90
  -3   6  -8  299.47   14.30
   3  -6   8  291.27    8.70
  -4   6  -8   69.49    8.40
   4  -6   8   75.59    4.30
  -5   6  -8   27.20    7.50
   5  -6   8   30.20    3.20
  -6   6  -8   23.10    7.90
   6  -6   8   30.00    3.70
  -7   6  -8   15.20    8.40
   7  -6   8    8.40    3.60
  -7  -5   8    8.50    4.90
  -6  -5   8   80.09    7.10
  -5  -5   8   40.60    5.40
   4   5  -8   37.80    5.30
  -4  -5   8   36.30    4.90
   3   5  -8    5.50    4.40
   3   5  -8    4.60    4.40
  -3  -5   8    1.90    3.30
   2   5  -8   13.60    5.20
   2   5  -8   11.60    2.50
  -2  -5   8    8.40    3.20
  -2  -5   8    9.70    3.00
   1   5  -8  442.66   11.80
   1   5  -8  459.75   16.00
  -1  -5   8  441.86   13.20
  -1  -5   8  436.66   13.00
   0   5  -8   80.99    7.60
   0  -5   8   81.69    4.70
   0  -5   8   74.19    4.90
  -1   5  -8   26.60    6.50
  -2   5  -8   -3.60    5.80
   2  -5   8    1.10    1.90
   2  -5   8    5.40    2.40
  -3   5  -8   45.80    7.20
   3  -5   8   45.80    3.40
  -4   5  -8   31.10    6.80
   4  -5   8   27.60    3.10
  -5   5  -8  227.28   13.90
   5  -5   8  228.08    8.30
  -6   5  -8   65.39    9.20
   6  -5   8   69.99    6.00
  -7   5  -8   46.10    9.50
   7  -5   8   42.70    5.10
  -8  -4   8   17.00    5.80
  -7  -4   8   -3.10    4.30
   6   4  -8   96.49    7.20
  -6  -4   8   80.99    7.00
   5   4  -8  110.69    7.90
   5   4  -8  114.19    6.90
  -5  -4   8  114.39    7.80
   4   4  -8   12.80    3.20
   4   4  -8   11.60    4.80
  -4  -4   8   17.60    4.10
   3   4  -8   69.99    4.80
   3   4  -8   75.99    6.80
  -3  -4   8   72.59    5.90
   2   4  -8  114.09    8.80
   2   4  -8   99.59    4.90
  -2  -4   8   94.09    5.60
  -2  -4   8  103.79    6.10
   1   4  -8   11.80    5.20
  -1  -4   8   11.80    3.00
  -1  -4   8   10.80    2.80
   0   4  -8  416.26   15.30
   0  -4   8  406.96   12.10
   0  -4   8  411.66   11.90
  -1   4  -8   10.60    5.80
   1  -4   8   10.30    2.70
   1  -4   8   10.00    2.30
  -2   4  -8  292.87   14.20
   2  -4   8  290.57    9.20
   2  -4   8  300.67    9.00
  -3   4  -8   96.19    8.60
   3  -4   8   73.89    5.00
  -4   4  -8   94.99    9.10
   4  -4   8   75.09    5.30
  -5   4  -8   16.40    6.90
   5  -4   8   12.90    3.40
  -6   4  -8   44.30    8.40
   6  -4   8   45.80    4.80
  -7   4  -8   11.20    7.90
   7  -4   8    1.60    4.10
   8   3  -8   18.40    6.80
  -8  -3   8   15.80    5.60
   7   3  -8    8.80    4.30
  -7  -3   8   -2.50    4.50
   6   3  -8  111.29    7.50
  -6  -3   8   99.79    8.30
   5   3  -8   41.10    4.60
  -5  -3   8   40.20    5.20
   4   3  -8   32.60    3.90
  -4  -3   8   43.30    4.90
   3   3  -8   83.29    7.20
   3   3  -8   76.29    5.10
  -3  -3   8   77.19    6.10
   2   3  -8    1.80    2.30
   2   3  -8   -1.60    4.90
  -2  -3   8    5.90    2.70
  -2  -3   8    3.50    3.00
   1   3  -8    0.30    4.90
   1   3  -8    3.20    1.90
  -1  -3   8    2.30    2.70
  -1  -3   8    3.00    2.40
   0   3  -8   23.00    5.70
   0   3  -8   18.40    2.00
   0  -3   8   24.10    3.30
   0  -3   8   23.90    2.90
  -1   3  -8  125.79   10.40
   1  -3   8  132.19    5.40
   1  -3   8  119.39    5.90
  -2   3  -8  115.39   10.20
   2  -3   8  125.79    5.30
   2  -3   8  106.69    5.80
  -3   3  -8  117.99   11.00
   3  -3   8  114.49    6.10
  -4   3  -8   13.00    6.20
  -5   3  -8   19.70    7.00
   5  -3   8   23.60    4.30
  -6   3  -8   18.10    7.20
   6  -3   8   19.90    4.40
  -7   3  -8   19.00    8.00
   7  -3   8   30.10    5.30
   8   2  -8   19.70    5.10
  -8  -2   8   14.80    5.40
   7   2  -8    7.00    4.20
  -7  -2   8    2.30    4.50
   6   2  -8   11.10    4.10
  -6  -2   8   21.90    4.80
   5   2  -8   29.10    4.30
  -5  -2   8   28.90    4.70
   4   2  -8   13.00    3.30
  -4  -2   8   16.80    4.00
   3   2  -8  190.78    7.70
  -3  -2   8  200.78    8.50
   2   2  -8   40.30    3.60
  -2  -2   8   27.00    4.30
  -2  -2   8   31.70    3.90
   1   2  -8   41.90    3.30
   1   2  -8   59.79    6.70
  -1  -2   8   50.29    4.00
  -1  -2   8   45.10    4.10
   0   2  -8   95.29    4.30
   0   2  -8   97.99    9.50
   0  -2   8   98.49    5.90
   0  -2   8   96.69    5.00
  -1   2  -8   33.30    2.70
  -1   2  -8   33.50    6.20
   1  -2   8   38.20    3.40
   1  -2   8   31.10    3.60
  -2   2  -8  457.95   11.70
  -2   2  -8  459.35   16.70
   2  -2   8  445.16   13.40
   2  -2   8  430.66   12.90
  -3   2  -8  485.45   17.70
   3  -2   8  501.15   14.70
  -4   2  -8    3.00    5.80
   4  -2   8   -5.40    3.30
  -5   2  -8  108.99    9.60
   5  -2   8   90.09    7.50
  -6   2  -8    4.80    6.50
   6  -2   8   -0.50    4.10
  -7   2  -8    4.00    7.20
   7  -2   8    9.20    5.10
   9   1  -8   95.59    8.40
  -9  -1   8   84.59    8.40
   8   1  -8   52.39    6.40
  -8  -1   8   45.70    6.50
   7   1  -8  140.49    9.00
  -7  -1   8  142.89    9.30
   6   1  -8   43.50    5.20
  -6  -1   8   38.70    5.50
   5   1  -8   10.60    3.60
  -5  -1   8    3.10    3.90
   4   1  -8  236.48    9.30
  -4  -1   8  248.28   10.00
   3   1  -8  646.94   18.00
  -3  -1   8  634.04   18.50
   2   1  -8  189.78    7.50
  -2  -1   8  197.58    8.10
   1   1  -8  243.08    8.10
  -1  -1   8  233.68    8.90
  -1  -1   8  226.88    8.30
   0   1  -8   46.50    6.60
   0   1  -8   38.30    3.20
   0  -1   8   40.40    4.10
   0  -1   8   27.00    3.20
  -1   1  -8  210.18    7.00
  -1   1  -8  217.28   11.90
   1  -1   8  212.28    8.30
   1  -1   8  211.98    7.80
  -2   1  -8   42.40    3.40
  -2   1  -8   47.70    7.00
   2  -1   8   42.00    3.80
   2  -1   8   40.30    4.40
  -3   1  -8  165.48   11.40
   3  -1   8  151.58    7.70
  -4   1  -8   48.40    7.40
   4  -1   8   44.70    5.00
  -5   1  -8   55.49    7.90
   5  -1   8   57.69    5.80
  -6   1  -8   -2.40    6.30
   6  -1   8    7.20    4.60
  -7   1  -8   56.39    8.70
   7  -1   8   55.19    6.90
   9   0  -8    3.70    5.00
   8   0  -8   86.99    7.60
  -8   0   8   64.29    7.00
   7   0  -8    6.90    4.30
  -7   0   8    0.80    4.40
   6   0  -8    4.20    3.80
  -6   0   8    4.50    4.10
   5   0  -8  100.39    6.60
  -5   0   8   75.89    6.10
   4   0  -8   13.70    3.50
  -4   0   8   12.30    4.00
   3   0  -8    9.80    3.30
  -3   0   8   15.10    3.80
   2   0  -8   -2.80    2.50
  -2   0   8    2.50    3.40
   1   0  -8    4.20    2.60
  -1   0   8    5.90    3.10
   0   0  -8  115.39    5.50
   0   0   8  100.29    6.60
   0   0   8   98.79    6.90
  -1   0  -8  107.09   10.30
  -1   0  -8  103.19    5.20
   1   0   8   98.79    6.60
   1   0   8   98.89    5.60
  -2   0  -8  255.87    8.50
  -2   0  -8  254.87   12.90
   2   0   8  248.38    9.90
  -3   0  -8   19.00    6.10
  -4   0  -8   10.90    6.10
   4   0   8    9.40    4.20
  -5   0  -8   51.79    7.60
   5   0   8   47.50    5.60
  -6   0  -8    8.90    6.50
   6   0   8    1.60    4.90
   9  -1  -8  136.29   10.30
   8  -1  -8    4.50    4.50
  -8   1   8   -7.80    4.20
   7  -1  -8  128.49    8.70
  -7   1   8  112.69    8.50
   6  -1  -8   83.39    7.10
  -6   1   8   99.19    7.30
   5  -1  -8  278.37   10.80
  -5   1   8  280.57   11.20
   4  -1  -8 1201.88   31.90
  -4   1   8 1218.18   32.30
   3  -1  -8  387.06   12.30
  -3   1   8  357.46   12.70
   2  -1  -8   43.30    4.20
  -2   1   8   46.70    4.80
   1  -1  -8  359.26   11.60
  -1   1   8  380.96   12.50
   0  -1  -8   23.70    3.40
   0   1   8   27.10    4.30
  -1  -1  -8  110.79    5.90
   1   1   8  107.09    7.20
  -2  -1  -8  309.47   10.40
  -2  -1  -8  321.97   14.20
   2   1   8  316.47   11.70
  -3  -1  -8   -4.90    5.40
   3   1   8   -2.00    4.10
  -4  -1  -8  615.04   21.10
   4   1   8  616.34   19.10
  -5  -1  -8   51.19    7.40
   5   1   8   36.40    5.80
  -6  -1  -8   20.90    8.70
   6   1   8    8.80    5.30
   9  -2  -8   14.20    5.50
   8  -2  -8   11.80    4.90
  -8   2   8   -1.20    4.50
   7  -2  -8   -1.00    4.10
  -7   2   8    0.90    4.20
  -7   2   8    0.90    7.20
   6  -2  -8   97.89    7.70
  -6   2   8  105.19    8.00
   5  -2  -8   20.70    4.30
  -5   2   8   14.90    4.50
   4  -2  -8  119.09    7.20
  -4   2   8  105.59    7.50
   3  -2  -8    4.00    3.20
  -3   2   8    1.70    3.60
   2  -2  -8  296.57   10.40
  -2   2   8  288.97   11.20
   1  -2  -8  101.79    6.40
  -1   2   8  112.59    7.40
   0  -2  -8   26.90    3.80
   0   2   8   23.00    4.40
  -1  -2  -8  129.09    6.70
   1   2   8  126.79    8.00
  -2  -2  -8    2.20    5.70
  -2  -2  -8   12.40    3.10
  -3  -2  -8   -0.20    5.90
   3   2   8   11.50    4.50
  -4  -2  -8  169.88   12.10
   4   2   8  175.78   10.20
  -5  -2  -8   73.09    8.20
   5   2   8   68.39    7.10
   6   2   8    2.00    5.90
   9  -3  -8  151.48   10.70
   8  -3  -8   -0.30    4.30
  -8   3   8   -4.40    4.20
   7  -3  -8   64.09    6.50
  -7   3   8   72.69    6.90
  -7   3   8   66.29    7.40
   6  -3  -8  121.99    7.90
  -6   3   8  121.69    8.60
   5  -3  -8   19.50    4.20
  -5   3   8   16.40    4.40
   4  -3  -8  801.52   22.90
  -4   3   8  817.22   23.20
   3  -3  -8   88.09    6.40
  -3   3   8   93.99    7.50
   2  -3  -8   70.69    5.50
  -2   3   8   55.69    5.60
   1  -3  -8  180.58    8.20
  -1   3   8  179.98    9.10
   0  -3  -8   47.50    4.70
   0   3   8   47.50    5.40
  -1  -3  -8  312.77   11.30
   1   3   8  332.77   12.40
  -2  -3  -8   16.20    3.50
  -2  -3  -8   11.40    6.20
   2   3   8   17.50    5.00
  -3  -3  -8   31.50    6.80
   3   3   8   23.40    5.30
  -4  -3  -8  211.48   12.70
   4   3   8  218.58   11.30
   5   3   8   22.50    6.00
   9  -4  -8    5.10    4.90
   8  -4  -8    3.40    4.50
   7  -4  -8    4.50    4.20
  -7   4   8   -2.40    4.10
  -7   4   8   -3.50    5.80
   6  -4  -8    8.00    4.20
  -6   4   8    5.20    4.20
   5  -4  -8   38.40    5.10
  -5   4   8   39.70    5.30
   4  -4  -8   18.00    4.20
  -4   4   8   25.40    4.90
   3  -4  -8    5.70    3.60
  -3   4   8   -2.50    3.90
   2  -4  -8    5.50    3.60
  -2   4   8   -1.00    4.10
   1  -4  -8    0.20    3.20
  -1   4   8    0.90    4.00
   0  -4  -8    9.40    3.50
   0   4   8    3.20    4.10
  -1  -4  -8   25.50    4.20
   1   4   8   31.30    5.40
  -2  -4  -8   44.90    5.10
   2   4   8   54.99    6.30
  -3  -4  -8    1.00    6.20
   3   4   8   -0.70    4.90
  -4  -4  -8   -0.40    7.60
   4   4   8   -3.40    4.80
   5   4   8   11.00    6.20
   9  -5  -8    1.50    4.90
   8  -5  -8   -1.20    4.40
  -8   5   8   -5.80    6.10
   7  -5  -8  124.99    9.00
  -7   5   8  140.39   11.00
  -7   5   8  137.69   12.70
   6  -5  -8  134.69    8.80
  -6   5   8  137.29    8.90
   5  -5  -8   22.10    4.70
  -5   5   8   20.50    4.90
   4  -5  -8  163.08    8.60
  -4   5   8  150.88    9.30
   3  -5  -8   89.29    7.10
  -3   5   8   94.69    7.90
   2  -5  -8  298.27   11.30
  -2   5   8  275.17   11.70
   1  -5  -8   14.80    4.00
  -1   5   8   25.10    5.00
   0  -5  -8   30.80    4.50
  -1  -5  -8   27.80    4.60
   1   5   8   34.00    5.60
  -2  -5  -8    5.10    3.70
   2   5   8   -1.70    4.60
  -3  -5  -8   91.49    9.00
   3   5   8  112.49    8.60
   4   5   8  160.08   11.50
   9  -6  -8   13.10    5.40
   8  -6  -8    6.10    4.90
  -8   6   8   -6.30    6.80
   7  -6  -8   67.59    6.80
  -7   6   8   67.49    9.50
   6  -6  -8   38.00    5.50
  -6   6   8   24.40    5.10
   5  -6  -8   96.99    7.40
  -5   6   8  102.49    7.70
   4  -6  -8    4.70    3.80
  -4   6   8   -1.40    4.00
   3  -6  -8   58.09    5.90
  -3   6   8   53.49    6.10
   2  -6  -8    7.20    3.70
  -2   6   8    0.70    4.20
   1  -6  -8   51.39    5.70
  -1   6   8   53.49    6.30
   0  -6  -8    0.90    3.80
   0   6   8    2.60    4.90
  -1  -6  -8   29.30    5.10
   1   6   8   22.60    5.40
  -2  -6  -8    3.00    6.20
   2   6   8    1.90    5.20
   3   6   8   10.60    5.70
   8  -7  -8   62.79    7.10
  -8   7   8   54.39   10.00
   7  -7  -8  104.49    9.00
  -7   7   8  121.09   12.00
   6  -7  -8   24.20    5.10
   5  -7  -8   15.90    4.60
  -5   7   8   15.30    4.90
   4  -7  -8   30.80    5.20
  -4   7   8   24.00    5.10
   3  -7  -8   65.19    6.30
  -3   7   8   49.40    5.90
   2  -7  -8   83.19    7.00
  -2   7   8  134.29    8.80
   1  -7  -8    4.00    4.10
  -1   7   8    4.00    4.80
   0  -7  -8   65.09    6.40
   0   7   8   64.59    6.90
  -1  -7  -8   75.49    7.00
   1   7   8   86.19    7.90
   2   7   8    3.00    5.50
   8  -8  -8   94.19   12.40
  -8   8   8   73.69   11.20
   7  -8  -8   16.10    5.00
  -7   8   8   -2.60    8.30
   6  -8  -8   45.40    6.00
  -6   8   8   36.90    9.40
   5  -8  -8  101.09    8.30
   4  -8  -8   15.30    4.70
   3  -8  -8  154.48    9.50
  -3   8   8  144.69    9.50
   2  -8  -8   79.99    7.00
  -2   8   8   82.59    7.50
   1  -8  -8    6.10    4.30
  -1   8   8    2.10    4.80
   0  -8  -8   26.60    5.40
   0   8   8   33.40    6.20
  -1  -8  -8    5.60    4.80
   1   8   8    7.30    5.30
  -7   9   8   -8.20    8.60
   6  -9  -8   27.40    5.50
  -6   9   8    4.10    8.90
   5  -9  -8   60.39    6.60
   4  -9  -8   17.70    5.10
   3  -9  -8   89.89    7.90
   2  -9  -8   34.00    5.80
   1  -9  -8   39.80    6.10
   4 -10  -8   29.60    5.80
  -1  12  -9   -2.30    7.60
   1 -12   9    0.50    3.20
  -2  12  -9   30.50    8.90
   2 -12   9   35.60    4.00
  -3  12  -9   13.90    8.80
  -1 -11   9    0.10    3.70
   0  11  -9    7.20    7.00
   0 -11   9    6.00    3.60
  -1  11  -9   -3.30    6.90
   1 -11   9    2.80    3.00
  -2  11  -9   45.70    8.80
   2 -11   9   57.59    4.80
  -3  11  -9    9.20    7.90
  -4  11  -9   -8.00    7.70
  -5  11  -9   40.20   10.00
  -3 -10   9   28.60    5.40
  -2 -10   9   -1.00    3.80
   1  10  -9   17.30    6.00
  -1 -10   9    5.70    3.90
   0  10  -9   45.70    7.40
   0 -10   9   44.20    4.70
  -1  10  -9  114.89   11.40
   1 -10   9   99.99    5.90
  -2  10  -9   93.89    9.80
   2 -10   9   91.49    5.30
  -3  10  -9    8.60    7.30
   3 -10   9   -3.80    2.20
  -4  10  -9   33.70    8.70
  -5  10  -9   18.90    8.40
  -4  -9   9   11.60    4.80
  -3  -9   9    5.20    4.20
  -2  -9   9    6.20    3.80
   1   9  -9    1.20    5.40
  -1  -9   9   -1.00    3.10
   0   9  -9   13.40    6.20
   0  -9   9    5.40    3.00
  -1   9  -9   21.80    6.80
   1  -9   9   10.40    3.00
  -2   9  -9    0.30    6.40
   2  -9   9    5.50    2.60
  -3   9  -9   21.40    7.60
   3  -9   9   16.70    2.50
  -4   9  -9   24.70    8.20
  -5   9  -9   75.09   10.00
  -6   9  -9   18.20    8.70
  -5  -8   9    3.00    4.50
  -4  -8   9  164.68    9.60
  -3  -8   9   43.50    5.30
   2   8  -9   10.00    5.10
  -2  -8   9    3.90    3.60
   1   8  -9    9.10    5.60
  -1  -8   9    7.80    3.30
   0   8  -9   46.80    7.20
   0  -8   9   40.10    4.10
  -1   8  -9    2.60    5.90
   1  -8   9    2.90    2.70
  -2   8  -9   43.50    7.70
   2  -8   9   53.19    4.20
  -3   8  -9    4.20    6.70
   3  -8   9   -2.10    2.10
  -4   8  -9  142.69   13.10
  -5   8  -9   34.00    8.40
  -6   8  -9   22.20    8.50
  -6  -7   9   -6.10    4.60
  -5  -7   9   30.60    5.60
  -4  -7   9    6.50    4.10
   3   7  -9    5.00    4.50
  -3  -7   9    7.60    3.80
   2   7  -9   -1.70    4.90
  -2  -7   9   -0.70    3.20
   1   7  -9   50.09    6.70
  -1  -7   9   43.50    4.40
   0   7  -9   52.89    7.10
   0  -7   9   46.00    4.20
  -1   7  -9   33.40    6.90
   1  -7   9   33.90    3.50
  -2   7  -9    0.40    5.90
   2  -7   9   -3.50    2.30
  -3   7  -9    4.20    6.60
   3  -7   9   -1.70    2.30
  -4   7  -9   27.20    7.40
   4  -7   9   25.30    2.80
  -5   7  -9   19.80    7.60
   5  -7   9   15.80    2.90
  -6   7  -9   -1.00    7.80
   6  -7   9    8.20    3.00
  -7   7  -9    0.90    8.80
   7  -7   9   11.60    3.50
  -6  -6   9   65.89    7.20
  -5  -6   9   31.20    5.50
   4   6  -9   96.29    8.90
  -4  -6   9   93.29    7.40
   3   6  -9   10.90    4.90
  -3  -6   9    5.20    3.70
   2   6  -9  141.19    9.50
  -2  -6   9  136.19    7.40
   1   6  -9  226.58   11.60
  -1  -6   9  191.08    8.10
   0   6  -9  393.06   15.80
   0  -6   9  418.16   12.50
  -1   6  -9  150.58   11.10
   1  -6   9  158.38    6.50
  -2   6  -9   24.80    6.50
   2  -6   9   32.80    3.30
  -3   6  -9  158.78   12.40
   3  -6   9  165.08    6.50
  -4   6  -9  159.18   12.90
   4  -6   9  153.28    6.40
  -5   6  -9   86.59    9.60
   5  -6   9   90.19    5.60
  -6   6  -9   -0.70    7.50
   6  -6   9    4.00    3.30
  -7   6  -9   62.09   10.80
   7  -6   9   62.19    5.40
  -7  -5   9    0.80    4.90
  -6  -5   9    5.90    4.60
  -5  -5   9   73.89    6.60
   4   5  -9    9.00    4.80
  -4  -5   9   -0.60    3.70
   3   5  -9   16.90    5.40
  -3  -5   9    4.90    3.70
   2   5  -9  156.18   10.40
  -2  -5   9  154.88    7.60
   1   5  -9   14.20    5.60
  -1  -5   9    9.90    3.20
   0   5  -9   59.49    7.30
   0  -5   9   57.59    4.40
  -1   5  -9   21.20    6.40
  -2   5  -9   48.40    7.40
   2  -5   9   50.89    3.90
  -3   5  -9    3.90    6.20
   3  -5   9    8.70    2.80
  -4   5  -9   13.90    6.70
  -5   5  -9   25.70    7.80
   5  -5   9   30.20    4.00
  -6   5  -9   15.60    7.90
   6  -5   9   12.00    3.70
  -7   5  -9   15.40    9.20
   7  -5   9   27.50    4.80
  -7  -4   9   46.00    6.60
  -6  -4   9   20.50    5.20
   5   4  -9   73.79    7.00
  -5  -4   9   71.39    6.60
   4   4  -9   43.00    6.30
  -4  -4   9   46.70    5.30
   3   4  -9  120.29    9.70
  -3  -4   9  117.59    7.20
   2   4  -9  530.55   18.10
  -2  -4   9  538.55   16.00
   1   4  -9  227.18   12.10
  -1  -4   9  231.58    8.40
  -1  -4   9  217.08    8.60
   0   4  -9  245.58   12.90
   0  -4   9  254.27    9.00
   0  -4   9  247.48    8.70
  -1   4  -9  119.19   10.40
   1  -4   9  109.59    6.10
  -2   4  -9    2.40    5.90
   2  -4   9    6.90    3.00
  -3   4  -9   86.29    8.50
   3  -4   9   82.99    5.60
  -4   4  -9  183.98   12.50
   4  -4   9  172.48    7.70
  -5   4  -9    0.50    6.80
   5  -4   9    5.30    3.50
  -6   4  -9  192.08   14.60
   6  -4   9  166.68    8.60
  -7   4  -9   90.49   11.20
   7  -4   9   64.99    6.50
  -8  -3   9   55.99    7.20
  -7  -3   9   38.00    6.00
   6   3  -9   11.10    4.00
  -6  -3   9   16.80    4.90
   5   3  -9   15.80    3.80
  -5  -3   9   13.70    4.50
   4   3  -9   67.59    5.40
   4   3  -9   66.99    7.10
  -4  -3   9   56.99    5.60
   3   3  -9  118.09   10.10
   3   3  -9  121.69    6.10
  -3  -3   9  114.69    7.20
   2   3  -9  342.67   13.90
   2   3  -9  322.57   10.30
  -2  -3   9  316.97   11.30
   0   3  -9   23.60    6.40
   0   3  -9   30.80    2.90
   0  -3   9   30.00    3.50
   0  -3   9   30.20    3.90
  -1   3  -9   11.40    6.00
   1  -3   9   19.00    3.50
  -2   3  -9    3.70    6.00
   2  -3   9    2.90    3.10
  -3   3  -9   10.50    6.20
   3  -3   9   -3.90    3.00
  -4   3  -9   46.70    7.80
  -5   3  -9    9.60    7.10
   5  -3   9    6.30    3.90
  -6   3  -9   -1.10    7.10
   6  -3   9    2.70    4.00
  -7   3  -9   34.60    9.10
   7  -3   9   35.00    5.70
   8   2  -9   15.80    6.50
  -8  -2   9   18.10    5.90
   7   2  -9   47.70    5.90
  -7  -2   9   44.60    6.20
   6   2  -9    3.30    3.80
  -6  -2   9    4.10    4.40
   5   2  -9    2.00    3.10
  -5  -2   9   -0.20    3.80
   4   2  -9   95.99    6.10
  -4  -2   9   96.79    7.20
   3   2  -9  138.09    6.70
  -3  -2   9  137.59    7.60
   2   2  -9   47.50    3.90
  -2  -2   9   39.10    4.50
   1   2  -9   -1.00    5.90
   1   2  -9   -0.20    2.30
  -1  -2   9    2.10    2.60
  -1  -2   9    5.30    3.40
   0   2  -9   47.00    3.60
   0   2  -9   55.19    7.50
   0  -2   9   54.39    4.60
   0  -2   9   52.29    4.60
  -1   2  -9  211.28   11.70
   1  -2   9  189.88    7.40
   1  -2   9  181.18    8.20
  -2   2  -9   70.19    7.90
   2  -2   9   74.19    6.10
  -3   2  -9   49.10    7.50
   3  -2   9   60.19    5.10
  -4   2  -9    8.20    6.60
   4  -2   9    0.90    3.80
  -5   2  -9   31.50    7.70
   5  -2   9   31.00    5.00
  -6   2  -9   43.30    8.80
   6  -2   9   42.90    5.70
   8   1  -9   99.39    8.20
  -8  -1   9   92.19    8.30
   7   1  -9   31.60    5.40
  -7  -1   9   33.50    5.80
   6   1  -9   36.50    5.00
  -6  -1   9   41.20    5.70
   5   1  -9  112.99    7.00
  -5  -1   9  112.09    8.00
   4   1  -9    9.80    3.30
  -4  -1   9    7.50    3.80
   3   1  -9  678.53   18.60
  -3  -1   9  623.34   19.10
   2   1  -9  110.69    5.80
  -2  -1   9  103.49    7.00
   1   1  -9   20.40    3.00
  -1  -1   9   10.60    3.60
   0   1  -9  233.78   13.00
   0   1  -9  239.88    8.00
   0  -1   9  222.48    8.50
   0  -1   9  225.08    9.30
  -1   1  -9    6.40    2.40
  -1   1  -9    8.70    6.20
   1  -1   9    7.00    3.50
   1  -1   9    7.10    2.80
  -2   1  -9   11.40    5.80
   2  -1   9    6.20    3.70
  -3   1  -9    8.60    6.40
   3  -1   9    7.00    3.90
  -4   1  -9   10.80    6.80
   4  -1   9   13.50    4.40
  -5   1  -9   16.80    7.30
   5  -1   9   20.60    5.00
  -6   1  -9   17.50    7.70
   6  -1   9   22.50    5.40
   9   0  -9   10.60    5.30
   8   0  -9   27.20    5.60
  -8   0   9   14.70    5.30
   7   0  -9   25.00    5.10
  -7   0   9   20.10    5.20
   6   0  -9    6.60    3.90
  -6   0   9   -2.20    4.10
   5   0  -9   17.60    4.00
  -5   0   9    9.00    4.30
   4   0  -9    9.00    3.50
  -4   0   9    4.90    3.80
   3   0  -9   55.69    4.90
  -3   0   9   44.10    5.10
   2   0  -9  139.29    6.80
  -2   0   9  144.09    7.80
   1   0  -9   13.10    3.00
  -1   0   9    6.00    3.80
   0   0  -9  357.66   11.20
   0   0   9  351.56   12.30
  -1   0  -9   87.69    8.50
  -1   0  -9   83.09    5.10
   1   0   9   93.29    6.80
  -2   0  -9    2.70    6.00
   2   0   9    5.80    3.80
  -3   0  -9   19.80    6.70
  -4   0  -9    0.10    6.40
   4   0   9    3.40    4.30
  -5   0  -9  124.29   12.10
   5   0   9  142.19    9.40
  -6   0  -9   71.29    9.10
   6   0   9   51.59    7.00
   9  -1  -9    4.80    5.30
   8  -1  -9  115.59    9.00
  -8   1   9  127.49    9.50
   7  -1  -9   22.80    5.00
  -7   1   9   24.10    5.50
   6  -1  -9  153.18    8.40
  -6   1   9  146.19    8.90
   5  -1  -9   24.10    4.30
  -5   1   9   18.50    4.70
   4  -1  -9   65.49    5.50
  -4   1   9   67.59    6.20
   3  -1  -9  128.69    7.20
  -3   1   9  153.98    8.30
   2  -1  -9   58.49    4.90
  -2   1   9   73.89    6.00
   1  -1  -9   68.89    5.60
  -1   1   9   77.19    6.10
   0  -1  -9  262.47    9.30
   0   1   9  249.88   10.40
  -1  -1  -9   30.90    7.00
  -1  -1  -9   31.80    3.70
   1   1   9   31.60    4.80
  -2  -1  -9   47.30    7.50
   2   1   9   38.30    5.10
  -3  -1  -9   69.49    8.30
   3   1   9   61.39    6.30
  -4  -1  -9   18.90    6.90
   4   1   9   10.10    4.90
  -5  -1  -9  116.49   10.40
   5   1   9  113.59    9.30
   9  -2  -9   33.70    6.30
   8  -2  -9   22.10    5.40
  -8   2   9   13.30    5.30
   7  -2  -9    5.10    4.30
  -7   2   9  -10.80    4.00
   6  -2  -9  208.38   10.00
  -6   2   9  183.88   10.30
   5  -2  -9   62.59    5.70
  -5   2   9   46.50    5.60
   4  -2  -9   41.90    4.90
  -4   2   9   37.70    5.30
   3  -2  -9  119.69    7.10
  -3   2   9  120.39    8.00
   2  -2  -9   42.20    4.70
  -2   2   9   43.90    5.40
   1  -2  -9    3.00    3.20
  -1   2   9    5.40    4.10
   0  -2  -9  280.77   10.10
   0   2   9  268.67   11.10
  -1  -2  -9   53.39    4.90
   1   2   9   59.89    6.00
  -2  -2  -9  133.09   12.10
  -3  -2  -9   25.20    7.10
   3   2   9   28.00    5.40
  -4  -2  -9   -0.50    6.60
   4   2   9    8.20    5.10
  -5  -2  -9   70.89    9.00
   5   2   9   64.79    7.40
   9  -3  -9   79.99    8.10
   8  -3  -9   20.40    5.30
  -8   3   9    3.40    5.40
   7  -3  -9   22.60    4.90
  -7   3   9   21.20    5.40
  -7   3   9   14.20    6.40
   6  -3  -9  126.99    8.60
  -6   3   9  136.19    9.00
   5  -3  -9   27.90    4.70
  -5   3   9   26.60    5.00
   4  -3  -9    9.10    3.80
  -4   3   9    6.50    4.30
   3  -3  -9  272.87   10.80
  -3   3   9  284.17   11.60
   2  -3  -9    6.00    3.50
  -2   3   9    2.30    4.20
   1  -3  -9  154.88    7.80
  -1   3   9  157.68    8.90
   0  -3  -9   34.60    4.40
   0   3   9   35.40    5.40
  -1  -3  -9   16.90    3.70
   1   3   9   13.80    4.90
  -2  -3  -9  154.98   12.60
   2   3   9  183.58   10.40
  -3  -3  -9   52.69    8.40
   3   3   9   44.00    6.30
  -4  -3  -9   27.00    7.50
   4   3   9   27.60    6.00
   9  -4  -9    2.90    5.00
   8  -4  -9   12.80    5.10
   7  -4  -9    5.40    4.60
  -7   4   9   -6.40    6.30
  -7   4   9   -0.40    4.40
   6  -4  -9    7.30    4.30
  -6   4   9    5.10    4.50
   5  -4  -9   79.29    6.70
  -5   4   9   72.89    7.00
   4  -4  -9   28.00    4.70
  -4   4   9   32.00    5.50
   3  -4  -9  106.09    7.50
  -3   4   9  105.49    8.50
   2  -4  -9    7.30    3.60
  -2   4   9    8.50    4.40
   1  -4  -9   16.70    4.10
  -1   4   9   17.80    4.90
   0  -4  -9   36.20    4.70
   0   4   9   44.30    5.90
  -1  -4  -9    4.60    3.50
   1   4   9   -4.10    4.50
  -2  -4  -9   10.80    6.90
   2   4   9   13.10    5.20
  -3  -4  -9   30.40    7.90
   3   4   9   50.19    6.80
   4   4   9    8.20    5.90
   8  -5  -9   -1.00    4.60
  -8   5   9   -4.60    7.20
   7  -5  -9   46.20    6.10
  -7   5   9   47.20    8.50
   6  -5  -9  132.19    8.90
  -6   5   9  119.09    9.20
   5  -5  -9    9.80    4.20
  -5   5   9   -2.70    4.30
   4  -5  -9  201.88    9.70
  -4   5   9  191.28   10.60
   3  -5  -9   37.80    5.20
  -3   5   9   33.90    5.50
   2  -5  -9   60.59    5.90
  -2   5   9   38.70    5.90
   1  -5  -9   61.49    5.90
  -1   5   9   49.20    6.10
   0  -5  -9   12.40    4.10
  -1  -5  -9   16.10    4.30
   1   5   9   19.40    5.50
  -2  -5  -9   77.19    9.40
   2   5   9   83.69    7.80
  -3  -5  -9    9.20    7.40
   3   5   9   17.70    6.00
   8  -6  -9   14.20    5.40
  -8   6   9   -6.70    7.50
   7  -6  -9  203.18   11.10
  -7   6   9  183.28   16.10
   6  -6  -9    1.30    4.40
  -6   6   9    4.00    5.80
   5  -6  -9   19.50    4.70
  -5   6   9   16.00    5.20
   4  -6  -9   25.90    5.00
  -4   6   9   21.80    5.30
   3  -6  -9   18.50    4.60
  -3   6   9   16.90    5.20
   2  -6  -9   -1.20    3.80
  -2   6   9    7.30    4.70
   1  -6  -9   24.80    4.90
  -1   6   9   26.10    5.60
   0  -6  -9    0.30    3.90
   0   6   9  -10.10    4.80
   1   6   9   23.20    5.90
  -2  -6  -9   -5.40    7.20
   2   6   9   19.00    6.30
   7  -7  -9   45.50    6.30
  -7   7   9   32.00    9.40
   6  -7  -9   21.40    5.20
   5  -7  -9   85.09    7.20
   4  -7  -9  192.18   10.30
  -4   7   9  188.98   10.60
   3  -7  -9   41.70    5.90
  -3   7   9   41.70    6.00
   2  -7  -9  104.19    8.50
  -2   7   9  116.39    9.10
   1  -7  -9  104.09    8.40
  -1   7   9   86.99    8.00
   0  -7  -9    2.00    4.30
   0   7   9   -8.20    4.80
   1   7   9   75.09    8.10
   7  -8  -9   21.10    5.50
  -7   8   9    3.30    9.00
   6  -8  -9    7.70    4.70
   5  -8  -9   46.40    6.20
   4  -8  -9  117.09    9.10
   3  -8  -9    6.50    4.50
   2  -8  -9    7.80    4.50
  -2   8   9   -5.30    5.10
   1  -8  -9    2.20    4.50
  -1   8   9    2.60    5.30
   0  -8  -9    1.90    4.70
   0   8   9    4.00    5.50
   5  -9  -9   56.59    6.90
   4  -9  -9  151.58   10.20
   3  -9  -9   -8.20    4.20
   0  11 -10   17.80    7.30
   0 -11  10   15.30    4.10
  -1  11 -10   47.30    8.80
   1 -11  10   50.59    4.80
  -2  11 -10   10.40    8.00
   2 -11  10    3.50    3.00
  -3  11 -10   16.50    8.50
  -2 -10  10   12.70    4.40
   1  10 -10    4.40    6.20
  -1 -10  10   -3.50    3.50
   0  10 -10   49.10    8.10
   0 -10  10   45.70    4.80
  -1  10 -10    2.40    7.00
   1 -10  10   -2.70    3.00
  -2  10 -10    6.70    7.60
   2 -10  10    3.70    2.90
  -3  10 -10    4.30    7.50
  -4  10 -10   10.60    8.40
  -3  -9  10   -6.00    3.90
  -2  -9  10   -3.60    3.50
   1   9 -10   19.30    6.10
  -1  -9  10   -1.50    3.30
   0   9 -10   85.09    8.60
   0  -9  10   73.79    6.00
  -1   9 -10   94.19    9.50
   1  -9  10   87.19    5.80
  -2   9 -10   10.10    7.10
   2  -9  10   -8.40    2.50
  -3   9 -10   15.70    7.60
   3  -9  10    2.30    2.50
  -4   9 -10    4.30    7.80
  -5   9 -10   54.19    9.90
  -4  -8  10    9.60    4.70
  -3  -8  10   58.39    6.20
   2   8 -10   24.10    5.90
  -2  -8  10   16.60    4.30
   1   8 -10   -1.70    5.50
  -1  -8  10   -1.30    3.30
   0   8 -10   75.69    8.30
   0  -8  10   81.69    5.90
  -1   8 -10   37.20    7.60
   1  -8  10   33.50    3.90
  -2   8 -10   81.39    9.10
   2  -8  10   65.49    4.90
  -3   8 -10   61.69    8.90
   3  -8  10   72.39    4.70
  -4   8 -10   21.40    8.10
   4  -8  10   10.50    2.60
  -5   8 -10   20.50    8.30
  -6   8 -10    4.00    8.70
  -5  -7  10   -0.90    4.50
  -4  -7  10    7.20    4.30
   3   7 -10   21.70    5.50
  -3  -7  10   24.70    4.60
   2   7 -10   21.60    5.80
  -2  -7  10   12.70    4.00
   1   7 -10   38.50    6.80
  -1  -7  10   42.90    4.70
   0   7 -10    8.10    6.10
   0  -7  10   17.00    3.50
  -1   7 -10    3.90    6.30
   1  -7  10    7.10    3.20
  -2   7 -10   14.90    7.10
   2  -7  10   12.00    3.00
  -3   7 -10   68.19    9.00
   3  -7  10   70.79    5.00
  -4   7 -10   15.00    7.30
  -5   7 -10   15.70    8.20
   5  -7  10   17.40    3.30
  -6   7 -10   13.20    8.90
   6  -7  10   15.40    3.50
  -6  -6  10   57.69    7.00
  -5  -6  10   40.60    5.90
   4   6 -10   42.30    6.10
  -4  -6  10   46.80    5.60
   3   6 -10   43.00    6.50
  -3  -6  10   51.19    5.30
   2   6 -10   39.60    6.60
  -2  -6  10   36.90    4.70
   1   6 -10   99.89    8.60
  -1  -6  10   84.49    6.20
   0   6 -10  170.38   11.80
   0  -6  10  174.68    7.70
  -1   6 -10   16.10    6.50
   1  -6  10   20.50    3.50
  -2   6 -10  189.38   13.20
   2  -6  10  201.18    7.90
  -3   6 -10   86.79    9.40
   3  -6  10   81.09    5.50
  -4   6 -10   17.90    7.50
   4  -6  10   17.20    3.40
  -5   6 -10   83.69   10.20
   5  -6  10   77.09    5.90
  -6   6 -10   20.20    9.00
   6  -6  10    3.60    3.50
  -6  -5  10   -3.00    4.60
  -5  -5  10   26.80    5.40
   4   5 -10    3.40    5.10
  -4  -5  10   13.40    4.40
   3   5 -10    3.60    5.40
  -3  -5  10    1.90    3.60
   2   5 -10    5.60    5.70
  -2  -5  10    9.60    3.70
   1   5 -10    3.20    5.90
  -1  -5  10    7.90    3.30
   0   5 -10    4.40    6.00
   0  -5  10    0.40    3.00
  -1   5 -10    7.80    6.30
   1  -5  10    1.60    3.00
  -2   5 -10   30.70    7.30
   2  -5  10   24.80    3.70
  -3   5 -10    9.50    6.80
   3  -5  10   11.80    3.40
  -4   5 -10    6.40    7.00
   4  -5  10   -3.60    3.00
  -5   5 -10    6.20    7.30
   5  -5  10   -1.30    3.40
  -6   5 -10   39.10    9.20
   6  -5  10   32.90    4.70
  -7  -4  10    1.20    4.90
  -6  -4  10   57.29    6.70
   5   4 -10    2.80    5.40
  -5  -4  10    3.70    4.40
   4   4 -10  205.08   12.00
  -4  -4  10  208.68   10.00
   3   4 -10   12.60    5.90
  -3  -4  10   18.00    4.20
   2   4 -10   46.30    6.80
  -2  -4  10   34.00    4.60
   1   4 -10   -5.60    5.40
  -1  -4  10    6.60    3.30
   0   4 -10   44.90    7.20
   0  -4  10   40.80    4.40
  -1   4 -10  240.98   13.20
   1  -4  10  253.27    9.40
  -2   4 -10  275.27   14.30
   2  -4  10  310.27   10.50
  -3   4 -10    2.10    6.30
   3  -4  10   -3.00    3.10
  -4   4 -10   60.29    8.70
   4  -4  10   54.09    4.90
  -5   4 -10   72.39    9.70
   5  -4  10   70.69    5.70
  -6   4 -10    3.10    8.00
   6  -4  10    5.30    4.20
  -7  -3  10    7.40    5.30
   6   3 -10   10.40    5.90
  -6  -3  10   12.90    5.00
   5   3 -10   37.10    6.80
  -5  -3  10   35.90    5.50
   4   3 -10   27.50    6.50
  -4  -3  10   19.60    4.60
   3   3 -10   15.50    6.10
  -3  -3  10   13.40    4.20
   2   3 -10    1.00    5.80
  -2  -3  10    1.30    3.40
   0   3 -10    2.30    5.70
   0  -3  10    1.20    3.20
  -1   3 -10   15.10    6.20
   1  -3  10   11.40    3.50
  -2   3 -10    1.20    6.10
   2  -3  10   -0.90    3.20
  -3   3 -10    1.60    6.40
   3  -3  10   -1.60    3.40
  -4   3 -10   -1.80    6.70
  -5   3 -10   -2.40    7.50
   5  -3  10    0.50    4.00
  -6   3 -10   11.50    8.50
   6  -3  10    5.30    4.50
  -8  -2  10   21.10    6.20
  -7  -2  10   11.40    5.30
  -6  -2  10   33.60    5.70
   5   2 -10   90.19    6.90
  -5  -2  10   95.19    8.10
   4   2 -10  151.88    7.40
  -4  -2  10  152.18    8.70
   3   2 -10  224.68    8.70
  -3  -2  10  219.38    9.80
   2   2 -10   80.49    8.50
   2   2 -10   83.49    7.40
  -2  -2  10   75.59    6.50
   1   2 -10  119.99   10.40
  -1  -2  10  117.49    7.30
   0   2 -10   47.40    7.30
   0  -2  10   56.49    5.00
  -1   2 -10  181.58   11.60
   1  -2  10  184.68    8.50
  -2   2 -10   18.50    6.60
   2  -2  10   18.60    4.10
  -3   2 -10   16.90    7.00
   3  -2  10   11.20    4.00
  -4   2 -10   49.30    8.50
   4  -2  10   44.80    5.40
  -5   2 -10   21.30    8.20
   5  -2  10   33.00    5.40
  -6   2 -10   36.70    9.10
   6  -2  10   21.00    5.30
  -8  -1  10   -2.40    5.00
   7   1 -10   68.39    6.60
  -7  -1  10   55.79    6.90
   6   1 -10    4.50    3.70
  -6  -1  10    1.90    4.40
   5   1 -10   26.80    4.50
  -5  -1  10   31.30    5.30
   4   1 -10  298.27   11.00
  -4  -1  10  302.57   12.00
   3   1 -10   20.00    3.60
  -3  -1  10   12.90    4.30
   2   1 -10   67.39    5.10
  -2  -1  10   65.19    5.70
   1   1 -10   10.90    3.40
  -1  -1  10   11.60    3.80
   0   1 -10    1.20    5.80
   0  -1  10   -1.20    3.60
  -1   1 -10   -4.10    5.80
   1  -1  10    3.90    3.90
  -2   1 -10    1.40    6.30
   2  -1  10    0.60    3.70
  -3   1 -10    0.10    6.50
   3  -1  10    0.50    4.00
  -4   1 -10   71.99    9.20
   4  -1  10   63.79    6.30
  -5   1 -10   13.00    7.70
   5  -1  10    2.80    4.80
   8   0 -10    1.20    4.50
  -8   0  10   -5.90    5.20
   7   0 -10   75.79    7.10
  -7   0  10   67.79    7.20
   6   0 -10   22.80    4.50
  -6   0  10    8.60    4.90
   5   0 -10   73.99    6.00
  -5   0  10   68.79    6.70
   4   0 -10  115.89    7.30
  -4   0  10  118.29    8.30
   3   0 -10    3.10    3.00
  -3   0  10   13.40    4.40
   2   0 -10  224.78    8.90
  -2   0  10  236.98   10.10
   1   0 -10  201.48    8.10
  -1   0  10  195.98    9.30
   0   0 -10  142.89   11.80
   0   0  10  122.69    7.80
  -1   0 -10  110.29    9.70
   1   0  10   92.89    7.40
  -2   0 -10   -5.40    6.30
   2   0  10    4.60    4.10
  -3   0 -10  112.49   10.20
  -4   0 -10   79.99    9.60
   4   0  10   88.29    7.10
  -5   0 -10   61.59    9.30
   5   0  10   57.99    6.80
   8  -1 -10   19.20    5.60
  -8   1  10    9.10    5.50
   7  -1 -10    8.10    4.50
  -7   1  10    0.70    4.80
   6  -1 -10  100.29    7.80
  -6   1  10   85.29    7.50
   5  -1 -10  260.77   10.90
  -5   1  10  252.87   11.70
   4  -1 -10   49.30    5.20
  -4   1  10   45.40    5.70
   3  -1 -10   10.30    3.50
  -3   1  10   11.00    4.40
   2  -1 -10   37.60    4.40
  -2   1  10   39.50    5.30
   1  -1 -10   -1.40    2.90
  -1   1  10    2.90    4.10
   0   1  10   78.39    6.40
  -1  -1 -10    3.90    6.60
   1   1  10    4.80    4.30
  -2  -1 -10   -6.90    6.70
   2   1  10    6.40    4.50
  -3  -1 -10   -3.40    6.70
   3   1  10   -8.10    4.50
  -4  -1 -10    3.60    7.20
   4   1  10    3.90    4.90
  -5  -1 -10    7.80    7.50
   5   1  10    2.50    7.80
   8  -2 -10    7.60    4.80
  -8   2  10   -0.40    5.30
   7  -2 -10   27.10    5.30
  -7   2  10   21.70    5.70
   6  -2 -10    0.90    4.00
  -6   2  10   -1.30    4.60
   5  -2 -10   59.39    6.00
  -5   2  10   56.39    6.20
   4  -2 -10   22.90    4.40
  -4   2  10   19.20    4.80
   3  -2 -10   72.79    5.70
  -3   2  10   47.30    5.90
   2  -2 -10  191.58    8.70
  -2   2  10  197.48   10.00
   1  -2 -10   98.19    6.40
  -1   2  10   93.49    7.90
   0  -2 -10  109.69    8.00
   0   2  10   98.99    7.40
  -1  -2 -10  148.59   12.80
   1   2  10  170.68    9.60
  -2  -2 -10   -4.60    7.10
  -3  -2 -10  137.99   11.30
   3   2  10  122.39    9.70
  -4  -2 -10   76.19    9.90
   4   2  10   42.00    6.80
   8  -3 -10  111.79    9.40
   7  -3 -10   -8.80    4.10
  -7   3  10   -5.90    4.80
   6  -3 -10   32.60    5.50
  -6   3  10   18.90    5.30
   5  -3 -10    1.70    4.10
  -5   3  10   -5.80    4.20
   4  -3 -10   27.50    4.70
  -4   3  10   23.00    5.40
   3  -3 -10  246.98   10.50
  -3   3  10  256.17   11.60
   2  -3 -10  206.28    9.40
  -2   3  10  198.58   10.20
   1  -3 -10    3.00    3.40
  -1   3  10    5.90    4.40
   0  -3 -10   29.90    5.90
   0   3  10   31.20    5.50
   1   3  10    6.50    4.80
  -2  -3 -10   -4.70    7.20
   2   3  10   -2.70    4.90
  -3  -3 -10   31.70    8.30
   3   3  10   48.30    6.70
  -4  -3 -10   42.60    9.10
   8  -4 -10   15.10    5.40
   7  -4 -10   17.50    5.20
  -7   4  10   16.90    5.40
   6  -4 -10   46.00    6.00
  -6   4  10   17.40    5.50
   5  -4 -10    4.70    4.10
  -5   4  10    3.80    4.80
   4  -4 -10   25.50    4.90
  -4   4  10   24.70    5.50
   3  -4 -10    8.50    4.10
  -3   4  10   19.70    5.20
   2  -4 -10    5.40    3.80
  -2   4  10   -2.50    4.20
   1  -4 -10   25.30    4.60
  -1   4  10   25.70    5.50
   0   4  10   14.80    5.10
   1   4  10   -6.10    4.80
  -2  -4 -10    3.00    7.70
   2   4  10   11.10    5.60
  -3  -4 -10   65.49    9.60
   3   4  10   61.39    7.70
   8  -5 -10  132.69   10.20
   7  -5 -10   32.10    5.90
  -7   5  10    6.50    7.90
   6  -5 -10   98.39    7.80
  -6   5  10   71.39    7.60
   5  -5 -10   34.60    5.40
  -5   5  10   32.20    6.10
   4  -5 -10   35.10    5.40
  -4   5  10   23.60    5.60
   3  -5 -10  348.97   13.40
  -3   5  10  333.37   13.90
   2  -5 -10   75.59    6.70
  -2   5  10   89.39    7.80
   1  -5 -10   20.90    4.60
  -1   5  10   19.10    5.40
   1   5  10   27.00    6.40
  -2  -5 -10   79.19   10.50
   2   5  10   80.09    8.00
   7  -6 -10   11.00    5.10
  -7   6  10   -9.80    7.90
   6  -6 -10   10.90    4.80
   5  -6 -10   10.20    4.50
  -5   6  10    8.80    5.30
   4  -6 -10   -2.10    4.10
  -4   6  10    3.10    4.80
   3  -6 -10   29.00    5.20
  -3   6  10   20.30    5.50
   2  -6 -10    3.40    4.20
  -2   6  10    3.20    4.80
   1  -6 -10    8.90    4.40
  -1   6  10   -0.10    4.80
   0   6  10   -2.40    5.40
   1   6  10   -7.00    5.30
   6  -7 -10  126.49    9.70
   5  -7 -10   12.20    4.90
   4  -7 -10   35.80    5.80
  -4   7  10   29.10    6.10
   3  -7 -10  188.38   10.40
  -3   7  10  170.28   11.00
   2  -7 -10    3.70    4.30
  -2   7  10    2.00    5.20
   1  -7 -10   68.59    7.20
  -1   7  10   67.19    7.70
   0   7  10   23.30    6.40
   5  -8 -10   29.90    5.90
   4  -8 -10    7.10    4.90
   3  -8 -10    7.70    4.70
   2  -8 -10    7.70    4.70
  -2   8  10  -10.30    8.80
   1  10 -11    7.00    6.60
  -1 -10  11   -4.90    3.80
   0  10 -11   18.70    7.50
   0 -10  11    5.30    3.60
  -1  10 -11   67.59    9.50
   1 -10  11   45.30    4.70
  -2  10 -11   -2.00    7.30
   2 -10  11  -10.30    2.80
  -3  10 -11   -5.20    7.90
  -2  -9  11   31.90    5.10
   1   9 -11    9.50    6.60
  -1  -9  11    4.10    3.80
   0   9 -11    6.70    6.60
   0  -9  11   -5.50    3.30
  -1   9 -11   32.70    7.90
   1  -9  11   29.00    4.10
  -2   9 -11   11.50    7.60
  -3   9 -11   23.00    8.20
   3  -9  11   12.50    3.80
  -4   9 -11   61.59   10.10
  -3  -8  11   35.80    5.50
   2   8 -11   57.49    7.80
  -2  -8  11   53.29    5.70
   1   8 -11   15.50    6.50
  -1  -8  11   21.30    4.40
   0   8 -11   31.70    7.60
   0  -8  11   39.70    4.50
  -1   8 -11   18.50    7.50
   1  -8  11   13.10    3.60
  -2   8 -11    3.00    6.90
   2  -8  11    0.30    3.10
  -3   8 -11   21.00    8.00
   3  -8  11   27.50    3.60
  -4   8 -11   22.30    8.50
   4  -8  11   29.00    5.00
  -5   8 -11   20.80    9.00
  -4  -7  11   -0.50    4.30
   3   7 -11   11.70    5.80
  -3  -7  11    3.20    4.30
   2   7 -11   36.90    6.90
  -2  -7  11   30.50    4.80
   1   7 -11   99.99    9.10
  -1  -7  11  102.09    7.10
   0   7 -11    7.10    6.40
   0  -7  11   -1.40    3.20
  -1   7 -11   -3.30    6.50
   1  -7  11    0.00    3.20
  -2   7 -11    1.70    6.70
   2  -7  11   -5.70    3.00
  -3   7 -11   69.09    9.30
   3  -7  11   71.59    5.60
  -4   7 -11   53.49    9.00
   4  -7  11   48.00    4.30
  -5   7 -11   16.60    8.80
   5  -7  11   12.10    3.70
  -5  -6  11   26.60    5.70
   4   6 -11   -3.00    5.30
  -4  -6  11   -1.20    4.20
   3   6 -11   85.09    8.20
  -3  -6  11   85.09    7.30
   2   6 -11   43.30    7.30
  -2  -6  11   39.70    5.10
   1   6 -11   19.50    6.70
  -1  -6  11   13.80    4.00
   0   6 -11    4.50    6.40
   0  -6  11    5.20    3.40
  -1   6 -11  241.68   13.70
   1  -6  11  239.58    9.40
  -2   6 -11   41.30    8.00
   2  -6  11   39.80    4.40
  -3   6 -11   76.89    9.50
   3  -6  11   81.69    6.00
  -4   6 -11    3.80    7.50
   4  -6  11    0.00    3.30
  -5   6 -11   57.79   10.00
   5  -6  11   41.70    4.90
  -6  -5  11    5.50    5.20
  -5  -5  11   -2.20    4.20
   4   5 -11   27.80    6.40
  -4  -5  11   36.40    5.50
   3   5 -11   37.10    6.90
  -3  -5  11   30.40    5.00
   2   5 -11   16.50    6.50
  -2  -5  11   36.10    4.90
   1   5 -11   75.79    8.70
  -1  -5  11   97.19    6.80
   0   5 -11   -1.60    6.10
   0  -5  11    3.60    3.50
  -1   5 -11   68.29    8.70
   1  -5  11   75.69    5.60
  -2   5 -11    4.80    7.00
   2  -5  11    8.60    3.80
  -3   5 -11    1.10    6.60
   3  -5  11    6.20    3.40
  -4   5 -11    8.40    7.80
   4  -5  11   11.30    3.70
  -5   5 -11   22.40    8.90
   5  -5  11   19.40    4.40
  -6  -4  11   20.40    5.60
   5   4 -11   19.40    6.50
  -5  -4  11   23.40    5.30
   4   4 -11   62.49    8.00
  -4  -4  11   67.59    6.40
   3   4 -11  123.59   11.50
  -3  -4  11  130.39    8.40
   2   4 -11   72.99    8.20
  -2  -4  11   69.39    5.90
   1   4 -11   -6.20    5.90
  -1  -4  11    3.10    3.60
   0   4 -11  122.79   11.70
   0  -4  11  134.29    7.60
  -1   4 -11    9.80    6.90
   1  -4  11   16.90    4.10
  -2   4 -11   71.79    8.90
   2  -4  11   64.59    5.30
  -3   4 -11   12.00    7.40
   3  -4  11   32.10    4.50
  -4   4 -11   22.00    8.10
   4  -4  11   18.50    4.20
  -5   4 -11   27.60    8.90
   5  -4  11   11.90    4.40
  -7  -3  11    3.20    5.30
   6   3 -11   -2.20    6.00
  -6  -3  11    0.90    4.70
   5   3 -11    1.80    6.30
  -5  -3  11    6.80    4.60
   4   3 -11    1.40    6.20
  -4  -3  11   -3.00    4.10
   3   3 -11    4.60    6.40
  -3  -3  11    4.50    3.90
   2   3 -11   18.80    6.80
  -2  -3  11   15.30    4.30
   1   3 -11   21.30    6.80
  -1  -3  11   23.00    4.40
   0   3 -11   28.10    7.00
   0  -3  11   19.20    4.30
  -1   3 -11   21.80    7.10
   1  -3  11   20.30    4.40
  -2   3 -11    8.70    6.90
   2  -3  11   -6.90    3.50
  -3   3 -11    5.10    7.00
   3  -3  11   -2.30    3.70
  -4   3 -11   -0.50    7.30
  -5   3 -11   -4.00    8.40
   5  -3  11    2.90    4.40
  -7  -2  11    1.20    5.10
  -6  -2  11   60.49    7.00
  -5  -2  11   63.39    6.60
  -4  -2  11  108.09    8.00
  -3  -2  11  189.48    9.60
   2   2 -11   24.40    7.30
  -2  -2  11   24.40    4.80
   1   2 -11  116.29   11.20
  -1  -2  11  124.29    7.90
   0   2 -11  162.08   12.50
   0  -2  11  163.58    8.70
  -1   2 -11   32.80    7.40
   1  -2  11   38.20    5.00
  -2   2 -11   43.90    8.20
   2  -2  11   46.20    5.30
  -3   2 -11   27.30    7.80
   3  -2  11   26.00    4.90
  -4   2 -11   12.90    8.00
   4  -2  11   -4.20    4.40
  -5   2 -11   52.29   10.10
   5  -2  11   54.19    6.40
  -7  -1  11    6.00    5.40
  -6  -1  11   54.99    6.70
  -5  -1  11    3.80    4.70
  -4  -1  11  114.29    8.50
  -3  -1  11   15.40    4.70
  -2  -1  11   22.40    4.80
   1   1 -11   11.20    6.80
  -1  -1  11   17.90    4.60
   0   1 -11    0.50    6.50
   0  -1  11   -3.50    3.90
  -1   1 -11    8.30    6.80
   1  -1  11    1.80    4.00
  -2   1 -11   -4.10    6.70
   2  -1  11    3.30    4.20
  -3   1 -11    3.30    7.50
   3  -1  11   10.60    4.50
  -4   1 -11   -6.30    7.70
   4  -1  11    8.90    5.00
  -5   1 -11   -0.80    8.00
   5  -1  11   -0.70    6.30
  -7   0  11   17.60    5.80
   6   0 -11  187.18   11.50
  -6   0  11  156.58   10.50
   5   0 -11    8.70    4.00
  -5   0  11    5.80    4.80
   4   0 -11   29.30    4.60
  -4   0  11   25.20    5.30
  -3   0  11   33.00    5.50
  -2   0  11   38.50    5.40
  -1   0  11  210.78   10.20
   0   0 -11  191.48   13.80
   0   0  11  207.38   10.00
  -1   0 -11    5.60    7.20
   1   0  11   22.40    4.70
  -2   0 -11  168.48   13.80
   2   0  11  175.08    9.60
  -3   0 -11    8.90    7.70
  -4   0 -11   76.49   10.30
   4   0  11   66.29    7.00
   8  -1 -11    3.80    5.70
  -8   1  11    1.10    5.60
   7  -1 -11   60.09    6.70
  -7   1  11   63.99    7.40
   6  -1 -11    4.40    4.30
  -6   1  11    2.70    5.00
   5  -1 -11   38.40    5.20
  -5   1  11   31.50    5.90
   4  -1 -11   63.99    5.70
  -4   1  11   63.49    6.60
   3  -1 -11   25.00    4.10
  -3   1  11   25.50    5.30
  -2   1  11   58.29    6.50
  -1   1  11   26.00    5.20
   0   1  11   38.00    5.60
  -1  -1 -11  105.49   10.50
   1   1  11  113.59    8.80
  -2  -1 -11    9.30    7.60
   2   1  11   20.10    5.10
  -3  -1 -11   20.70    8.20
   3   1  11   12.30    5.50
  -4  -1 -11   10.20    8.10
   4   1  11   13.40    5.90
   8  -2 -11    5.00    5.00
  -8   2  11    4.30    5.70
   7  -2 -11   18.10    5.20
  -7   2  11   14.30    5.80
   6  -2 -11    7.80    4.50
  -6   2  11    1.80    4.90
   5  -2 -11    5.80    4.10
  -5   2  11   -3.30    4.60
   4  -2 -11   15.30    4.30
  -4   2  11    8.80    4.70
   3  -2 -11   -3.90    3.30
  -3   2  11   -6.20    4.40
   2  -2 -11    9.60    4.60
  -2   2  11    5.90    4.70
  -1   2  11   85.29    7.30
   0   2  11    6.40    4.70
  -1  -2 -11  176.78   14.70
   1   2  11  189.38   10.40
  -2  -2 -11   20.50    8.50
  -3  -2 -11   -4.80    7.90
   3   2  11   -1.40    5.10
   7  -3 -11   72.39    7.30
  -7   3  11   61.89    7.40
   6  -3 -11   23.90    5.10
  -6   3  11   18.00    5.60
   5  -3 -11   49.50    5.80
  -5   3  11   55.39    6.80
   4  -3 -11   12.00    4.30
  -4   3  11   14.40    5.40
   3  -3 -11   22.00    4.60
  -3   3  11    8.00    5.00
   2  -3 -11  236.68   10.50
  -2   3  11  222.98   11.50
  -1   3  11   -4.10    4.50
   0   3  11    1.90    4.80
  -1  -3 -11   -4.40    7.50
   1   3  11   10.70    5.30
  -2  -3 -11  -14.80    7.90
   2   3  11    4.10    5.60
  -3  -3 -11   19.30    9.00
   7  -4 -11   52.49    6.80
  -7   4  11   43.10    6.80
   6  -4 -11   17.50    5.00
  -6   4  11    7.20    5.50
   5  -4 -11   25.10    5.00
  -5   4  11    8.40    5.30
   4  -4 -11    2.50    4.00
  -4   4  11    5.90    5.10
   3  -4 -11    3.80    4.10
  -3   4  11    8.00    4.90
   2  -4 -11   72.59    6.40
  -2   4  11   61.19    6.80
  -1   4  11   37.30    6.20
   0   4  11    3.90    5.30
   1   4  11    4.60    5.60
  -2  -4 -11   24.10    9.60
   2   4  11   33.00    6.80
   7  -5 -11   40.00    6.50
   6  -5 -11    7.90    4.70
  -6   5  11   -0.60    5.10
   5  -5 -11   57.39    6.40
  -5   5  11   36.80    6.60
   4  -5 -11  100.89    8.40
  -4   5  11  110.09    8.80
   3  -5 -11   18.50    5.00
  -3   5  11   16.60    5.50
   2  -5 -11  109.39    8.40
  -2   5  11   99.09    8.40
  -1   5  11   65.99    7.50
   1   5  11   14.50    6.40
   6  -6 -11    6.20    4.90
   5  -6 -11   36.30    5.90
  -5   6  11   27.00    6.20
   4  -6 -11    9.80    4.70
  -4   6  11   -1.50    5.00
   3  -6 -11   10.00    4.80
  -3   6  11    3.00    5.30
   2  -6 -11   41.30    8.30
  -2   6  11   45.90    6.90
  -1   6  11   17.70    5.90
   0   6  11   18.50    6.60
   4  -7 -11   24.00    5.60
   3  -7 -11   28.20    5.70
  -3   7  11   18.70    6.40
   1   9 -12   42.20    8.20
  -1  -9  12   22.40    4.80
   0   9 -12   -2.40    7.00
   0  -9  12    5.30    4.10
  -1   9 -12    8.70    7.50
   1  -9  12    2.90    3.60
  -2   9 -12   45.10    8.90
   2  -9  12   32.80    4.50
  -3  -8  12    3.90    7.10
   2   8 -12   55.39    8.30
  -2  -8  12   42.50    5.70
   1   8 -12   26.70    7.70
  -1  -8  12   27.30    4.90
   0   8 -12    7.30    7.20
   0  -8  12    2.10    3.80
  -1   8 -12   21.00    7.70
   1  -8  12   10.80    3.90
  -2   8 -12   -3.60    7.10
   2  -8  12   -7.40    3.30
  -3   8 -12    1.30    7.70
   3  -8  12    5.40    3.50
   3   7 -12   30.30    7.20
  -3  -7  12   43.30    5.90
   2   7 -12    4.70    6.60
  -2  -7  12    5.30    4.30
   1   7 -12   76.39    8.80
  -1  -7  12   62.29    5.90
   0   7 -12   -2.80    6.70
   0  -7  12    3.10    3.70
  -1   7 -12   30.10    7.90
   1  -7  12   31.60    4.60
  -2   7 -12   51.09    9.10
   2  -7  12   65.09    5.40
  -3   7 -12    8.80    7.90
   3  -7  12    7.60    3.60
  -4   7 -12   41.00    9.10
   4  -7  12   29.80    4.30
   4   6 -12   28.10    7.20
  -4  -6  12   22.90    5.30
   3   6 -12    3.10    6.20
  -3  -6  12   -1.30    4.20
   2   6 -12   20.30    7.10
  -2  -6  12   24.70    4.90
   1   6 -12   25.90    7.50
  -1  -6  12   26.90    4.70
   0   6 -12   -5.40    6.60
   0  -6  12   -6.10    3.60
  -1   6 -12    8.90    7.00
   1  -6  12    6.70    3.90
  -2   6 -12   18.30    7.50
   2  -6  12   14.80    4.00
  -3   6 -12   38.40    8.80
   3  -6  12   33.80    4.60
  -4   6 -12    4.50    8.20
   4  -6  12   14.70    3.90
  -5  -5  12   11.00    5.20
   4   5 -12   22.10    7.00
  -4  -5  12   27.70    5.60
   3   5 -12    4.40    6.30
  -3  -5  12    6.50    4.40
   2   5 -12   34.90    7.60
  -2  -5  12   35.30    5.20
   1   5 -12   14.90    7.30
  -1  -5  12   23.60    4.60
   0   5 -12   51.69    8.50
   0  -5  12   53.69    5.50
  -1   5 -12   36.10    8.00
   1  -5  12   31.10    4.70
  -2   5 -12  143.29   13.30
   2  -5  12  131.99    8.00
  -3   5 -12   32.80    8.40
   3  -5  12   17.40    4.20
  -4   5 -12   83.99   11.10
   4  -5  12   77.09    6.20
  -6  -4  12   -7.50    5.10
   5   4 -12   58.09    8.50
  -5  -4  12   69.89    7.30
   4   4 -12   60.69    8.60
  -4  -4  12   59.59    6.50
   3   4 -12   12.10    6.90
  -3  -4  12    7.20    4.50
   2   4 -12   80.99    9.00
  -2  -4  12   67.49    6.40
   1   4 -12   64.49    8.70
  -1  -4  12   57.69    5.90
   0   4 -12   14.00    7.30
   0  -4  12   10.20    4.20
  -1   4 -12  151.28   12.70
   1  -4  12  176.88    8.80
  -2   4 -12    1.50    7.00
   2  -4  12   -0.10    3.90
  -3   4 -12   82.89   10.40
   3  -4  12   73.49    6.10
  -4   4 -12   53.29   10.00
   4  -4  12   28.40    5.00
   6   3 -12    3.30    6.90
  -6  -3  12    5.40    5.10
   5   3 -12   -4.60    6.60
  -5  -3  12    2.90    4.70
   4   3 -12   18.50    7.30
  -4  -3  12   21.40    5.10
   3   3 -12   10.00    7.30
  -3  -3  12    4.90    4.40
   2   3 -12    1.90    6.90
  -2  -3  12   -5.20    3.90
   1   3 -12    7.70    6.70
  -1  -3  12    1.20    4.00
   0   3 -12    9.00    7.00
   0  -3  12    5.80    4.20
  -1   3 -12    2.10    6.90
   1  -3  12   11.20    4.40
  -2   3 -12   -1.60    6.80
   2  -3  12   -8.00    3.70
  -3   3 -12   11.50    7.90
   3  -3  12    4.60    4.20
  -4   3 -12    5.80    8.10
  -6  -2  12    9.70    5.30
  -5  -2  12  119.29    9.30
  -4  -2  12   -0.10    4.40
   3   2 -12   93.69   10.00
  -3  -2  12   82.39    7.10
   2   2 -12  132.59   12.20
  -2  -2  12  135.19    8.60
   1   2 -12    6.40    7.00
  -1  -2  12    0.40    4.10
   0   2 -12    8.30    6.90
   0  -2  12   20.60    4.80
  -1   2 -12   16.30    7.30
   1  -2  12   28.70    5.20
  -2   2 -12   20.00    8.00
   2  -2  12    6.80    4.30
  -3   2 -12  149.09   14.80
   3  -2  12  122.69    8.80
  -4   2 -12   16.50    9.00
   4  -2  12    6.70    5.30
  -7  -1  12   -4.60    5.40
  -6  -1  12   70.29    7.50
  -5  -1  12    3.50    4.90
  -4  -1  12   22.60    5.40
  -3  -1  12    7.60    4.70
   2   1 -12   -1.50    7.00
  -2  -1  12   -1.70    4.20
   1   1 -12   28.90    7.80
  -1  -1  12   28.50    5.30
   0   1 -12   -1.50    7.00
   0  -1  12    2.40    4.10
  -1   1 -12   -1.50    7.00
   1  -1  12    1.20    4.10
  -2   1 -12   24.70    8.40
   2  -1  12   24.90    5.30
  -3   1 -12    9.90    8.60
   3  -1  12    3.60    4.80
  -4   1 -12    8.10    8.90
  -7   0  12    2.50    5.60
  -6   0  12   29.60    6.30
  -5   0  12   94.79    8.20
  -4   0  12    3.00    4.70
  -3   0  12   62.79    6.60
  -2   0  12   24.90    5.40
   1   0 -12   22.60    8.00
  -1   0  12   20.10    5.10
   0   0 -12   46.20    9.10
   0   0  12   63.79    6.60
  -1   0 -12   44.50    9.00
   1   0  12   42.50    5.90
  -2   0 -12   40.80    9.20
   2   0  12   23.00    5.40
  -3   0 -12   13.40    9.10
   3   0  12   15.70    5.80
  -7   1  12   14.30    6.20
  -6   1  12   -0.50    5.10
  -5   1  12    1.00    4.80
  -4   1  12   56.09    6.60
  -3   1  12   20.10    5.50
  -2   1  12   -5.40    4.50
  -1   1  12    9.00    4.90
   0  -1 -12    1.70    7.70
   0   1  12   12.00    4.90
  -1  -1 -12    8.80    8.30
   1   1  12    7.60    5.00
  -2  -1 -12    6.30    8.50
   2   1  12   13.80    5.40
  -3  -1 -12   15.60    9.10
  -7   2  12   18.70    6.10
  -6   2  12   27.40    6.40
  -5   2  12   12.90    5.50
  -4   2  12   49.60    6.90
  -3   2  12   91.29    8.00
  -2   2  12   53.29    6.80
  -1   2  12   94.09    8.10
   0   2  12   95.39    8.10
  -1  -2 -12   -7.70    8.20
   1   2  12    0.60    5.00
  -2  -2 -12   59.29   10.90
   2   2  12   56.49    7.60
   6  -3 -12   43.90    8.30
  -6   3  12   13.00    5.70
  -5   3  12   11.60    5.70
  -4   3  12   16.30    5.70
  -3   3  12   67.79    7.50
  -2   3  12   22.10    5.70
  -1   3  12   18.30    5.70
   0   3  12   19.00    5.90
  -1  -3 -12   12.20    9.50
   1   3  12   14.00    5.90
   6  -4 -12   32.30    6.00
  -6   4  12   24.80    6.50
   5  -4 -12    3.90    4.80
  -5   4  12    2.60    5.40
  -4   4  12   55.19    7.40
  -3   4  12   10.60    5.40
  -2   4  12   25.00    6.10
  -1   4  12   81.49    8.10
   0   4  12   37.80    6.90
   5  -5 -12    5.10    4.80
  -5   5  12    8.90    5.70
  -4   5  12   25.30    6.40
  -3   5  12  101.49    9.00
  -2   5  12   15.90    6.00
  -1   5  12   83.59    8.60
   1   8 -13   28.60    8.30
   0   8 -13   13.70    7.90
   0  -8  13    9.50    4.40
  -1   8 -13    0.00    7.50
   1  -8  13   -9.70    3.70
   2   7 -13   -1.00    7.20
  -2  -7  13   -3.00    4.40
   1   7 -13   75.39    9.50
  -1  -7  13   69.29    6.40
   0   7 -13  104.99   10.60
   0  -7  13  104.09    7.80
  -1   7 -13    0.40    7.70
   1  -7  13    2.90    4.20
  -2   7 -13    7.60    8.00
   2  -7  13   19.20    4.40
   3   6 -13   52.89    8.70
  -3  -6  13   48.40    6.30
   2   6 -13    4.30    7.10
  -2  -6  13    4.70    4.60
   1   6 -13   29.90    8.20
  -1  -6  13   28.40    5.20
   0   6 -13   10.20    7.70
   0  -6  13   -3.90    4.00
  -1   6 -13   -2.90    7.20
   1  -6  13   -1.00    4.00
  -2   6 -13   22.40    8.10
   2  -6  13   35.50    5.00
  -3   6 -13    7.10    8.10
   3  -6  13   -2.20    3.80
   4   5 -13   18.20    7.40
  -4  -5  13   13.10    5.20
   3   5 -13    9.90    7.40
  -3  -5  13    5.30    4.70
   2   5 -13   -8.80    6.90
  -2  -5  13    1.30    4.40
   1   5 -13   42.70    8.80
  -1  -5  13   24.70    5.10
   0   5 -13   24.50    8.00
   0  -5  13   24.10    5.00
  -1   5 -13   -4.80    7.50
   1  -5  13   -0.50    4.10
  -2   5 -13   41.20    9.00
   2  -5  13   41.60    5.50
  -3   5 -13   14.30    8.30
   3  -5  13    5.20    4.40
   5   4 -13    3.10    7.30
   4   4 -13   17.30    7.70
  -4  -4  13   14.00    5.30
   3   4 -13   -4.00    6.90
  -3  -4  13    7.80    4.60
   2   4 -13   -1.00    6.90
  -2  -4  13    0.80    4.50
   1   4 -13   19.60    7.70
  -1  -4  13   16.20    5.00
   0   4 -13   -2.30    7.10
   0  -4  13   -4.50    4.20
  -1   4 -13    2.40    7.30
   1  -4  13    7.70    4.60
  -2   4 -13   51.79    9.60
   2  -4  13   68.19    6.40
  -3   4 -13    6.10    8.40
   3  -4  13    7.00    4.60
   5   3 -13   -6.00    7.60
  -5  -3  13   -1.10    5.00
   4   3 -13   20.60    8.10
  -4  -3  13    4.10    4.80
   3   3 -13   34.40    8.60
  -3  -3  13   38.90    6.10
   2   3 -13    8.00    7.60
  -2  -3  13   -7.10    4.30
   1   3 -13   16.70    7.80
  -1  -3  13   15.00    4.90
   0   3 -13    4.30    7.50
   0  -3  13   -4.60    4.40
  -1   3 -13    9.50    8.00
   1  -3  13   -5.40    4.20
  -2   3 -13   17.70    8.40
   2  -3  13   16.10    5.00
  -3   3 -13    3.40    8.50
   3  -3  13    3.80    4.60
   5   2 -13   15.50    8.40
  -5  -2  13   11.90    5.60
   4   2 -13   74.79   10.30
  -4  -2  13   61.99    7.20
   3   2 -13   10.00    7.70
  -3  -2  13   -0.10    4.70
   2   2 -13   21.60    8.20
  -2  -2  13    8.70    4.80
   1   2 -13   84.79   10.50
  -1  -2  13   74.69    7.00
   0   2 -13   16.00    7.70
   0  -2  13    5.20    4.60
  -1   2 -13   66.49   10.10
   1  -2  13   72.69    6.80
  -2   2 -13   64.79   10.70
   2  -2  13   74.59    7.10
  -3   2 -13   16.20    9.10
   3  -2  13   -4.00    5.80
  -6  -1  13   10.10    5.90
  -5  -1  13    0.40    5.20
  -4  -1  13    6.90    5.30
  -3  -1  13   10.50    5.20
   2   1 -13   14.30    8.10
  -2  -1  13   15.40    5.00
   1   1 -13   19.50    8.10
  -1  -1  13   17.90    5.40
   0   1 -13   -3.20    7.60
   0  -1  13    8.70    4.90
  -1   1 -13   -9.20    7.50
   1  -1  13   -2.20    4.40
  -2   1 -13   13.50    9.20
   2  -1  13    1.80    5.00
  -6   0  13    4.50    5.70
  -5   0  13  139.29   10.50
  -4   0  13   56.49    7.20
  -3   0  13   18.90    5.40
  -2   0  13   98.39    8.20
   1   0 -13    4.60    7.90
  -1   0  13    7.60    5.00
   0   0 -13   67.09   10.40
   0   0  13   55.19    6.60
  -1   0 -13  128.09   12.50
   1   0  13   88.99    7.90
  -2   0 -13   39.30   10.40
   2   0  13   22.50    9.10
  -6   1  13    1.70    5.60
  -5   1  13   19.30    6.00
  -4   1  13   -5.20    5.00
  -3   1  13    2.00    5.20
  -2   1  13   -5.70    4.60
   1  -1 -13   -8.10    8.00
  -1   1  13   -3.00    4.90
   0  -1 -13    9.70    9.10
   0   1  13   16.00    5.70
  -1  -1 -13   20.40    9.70
   1   1  13    2.50    5.20
  -5   2  13   40.70    6.90
  -4   2  13    2.70    5.50
  -3   2  13   85.89    8.00
  -2   2  13   52.79    7.00
  -1   2  13   40.50    6.60
   0  -2 -13   29.30   10.00
   0   2  13   16.10    5.90
  -5   3  13   26.20    6.60
  -4   3  13   12.20    5.80
  -3   3  13   -0.90    5.40
  -2   3  13   15.20    5.90
  -1   3  13    6.80    5.70
  -3   4  13    6.70    5.80
   1   6 -14    8.40    8.10
   0   6 -14   -7.30    7.70
   2   5 -14   85.39   10.70
  -2  -5  14   56.29    7.20
   1   5 -14   20.50    8.50
  -1  -5  14   -3.30    4.70
   0   5 -14   48.10    9.70
   0  -5  14   41.10    6.00
  -1   5 -14   16.60    8.60
   3   4 -14   72.09   10.20
   2   4 -14   12.10    8.30
  -2  -4  14   17.50    5.70
   1   4 -14   -0.20    7.70
  -1  -4  14   -5.60    4.70
   0   4 -14    8.50    8.40
   0  -4  14    2.80    5.00
  -1   4 -14    5.70    8.10
   1  -4  14    4.10    4.80
   4   3 -14    1.40    8.40
   3   3 -14   40.30    9.40
  -3  -3  14   18.30    5.90
   2   3 -14    0.70    8.10
  -2  -3  14   -6.10    4.80
   1   3 -14   -0.40    8.00
  -1  -3  14   -4.90    4.70
   0   3 -14   22.40    8.90
   0  -3  14   25.30    5.70
  -1   3 -14    8.50    8.70
   1  -3  14   16.30    5.50
   4   2 -14   41.80    9.70
  -4  -2  14   38.80    8.20
   3   2 -14   32.00    9.80
  -3  -2  14   28.40    6.20
   2   2 -14   -4.20    8.20
  -2  -2  14    1.60    5.10
   1   2 -14   37.00    9.40
  -1  -2  14   29.00    6.20
   0   2 -14   79.29   10.80
   0  -2  14   81.79    7.80
  -1   2 -14   11.20    9.00
   4   1 -14   -0.80    8.80
  -4  -1  14   -1.60    5.40
   3   1 -14   -2.20    8.40
  -3  -1  14    2.80    5.40
   2   1 -14   21.30    9.20
  -2  -1  14   19.70    6.00
   1   1 -14   15.20    8.90
  -1  -1  14   33.10    6.30
   0   1 -14   52.89   10.40
   0  -1  14   38.80    6.70
  -4   0  14   42.30    7.10
  -3   0  14    1.50    5.60
   2   0 -14   12.60    9.30
  -2   0  14   12.30    5.80
   1   0 -14  118.59   12.90
  -1   0  14  110.19    9.20
   0   0 -14   44.80   10.80
  -3   1  14   -3.60    5.70
  -2   1  14    8.00    6.50
   1  -1 -14   -4.10    9.10

_computing_structure_solution     'SHELXT 2014/4 (Sheldrick, 2014)'
;
_shelx_hkl_checksum              74727
loop_
_space_group_symop_operation_xyz
'x, y, z'
'-x, -y, -z'
loop_
_atom_site_label
_atom_site_type_symbol
_atom_site_fract_x
_atom_site_fract_y
_atom_site_fract_z
_atom_site_U_iso_or_equiv
_atom_site_adp_type
_atom_site_occupancy
_atom_site_site_symmetry_order
_atom_site_calc_flag
_atom_site_refinement_flags_posn
_atom_site_refinement_flags_adp
P1 P 0.19067(11) 0.26606(8) 0.37358(8) 0.0227(2) Uani 1 1 d . .
C1 C -0.0174(4) 0.1506(3) 0.2792(3) 0.0239(6) Uani 1 1 d . .
C2 C -0.0450(5) 0.1246(4) 0.1490(3) 0.0340(8) Uani 1 1 d . .
H2 H 0.0455 0.1706 0.1099 0.041 Uiso 1 1 calc R U
C3 C -0.2044(6) 0.0314(5) 0.0765(4) 0.0443(10) Uani 1 1 d . .
H3 H -0.2237 0.0124 -0.0124 0.053 Uiso 1 1 calc R U
C4 C -0.3353(6) -0.0338(4) 0.1348(4) 0.0453(10) Uani 1 1 d . .
H4 H -0.4448 -0.0977 0.0851 0.054 Uiso 1 1 calc R U
C5 C -0.3099(5) -0.0080(4) 0.2638(4) 0.0411(9) Uani 1 1 d . .
H5 H -0.4013 -0.0538 0.3023 0.049 Uiso 1 1 calc R U
C6 C -0.1504(5) 0.0851(4) 0.3372(4) 0.0326(8) Uani 1 1 d . .
H6 H -0.1320 0.1039 0.4261 0.039 Uiso 1 1 calc R U
C7 C 0.3460(4) 0.3297(3) 0.2799(3) 0.0250(7) Uani 1 1 d . .
C8 C 0.3649(5) 0.4570(4) 0.2509(4) 0.0376(8) Uani 1 1 d . .
H8 H 0.2945 0.5096 0.2788 0.045 Uiso 1 1 calc R U
C9 C 0.4884(6) 0.5060(5) 0.1805(4) 0.0496(11) Uani 1 1 d . .
H9 H 0.5045 0.5937 0.1612 0.060 Uiso 1 1 calc R U
C10 C 0.5872(6) 0.4290(5) 0.1387(4) 0.0476(11) Uani 1 1 d . .
H10 H 0.6686 0.4625 0.0882 0.057 Uiso 1 1 calc R U
C11 C 0.5706(5) 0.3034(4) 0.1687(4) 0.0414(9) Uani 1 1 d . .
H11 H 0.6428 0.2522 0.1412 0.050 Uiso 1 1 calc R U
C12 C 0.4492(5) 0.2525(4) 0.2387(4) 0.0336(8) Uani 1 1 d . .
H12 H 0.4357 0.1654 0.2588 0.040 Uiso 1 1 calc R U
C13 C 0.2841(5) 0.1903(4) 0.4869(3) 0.0310(7) Uani 1 1 d . .
H13A H 0.2030 0.1663 0.5436 0.047 Uiso 1 1 calc R U
H13B H 0.3989 0.2563 0.5353 0.047 Uiso 1 1 calc R U
H13C H 0.3016 0.1067 0.4440 0.047 Uiso 1 1 calc R U
C14 C 0.1557(4) 0.4142(4) 0.4604(3) 0.0279(7) Uani 1 1 d . .
C15 C 0.0054(5) 0.4402(3) 0.4598(3) 0.0276(7) Uani 1 1 d . .
H15 H -0.0999 0.3774 0.4040 0.033 Uiso 1 1 calc R U
C16 C 0.0732(6) 0.6804(5) 0.1425(4) 0.0493(11) Uani 1 1 d . .
F1 F 0.3086(3) 0.5031(3) 0.5330(3) 0.0556(7) Uani 1 1 d . .
F2 F 0.1946(5) 0.6840(4) 0.0724(3) 0.0943(12) Uani 1 1 d . .
F3 F -0.0629(4) 0.7031(3) 0.0789(3) 0.0704(9) Uani 1 1 d . .
F4 F 0.0136(4) 0.5539(3) 0.1625(3) 0.0780(10) Uani 1 1 d . .
S1 S 0.17347(13) 0.80699(10) 0.29028(9) 0.0374(3) Uani 1 1 d . .
O1 O 0.3035(5) 0.7592(4) 0.3495(4) 0.0677(10) Uani 1 1 d . .
O2 O 0.0255(5) 0.8000(4) 0.3495(3) 0.0691(10) Uani 1 1 d . .
O3 O 0.2410(5) 0.9327(3) 0.2498(3) 0.0587(9) Uani 1 1 d . .
loop_
_atom_site_aniso_label
_atom_site_aniso_U_11
_atom_site_aniso_U_22
_atom_site_aniso_U_33
_atom_site_aniso_U_23
_atom_site_aniso_U_13
_atom_site_aniso_U_12
P1 0.0211(4) 0.0233(4) 0.0239(4) 0.0026(3) 0.0053(3) 0.0091(3)
C1 0.0229(15) 0.0225(15) 0.0269(16) 0.0028(12) 0.0039(12) 0.0103(12)
C2 0.0334(19) 0.043(2) 0.0255(17) 0.0037(15) 0.0061(14) 0.0152(16)
C3 0.041(2) 0.055(3) 0.0286(19) -0.0071(17) -0.0050(16) 0.019(2)
C4 0.033(2) 0.038(2) 0.049(2) -0.0017(18) -0.0097(18) 0.0045(17)
C5 0.0284(19) 0.039(2) 0.051(2) 0.0133(18) 0.0023(17) 0.0060(16)
C6 0.0289(18) 0.0355(19) 0.0325(18) 0.0089(15) 0.0062(14) 0.0090(15)
C7 0.0204(15) 0.0276(16) 0.0269(16) 0.0052(13) 0.0066(12) 0.0077(12)
C8 0.040(2) 0.039(2) 0.042(2) 0.0154(17) 0.0133(17) 0.0185(17)
C9 0.059(3) 0.047(2) 0.054(3) 0.029(2) 0.026(2) 0.019(2)
C10 0.043(2) 0.059(3) 0.041(2) 0.017(2) 0.0216(19) 0.009(2)
C11 0.032(2) 0.049(2) 0.044(2) 0.0029(18) 0.0177(17) 0.0147(17)
C12 0.0302(18) 0.0305(18) 0.039(2) 0.0006(15) 0.0098(15) 0.0109(15)
C13 0.0309(18) 0.0346(18) 0.0291(17) 0.0071(14) 0.0038(14) 0.0144(15)
C14 0.0260(16) 0.0271(16) 0.0267(16) -0.0035(13) 0.0042(13) 0.0092(13)
C15 0.0283(17) 0.0273(17) 0.0265(16) 0.0020(13) 0.0066(13) 0.0104(13)
C16 0.048(3) 0.046(2) 0.045(2) 0.0022(19) 0.006(2) 0.009(2)
F1 0.0328(12) 0.0515(15) 0.0647(17) -0.0204(12) -0.0060(11) 0.0146(11)
F2 0.098(3) 0.102(3) 0.074(2) -0.016(2) 0.048(2) 0.028(2)
F3 0.0644(19) 0.076(2) 0.0556(17) 0.0178(15) -0.0166(14) 0.0139(16)
F4 0.069(2) 0.0348(14) 0.102(3) 0.0029(15) -0.0203(18) 0.0020(13)
S1 0.0374(5) 0.0340(5) 0.0367(5) 0.0016(4) 0.0055(4) 0.0109(4)
O1 0.053(2) 0.059(2) 0.076(2) 0.0028(18) -0.0210(18) 0.0191(17)
O2 0.072(2) 0.095(3) 0.054(2) 0.0186(19) 0.0395(19) 0.036(2)
O3 0.062(2) 0.0332(16) 0.074(2) 0.0098(15) 0.0185(18) 0.0052(14)
loop_
_atom_type_symbol
_atom_type_description
_atom_type_scat_dispersion_real
_atom_type_scat_dispersion_imag
_atom_type_scat_source
C C 0.0033 0.0016 'International Tables Vol C Tables 4.2.6.8 and 6.1.1.4'
H H 0.0000 0.0000 'International Tables Vol C Tables 4.2.6.8 and 6.1.1.4'
O O 0.0106 0.0060 'International Tables Vol C Tables 4.2.6.8 and 6.1.1.4'
F F 0.0171 0.0103 'International Tables Vol C Tables 4.2.6.8 and 6.1.1.4'
P P 0.1023 0.0942 'International Tables Vol C Tables 4.2.6.8 and 6.1.1.4'
S S 0.1246 0.1234 'International Tables Vol C Tables 4.2.6.8 and 6.1.1.4'
loop_
_geom_angle_atom_site_label_1
_geom_angle_atom_site_label_2
_geom_angle_atom_site_label_3
_geom_angle
_geom_angle_site_symmetry_1
_geom_angle_site_symmetry_3
C13 P1 C1 112.19(16) . .
C13 P1 C7 110.74(16) . .
C1 P1 C7 111.75(16) . .
C13 P1 C14 106.34(17) . .
C1 P1 C14 109.00(15) . .
C7 P1 C14 106.48(16) . .
C2 C1 C6 120.4(3) . .
C2 C1 P1 120.2(3) . .
C6 C1 P1 119.4(3) . .
C3 C2 C1 119.8(4) . .
C3 C2 H2 120.1 . .
C1 C2 H2 120.1 . .
C4 C3 C2 119.4(4) . .
C4 C3 H3 120.3 . .
C2 C3 H3 120.3 . .
C5 C4 C3 121.3(4) . .
C5 C4 H4 119.4 . .
C3 C4 H4 119.4 . .
C4 C5 C6 119.8(4) . .
C4 C5 H5 120.1 . .
C6 C5 H5 120.1 . .
C5 C6 C1 119.3(3) . .
C5 C6 H6 120.3 . .
C1 C6 H6 120.3 . .
C8 C7 C12 120.6(3) . .
C8 C7 P1 119.5(3) . .
C12 C7 P1 119.9(3) . .
C9 C8 C7 118.8(4) . .
C9 C8 H8 120.6 . .
C7 C8 H8 120.6 . .
C10 C9 C8 120.4(4) . .
C10 C9 H9 119.8 . .
C8 C9 H9 119.8 . .
C9 C10 C11 121.0(4) . .
C9 C10 H10 119.5 . .
C11 C10 H10 119.5 . .
C12 C11 C10 119.7(4) . .
C12 C11 H11 120.1 . .
C10 C11 H11 120.1 . .
C11 C12 C7 119.5(4) . .
C11 C12 H12 120.3 . .
C7 C12 H12 120.3 . .
P1 C13 H13A 109.5 . .
P1 C13 H13B 109.5 . .
H13A C13 H13B 109.5 . .
P1 C13 H13C 109.5 . .
H13A C13 H13C 109.5 . .
H13B C13 H13C 109.5 . .
C15 C14 F1 120.7(3) . .
C15 C14 P1 128.4(3) . .
F1 C14 P1 110.9(2) . .
C14 C15 C15 122.6(4) . 2_566
C14 C15 H15 118.7 . .
C15 C15 H15 118.7 2_566 .
F3 C16 F4 107.4(4) . .
F3 C16 F2 108.8(4) . .
F4 C16 F2 108.4(4) . .
F3 C16 S1 112.1(3) . .
F4 C16 S1 110.6(3) . .
F2 C16 S1 109.5(3) . .
O1 S1 O3 115.6(2) . .
O1 S1 O2 115.2(3) . .
O3 S1 O2 114.0(2) . .
O1 S1 C16 104.0(2) . .
O3 S1 C16 102.4(2) . .
O2 S1 C16 103.1(2) . .
loop_
_geom_bond_atom_site_label_1
_geom_bond_atom_site_label_2
_geom_bond_distance
_geom_bond_site_symmetry_2
P1 C13 1.782(4) .
P1 C1 1.785(3) .
P1 C7 1.789(3) .
P1 C14 1.798(3) .
C1 C2 1.391(5) .
C1 C6 1.393(5) .
C2 C3 1.384(5) .
C2 H2 0.9500 .
C3 C4 1.382(6) .
C3 H3 0.9500 .
C4 C5 1.379(6) .
C4 H4 0.9500 .
C5 C6 1.387(5) .
C5 H5 0.9500 .
C6 H6 0.9500 .
C7 C8 1.388(5) .
C7 C12 1.393(5) .
C8 C9 1.385(6) .
C8 H8 0.9500 .
C9 C10 1.365(6) .
C9 H9 0.9500 .
C10 C11 1.378(6) .
C10 H10 0.9500 .
C11 C12 1.375(5) .
C11 H11 0.9500 .
C12 H12 0.9500 .
C13 H13A 0.9800 .
C13 H13B 0.9800 .
C13 H13C 0.9800 .
C14 C15 1.319(5) .
C14 F1 1.337(4) .
C15 C15 1.439(6) 2_566
C15 H15 0.9500 .
C16 F3 1.319(5) .
C16 F4 1.330(5) .
C16 F2 1.332(6) .
C16 S1 1.817(5) .
S1 O1 1.414(3) .
S1 O3 1.434(3) .
S1 O2 1.434(3) .
loop_
_geom_hbond_atom_site_label_D
_geom_hbond_atom_site_label_H
_geom_hbond_atom_site_label_A
_geom_hbond_distance_DH
_geom_hbond_distance_HA
_geom_hbond_distance_DA
_geom_hbond_angle_DHA
_geom_hbond_site_symmetry_A
C6 H6 O2 0.95 2.43 3.360(5) 166.1 2_566
C8 H8 F4 0.95 2.64 3.353(5) 132.3 .
C8 H8 O1 0.95 2.56 3.363(5) 141.9 .
C12 H12 O3 0.95 2.44 3.283(5) 148.3 1_545
C13 H13A O2 0.98 2.41 3.310(5) 152.1 2_566
C13 H13B O1 0.98 2.61 3.382(5) 136.0 2_666
C13 H13C O3 0.98 2.45 3.317(5) 147.9 1_545
C6 H6 O2 0.95 2.43 3.360(5) 166.1 2_566
C8 H8 F4 0.95 2.64 3.353(5) 132.3 .
C8 H8 O1 0.95 2.56 3.363(5) 141.9 .
C12 H12 O3 0.95 2.44 3.283(5) 148.3 1_545
C13 H13A O2 0.98 2.41 3.310(5) 152.1 2_566
C13 H13B O1 0.98 2.61 3.382(5) 136.0 2_666
C13 H13C O3 0.98 2.45 3.317(5) 147.9 1_545
loop_
_geom_torsion_atom_site_label_1
_geom_torsion_atom_site_label_2
_geom_torsion_atom_site_label_3
_geom_torsion_atom_site_label_4
_geom_torsion
_geom_torsion_site_symmetry_4
C13 P1 C1 C2 -127.6(3) .
C7 P1 C1 C2 -2.5(3) .
C14 P1 C1 C2 114.9(3) .
C13 P1 C1 C6 51.2(3) .
C7 P1 C1 C6 176.2(3) .
C14 P1 C1 C6 -66.3(3) .
C6 C1 C2 C3 -1.0(5) .
P1 C1 C2 C3 177.8(3) .
C1 C2 C3 C4 0.6(6) .
C2 C3 C4 C5 -0.1(7) .
C3 C4 C5 C6 0.0(7) .
C4 C5 C6 C1 -0.4(6) .
C2 C1 C6 C5 0.8(5) .
P1 C1 C6 C5 -177.9(3) .
C13 P1 C7 C8 -137.6(3) .
C1 P1 C7 C8 96.5(3) .
C14 P1 C7 C8 -22.4(3) .
C13 P1 C7 C12 41.1(3) .
C1 P1 C7 C12 -84.7(3) .
C14 P1 C7 C12 156.3(3) .
C12 C7 C8 C9 -0.1(6) .
P1 C7 C8 C9 178.7(3) .
C7 C8 C9 C10 1.1(7) .
C8 C9 C10 C11 -2.1(7) .
C9 C10 C11 C12 1.9(7) .
C10 C11 C12 C7 -0.9(6) .
C8 C7 C12 C11 0.0(6) .
P1 C7 C12 C11 -178.8(3) .
C13 P1 C14 C15 -120.9(4) .
C1 P1 C14 C15 0.3(4) .
C7 P1 C14 C15 121.0(4) .
C13 P1 C14 F1 58.5(3) .
C1 P1 C14 F1 179.7(2) .
C7 P1 C14 F1 -59.6(3) .
F1 C14 C15 C15 -3.2(6) 2_566
P1 C14 C15 C15 176.1(3) 2_566
F3 C16 S1 O1 174.7(3) .
F4 C16 S1 O1 55.0(4) .
F2 C16 S1 O1 -64.5(4) .
F3 C16 S1 O3 -64.6(4) .
F4 C16 S1 O3 175.7(3) .
F2 C16 S1 O3 56.2(4) .
F3 C16 S1 O2 54.1(4) .
F4 C16 S1 O2 -65.6(4) .
F2 C16 S1 O2 174.9(4) .
