#------------------------------------------------------------------------------
#$Date: 2017-03-04 06:52:25 +0200 (Sat, 04 Mar 2017) $
#$Revision: 193086 $
#$URL: file:///home/coder/svn-repositories/cod/cif/4/12/56/4125689.cif $
#------------------------------------------------------------------------------
#
# This file is available in the Crystallography Open Database (COD),
# http://www.crystallography.net/
#
# All data on this site have been placed in the public domain by the
# contributors.
#
data_4125689
loop_
_publ_author_name
'Lopchuk, Justin M.'
'Fjelbye, Kasper'
'Kawamata, Yu'
'Malins, Lara R.'
'Pan, Chung-Mao'
'Gianatassio, Ryan'
'Wang, Jie'
'Prieto, Liher'
'Bradow, James'
'Brandt, Thomas A.'
'Collins, Michael R.'
'Elleraas, Jeff'
'Ewanicki, Jason'
'Farrell, William'
'Fadeyi, Olugbeminiyi O.'
'Gallego, Gary M.'
'Mousseau, James J.'
'Oliver, Robert'
'Sach, Neal W.'
'Smith, Jason K.'
'Spangler, Jillian E.'
'Zhu, Huichin'
'Zhu, Jinjiang'
'Baran, Phil S.'
_publ_section_title
;
 Strain-Release Heteroatom Functionalization: Development, Scope, and
 Stereospecificity.
;
_journal_issue                   8
_journal_name_full               'Journal of the American Chemical Society'
_journal_page_first              3209
_journal_page_last               3226
_journal_paper_doi               10.1021/jacs.6b13229
_journal_volume                  139
_journal_year                    2017
_chemical_absolute_configuration ad
_chemical_formula_moiety         'C12 H11 F3 O2 S'
_chemical_formula_sum            'C12 H11 F3 O2 S'
_chemical_formula_weight         276.27
_space_group_crystal_system      triclinic
_space_group_IT_number           1
_space_group_name_Hall           'P 1'
_space_group_name_H-M_alt        'P 1'
_symmetry_space_group_name_Hall  'P 1'
_symmetry_space_group_name_H-M   'P 1'
_atom_sites_solution_hydrogens   geom
_atom_sites_solution_primary     dual
_audit_creation_date             2016-08-31
_audit_creation_method
;
Olex2 1.2-beta
(compiled 2016.08.25 svn.r3337 for OlexSys, GUI svn.r5221)
;
_cell_angle_alpha                104.903(4)
_cell_angle_beta                 109.324(3)
_cell_angle_gamma                99.177(3)
_cell_formula_units_Z            2
_cell_length_a                   7.9193(11)
_cell_length_b                   8.1426(12)
_cell_length_c                   10.5945(18)
_cell_measurement_reflns_used    3947
_cell_measurement_temperature    100
_cell_measurement_theta_max      26.409
_cell_measurement_theta_min      2.160
_cell_volume                     600.17(16)
_computing_cell_refinement       'SAINT v8.34A (Bruker, 2013)'
_computing_data_collection       'APEX2 v2013.6-2 (Bruker, 2013)'
_computing_data_reduction        'SAINT v8.34A (Bruker, 2013)'
_computing_molecular_graphics    'Olex2 (Dolomanov et al., 2009)'
_computing_publication_material  'Olex2 (Dolomanov et al., 2009)'
_computing_structure_refinement  'XL (Sheldrick, 2008)'
_computing_structure_solution    'ShelXT (Sheldrick, 2015)'
_diffrn_ambient_temperature      100
_diffrn_detector                 'Bruker APEX CCD'
_diffrn_detector_area_resol_mean 8.0
_diffrn_detector_type            'CCD Area Detector'
_diffrn_measured_fraction_theta_full 0.999
_diffrn_measured_fraction_theta_max 0.992
_diffrn_measurement_device       'Kappa Four-Circle Diffractometer'
_diffrn_measurement_device_type  'Bruker APEX-II CCD'
_diffrn_measurement_method       '\f and \w scans'
_diffrn_radiation_monochromator  graphite
_diffrn_radiation_probe          x-ray
_diffrn_radiation_type           MoK\a
_diffrn_radiation_wavelength     0.71073
_diffrn_reflns_av_R_equivalents  0.0224
_diffrn_reflns_av_unetI/netI     0.0368
_diffrn_reflns_Laue_measured_fraction_full 0.999
_diffrn_reflns_Laue_measured_fraction_max 0.992
_diffrn_reflns_limit_h_max       9
_diffrn_reflns_limit_h_min       -9
_diffrn_reflns_limit_k_max       10
_diffrn_reflns_limit_k_min       -10
_diffrn_reflns_limit_l_max       13
_diffrn_reflns_limit_l_min       -13
_diffrn_reflns_number            8224
_diffrn_reflns_point_group_measured_fraction_full 0.970
_diffrn_reflns_point_group_measured_fraction_max 0.953
_diffrn_reflns_theta_full        25.242
_diffrn_reflns_theta_max         26.442
_diffrn_reflns_theta_min         2.687
_diffrn_source                   'sealed tube'
_diffrn_source_type              fine-focus
_diffrn_standards_number         0
_exptl_absorpt_coefficient_mu    0.299
_exptl_absorpt_correction_T_max  0.4908
_exptl_absorpt_correction_T_min  0.4544
_exptl_absorpt_correction_type   multi-scan
_exptl_absorpt_process_details
;
SADABS-2014/5 (Bruker,2014/5) was used for absorption correction.
wR2(int) was 0.0448 before and 0.0395 after correction.
The Ratio of minimum to maximum transmission is 0.9258.
The \l/2 correction factor is 0.00150.
;
_exptl_crystal_colour            colourless
_exptl_crystal_colour_primary    colourless
_exptl_crystal_density_diffrn    1.529
_exptl_crystal_description       block
_exptl_crystal_F_000             284
_exptl_crystal_size_max          0.3
_exptl_crystal_size_mid          0.26
_exptl_crystal_size_min          0.23
_refine_diff_density_max         0.309
_refine_diff_density_min         -0.325
_refine_diff_density_rms         0.044
_refine_ls_abs_structure_details
;
 Flack x determined using 1876 quotients [(I+)-(I-)]/[(I+)+(I-)]
 (Parsons, Flack and Wagner, Acta Cryst. B69 (2013) 249-259).
;
_refine_ls_abs_structure_Flack   0.00(4)
_refine_ls_extinction_method     none
_refine_ls_goodness_of_fit_ref   1.025
_refine_ls_hydrogen_treatment    constr
_refine_ls_matrix_type           full
_refine_ls_number_parameters     344
_refine_ls_number_reflns         4709
_refine_ls_number_restraints     3
_refine_ls_restrained_S_all      1.024
_refine_ls_R_factor_all          0.0390
_refine_ls_R_factor_gt           0.0335
_refine_ls_shift/su_max          0.000
_refine_ls_shift/su_mean         0.000
_refine_ls_structure_factor_coef Fsqd
_refine_ls_weighting_details
'w=1/[\s^2^(Fo^2^)+(0.0356P)^2^+0.2073P] where P=(Fo^2^+2Fc^2^)/3'
_refine_ls_weighting_scheme      calc
_refine_ls_wR_factor_gt          0.0794
_refine_ls_wR_factor_ref         0.0829
_reflns_Friedel_coverage         0.922
_reflns_Friedel_fraction_full    0.941
_reflns_Friedel_fraction_max     0.914
_reflns_number_gt                4260
_reflns_number_total             4709
_reflns_threshold_expression     'I > 2\s(I)'
_cod_data_source_file            ja6b13229_si_020.cif
_cod_data_source_block           baran603_b
_cod_depositor_comments
;
The following automatic conversions were performed:

'_diffrn_radiation_probe' value 'X-ray' changed to 'x-ray' according
to
/home/data/users/saulius/crontab/automatic-downloads/current/ACS/lib/dictionaries/cif_core.dic
dictionary named 'cif_core.dic' version 2.4.2 from 2011-04-26.

Automatic conversion script
Id: cif_fix_values 4973 2017-02-22 13:04:09Z antanas 
;
_cod_database_code               4125689
_shelx_space_group_comment
;
The symmetry employed for this shelxl refinement is uniquely defined
by the following loop, which should always be used as a source of
symmetry information in preference to the above space-group names.
They are only intended as comments.
;
_shelx_estimated_absorpt_t_max   0.934
_shelx_estimated_absorpt_t_min   0.916
_olex2_refinement_description
;
1. Fixed Uiso
 At 1.2 times of:
  All C(H) groups, All C(H,H) groups, All C(H,H,H) groups, All C(H,H,H,H) groups
2. Others
 Sof(H9'A)=Sof(H9'B)=Sof(H12A)=Sof(H12B)=Sof(C10')=Sof(H10')=Sof(C11')=
 Sof(H11A)=Sof(H11B)=1-FVAR(1)
 Sof(H00A)=Sof(H00B)=Sof(H00R)=Sof(C12")=Sof(H01A)=Sof(H01B)=Sof(C11")=
 Sof(H1A)=Sof(H1B)=FVAR(1)
3.a Ternary CH refined with riding coordinates:
 C12'(H00R), C10(H10), C10'(H10')
3.b Secondary CH2 refined with riding coordinates:
 C12(H12C,H12D), C9'(H00A,H00B), C9'(H9'A,H9'B), C12'(H12A,H12B), C9(H9A,H9B),
 C12"(H01A,H01B), C11(H11C,H11D), C11"(H1A,H1B), C11'(H11A,H11B)
3.c Aromatic/amide H refined with riding coordinates:
 C6'(H6'), C6(H6), C7(H7), C7'(H7'), C4'(H4'), C3(H3), C4(H4), C3'(H3')
;
_shelx_res_file
;
    baran603_b.res created by SHELXL-2014/7

TITL baran603_b.res in P1
REM Old TITL baran603 in P1
REM SHELXT solution in P1
REM R1 0.127, Rweak 0.017, Alpha 0.000, Orientation as input
REM Flack x = 0.445 ( 0.049 ) from Parsons' quotients
REM Formula found by SHELXT: C22 O3 F9 S2
CELL 0.71073 7.9193 8.1426 10.5945 104.903 109.324 99.177
ZERR 2 0.0011 0.0012 0.0018 0.004 0.003 0.003
LATT -1
SFAC C H F O S
UNIT 24 22 6 4 2

L.S. 10
PLAN  20
SIZE 0.23 0.26 0.3
TEMP -173.15
FREE C10' C12'
BOND $H
LIST 6
fmap 2
ACTA
REM <olex2.extras>
REM <HklSrc "%.\\baran603.hkl">
REM </olex2.extras>

WGHT    0.035600    0.207300
FVAR       0.33770   0.70012
S1'   5    1.140984    0.473139    0.804957    11.00000    0.02183    0.01921 =
         0.02351    0.01001    0.01226    0.00772
S1    5   -0.172823    0.612519    0.193613    11.00000    0.02180    0.02321 =
         0.02357    0.01083    0.01287    0.00747
O1'   4    1.155649    0.615276    0.925936    11.00000    0.02686    0.01852 =
         0.02571    0.00274    0.00909    0.00357
O2'   4    1.252902    0.505697    0.727008    11.00000    0.02484    0.04353 =
         0.03025    0.02131    0.01511    0.01113
F3    3    0.641554    0.951287    0.738516    11.00000    0.04181    0.04911 =
         0.02366    0.00722    0.00543    0.00681
F1'   3    0.232387    0.131189    0.447203    11.00000    0.02551    0.04564 =
         0.07792    0.03147    0.00616   -0.00246
F2    3    0.731238    0.937050    0.567144    11.00000    0.02700    0.04633 =
         0.03365    0.01330    0.00469    0.00048
F1    3    0.688184    0.712269    0.633533    11.00000    0.04615    0.02610 =
         0.07581    0.01777   -0.01015    0.01597
O2    4   -0.192055    0.468952    0.073729    11.00000    0.02580    0.02471 =
         0.02838    0.00941    0.01271    0.00592
O1    4   -0.290802    0.586898    0.269661    11.00000    0.02468    0.03923 =
         0.03404    0.01735    0.01905    0.01082
C5'   1    0.905035    0.398058    0.685577    11.00000    0.01936    0.01508 =
         0.02386    0.00637    0.00978    0.00349
F2'   3    0.268217    0.352797    0.378276    11.00000    0.03615    0.02469 =
         0.08226    0.02062   -0.00665    0.00932
F3'   3    0.313341    0.112768    0.273481    11.00000    0.04050    0.04995 =
         0.05033   -0.01290   -0.00485    0.00362
C6'   1    0.768169    0.380780    0.738860    11.00000    0.02472    0.01865 =
         0.02545    0.00512    0.01102    0.00280
AFIX  43
H6'   2    0.799544    0.408822    0.837978    11.00000   -1.20000
AFIX   0

C8    1   -0.199804    0.795720    0.141423    11.00000    0.02189    0.02365 =
         0.02514    0.01372    0.01131    0.01150
C2    1    0.420962    0.786500    0.507236    11.00000    0.02737    0.01355 =
         0.02248    0.00918    0.00723    0.00837
C1    1    0.619051    0.845423    0.610647    11.00000    0.03465    0.02079 =
         0.02883    0.00891    0.00743    0.01019
C6    1    0.097165    0.719605    0.459744    11.00000    0.02730    0.02600 =
         0.02622    0.01231    0.01817    0.01107
AFIX  43
H6    2   -0.001453    0.711031    0.491953    11.00000   -1.20000
AFIX   0
C7    1    0.279759    0.773945    0.556518    11.00000    0.03827    0.02023 =
         0.02470    0.01141    0.01669    0.01289
AFIX  43
H7    2    0.307494    0.802139    0.655202    11.00000   -1.20000
AFIX   0

C7'   1    0.583533    0.321427    0.644093    11.00000    0.02227    0.02011 =
         0.03960    0.00889    0.01574    0.00444
AFIX  43
H7'   2    0.487224    0.307490    0.678307    11.00000   -1.20000
AFIX   0
C4'   1    0.862504    0.358150    0.539864    11.00000    0.03163    0.01739 =
         0.02539    0.00631    0.01265    0.00972
AFIX  43
H4'   2    0.958302    0.369822    0.504929    11.00000   -1.20000
AFIX   0

C12   1   -0.238144    0.958341    0.223537    11.00000    0.03593    0.02711 =
         0.04256    0.01558    0.02222    0.01404
AFIX  23
H12C  2   -0.130043    1.063636    0.270397    11.00000   -1.20000
H12D  2   -0.294433    0.937503    0.290615    11.00000   -1.20000
AFIX   0
C3    1    0.383285    0.739793    0.362633    11.00000    0.02428    0.02043 =
         0.02664    0.00735    0.01207    0.00623
AFIX  43
H3    2    0.482132    0.745153    0.330592    11.00000   -1.20000
AFIX   0

C2'   1    0.539801    0.282716    0.500506    11.00000    0.02647    0.01268 =
         0.03808    0.00584    0.01049    0.00532
C9'   1    1.185711    0.122221    0.765923    11.00000    0.02845    0.02008 =
         0.03452    0.00808    0.01520    0.01133
PART 1
AFIX  23
H00A  2    1.308872    0.112995    0.765957    21.00000   -1.20000
H00B  2    1.090521    0.083730    0.668166    21.00000   -1.20000
AFIX  23
PART 0
PART 2
H9'A  2    1.101316    0.013688    0.759152   -21.00000   -1.20000
H9'B  2    1.209087    0.119603    0.679323   -21.00000   -1.20000
AFIX   0

PART 0
C4    1    0.201341    0.685699    0.266320    11.00000    0.02892    0.02421 =
         0.02051    0.00989    0.01460    0.00945
AFIX  43
H4    2    0.172990    0.654153    0.167381    11.00000   -1.20000
AFIX   0

C12'  1    1.129145    0.228775    0.964447    11.00000    0.04516    0.03430 =
         0.02655    0.01655    0.00534   -0.00458
PART 1
AFIX  13
H00R  2    1.032907    0.258080    1.001523    21.00000   -1.20000
AFIX  23
PART 0
PART 2
H12A  2    1.106473    0.320219    1.034193   -21.00000   -1.20000
H12B  2    1.019887    0.124559    0.915722   -21.00000   -1.20000
AFIX   0
PART 0
C3'   1    0.677308    0.301271    0.448088    11.00000    0.03633    0.01875 =
         0.01951    0.00328    0.00572    0.00740
AFIX  43
H3'   2    0.644833    0.274995    0.348985    11.00000   -1.20000
AFIX   0

C9    1   -0.134031    0.833159    0.030811    11.00000    0.03763    0.03040 =
         0.02961    0.01663    0.01545    0.00971
AFIX  23
H9A   2   -0.065882    0.955883    0.050399    11.00000   -1.20000
H9B   2   -0.090431    0.741297   -0.021345    11.00000   -1.20000
AFIX   0
C10   1   -0.336388    0.796284   -0.000394    11.00000    0.03160    0.03613 =
         0.03211    0.01781    0.00233    0.00691
AFIX  13
H10   2   -0.432151    0.689473   -0.075651    11.00000   -1.20000
AFIX   0
C5    1    0.058828    0.678282    0.317794    11.00000    0.02673    0.01692 =
         0.02322    0.01004    0.01343    0.01207

C8'   1    1.188194    0.298842    0.862197    11.00000    0.05253    0.02697 =
         0.02539    0.01187    0.01938    0.01802
C1'   1    0.340228    0.220659    0.400145    11.00000    0.03020    0.01739 =
         0.04170    0.00857    0.00440    0.00547
PART 1
C12"  1    1.126141    0.039299    0.866947    21.00000    0.01848    0.02292 =
         0.03663    0.01544    0.00406    0.00284
AFIX  23
H01A  2    1.218613   -0.014443    0.917764    21.00000   -1.20000
H01B  2    1.001224   -0.045123    0.819662    21.00000   -1.20000
AFIX   0

PART 0
C11   1   -0.380485    0.956397    0.080615    11.00000    0.02551    0.04609 =
         0.06708    0.02957    0.01398    0.01790
AFIX  23
H11C  2   -0.510198    0.932868    0.074089    11.00000   -1.20000
H11D  2   -0.347339    1.063058    0.056016    11.00000   -1.20000
AFIX   0

PART 1
C11"  1    1.329794    0.337827    1.015886    21.00000    0.02020    0.02444 =
         0.03238    0.01034    0.00062    0.00797
AFIX  23
H1A   2    1.428395    0.275257    1.028966    21.00000   -1.20000
H1B   2    1.366671    0.459151    1.083528    21.00000   -1.20000
AFIX   0

PART 0
PART 2
C10'  1    1.330048    0.224318    0.900368   -21.00000    0.02406    0.03394 =
         0.03880    0.01860    0.01307    0.01328
AFIX  13
H10'  2    1.458585    0.279025    0.911134   -21.00000   -1.20000
AFIX   0
C11'  1    1.287049    0.187246    1.021257   -21.00000    0.03387    0.03974 =
         0.03810    0.02101    0.01089    0.01522
AFIX  23
H11A  2    1.270731    0.062856    1.017825   -21.00000   -1.20000
H11B  2    1.371104    0.269811    1.116734   -21.00000   -1.20000
AFIX   0
HKLF 4

REM  baran603_b.res in P1
REM R1 =  0.0335 for    4260 Fo > 4sig(Fo)  and  0.0390 for all    4709 data
REM    344 parameters refined using      3 restraints

END

WGHT      0.0356      0.2071

REM Highest difference peak  0.309,  deepest hole -0.325,  1-sigma level  0.044
Q1    1   1.0149  0.4260  0.7389  11.00000  0.05    0.31
Q2    1  -0.0502  0.6521  0.2606  11.00000  0.05    0.30
Q3    1   0.5091  0.8209  0.5457  11.00000  0.05    0.26
Q4    1  -0.2131  0.8654  0.1900  11.00000  0.05    0.25
Q5    1   1.1923  0.2178  0.8195  11.00000  0.05    0.24
Q6    1  -0.1837  0.7225  0.1707  11.00000  0.05    0.23
Q7    1   0.4533  0.2499  0.4566  11.00000  0.05    0.23
Q8    1   0.1307  0.6642  0.2948  11.00000  0.05    0.22
Q9    1   0.6440  0.8454  0.7315  11.00000  0.05    0.22
Q10   1   0.4047  0.7743  0.4468  11.00000  0.05    0.21
Q11   1   0.9975  0.1749  0.9630  11.00000  0.05    0.21
Q12   1   0.0788  0.6556  0.3824  11.00000  0.05    0.21
Q13   1   0.6692  0.3657  0.6838  11.00000  0.05    0.20
Q14   1   0.5631  0.2637  0.5593  11.00000  0.05    0.20
Q15   1   0.7493  0.8418  0.5556  11.00000  0.05    0.20
Q16   1   1.1675  0.3623  0.8328  11.00000  0.05    0.19
Q17   1   0.2849  0.7572  0.3198  11.00000  0.05    0.19
Q18   1   0.2949  0.6823  0.3248  11.00000  0.05    0.19
Q19   1   0.1889  0.7056  0.4962  11.00000  0.05    0.19
Q20   1   0.8949  0.3692  0.6119  11.00000  0.05    0.19
;
_shelx_res_checksum              51769
_shelx_hkl_file
;
  -1   0   0    3.07    0.16
  -1   0   0    3.12    0.19
  -1   0   0    3.41    0.20
  -1   0   0    3.25    0.19
   1   0   0    3.63    0.21
   1   0   0    3.34    0.19
   1   0   0    3.09    0.16
   1   0   0    3.49    0.16
   1   0   0    3.40    0.19
  -2   0   0  816.61   23.76
  -2   0   0  802.30   23.75
  -2   0   0  801.63   23.83
   2   0   0  916.36   23.96
   2   0   0  873.23   23.89
   2   0   0  813.07   23.73
   2   0   0  846.91   23.83
   2   0   0  833.16   23.91
   2   0   0  799.47   23.72
  -3   0   0   11.92    0.44
  -3   0   0   12.55    0.54
  -3   0   0   12.79    0.53
  -3   0   0   12.51    0.57
   3   0   0   14.16    0.58
   3   0   0   12.45    0.45
   3   0   0   12.81    0.45
  -4   0   0   23.51    0.90
  -4   0   0   23.66    0.77
  -4   0   0   23.65    0.92
   4   0   0   22.70    0.79
   4   0   0   25.55    0.80
  -5   0   0    1.04    0.12
  -5   0   0    0.87    0.20
  -5   0   0    0.59    0.20
   5   0   0    0.95    0.13
   5   0   0    0.88    0.14
  -6   0   0   12.74    0.68
  -6   0   0   12.78    0.72
   6   0   0   12.71    0.53
  -7   0   0    8.55    0.62
  -7   0   0    6.67    0.53
   7   0   0    7.86    0.40
  -8   0   0    0.46    0.30
  -8   0   0    0.78    0.29
  -9   0   0    1.95    0.46
  -9   0   0    2.88    0.50
  -9   1   0   31.89    1.51
  -8   1   0    5.94    0.65
  -8   1   0    4.66    0.53
   7  -1   0    8.98    0.33
  -7   1   0    9.62    0.67
  -7   1   0    9.35    0.58
   6  -1   0    8.50    0.32
   6  -1   0    8.74    0.32
  -6   1   0    8.90    0.58
  -6   1   0    7.94    0.50
   5  -1   0   21.67    0.68
   5  -1   0   21.78    0.68
  -5   1   0   22.13    0.93
  -5   1   0   21.30    0.85
   4  -1   0   32.42    0.96
   4  -1   0   31.85    0.96
  -4   1   0   32.59    1.18
  -4   1   0   32.08    1.11
  -4   1   0   33.86    1.24
   3  -1   0    3.25    0.12
   3  -1   0    3.32    0.21
  -3   1   0    3.14    0.26
  -3   1   0    2.95    0.21
  -3   1   0    2.87    0.25
  -3   1   0    3.69    0.28
   2  -1   0   10.15    0.42
   2  -1   0    9.93    0.35
   2  -1   0   10.50    0.42
   2  -1   0   10.06    0.41
  -2   1   0    9.10    0.41
  -2   1   0    9.05    0.40
  -2   1   0    9.31    0.35
  -2   1   0    9.33    0.41
   1  -1   0   14.83    0.49
   1  -1   0   14.85    0.46
   1  -1   0   14.33    0.50
   1  -1   0   15.38    0.46
   1  -1   0   15.49    0.51
  -1   1   0   14.02    0.50
  -1   1   0   14.44    0.45
  -1   1   0   14.06    0.50
  -1   1   0   14.20    0.49
   0  -1   0   78.93    2.24
   0  -1   0   77.99    2.21
   0  -1   0   72.90    2.22
   0  -1   0   73.34    2.23
   0   1   0   77.42    2.21
   0   1   0   73.94    2.23
   0   1   0   79.07    2.23
   0   1   0   78.86    2.22
  -1  -1   0  504.71   15.13
  -1  -1   0  550.95   15.12
  -1  -1   0  521.57   15.02
  -1  -1   0  531.04   15.03
   1   1   0  529.97   15.13
   1   1   0  543.39   15.07
   1   1   0  520.84   15.04
   1   1   0  526.57   15.08
  -2  -1   0   24.77    0.81
  -2  -1   0   24.07    0.80
  -2  -1   0   23.61    0.84
   2   1   0   23.03    0.80
   2   1   0   23.61    0.73
   2   1   0   25.43    0.85
   2   1   0   24.24    0.84
   2   1   0   22.63    0.81
  -3  -1   0  290.59    8.39
  -3  -1   0  288.32    8.44
  -3  -1   0  288.61    8.46
   3   1   0  294.09    8.32
   3   1   0  298.79    8.41
   3   1   0  288.55    8.39
  -4  -1   0    0.90    0.19
  -4  -1   0    0.99    0.21
  -4  -1   0    1.01    0.16
   4   1   0    0.74    0.14
   4   1   0    0.86    0.16
   4   1   0    0.92    0.12
  -5  -1   0   13.84    0.58
  -5  -1   0   13.16    0.67
  -5  -1   0   13.18    0.69
   5   1   0   13.83    0.60
   5   1   0   13.84    0.59
   5   1   0   13.79    0.53
  -6  -1   0    3.46    0.42
  -6  -1   0    3.92    0.45
   6   1   0    3.88    0.31
  -7  -1   0   23.93    1.16
  -7  -1   0   25.13    1.15
   7   1   0   24.10    0.96
  -8  -1   0    0.67    0.31
  -8  -1   0    1.31    0.34
   8   1   0    0.44    0.18
  -9   2   0   11.37    0.87
   8  -2   0   13.75    0.70
  -8   2   0   13.02    0.84
  -7   2   0    1.22    0.32
  -6   2   0   57.68    2.06
   5  -2   0   10.25    0.48
  -5   2   0   10.60    0.61
  -5   2   0    9.93    0.58
  -5   2   0    9.79    0.57
   4  -2   0    3.79    0.22
  -4   2   0    3.75    0.31
  -4   2   0    3.60    0.31
  -4   2   0    3.62    0.32
   3  -2   0   19.65    0.63
   3  -2   0   19.15    0.59
   3  -2   0   19.93    0.59
  -3   2   0   19.12    0.76
  -3   2   0   19.25    0.77
  -3   2   0   18.54    0.75
   2  -2   0   36.90    1.27
   2  -2   0   39.29    1.29
   2  -2   0   41.89    1.27
   2  -2   0   39.21    1.19
  -2   2   0   39.58    1.26
  -2   2   0   39.80    1.18
  -2   2   0   38.07    1.28
   1  -2   0  508.75   14.71
   1  -2   0  507.03   14.63
   1  -2   0  504.86   14.65
   1  -2   0  512.87   14.64
  -1   2   0  516.74   14.68
  -1   2   0  518.47   14.75
  -1   2   0  533.17   14.73
   0  -2   0   46.44    1.41
   0  -2   0   44.86    1.45
   0  -2   0   47.25    1.46
   0  -2   0   47.39    1.43
   0   2   0   47.28    1.46
   0   2   0   45.07    1.45
   0   2   0   47.60    1.41
   0   2   0   46.75    1.42
  -1  -2   0   31.42    1.00
  -1  -2   0   33.64    1.10
  -1  -2   0   32.58    1.09
   1   2   0   32.44    1.00
   1   2   0   33.38    1.09
   1   2   0   32.13    1.09
   1   2   0   32.58    1.09
  -2  -2   0   22.87    0.83
  -2  -2   0   21.72    0.85
  -2  -2   0   21.14    0.71
   2   2   0   22.81    0.71
   2   2   0   23.31    0.83
   2   2   0   23.55    0.82
   2   2   0   23.36    0.85
  -3  -2   0   32.30    1.22
  -3  -2   0   32.81    1.16
   3   2   0   34.17    1.19
   3   2   0   35.02    1.18
   3   2   0   33.36    1.03
  -4  -2   0   -0.04    0.12
  -4  -2   0   -0.13    0.11
  -4  -2   0   -0.01    0.13
   4   2   0   -0.04    0.10
   4   2   0    0.04    0.06
   4   2   0    0.04    0.10
  -5  -2   0    0.71    0.23
  -5  -2   0    0.72    0.19
  -5  -2   0    1.45    0.27
   5   2   0    1.14    0.22
  -6  -2   0    1.89    0.32
  -6  -2   0    1.64    0.33
   6   2   0    1.77    0.28
  -7  -2   0    9.33    0.67
  -7  -2   0    9.51    0.72
   7   2   0   10.23    0.60
  -8  -2   0   19.79    1.14
   8   2   0   20.89    0.95
  -9   3   0    9.49    0.81
   8  -3   0    5.05    0.49
  -8   3   0    3.78    0.55
   7  -3   0    2.45    0.33
  -7   3   0    2.96    0.45
  -6   3   0   28.50    1.20
  -6   3   0   27.82    1.22
  -6   3   0   26.56    1.20
   5  -3   0    5.06    0.27
  -5   3   0    4.53    0.39
  -5   3   0    5.05    0.42
  -5   3   0    5.40    0.42
   4  -3   0    0.19    0.06
   4  -3   0    0.17    0.05
   4  -3   0    0.11    0.05
  -4   3   0    0.36    0.16
  -4   3   0    0.04    0.13
  -4   3   0    0.30    0.14
   3  -3   0    2.10    0.16
   3  -3   0    2.21    0.11
   3  -3   0    2.13    0.16
  -3   3   0    1.89    0.15
  -3   3   0    1.67    0.22
  -3   3   0    1.72    0.24
   2  -3   0   29.48    0.95
   2  -3   0   26.89    0.98
   2  -3   0   27.88    0.94
  -2   3   0   27.45    0.95
  -2   3   0   28.25    0.94
  -2   3   0   28.60    0.94
  -2   3   0   29.13    1.03
   1  -3   0  199.50    5.98
   1  -3   0  216.13    6.00
   1  -3   0  201.82    5.97
   1  -3   0  208.44    5.92
  -1   3   0  201.51    5.91
  -1   3   0  206.19    5.99
   0  -3   0   29.73    1.08
   0  -3   0   31.98    1.10
   0  -3   0   30.43    1.04
   0  -3   0   30.54    1.02
   0   3   0   31.76    1.02
   0   3   0   33.46    1.05
   0   3   0   30.29    1.09
  -1  -3   0  100.66    2.97
  -1  -3   0   99.05    3.07
  -1  -3   0  102.84    3.10
   1   3   0   97.93    3.10
   1   3   0  104.21    2.98
  -2  -3   0   27.45    1.03
  -2  -3   0   25.89    0.86
  -2  -3   0   26.91    1.01
   2   3   0   25.72    1.01
   2   3   0   26.60    0.85
  -3  -3   0    6.72    0.45
  -3  -3   0    6.92    0.43
  -3  -3   0    6.73    0.29
   3   3   0    5.93    0.41
   3   3   0    6.78    0.28
  -4  -3   0    1.78    0.29
  -4  -3   0    1.25    0.27
   4   3   0    1.37    0.13
   4   3   0    1.98    0.30
  -5  -3   0    0.08    0.20
  -5  -3   0    0.22    0.23
  -5  -3   0    0.72    0.23
   5   3   0    0.49    0.21
  -6  -3   0    0.22    0.20
  -6  -3   0    0.23    0.25
   6   3   0    0.16    0.18
  -7  -3   0    0.44    0.29
  -7  -3   0    0.32    0.32
   7   3   0    0.02    0.18
   9  -4   0    2.22    0.39
   8  -4   0   14.27    0.80
  -8   4   0   15.70    0.94
   7  -4   0   13.44    0.74
  -7   4   0   14.55    0.86
  -7   4   0   14.43    0.87
   6  -4   0    6.83    0.49
  -6   4   0    5.29    0.55
  -6   4   0    5.88    0.50
   5  -4   0   11.21    0.61
   5  -4   0   10.87    0.42
   5  -4   0   12.09    0.41
   5  -4   0   10.99    0.42
  -5   4   0   11.31    0.65
  -5   4   0   11.58    0.64
   4  -4   0    6.98    0.34
   4  -4   0    7.59    0.26
   4  -4   0    7.35    0.34
   4  -4   0    7.42    0.46
  -4   4   0    7.68    0.33
  -4   4   0    6.61    0.47
  -4   4   0    6.84    0.44
   3  -4   0   40.41    1.34
   3  -4   0   39.92    1.42
   3  -4   0   40.92    1.34
   3  -4   0   41.27    1.22
  -3   4   0   41.54    1.33
  -3   4   0   40.21    1.38
  -3   4   0   42.22    1.48
   2  -4   0   25.94    0.96
   2  -4   0   26.48    0.84
   2  -4   0   24.58    0.93
  -2   4   0   26.23    0.93
  -2   4   0   24.31    0.88
   1  -4   0   37.14    1.33
   1  -4   0   42.45    1.40
   1  -4   0   40.31    1.38
   1  -4   0   41.00    1.30
  -1   4   0   39.59    1.38
   0  -4   0    1.17    0.22
   0  -4   0    1.89    0.21
   0  -4   0    1.66    0.21
   0   4   0    1.69    0.25
  -1  -4   0    9.46    0.53
  -1  -4   0    8.99    0.50
  -1  -4   0    9.19    0.42
   1   4   0   10.73    0.44
   1   4   0    9.32    0.53
  -2  -4   0   57.77    2.05
  -2  -4   0   62.99    1.88
  -2  -4   0   61.67    2.06
   2   4   0   61.78    2.08
   2   4   0   60.55    1.87
  -3  -4   0   32.93    1.29
  -3  -4   0   34.14    1.33
  -3  -4   0   32.60    1.07
   3   4   0   33.12    1.30
   3   4   0   33.42    1.07
  -4  -4   0   10.31    0.63
  -4  -4   0    9.81    0.66
   4   4   0    9.65    0.61
  -5  -4   0   11.28    0.78
  -5  -4   0   11.15    0.68
   5   4   0   11.56    0.71
  -6  -4   0    1.31    0.31
  -6  -4   0    1.00    0.36
   6   4   0    1.47    0.34
  -7  -4   0    0.89    0.37
   7   4   0    2.18    0.40
   9  -5   0    0.90    0.32
   8  -5   0    0.13    0.24
  -8   5   0    0.35    0.32
   7  -5   0    1.56    0.34
  -7   5   0    1.82    0.39
  -7   5   0    0.94    0.30
   6  -5   0   31.04    1.01
   6  -5   0   30.96    1.29
  -6   5   0   33.91    1.40
  -6   5   0   30.55    1.32
   5  -5   0    1.20    0.28
   5  -5   0    1.16    0.17
  -5   5   0    1.03    0.24
  -5   5   0    1.06    0.27
   4  -5   0   49.33    1.56
   4  -5   0   45.47    1.53
   4  -5   0   45.96    1.66
  -4   5   0   46.30    1.52
  -4   5   0   46.47    1.62
  -4   5   0   45.63    1.72
   3  -5   0   64.02    1.91
   3  -5   0   64.06    2.07
   3  -5   0   66.51    2.08
   3  -5   0   62.33    2.13
  -3   5   0   65.11    2.05
  -3   5   0   63.50    2.06
  -3   5   0   62.43    2.18
   2  -5   0  130.73    4.02
   2  -5   0  133.25    4.03
   2  -5   0  131.72    3.88
  -2   5   0  129.89    3.90
  -2   5   0  133.98    4.02
   1  -5   0  113.36    3.56
   1  -5   0  120.69    3.53
   1  -5   0  116.43    3.63
  -1   5   0  118.33    3.44
  -1   5   0  114.72    3.63
   0  -5   0   13.29    0.61
   0  -5   0   13.34    0.68
   0  -5   0   12.56    0.58
   0   5   0   12.48    0.66
  -1  -5   0    1.15    0.24
  -1  -5   0    1.33    0.20
  -1  -5   0    1.70    0.30
   1   5   0    1.33    0.26
  -2  -5   0    8.87    0.57
  -2  -5   0    8.84    0.42
  -2  -5   0    8.48    0.57
   2   5   0    8.51    0.57
  -3  -5   0   18.12    0.91
  -3  -5   0   18.50    0.70
  -3  -5   0   18.67    0.94
   3   5   0   20.28    0.97
  -4  -5   0    7.98    0.61
  -4  -5   0    8.05    0.67
   4   5   0    7.21    0.58
  -5  -5   0    6.53    0.70
   5   5   0    5.97    0.63
  -6  -5   0    5.07    0.69
   6   5   0    6.20    0.68
   8  -6   0    0.73    0.30
  -8   6   0    1.17    0.41
   7  -6   0    6.25    0.61
  -7   6   0    7.35    0.71
  -7   6   0    5.83    0.68
   6  -6   0   10.14    0.49
   6  -6   0   10.81    0.72
  -6   6   0   10.30    0.68
  -6   6   0   10.88    0.75
   5  -6   0   27.97    1.24
   5  -6   0   29.09    1.09
  -5   6   0   28.91    1.19
  -5   6   0   31.59    1.34
   4  -6   0    0.01    0.15
   4  -6   0    0.55    0.17
  -4   6   0    0.17    0.15
  -4   6   0    0.18    0.19
   3  -6   0   62.58    2.15
   3  -6   0   63.53    1.97
   3  -6   0   65.21    2.21
  -3   6   0   64.48    2.15
  -3   6   0   66.23    2.08
  -3   6   0   65.98    2.29
   2  -6   0    6.05    0.35
   2  -6   0    6.11    0.44
   2  -6   0    6.91    0.48
  -2   6   0    5.79    0.33
  -2   6   0    6.10    0.44
   1  -6   0   10.89    0.64
   1  -6   0   10.84    0.58
   1  -6   0   10.79    0.55
  -1   6   0   10.91    0.63
  -1   6   0   11.76    0.47
   0  -6   0   50.52    1.86
   0  -6   0   51.96    1.78
   0  -6   0   50.26    1.73
   0   6   0   51.42    1.87
  -1  -6   0    5.83    0.50
  -1  -6   0    6.14    0.39
  -1  -6   0    6.09    0.49
   1   6   0    4.80    0.52
  -2  -6   0   24.74    1.16
  -2  -6   0   26.23    0.95
  -2  -6   0   25.09    1.14
   2   6   0   24.76    1.17
  -3  -6   0    2.26    0.41
  -3  -6   0    1.74    0.37
   3   6   0    2.07    0.40
  -4  -6   0    0.73    0.31
  -4  -6   0    0.33    0.33
   4   6   0    1.12    0.33
  -5  -6   0    1.86    0.43
   5   6   0    1.81    0.41
   8  -7   0    1.98    0.45
  -8   7   0    2.02    0.49
   7  -7   0   38.68    1.64
  -7   7   0   37.02    1.60
  -7   7   0   37.74    1.71
   6  -7   0    3.83    0.51
   6  -7   0    3.76    0.36
  -6   7   0    3.66    0.55
  -6   7   0    4.02    0.49
   5  -7   0    2.73    0.42
   5  -7   0    2.63    0.34
  -5   7   0    2.64    0.35
  -5   7   0    2.49    0.44
   4  -7   0    1.14    0.26
   4  -7   0    1.12    0.29
  -4   7   0    1.82    0.38
  -4   7   0    1.70    0.26
   3  -7   0   18.79    0.92
   3  -7   0   18.26    0.89
  -3   7   0   18.82    0.81
  -3   7   0   18.29    0.98
  -3   7   0   19.31    0.89
   2  -7   0   17.24    0.74
   2  -7   0   16.63    0.86
   2  -7   0   18.18    0.85
  -2   7   0   16.50    0.86
   1  -7   0    6.61    0.54
   1  -7   0    7.37    0.50
   1  -7   0    6.80    0.46
  -1   7   0    6.98    0.55
   0  -7   0    8.07    0.52
   0  -7   0    8.68    0.63
   0  -7   0    8.42    0.55
   0   7   0    7.26    0.59
  -1  -7   0    2.08    0.38
  -1  -7   0    2.30    0.31
  -1  -7   0    1.73    0.32
   1   7   0    2.11    0.40
  -2  -7   0    3.58    0.51
  -2  -7   0    4.24    0.55
   2   7   0    3.66    0.53
  -3  -7   0   11.88    0.84
  -3  -7   0   14.27    0.93
   3   7   0   13.29    0.89
  -4  -7   0    9.59    0.81
   4   7   0    8.86    0.76
   7  -8   0    1.59    0.44
  -7   8   0    0.98    0.40
   6  -8   0   10.03    0.59
   6  -8   0    9.14    0.73
  -6   8   0    9.21    0.79
   5  -8   0    2.32    0.42
   5  -8   0    1.92    0.34
  -5   8   0    2.41    0.47
   4  -8   0    8.92    0.68
   4  -8   0    7.64    0.58
  -4   8   0    7.47    0.67
   3  -8   0   15.46    0.87
   3  -8   0   15.59    0.86
  -3   8   0   16.27    0.96
   2  -8   0   32.88    1.37
   2  -8   0   33.00    1.43
  -2   8   0   33.08    1.43
   1  -8   0   12.68    0.70
   1  -8   0   12.65    0.74
   1  -8   0   12.85    0.83
  -1   8   0   12.72    0.81
   0  -8   0   23.15    1.03
   0  -8   0   23.78    1.21
   0  -8   0   23.21    1.09
   0   8   0   22.76    1.19
  -1  -8   0    2.11    0.44
  -1  -8   0    1.76    0.38
   1   8   0    2.38    0.48
  -2  -8   0   -0.15    0.26
  -2  -8   0    0.25    0.26
   2   8   0   -0.21    0.21
  -3  -8   0    1.29    0.42
  -3  -8   0    0.89    0.38
   3   8   0    2.26    0.48
   5  -9   0    0.25    0.24
   5  -9   0    0.65    0.34
  -5   9   0    0.50    0.33
   4  -9   0    0.67    0.33
   4  -9   0    1.06    0.31
  -4   9   0    0.34    0.33
   3  -9   0   15.76    0.91
   3  -9   0   15.28    0.93
  -3   9   0   14.02    0.97
   2  -9   0    3.75    0.50
   2  -9   0    3.55    0.55
   1  -9   0    3.31    0.53
   1  -9   0    3.42    0.48
  -1   9   0    3.77    0.58
   0  -9   0    9.06    0.69
   0  -9   0    7.36    0.80
   0   9   0    9.38    0.77
  -1  -9   0   28.31    1.48
  -1  -9   0   27.78    1.35
   1   9   0   26.05    1.42
   2 -10   1    6.46    0.68
  -2  -9   1    0.71    0.32
   1   9  -1    2.79    0.53
  -1  -9   1    2.85    0.52
  -1  -9   1    2.98    0.51
   0   9  -1    0.91    0.33
   0  -9   1    1.09    0.33
   0  -9   1    0.94    0.38
  -1   9  -1   12.27    0.86
   1  -9   1   11.46    0.84
   1  -9   1   11.13    0.73
   2  -9   1   -0.06    0.21
   2  -9   1    0.17    0.24
  -3   9  -1   10.16    0.80
   3  -9   1    9.44    0.71
   3  -9   1   10.47    0.75
  -4   9  -1   15.82    1.03
   4  -9   1   17.95    0.95
   4  -9   1   16.40    0.97
  -5   9  -1    1.23    0.37
   5  -9   1    1.02    0.29
   5  -9   1    0.44    0.31
   3   8  -1    8.39    0.85
  -3  -8   1    8.84    0.75
  -3  -8   1    7.62    0.80
   2   8  -1   15.15    1.00
  -2  -8   1   16.90    0.96
  -2  -8   1   15.10    0.96
   1   8  -1    0.68    0.29
  -1  -8   1    0.59    0.31
  -1  -8   1    0.80    0.27
   0   8  -1    0.74    0.30
   0  -8   1    1.26    0.28
   0  -8   1    0.93    0.33
   0  -8   1    0.99    0.28
  -1   8  -1    2.81    0.45
   1  -8   1    2.56    0.40
   1  -8   1    2.70    0.36
   1  -8   1    2.20    0.42
  -2   8  -1   51.39    1.97
   2  -8   1   51.52    1.92
   2  -8   1   52.32    1.99
   2  -8   1   53.89    1.81
  -3   8  -1    1.09    0.34
   3  -8   1    0.63    0.26
   3  -8   1    0.78    0.28
  -4   8  -1   25.83    1.30
   4  -8   1   25.36    1.14
   4  -8   1   28.00    1.25
  -5   8  -1    2.19    0.44
   5  -8   1    1.57    0.29
   5  -8   1    2.14    0.40
  -6   8  -1    5.99    0.71
   6  -8   1    4.67    0.59
   6  -8   1    5.35    0.43
  -7   8  -1   11.34    0.91
   7  -8   1   12.96    0.88
   4   7  -1    0.07    0.25
  -4  -7   1    0.37    0.31
  -4  -7   1    0.75    0.33
   3   7  -1    4.96    0.61
  -3  -7   1    5.55    0.64
  -3  -7   1    5.94    0.63
   2   7  -1   45.83    1.91
  -2  -7   1   49.50    1.90
  -2  -7   1   51.00    1.95
   1   7  -1    4.73    0.56
  -1  -7   1    4.34    0.52
  -1  -7   1    4.96    0.37
  -1  -7   1    5.06    0.52
   0   7  -1    4.91    0.54
   0  -7   1    4.40    0.41
   0  -7   1    4.97    0.56
   0  -7   1    4.33    0.44
  -1   7  -1   24.53    1.12
   1  -7   1   22.72    1.09
   1  -7   1   25.33    1.01
   1  -7   1   26.09    1.05
  -2   7  -1   44.21    1.68
   2  -7   1   45.35    1.53
   2  -7   1   43.04    1.68
   2  -7   1   46.92    1.67
  -3   7  -1    0.84    0.23
  -3   7  -1    0.94    0.30
   3  -7   1    1.01    0.25
   3  -7   1    1.11    0.17
   3  -7   1    1.24    0.28
  -4   7  -1   10.28    0.69
  -4   7  -1    9.58    0.52
   4  -7   1    8.41    0.55
   4  -7   1    9.34    0.66
  -5   7  -1    6.27    0.48
  -5   7  -1    7.04    0.60
   5  -7   1    6.33    0.44
   5  -7   1    7.66    0.59
  -6   7  -1    2.41    0.44
   6  -7   1    2.23    0.42
   6  -7   1    1.82    0.26
  -7   7  -1    0.25    0.29
   7  -7   1    0.41    0.28
   6   6  -1    0.48    0.32
  -6  -6   1   -0.14    0.29
   5   6  -1    7.18    0.74
  -5  -6   1    8.58    0.84
   4   6  -1    4.09    0.53
  -4  -6   1    5.14    0.57
  -4  -6   1    4.09    0.56
   3   6  -1    1.87    0.38
  -3  -6   1    1.41    0.34
  -3  -6   1    2.41    0.40
   2   6  -1   13.99    0.81
  -2  -6   1   14.13    0.77
  -2  -6   1   12.67    0.78
  -2  -6   1   13.95    0.59
   1   6  -1    8.93    0.62
  -1  -6   1    9.27    0.49
  -1  -6   1    9.67    0.60
  -1  -6   1   10.17    0.64
   0   6  -1    1.51    0.29
   0   6  -1    1.28    0.10
   0  -6   1    1.45    0.22
   0  -6   1    1.39    0.24
   0  -6   1    1.00    0.25
  -1   6  -1  114.66    3.64
  -1   6  -1  116.65    3.32
   1  -6   1  114.90    3.51
   1  -6   1  110.75    3.61
   1  -6   1  115.04    3.55
  -2   6  -1    9.11    0.39
  -2   6  -1    7.72    0.51
   2  -6   1    8.28    0.52
   2  -6   1    8.48    0.44
   2  -6   1    8.33    0.53
  -3   6  -1    0.03    0.12
  -3   6  -1    0.02    0.10
  -3   6  -1    0.31    0.21
   3  -6   1    0.46    0.18
   3  -6   1    0.02    0.15
   3  -6   1    0.08    0.12
   3  -6   1    0.09    0.09
  -4   6  -1   26.45    1.03
  -4   6  -1   26.43    1.17
   4  -6   1   24.71    1.10
   4  -6   1   25.36    1.00
   4  -6   1   26.33    0.86
  -5   6  -1   18.63    0.86
  -5   6  -1   18.05    0.93
   5  -6   1   17.01    0.72
   5  -6   1   16.34    0.87
  -6   6  -1    5.17    0.58
   6  -6   1    4.54    0.52
   6  -6   1    4.49    0.30
  -7   6  -1    0.11    0.27
   7  -6   1    0.33    0.24
  -8   6  -1    0.33    0.30
   8  -6   1    0.22    0.24
   6   5  -1    0.86    0.29
  -6  -5   1    0.38    0.30
   5   5  -1    1.59    0.34
  -5  -5   1    1.35    0.35
   4   5  -1    5.24    0.56
  -4  -5   1    4.40    0.49
  -4  -5   1    4.25    0.51
   3   5  -1    0.30    0.19
  -3  -5   1    0.35    0.10
  -3  -5   1    0.65    0.24
  -3  -5   1    0.23    0.20
   2   5  -1    0.73    0.22
   2   5  -1    0.48    0.13
  -2  -5   1    0.69    0.14
  -2  -5   1    0.73    0.22
  -2  -5   1    0.54    0.22
   1   5  -1   31.96    0.99
   1   5  -1   28.46    1.20
  -1  -5   1   31.54    1.07
  -1  -5   1   30.78    1.18
  -1  -5   1   30.78    1.22
   0   5  -1   26.77    1.07
   0  -5   1   26.57    1.01
   0  -5   1   26.98    1.07
   0  -5   1   26.58    0.97
  -1   5  -1  116.49    3.60
  -1   5  -1  112.16    3.37
   1  -5   1  118.25    3.51
   1  -5   1  118.35    3.56
   1  -5   1  116.21    3.60
  -2   5  -1   24.84    0.84
  -2   5  -1   24.70    0.95
   2  -5   1   24.35    0.96
   2  -5   1   24.42    0.85
   2  -5   1   22.00    0.93
   2  -5   1   25.10    0.96
  -3   5  -1    0.52    0.19
  -3   5  -1    0.77    0.17
  -3   5  -1    0.77    0.16
   3  -5   1    0.74    0.19
   3  -5   1    0.51    0.15
   3  -5   1    0.86    0.17
  -4   5  -1    0.63    0.14
  -4   5  -1    0.50    0.17
  -4   5  -1    0.58    0.22
   4  -5   1    0.42    0.13
   4  -5   1    0.39    0.13
  -5   5  -1   33.81    1.31
  -5   5  -1   31.03    1.32
   5  -5   1   32.38    1.09
  -6   5  -1   36.44    1.48
   6  -5   1   34.36    1.10
  -7   5  -1    5.12    0.58
   7  -5   1    4.49    0.51
  -8   5  -1    8.82    0.71
   8  -5   1    7.75    0.64
   7   4  -1    7.44    0.61
  -7  -4   1    7.85    0.81
   6   4  -1    0.80    0.25
  -6  -4   1    0.56    0.29
   5   4  -1   12.77    0.73
  -5  -4   1   12.79    0.79
  -5  -4   1   12.68    0.78
  -5  -4   1   12.71    0.66
   4   4  -1    2.82    0.39
  -4  -4   1    2.88    0.35
  -4  -4   1    2.32    0.36
   3   4  -1    2.45    0.32
  -3  -4   1    2.45    0.33
  -3  -4   1    2.33    0.15
  -3  -4   1    2.15    0.30
   2   4  -1   44.37    1.58
   2   4  -1   47.42    1.44
  -2  -4   1   44.67    1.37
  -2  -4   1   42.08    1.55
  -2  -4   1   42.67    1.56
   1   4  -1    0.14    0.07
   1   4  -1   -0.07    0.11
  -1  -4   1    0.11    0.12
  -1  -4   1    0.49    0.17
  -1  -4   1    0.41    0.11
   0   4  -1   51.02    1.73
   0  -4   1   53.87    1.73
   0  -4   1   49.78    1.63
   0  -4   1   51.75    1.67
  -1   4  -1  117.02    3.40
  -1   4  -1  115.41    3.56
   1  -4   1  118.35    3.56
   1  -4   1  116.25    3.55
   1  -4   1  118.78    3.53
   1  -4   1  118.56    3.48
  -2   4  -1   85.45    2.59
  -2   4  -1   87.43    2.65
   2  -4   1   88.29    2.60
   2  -4   1   87.21    2.65
   2  -4   1   83.55    2.64
  -3   4  -1    9.20    0.51
  -3   4  -1    9.48    0.41
  -3   4  -1    9.15    0.46
   3  -4   1    9.34    0.42
   3  -4   1    8.54    0.41
  -4   4  -1    5.10    0.42
  -4   4  -1    5.12    0.38
  -4   4  -1    5.41    0.26
  -4   4  -1    5.35    0.40
   4  -4   1    5.93    0.28
   4  -4   1    5.23    0.28
   4  -4   1    5.47    0.28
  -5   4  -1   23.75    1.06
  -5   4  -1   22.84    1.00
  -5   4  -1   22.32    1.00
   5  -4   1   22.45    0.74
   5  -4   1   23.07    0.80
   5  -4   1   22.19    0.74
  -6   4  -1   30.43    1.30
  -6   4  -1   31.37    1.36
  -7   4  -1    9.72    0.71
  -7   4  -1   10.89    0.76
  -8   4  -1    2.91    0.53
   8  -4   1    3.22    0.44
   8   3  -1    2.60    0.40
  -8  -3   1    3.27    0.56
   7   3  -1   12.82    0.72
  -7  -3   1   11.78    0.84
   6   3  -1    7.60    0.53
  -6  -3   1    8.83    0.68
  -6  -3   1    7.33    0.51
   5   3  -1   25.94    1.11
  -5  -3   1   28.49    1.20
  -5  -3   1   26.70    1.07
  -5  -3   1   28.38    1.10
   4   3  -1    1.74    0.26
  -4  -3   1    1.45    0.22
  -4  -3   1    1.53    0.25
  -4  -3   1    1.52    0.28
   3   3  -1    5.01    0.37
  -3  -3   1    5.27    0.37
  -3  -3   1    5.27    0.32
  -3  -3   1    5.04    0.40
   2   3  -1   19.20    0.79
   2   3  -1   20.02    0.71
  -2  -3   1   19.27    0.80
  -2  -3   1   20.43    0.80
  -2  -3   1   19.39    0.63
   1   3  -1  124.05    3.71
   1   3  -1  131.51    3.77
   1   3  -1  124.53    3.56
  -1  -3   1  120.63    3.57
  -1  -3   1  118.03    3.69
  -1  -3   1  119.73    3.68
   0   3  -1  179.33    5.23
   0   3  -1  173.24    5.24
   0  -3   1  169.32    5.23
   0  -3   1  179.68    5.20
   0  -3   1  177.97    5.17
   0  -3   1  190.91    5.25
  -1   3  -1  903.51   26.55
  -1   3  -1  933.20   26.54
  -1   3  -1  893.49   26.44
   1  -3   1  938.56   26.43
   1  -3   1  943.40   26.41
   1  -3   1  955.55   26.55
   1  -3   1  939.12   26.42
  -2   3  -1   10.05    0.48
  -2   3  -1   10.35    0.44
  -2   3  -1   10.91    0.43
  -2   3  -1    9.86    0.42
   2  -3   1   11.41    0.45
   2  -3   1    9.93    0.43
   2  -3   1   11.04    0.43
  -3   3  -1   92.16    3.14
  -3   3  -1  107.36    3.34
  -3   3  -1  110.83    3.31
  -3   3  -1  113.30    3.15
  -3   3  -1  107.55    3.30
   3  -3   1  112.56    3.17
   3  -3   1  113.56    3.18
  -4   3  -1    5.67    0.40
  -4   3  -1    5.44    0.42
  -4   3  -1    5.78    0.40
   4  -3   1    5.98    0.30
   4  -3   1    5.38    0.24
   4  -3   1    5.83    0.24
  -5   3  -1    1.86    0.30
  -5   3  -1    1.24    0.27
  -6   3  -1    1.66    0.34
  -6   3  -1    1.61    0.32
  -7   3  -1   18.17    1.00
  -8   3  -1    0.57    0.31
  -9   3  -1   16.15    1.06
   8   2  -1    9.76    0.60
  -8  -2   1    9.92    0.77
   7   2  -1    2.62    0.33
  -7  -2   1    2.39    0.40
  -7  -2   1    1.27    0.30
   6   2  -1    8.24    0.50
  -6  -2   1    8.06    0.60
  -6  -2   1    8.56    0.54
   5   2  -1    6.71    0.25
   5   2  -1    7.34    0.43
   5   2  -1    5.83    0.41
  -5  -2   1    6.21    0.43
  -5  -2   1    6.67    0.48
  -5  -2   1    7.46    0.42
   4   2  -1    5.69    0.20
   4   2  -1    4.93    0.35
   4   2  -1    5.60    0.35
  -4  -2   1    6.11    0.36
  -4  -2   1    6.30    0.36
  -4  -2   1    5.74    0.41
   3   2  -1    7.23    0.38
   3   2  -1    7.42    0.39
  -3  -2   1    6.51    0.37
  -3  -2   1    5.86    0.39
  -3  -2   1    6.40    0.34
   2   2  -1   32.35    1.06
   2   2  -1   30.08    1.06
   2   2  -1   29.10    1.02
  -2  -2   1   30.88    0.90
  -2  -2   1   30.41    1.05
  -2  -2   1   32.13    1.09
  -2  -2   1   32.55    1.02
   1   2  -1   83.04    2.61
   1   2  -1   86.62    2.53
   1   2  -1   90.32    2.62
  -1  -2   1   86.82    2.61
  -1  -2   1   87.06    2.62
  -1  -2   1   87.96    2.62
  -1  -2   1   87.46    2.51
   0   2  -1  648.90   18.89
   0   2  -1  661.87   18.93
   0  -2   1  661.72   18.81
   0  -2   1  667.05   18.82
  -1   2  -1   65.70    2.00
  -1   2  -1   64.62    2.03
  -1   2  -1   67.10    1.98
  -1   2  -1   69.41    2.00
   1  -2   1   66.81    2.04
   1  -2   1   66.63    2.00
   1  -2   1   69.30    1.99
   1  -2   1   66.38    2.00
  -2   2  -1    4.27    0.20
  -2   2  -1    4.42    0.30
  -2   2  -1    3.60    0.26
  -2   2  -1    4.41    0.28
   2  -2   1    4.42    0.22
   2  -2   1    4.15    0.21
   2  -2   1    4.01    0.27
   2  -2   1    4.48    0.27
   2  -2   1    4.66    0.34
  -3   2  -1   16.86    0.72
  -3   2  -1   17.99    0.52
  -3   2  -1   16.96    0.69
   3  -2   1   15.68    0.54
   3  -2   1   16.72    0.55
   3  -2   1   17.05    0.67
   3  -2   1   18.05    0.62
  -4   2  -1   78.16    2.50
  -4   2  -1   76.33    2.45
   4  -2   1   76.12    2.22
   4  -2   1   76.23    2.22
  -5   2  -1    3.46    0.40
   5  -2   1    3.62    0.15
   5  -2   1    3.64    0.15
  -6   2  -1    2.35    0.38
  -7   2  -1   18.67    1.00
  -8   2  -1    8.25    0.71
  -9   2  -1    3.96    0.63
  -9  -1   1   20.40    1.15
   8   1  -1   14.87    0.67
  -8  -1   1   13.72    0.85
  -8  -1   1   13.88    0.84
   7   1  -1    1.35    0.22
  -7  -1   1    1.45    0.32
  -7  -1   1    1.44    0.31
   6   1  -1    4.31    0.31
   6   1  -1    3.34    0.23
  -6  -1   1    3.09    0.37
  -6  -1   1    3.74    0.44
   5   1  -1   76.23    2.38
   5   1  -1   77.28    2.29
   5   1  -1   76.70    2.39
  -5  -1   1   77.71    2.36
  -5  -1   1   79.22    2.47
  -5  -1   1   74.46    2.50
   4   1  -1    2.52    0.20
   4   1  -1    2.87    0.23
  -4  -1   1    2.40    0.32
  -4  -1   1    2.06    0.26
  -4  -1   1    2.73    0.21
  -4  -1   1    2.53    0.26
   3   1  -1   10.56    0.46
   3   1  -1   11.14    0.45
  -3  -1   1   11.35    0.46
  -3  -1   1   10.44    0.50
  -3  -1   1   11.56    0.52
  -3  -1   1   11.47    0.45
   2   1  -1   12.24    0.47
   2   1  -1   12.72    0.50
   2   1  -1   12.77    0.47
   2   1  -1   13.34    0.50
  -2  -1   1   12.32    0.47
  -2  -1   1   12.89    0.47
  -2  -1   1   11.34    0.44
  -2  -1   1   12.29    0.50
  -2  -1   1   11.52    0.48
   1   1  -1   66.19    1.97
   1   1  -1   67.66    1.99
   1   1  -1   67.04    1.99
  -1  -1   1   66.72    1.97
  -1  -1   1   68.52    1.99
   0   1  -1  132.63    3.78
   0   1  -1  127.17    3.81
   0   1  -1  130.86    3.76
   0  -1   1  125.41    3.78
   0  -1   1  133.96    3.76
   0  -1   1  131.36    3.78
  -1   1  -1   93.91    2.63
  -1   1  -1   91.08    2.69
  -1   1  -1   86.54    2.68
  -1   1  -1   89.61    2.64
   1  -1   1   90.77    2.63
   1  -1   1   91.29    2.69
   1  -1   1   91.59    2.65
   1  -1   1   91.74    2.63
  -2   1  -1   40.24    1.33
  -2   1  -1   41.96    1.38
  -2   1  -1   42.34    1.26
  -2   1  -1   43.58    1.26
   2  -1   1   44.87    1.39
   2  -1   1   42.79    1.38
   2  -1   1   41.34    1.27
   2  -1   1   42.98    1.33
   2  -1   1   44.51    1.34
   2  -1   1   42.41    1.27
  -3   1  -1  660.17   18.46
  -3   1  -1  637.26   18.48
  -3   1  -1  672.39   18.40
  -3   1  -1  636.00   18.55
   3  -1   1  640.48   18.49
   3  -1   1  650.14   18.44
   3  -1   1  641.25   18.48
  -4   1  -1    0.26    0.14
  -4   1  -1    0.38    0.14
  -4   1  -1    0.27    0.06
   4  -1   1    0.22    0.07
   4  -1   1    0.15    0.07
  -5   1  -1   11.06    0.63
  -5   1  -1   11.65    0.58
   5  -1   1   11.62    0.43
   5  -1   1   11.16    0.43
  -6   1  -1    1.36    0.27
  -6   1  -1    0.98    0.27
   6  -1   1    1.03    0.14
  -7   1  -1    1.14    0.33
   7  -1   1    1.79    0.17
  -8   1  -1    9.35    0.74
  -9   0   1    7.28    0.73
  -9   0   1    7.25    0.71
  -8   0   1   28.04    1.24
  -8   0   1   27.22    1.25
   7   0  -1   11.36    0.49
   7   0  -1   12.21    0.53
  -7   0   1   10.14    0.64
  -7   0   1   11.79    0.70
   6   0  -1   81.96    2.50
   6   0  -1   79.68    2.52
   6   0  -1   85.30    2.50
  -6   0   1   86.39    2.70
  -6   0   1   80.70    2.70
   5   0  -1   65.29    2.00
   5   0  -1   65.80    2.00
  -5   0   1   68.24    1.96
  -5   0   1   65.71    2.25
  -5   0   1   61.89    2.13
  -5   0   1   67.69    2.16
   4   0  -1   10.75    0.42
   4   0  -1   10.61    0.41
  -4   0   1   10.45    0.50
  -4   0   1   10.79    0.56
  -4   0   1   11.07    0.52
  -4   0   1   10.72    0.39
  -4   0   1   11.74    0.40
   3   0  -1   36.69    1.14
   3   0  -1   36.44    1.13
   3   0  -1   37.78    1.21
   3   0  -1   40.01    1.22
  -3   0   1   36.82    1.27
  -3   0   1   36.65    1.13
  -3   0   1   37.09    1.22
  -3   0   1   37.27    1.21
   2   0  -1  268.94    7.90
   2   0  -1  268.42    7.96
   2   0  -1  291.57    8.01
   2   0  -1  295.83    7.99
   2   0  -1  281.09    7.94
   2   0  -1  271.51    7.94
   2   0  -1  284.57    7.94
  -2   0   1  269.60    7.94
  -2   0   1  279.54    7.94
  -2   0   1  262.04    7.90
  -2   0   1  283.31    7.99
   1   0  -1   24.53    0.75
   1   0  -1   23.03    0.72
   1   0  -1   24.62    0.75
   1   0  -1   22.67    0.72
   1   0  -1   22.86    0.71
  -1   0   1   22.30    0.74
  -1   0   1   23.48    0.72
  -1   0   1   24.57    0.75
  -1   0   1   24.00    0.71
  -1   0   1   24.91    0.72
  -1   0  -1  201.04    5.72
  -1   0  -1  187.95    5.74
  -1   0  -1  194.12    5.72
   1   0   1  196.90    5.72
   1   0   1  209.44    5.75
   1   0   1  202.37    5.72
   1   0   1  206.09    5.72
  -2   0  -1  224.49    6.50
  -2   0  -1  224.96    6.42
  -2   0  -1  226.65    6.42
  -2   0  -1  218.86    6.48
   2   0   1  222.69    6.42
   2   0   1  226.23    6.49
   2   0   1  223.24    6.43
  -3   0  -1  145.02    4.14
  -3   0  -1  135.97    4.25
  -3   0  -1  146.12    4.13
  -3   0  -1  141.79    4.24
   3   0   1  142.47    4.14
   3   0   1  139.99    4.14
  -4   0  -1  187.36    5.39
  -4   0  -1  179.04    5.40
  -4   0  -1  154.61    5.21
   4   0   1  191.73    5.25
   4   0   1  187.72    5.25
  -5   0  -1    0.80    0.23
  -5   0  -1    0.72    0.22
   5   0   1    1.38    0.18
   5   0   1    1.02    0.16
  -6   0  -1   15.89    0.83
  -6   0  -1   16.61    0.86
   6   0   1   16.67    0.67
  -7   0  -1    3.99    0.51
  -7   0  -1    4.68    0.56
   7   0   1    4.91    0.34
  -8   0  -1    7.94    0.66
  -9   1   1    1.14    0.37
  -8   1   1   10.85    0.67
  -8   1   1   11.59    0.76
   7  -1  -1    4.86    0.35
  -7   1   1    4.40    0.50
  -7   1   1    4.98    0.41
   6  -1  -1   46.58    1.55
   6  -1  -1   47.20    1.37
   6  -1  -1   46.87    1.37
  -6   1   1   46.38    1.78
  -6   1   1   45.34    1.68
  -6   1   1   47.18    1.60
   5  -1  -1   33.96    1.00
   5  -1  -1   32.85    1.14
   5  -1  -1   33.12    1.00
  -5   1   1   35.69    1.33
  -5   1   1   33.63    1.25
  -5   1   1   33.32    1.17
   4  -1  -1   21.17    0.76
   4  -1  -1   20.62    0.64
   4  -1  -1   22.39    0.75
  -4   1   1   21.33    0.76
  -4   1   1   20.81    0.83
  -4   1   1   20.33    0.86
  -4   1   1   21.02    0.86
   3  -1  -1    2.44    0.11
   3  -1  -1    2.72    0.16
   3  -1  -1    2.54    0.19
   3  -1  -1    2.38    0.11
   3  -1  -1    2.74    0.22
  -3   1   1    2.44    0.16
  -3   1   1    2.51    0.22
  -3   1   1    2.19    0.25
  -3   1   1    2.11    0.24
   2  -1  -1   67.87    1.98
   2  -1  -1   65.37    1.93
   2  -1  -1   64.18    1.87
   2  -1  -1   65.31    1.96
   2  -1  -1   65.66    1.98
   2  -1  -1   63.94    1.88
  -2   1   1   63.68    1.86
  -2   1   1   60.88    1.97
  -2   1   1   64.41    1.87
   1  -1  -1  540.95   15.36
   1  -1  -1  531.57   15.32
   1  -1  -1  533.37   15.34
  -1   1   1  533.08   15.23
  -1   1   1  543.78   15.33
  -1   1   1  531.62   15.33
  -1   1   1  539.07   15.33
   0  -1  -1   28.25    0.91
   0  -1  -1   29.22    0.91
   0  -1  -1   28.74    0.88
   0  -1  -1   26.88    0.89
   0   1   1   29.41    0.91
   0   1   1   28.69    0.88
   0   1   1   27.78    0.91
   0   1   1   28.25    0.89
  -1  -1  -1   76.17    2.26
  -1  -1  -1   75.84    2.32
  -1  -1  -1   75.63    2.31
  -1  -1  -1   78.27    2.31
   1   1   1   78.64    2.26
   1   1   1   77.48    2.31
   1   1   1   77.72    2.31
   1   1   1   76.20    2.32
  -2  -1  -1   19.08    0.68
  -2  -1  -1   17.86    0.71
  -2  -1  -1   19.65    0.74
  -2  -1  -1   17.79    0.63
   2   1   1   18.78    0.63
   2   1   1   18.41    0.68
   2   1   1   18.18    0.67
  -3  -1  -1  100.94    3.06
  -3  -1  -1   98.61    3.13
  -3  -1  -1  103.71    3.15
   3   1   1   99.20    3.07
   3   1   1  102.58    3.07
   3   1   1  104.89    3.01
  -4  -1  -1   -0.11    0.13
  -4  -1  -1    0.05    0.09
  -4  -1  -1    0.09    0.12
   4   1   1    0.02    0.10
   4   1   1   -0.03    0.07
   4   1   1    0.06    0.08
  -5  -1  -1   41.78    1.55
  -5  -1  -1   40.58    1.56
  -5  -1  -1   41.62    1.41
   5   1   1   42.40    1.44
  -6  -1  -1    3.61    0.46
  -6  -1  -1    3.47    0.45
   6   1   1    3.06    0.33
  -7  -1  -1    8.20    0.66
  -7  -1  -1    8.89    0.67
   7   1   1    8.61    0.52
  -8  -1  -1    7.68    0.77
  -8  -1  -1    7.25    0.75
   8   1   1    6.83    0.48
  -9   2   1    3.01    0.50
   8  -2  -1   14.83    0.73
  -8   2   1   14.78    0.88
   7  -2  -1   17.33    0.77
  -7   2   1   16.82    0.89
  -7   2   1   17.28    0.75
  -7   2   1   16.47    0.95
   6  -2  -1    1.51    0.23
  -6   2   1    1.27    0.19
  -6   2   1    1.77    0.33
  -6   2   1    1.47    0.29
  -6   2   1    1.64    0.31
   5  -2  -1    0.25    0.09
   5  -2  -1    0.08    0.10
  -5   2   1    0.32    0.10
  -5   2   1    0.56    0.19
  -5   2   1    0.09    0.14
  -5   2   1    0.46    0.18
   4  -2  -1   10.22    0.48
   4  -2  -1   11.04    0.35
   4  -2  -1   11.05    0.41
   4  -2  -1   10.78    0.35
  -4   2   1   11.13    0.41
  -4   2   1   10.83    0.55
  -4   2   1   10.81    0.56
  -4   2   1   10.82    0.56
   3  -2  -1    0.41    0.07
   3  -2  -1    0.51    0.13
   3  -2  -1    0.63    0.08
  -3   2   1    0.42    0.14
  -3   2   1    0.47    0.15
  -3   2   1    0.40    0.07
  -3   2   1    0.49    0.07
   2  -2  -1   10.98    0.43
   2  -2  -1   10.79    0.47
   2  -2  -1   11.12    0.43
  -2   2   1   12.09    0.47
  -2   2   1   12.78    0.49
  -2   2   1   10.40    0.50
  -2   2   1   12.26    0.43
  -2   2   1   11.83    0.43
   1  -2  -1  390.75   11.15
   1  -2  -1  387.09   11.15
   1  -2  -1  397.21   11.16
   1  -2  -1  377.52   11.14
  -1   2   1  405.67   11.15
  -1   2   1  397.65   11.15
  -1   2   1  389.65   11.15
  -1   2   1  375.67   11.08
   0  -2  -1   14.83    0.55
   0  -2  -1   14.60    0.59
   0  -2  -1   13.98    0.56
   0  -2  -1   16.55    0.61
   0   2   1   16.12    0.57
   0   2   1   15.99    0.59
   0   2   1   15.19    0.55
   0   2   1   15.25    0.60
  -1  -2  -1   41.50    1.37
  -1  -2  -1   40.79    1.29
  -1  -2  -1   39.34    1.37
   1   2   1   42.86    1.30
   1   2   1   43.03    1.38
   1   2   1   42.40    1.38
  -2  -2  -1   38.91    1.34
  -2  -2  -1   38.52    1.24
  -2  -2  -1   38.10    1.37
   2   2   1   38.35    1.34
   2   2   1   42.70    1.35
   2   2   1   41.03    1.25
  -3  -2  -1    1.11    0.21
  -3  -2  -1    1.16    0.20
   3   2   1    1.28    0.21
   3   2   1    1.26    0.15
   3   2   1    1.62    0.23
  -4  -2  -1    1.22    0.21
  -4  -2  -1    1.15    0.24
  -4  -2  -1    1.36    0.27
   4   2   1    1.32    0.22
   4   2   1    1.41    0.17
   4   2   1    0.95    0.21
  -5  -2  -1    0.12    0.17
  -5  -2  -1    0.16    0.18
   5   2   1    0.31    0.16
  -6  -2  -1    2.60    0.41
  -6  -2  -1    1.57    0.36
   6   2   1    3.12    0.37
  -7  -2  -1    0.22    0.25
  -7  -2  -1    0.13    0.23
   7   2   1    0.21    0.18
   9  -3  -1    1.57    0.34
   8  -3  -1    3.53    0.41
  -8   3   1    3.76    0.56
   7  -3  -1   -0.11    0.13
  -7   3   1    0.05    0.20
  -7   3   1    0.01    0.20
   6  -3  -1    2.47    0.30
  -6   3   1    2.78    0.40
  -6   3   1    2.71    0.39
   5  -3  -1    1.76    0.10
   5  -3  -1    2.51    0.29
   5  -3  -1    1.73    0.10
  -5   3   1    1.53    0.28
  -5   3   1    1.65    0.29
   4  -3  -1   16.61    0.59
   4  -3  -1   17.16    0.60
   4  -3  -1   16.62    0.72
  -4   3   1   16.14    0.76
  -4   3   1   17.94    0.77
  -4   3   1   17.79    0.57
  -4   3   1   17.74    0.57
   3  -3  -1    8.70    0.38
   3  -3  -1    9.34    0.46
   3  -3  -1    9.19    0.40
  -3   3   1    9.24    0.46
  -3   3   1    9.22    0.50
  -3   3   1    8.94    0.38
   2  -3  -1    4.41    0.18
   2  -3  -1    4.62    0.28
   2  -3  -1    3.82    0.28
   2  -3  -1    3.81    0.26
  -2   3   1    3.99    0.27
  -2   3   1    4.22    0.27
  -2   3   1    4.18    0.32
   1  -3  -1    0.27    0.10
   1  -3  -1    0.37    0.13
   1  -3  -1    0.26    0.13
   1  -3  -1    0.36    0.13
  -1   3   1    0.31    0.14
  -1   3   1    0.27    0.09
   0  -3  -1    1.78    0.22
   0  -3  -1    2.45    0.22
   0  -3  -1    2.58    0.24
   0   3   1    2.33    0.26
   0   3   1    2.51    0.20
  -1  -3  -1    4.58    0.27
  -1  -3  -1    4.71    0.34
  -1  -3  -1    3.66    0.30
   1   3   1    4.52    0.25
   1   3   1    3.98    0.33
  -2  -3  -1   19.14    0.68
  -2  -3  -1   18.02    0.81
  -2  -3  -1   19.67    0.82
   2   3   1   19.28    0.68
   2   3   1   18.25    0.80
  -3  -3  -1   10.11    0.59
  -3  -3  -1    9.93    0.43
  -3  -3  -1    9.75    0.56
   3   3   1   10.36    0.57
   3   3   1   10.10    0.43
  -4  -3  -1    0.10    0.16
  -4  -3  -1    0.28    0.19
   4   3   1    0.19    0.15
  -5  -3  -1    5.37    0.59
  -5  -3  -1    7.03    0.54
   5   3   1    5.40    0.53
  -6  -3  -1    0.72    0.31
  -6  -3  -1    1.10    0.31
   6   3   1    1.03    0.28
  -7  -3  -1    1.26    0.39
  -7  -3  -1    1.10    0.33
   7   3   1    0.70    0.26
   9  -4  -1    9.33    0.65
   8  -4  -1    0.75    0.24
  -8   4   1    0.69    0.33
  -8   4   1    1.08    0.35
   7  -4  -1   49.65    1.81
  -7   4   1   50.48    1.95
  -7   4   1   47.99    1.92
   6  -4  -1    2.08    0.12
   6  -4  -1    1.93    0.30
   6  -4  -1    2.01    0.12
  -6   4   1    2.63    0.38
  -6   4   1    1.99    0.36
   5  -4  -1    0.26    0.16
   5  -4  -1    0.31    0.09
   5  -4  -1    0.28    0.09
  -5   4   1    0.24    0.07
  -5   4   1    0.06    0.14
  -5   4   1    0.28    0.19
   4  -4  -1    4.71    0.28
   4  -4  -1    4.92    0.29
   4  -4  -1    4.33    0.35
  -4   4   1    4.52    0.39
  -4   4   1    4.34    0.26
  -4   4   1    4.63    0.35
   3  -4  -1   26.14    1.04
   3  -4  -1   29.20    1.01
   3  -4  -1   27.04    0.99
  -3   4   1   27.77    1.02
  -3   4   1   28.54    0.98
  -3   4   1   26.67    1.09
   2  -4  -1    1.95    0.16
   2  -4  -1    1.37    0.20
   2  -4  -1    1.75    0.23
   2  -4  -1    1.73    0.23
  -2   4   1    2.00    0.24
  -2   4   1    2.17    0.23
   1  -4  -1    8.90    0.41
   1  -4  -1    8.71    0.45
   1  -4  -1    9.41    0.49
  -1   4   1    9.13    0.50
  -1   4   1    9.26    0.42
   0  -4  -1   27.47    0.99
   0  -4  -1   26.11    1.04
   0  -4  -1   26.89    0.97
   0   4   1   27.44    1.06
  -1  -4  -1   47.59    1.64
  -1  -4  -1   47.61    1.67
  -1  -4  -1   46.34    1.53
   1   4   1   48.01    1.68
  -2  -4  -1    9.64    0.45
  -2  -4  -1    9.54    0.58
  -2  -4  -1   10.70    0.60
   2   4   1   10.30    0.59
  -3  -4  -1   16.72    0.81
  -3  -4  -1   15.25    0.61
  -3  -4  -1   15.72    0.82
   3   4   1   14.93    0.79
  -4  -4  -1   11.49    0.69
  -4  -4  -1   11.68    0.74
   4   4   1   11.27    0.69
  -5  -4  -1   13.11    0.83
  -5  -4  -1   11.57    0.73
   5   4   1   11.51    0.73
  -6  -4  -1   17.83    0.97
  -6  -4  -1   16.92    1.05
   6   4   1   17.89    0.98
   9  -5  -1   19.40    1.03
  -9   5   1   17.85    1.13
   8  -5  -1    0.88    0.29
  -8   5   1    1.44    0.39
  -8   5   1    1.08    0.35
   7  -5  -1   51.70    1.91
  -7   5   1   53.20    2.01
  -7   5   1   48.78    2.01
   6  -5  -1    9.94    0.62
   6  -5  -1    9.82    0.43
  -6   5   1    9.55    0.65
  -6   5   1   10.70    0.73
   5  -5  -1    6.85    0.51
   5  -5  -1    7.75    0.40
  -5   5   1    7.66    0.58
  -5   5   1    8.09    0.54
   4  -5  -1    3.10    0.36
   4  -5  -1    3.36    0.28
   4  -5  -1    3.03    0.30
  -4   5   1    2.89    0.39
  -4   5   1    3.32    0.35
  -4   5   1    2.63    0.27
   3  -5  -1   56.75    1.90
   3  -5  -1   59.13    1.92
   3  -5  -1   56.87    1.70
   3  -5  -1   55.64    1.94
  -3   5   1   56.93    1.88
  -3   5   1   56.21    1.88
  -3   5   1   58.66    2.03
   2  -5  -1  142.74    4.36
   2  -5  -1  142.00    4.37
   2  -5  -1  147.86    4.23
  -2   5   1  142.03    4.37
  -2   5   1  142.05    4.27
   1  -5  -1    1.34    0.24
   1  -5  -1    1.65    0.23
   1  -5  -1    1.36    0.23
  -1   5   1    1.52    0.26
   0  -5  -1   96.84    3.12
   0  -5  -1  101.57    3.21
   0  -5  -1  100.63    3.09
   0   5   1  100.18    3.21
  -1  -5  -1   18.55    0.75
  -1  -5  -1   18.38    0.88
  -1  -5  -1   17.35    0.83
   1   5   1   18.03    0.88
  -2  -5  -1    3.19    0.42
  -2  -5  -1    3.61    0.43
  -2  -5  -1    3.83    0.30
   2   5   1    4.67    0.52
  -3  -5  -1   15.80    0.81
  -3  -5  -1   15.63    0.85
  -3  -5  -1   14.46    0.84
   3   5   1   15.68    0.86
  -4  -5  -1    2.89    0.46
  -4  -5  -1    2.48    0.42
   4   5   1    2.98    0.45
  -5  -5  -1    2.45    0.46
   5   5   1    3.61    0.53
  -6  -5  -1    1.15    0.44
   6   5   1    0.62    0.33
   8  -6  -1   -0.11    0.19
  -8   6   1   -0.25    0.24
  -8   6   1    0.00    0.26
   7  -6  -1    0.88    0.32
  -7   6   1    0.84    0.28
  -7   6   1    0.41    0.29
   6  -6  -1   16.71    0.89
   6  -6  -1   15.34    0.66
  -6   6   1   16.39    0.94
  -6   6   1   13.89    0.81
   5  -6  -1    5.61    0.38
   5  -6  -1    4.32    0.48
  -5   6   1    4.58    0.55
  -5   6   1    4.53    0.46
   4  -6  -1    1.62    0.30
   4  -6  -1    1.33    0.25
  -4   6   1    1.21    0.31
  -4   6   1    2.12    0.29
   3  -6  -1    0.31    0.10
   3  -6  -1    0.69    0.22
   3  -6  -1    0.35    0.19
  -3   6   1    0.23    0.21
  -3   6   1    0.42    0.19
  -3   6   1    0.36    0.15
   2  -6  -1   83.54    2.54
   2  -6  -1   82.06    2.71
   2  -6  -1   81.74    2.68
  -2   6   1   80.88    2.71
  -2   6   1   81.48    2.55
   1  -6  -1   22.13    0.95
   1  -6  -1   23.25    1.03
   1  -6  -1   22.24    0.91
  -1   6   1   21.54    1.00
   0  -6  -1   22.08    0.96
   0  -6  -1   21.78    0.91
   0  -6  -1   21.66    1.04
   0   6   1   21.65    1.02
  -1  -6  -1   46.50    1.80
  -1  -6  -1   43.57    1.71
  -1  -6  -1   47.47    1.60
   1   6   1   46.54    1.79
  -2  -6  -1   13.13    0.78
  -2  -6  -1   13.13    0.81
  -2  -6  -1   12.86    0.63
   2   6   1   13.04    0.82
  -3  -6  -1   10.14    0.76
  -3  -6  -1   10.78    0.75
   3   6   1    9.58    0.74
  -4  -6  -1   25.80    1.32
   4   6   1   25.20    1.30
  -5  -6  -1    0.24    0.32
   5   6   1    0.73    0.34
   8  -7  -1    3.79    0.55
  -8   7   1    4.42    0.62
  -8   7   1    4.61    0.69
   7  -7  -1    7.76    0.46
   7  -7  -1    9.60    0.84
  -7   7   1    7.89    0.65
  -7   7   1    7.46    0.80
   6  -7  -1    8.28    0.50
   6  -7  -1    8.03    0.65
  -6   7   1    8.71    0.85
  -6   7   1    8.45    0.60
   5  -7  -1    7.51    0.50
   5  -7  -1    8.01    0.63
  -5   7   1    7.26    0.53
  -5   7   1    6.98    0.72
   4  -7  -1    0.29    0.21
   4  -7  -1    0.61    0.21
  -4   7   1   -0.02    0.14
  -4   7   1    0.11    0.23
   3  -7  -1    6.00    0.56
   3  -7  -1    4.52    0.49
  -3   7   1    4.58    0.35
  -3   7   1    5.71    0.62
  -3   7   1    4.44    0.47
   2  -7  -1    4.75    0.36
   2  -7  -1    5.23    0.52
   2  -7  -1    4.33    0.50
  -2   7   1    5.37    0.54
   1  -7  -1   20.95    0.89
   1  -7  -1   18.60    0.99
   1  -7  -1   19.67    0.91
  -1   7   1   19.44    1.01
   0  -7  -1    5.85    0.54
   0  -7  -1    5.50    0.61
   0  -7  -1    6.18    0.47
   0   7   1    5.64    0.60
  -1  -7  -1   39.48    1.69
  -1  -7  -1   40.29    1.46
  -1  -7  -1   39.58    1.60
   1   7   1   37.97    1.66
  -2  -7  -1   -0.11    0.23
  -2  -7  -1   -0.10    0.23
   2   7   1    0.22    0.28
  -3  -7  -1    3.77    0.56
  -3  -7  -1    2.25    0.44
   3   7   1    3.38    0.56
  -4  -7  -1    0.61    0.34
   4   7   1    1.46    0.63
   7  -8  -1    2.69    0.34
   7  -8  -1    3.01    0.52
  -7   8   1    1.90    0.48
   6  -8  -1   -0.07    0.16
   6  -8  -1   -0.01    0.23
  -6   8   1    0.30    0.35
   5  -8  -1    3.66    0.53
   5  -8  -1    2.71    0.39
  -5   8   1    3.36    0.55
   4  -8  -1   11.11    0.76
   4  -8  -1   10.13    0.69
  -4   8   1   10.44    0.80
   3  -8  -1    3.51    0.49
   3  -8  -1    2.54    0.42
  -3   8   1    2.20    0.44
   2  -8  -1    8.20    0.65
   2  -8  -1    8.95    0.63
  -2   8   1    8.37    0.65
   1  -8  -1    1.06    0.33
   1  -8  -1    1.68    0.32
   1  -8  -1    3.11    0.43
  -1   8   1    1.73    0.40
   0  -8  -1    2.00    0.36
   0  -8  -1    1.73    0.40
   0  -8  -1    1.80    0.34
   0   8   1    2.02    0.42
  -1  -8  -1    8.76    0.71
  -1  -8  -1    7.61    0.79
   1   8   1    9.21    0.75
  -2  -8  -1    2.91    0.48
  -2  -8  -1    3.54    0.56
   2   8   1    3.32    0.56
   5  -9  -1   10.30    0.74
   5  -9  -1   12.01    0.85
  -5   9   1   11.63    0.91
   4  -9  -1    3.56    0.50
   4  -9  -1    3.76    0.55
  -4   9   1    4.28    0.62
   3  -9  -1    0.00    0.25
   3  -9  -1    0.03    0.26
  -3   9   1    0.45    0.34
   2  -9  -1    6.61    0.72
   2  -9  -1    8.61    0.67
   1  -9  -1    0.66    0.29
   1  -9  -1   -0.20    0.23
  -1   9   1    0.23    0.32
   0  -9  -1    0.47    0.44
   0  -9  -1    0.86    0.38
   0   9   1    1.59    0.43
   1 -10   2    1.29    0.46
   1 -10   2    2.02    0.43
   2 -10   2   27.59    1.30
   2 -10   2   26.67    1.39
  -3  10  -2    2.42    0.54
   3 -10   2    2.11    0.43
   3 -10   2    2.92    0.50
   2   9  -2   17.18    1.11
  -2  -9   2   16.80    1.08
   1   9  -2   11.64    0.86
  -1  -9   2    9.91    0.74
  -1  -9   2   11.95    0.86
   0   9  -2    1.56    0.39
   0  -9   2    0.99    0.30
   0  -9   2    1.20    0.33
   0  -9   2    0.66    0.36
  -1   9  -2   15.34    0.97
   1  -9   2   16.48    0.88
   1  -9   2   16.78    0.88
   1  -9   2   16.67    0.99
   2  -9   2   38.32    1.57
   2  -9   2   36.95    1.63
  -3   9  -2   -0.16    0.22
   3  -9   2    0.19    0.24
   3  -9   2    1.03    0.34
  -4   9  -2    4.39    0.61
   4  -9   2    3.30    0.47
   4  -9   2    4.14    0.54
  -5   9  -2   17.67    1.09
   5  -9   2   18.98    1.07
   5  -9   2   19.04    0.96
   4   8  -2    2.34    0.51
  -4  -8   2    1.92    0.45
  -4  -8   2    1.62    0.44
   3   8  -2    0.18    0.28
  -3  -8   2    0.25    0.27
  -3  -8   2    0.50    0.29
   2   8  -2    2.12    0.44
  -2  -8   2    1.58    0.40
  -2  -8   2    2.25    0.45
   1   8  -2    8.08    0.78
  -1  -8   2    6.26    0.63
  -1  -8   2    6.07    0.66
   0   8  -2    9.61    0.74
   0  -8   2   10.04    0.74
   0  -8   2   10.09    0.60
   0  -8   2   10.07    0.66
  -1   8  -2   65.78    2.39
   1  -8   2   63.49    2.36
   1  -8   2   65.76    2.23
   1  -8   2   64.51    2.25
  -2   8  -2   15.74    0.89
   2  -8   2   17.13    0.88
   2  -8   2   16.37    0.77
   2  -8   2   16.28    0.90
  -3   8  -2    1.27    0.35
   3  -8   2    2.00    0.39
   3  -8   2    1.60    0.32
  -4   8  -2    1.89    0.41
   4  -8   2    2.06    0.35
   4  -8   2    1.81    0.38
  -5   8  -2   18.54    1.06
   5  -8   2   18.10    0.88
   5  -8   2   19.68    1.03
  -6   8  -2    6.60    0.71
   6  -8   2    6.03    0.46
   6  -8   2    6.75    0.69
  -7   8  -2    1.30    0.42
   5   7  -2    6.96    0.76
  -5  -7   2    7.26    0.79
   4   7  -2   42.68    1.85
  -4  -7   2   42.94    1.82
  -4  -7   2   44.08    1.86
   3   7  -2    1.36    0.37
  -3  -7   2    1.43    0.37
  -3  -7   2    1.08    0.32
   2   7  -2    7.67    0.66
  -2  -7   2    6.55    0.57
  -2  -7   2    7.02    0.69
   1   7  -2    3.42    0.47
  -1  -7   2    3.02    0.40
  -1  -7   2    2.45    0.41
  -1  -7   2    3.03    0.32
   0   7  -2    1.96    0.37
   0  -7   2    2.09    0.30
   0  -7   2    2.39    0.35
   0  -7   2    2.06    0.37
  -1   7  -2    2.02    0.35
   1  -7   2    1.26    0.29
   1  -7   2    1.43    0.27
   1  -7   2    1.77    0.28
  -2   7  -2    0.68    0.24
   2  -7   2    0.46    0.21
   2  -7   2    0.69    0.18
   2  -7   2    0.71    0.24
  -3   7  -2    6.91    0.58
   3  -7   2    6.80    0.39
   3  -7   2    5.78    0.55
   3  -7   2    7.26    0.51
  -4   7  -2   10.21    0.69
   4  -7   2   10.04    0.68
   4  -7   2   10.58    0.59
  -5   7  -2    3.65    0.51
   5  -7   2    3.85    0.38
   5  -7   2    3.36    0.46
  -6   7  -2    5.18    0.62
   6  -7   2    4.21    0.34
   6  -7   2    5.25    0.58
  -7   7  -2    0.68    0.34
   7  -7   2    0.57    0.30
   6   6  -2   16.26    1.02
  -6  -6   2   19.15    1.14
   5   6  -2    1.93    0.41
  -5  -6   2    1.65    0.42
   4   6  -2   29.55    1.35
  -4  -6   2   28.84    1.32
  -4  -6   2   29.09    1.34
   3   6  -2   15.85    0.86
  -3  -6   2   15.03    0.84
  -3  -6   2   12.45    0.79
   2   6  -2    2.02    0.36
  -2  -6   2    2.46    0.38
  -2  -6   2    2.54    0.25
  -2  -6   2    2.57    0.37
   1   6  -2    6.71    0.51
  -1  -6   2    6.16    0.38
  -1  -6   2    6.32    0.50
  -1  -6   2    5.89    0.47
   0   6  -2    4.19    0.45
   0  -6   2    3.68    0.34
   0  -6   2    4.38    0.42
   0  -6   2    3.69    0.41
  -1   6  -2   57.58    1.97
   1  -6   2   55.62    1.94
   1  -6   2   54.07    1.84
   1  -6   2   55.73    1.88
  -2   6  -2    6.85    0.45
   2  -6   2    6.31    0.45
   2  -6   2    6.51    0.47
  -3   6  -2    7.04    0.44
  -3   6  -2    6.16    0.48
   3  -6   2    5.44    0.61
   3  -6   2    6.38    0.43
  -4   6  -2   10.17    0.64
   4  -6   2   10.26    0.54
  -5   6  -2    6.71    0.53
   5  -6   2    5.78    0.38
  -6   6  -2   -0.13    0.19
   6  -6   2   -0.05    0.09
  -7   6  -2    0.83    0.33
  -8   6  -2    0.09    0.28
   8  -6   2    0.20    0.25
   7   5  -2    1.27    0.36
  -7  -5   2    2.12    0.49
   6   5  -2    1.04    0.31
  -6  -5   2    1.07    0.36
   5   5  -2   11.92    0.76
  -5  -5   2   11.79    0.79
  -5  -5   2   12.80    0.85
   4   5  -2    0.44    0.22
  -4  -5   2    0.31    0.22
  -4  -5   2    0.27    0.22
   3   5  -2    0.49    0.20
  -3  -5   2    0.50    0.23
  -3  -5   2    0.51    0.20
  -3  -5   2    0.51    0.09
   2   5  -2    5.38    0.43
   2   5  -2    5.19    0.27
  -2  -5   2    4.70    0.41
  -2  -5   2    5.59    0.44
  -2  -5   2    4.60    0.28
   1   5  -2   19.54    0.89
  -1  -5   2   19.25    0.85
  -1  -5   2   20.06    0.89
  -1  -5   2   20.76    0.75
   0   5  -2   12.77    0.65
   0  -5   2   12.34    0.55
   0  -5   2   12.40    0.63
   0  -5   2   11.54    0.57
  -1   5  -2  245.69    7.26
   1  -5   2  246.14    7.26
  -2   5  -2    3.82    0.32
   2  -5   2    4.42    0.33
   2  -5   2    4.25    0.34
   2  -5   2    4.45    0.26
  -3   5  -2   76.97    2.40
  -3   5  -2   76.60    2.51
   3  -5   2   74.79    2.41
   3  -5   2   77.85    2.42
  -4   5  -2   10.91    0.62
  -4   5  -2   11.37    0.49
   4  -5   2   11.29    0.52
   4  -5   2   11.02    0.52
  -5   5  -2   10.49    0.65
  -5   5  -2   10.34    0.69
   5  -5   2   10.46    0.46
  -6   5  -2    0.63    0.26
  -6   5  -2    0.80    0.29
   6  -5   2    0.35    0.09
  -7   5  -2    1.97    0.47
  -7   5  -2    1.95    0.39
  -8   5  -2    1.93    0.46
   7   4  -2    0.77    0.28
  -7  -4   2    0.49    0.31
   6   4  -2    2.79    0.40
  -6  -4   2    3.01    0.46
   5   4  -2    4.67    0.49
  -5  -4   2    6.16    0.53
  -5  -4   2    6.80    0.51
  -5  -4   2    5.55    0.38
   4   4  -2    1.83    0.30
  -4  -4   2    1.79    0.30
  -4  -4   2    1.56    0.31
   3   4  -2    5.55    0.42
  -3  -4   2    5.72    0.21
  -3  -4   2    6.64    0.44
  -3  -4   2    5.70    0.43
   2   4  -2    4.79    0.25
   2   4  -2    4.11    0.35
  -2  -4   2    4.29    0.35
  -2  -4   2    4.19    0.22
  -2  -4   2    3.39    0.36
   1   4  -2    1.45    0.23
  -1  -4   2    1.48    0.16
  -1  -4   2    1.37    0.23
  -1  -4   2    1.40    0.21
   0   4  -2   33.03    1.24
   0  -4   2   37.25    1.19
   0  -4   2   34.99    1.25
   1  -4   2    4.81    0.21
   1  -4   2    5.15    0.33
   1  -4   2    4.48    0.33
  -2   4  -2  118.88    3.66
   2  -4   2  121.75    3.57
   2  -4   2  126.01    3.63
   2  -4   2  114.85    3.60
  -3   4  -2   22.20    0.94
  -3   4  -2   22.33    0.80
  -3   4  -2   21.08    0.88
   3  -4   2   24.23    0.82
   3  -4   2   22.04    0.81
  -4   4  -2  245.89    6.90
  -4   4  -2  238.66    7.10
  -4   4  -2  233.89    7.19
   4  -4   2  237.26    6.93
   4  -4   2  242.02    6.93
  -5   4  -2    1.23    0.28
  -5   4  -2    1.27    0.25
   5  -4   2    0.88    0.12
   5  -4   2    1.11    0.13
  -6   4  -2   12.42    0.71
  -6   4  -2   11.28    0.76
   6  -4   2   12.50    0.41
  -7   4  -2    0.21    0.24
  -8   4  -2    5.20    0.70
   8   3  -2    0.41    0.23
  -8  -3   2    0.54    0.30
   7   3  -2   16.26    0.84
  -7  -3   2   17.51    0.99
   6   3  -2    4.68    0.46
  -6  -3   2    4.17    0.36
  -6  -3   2    3.48    0.47
   5   3  -2  118.35    3.77
  -5  -3   2  120.04    3.85
  -5  -3   2  124.28    3.75
  -5  -3   2  119.39    3.66
   4   3  -2    7.12    0.46
  -4  -3   2    8.73    0.49
  -4  -3   2    7.25    0.49
  -4  -3   2    7.86    0.39
   3   3  -2    4.36    0.34
  -3  -3   2    4.31    0.35
  -3  -3   2    4.93    0.35
   2   3  -2   13.92    0.50
  -2  -3   2   13.17    0.43
  -2  -3   2   12.52    0.59
  -2  -3   2   11.98    0.58
   1   3  -2   51.58    1.69
  -1  -3   2   52.86    1.70
   0   3  -2   11.83    0.52
   0  -3   2   13.05    0.55
   0  -3   2   11.79    0.53
   0  -3   2   12.58    0.48
  -1   3  -2   30.03    1.06
  -1   3  -2   32.58    1.06
   1  -3   2   33.31    1.08
   1  -3   2   31.42    0.98
   1  -3   2   30.99    1.05
   1  -3   2   29.43    1.05
  -2   3  -2   36.36    1.19
  -2   3  -2   37.41    1.29
  -2   3  -2   36.86    1.24
   2  -3   2   37.71    1.21
   2  -3   2   38.33    1.23
   2  -3   2   36.41    1.20
  -3   3  -2    5.49    0.35
  -3   3  -2    5.66    0.40
   3  -3   2    6.59    0.30
   3  -3   2    5.98    0.30
  -4   3  -2   27.80    1.05
  -4   3  -2   27.07    1.13
   4  -3   2   27.02    0.90
   4  -3   2   29.23    0.91
  -5   3  -2   47.49    1.79
  -5   3  -2   47.12    1.69
   5  -3   2   48.38    1.46
   5  -3   2   48.69    1.46
  -6   3  -2    3.70    0.50
  -7   3  -2    9.34    0.74
  -8   3  -2    4.58    0.62
   8   2  -2   24.27    1.03
  -8  -2   2   24.64    1.22
   7   2  -2    3.31    0.36
  -7  -2   2    3.71    0.40
  -7  -2   2    2.86    0.44
   6   2  -2   25.34    1.03
  -6  -2   2   25.97    1.14
  -6  -2   2   26.31    1.03
   5   2  -2   36.36    1.33
   5   2  -2   41.06    1.35
  -5  -2   2   35.44    1.29
  -5  -2   2   36.52    1.41
  -5  -2   2   39.03    1.32
   4   2  -2   61.42    1.90
   4   2  -2   57.84    1.91
  -4  -2   2   57.64    1.89
  -4  -2   2   60.26    1.97
  -4  -2   2   58.61    1.84
  -4  -2   2   57.23    1.96
   3   2  -2    3.32    0.27
   3   2  -2    4.03    0.28
  -3  -2   2    3.53    0.28
  -3  -2   2    3.86    0.21
  -3  -2   2    3.99    0.31
  -3  -2   2    3.50    0.28
   2   2  -2   56.02    1.87
   2   2  -2   61.94    1.89
   2   2  -2   64.75    1.84
  -2  -2   2   60.38    1.72
  -2  -2   2   60.50    1.90
  -2  -2   2   60.21    1.88
  -2  -2   2   56.29    1.82
   1   2  -2    5.79    0.33
   1   2  -2    5.59    0.30
   1   2  -2    5.64    0.31
  -1  -2   2    5.77    0.31
  -1  -2   2    6.05    0.24
  -1  -2   2    5.77    0.21
  -1  -2   2    5.94    0.31
   0   2  -2  761.20   22.47
   0   2  -2  755.39   22.27
   0   2  -2  795.27   22.21
   0   2  -2  765.22   22.21
   0  -2   2  765.85   22.19
   0  -2   2  793.40   22.14
   0  -2   2  800.01   22.25
  -1   2  -2   37.17    1.20
  -1   2  -2   37.92    1.15
  -1   2  -2   34.49    1.24
  -1   2  -2   36.51    1.16
  -1   2  -2   38.14    1.17
   1  -2   2   36.53    1.17
   1  -2   2   37.26    1.17
   1  -2   2   36.61    1.20
  -2   2  -2  219.37    6.07
  -2   2  -2  210.31    6.19
  -2   2  -2  206.87    6.06
  -2   2  -2  205.78    6.09
   2  -2   2  208.67    6.09
   2  -2   2  213.14    6.07
   2  -2   2  209.63    6.07
   2  -2   2  213.01    6.16
  -3   2  -2   11.02    0.56
  -3   2  -2   10.27    0.40
  -3   2  -2   10.96    0.50
  -3   2  -2   11.91    0.42
   3  -2   2   10.98    0.43
   3  -2   2   12.08    0.43
  -4   2  -2    1.74    0.12
  -4   2  -2    1.54    0.27
   4  -2   2    1.55    0.15
   4  -2   2    1.63    0.16
  -5   2  -2    7.84    0.56
   5  -2   2    6.90    0.31
   5  -2   2    6.89    0.31
  -6   2  -2   13.23    0.79
   6  -2   2   13.07    0.48
  -7   2  -2    5.07    0.60
  -8   2  -2   14.15    0.97
  -9  -1   2    9.36    0.75
   8   1  -2   23.64    0.94
  -8  -1   2   24.09    1.16
  -8  -1   2   25.10    1.12
   7   1  -2   38.13    1.35
  -7  -1   2   44.15    1.60
  -7  -1   2   36.16    1.46
   6   1  -2   59.97    1.83
   6   1  -2   61.54    1.95
  -6  -1   2   62.77    2.10
  -6  -1   2   58.62    2.03
  -6  -1   2   60.67    2.18
   5   1  -2   18.57    0.74
   5   1  -2   19.34    0.64
   5   1  -2   19.79    0.73
  -5  -1   2   17.07    0.85
  -5  -1   2   19.79    0.84
  -5  -1   2   19.53    0.78
  -5  -1   2   20.17    0.73
   4   1  -2   27.47    0.94
   4   1  -2   26.42    0.83
   4   1  -2   29.34    0.95
  -4  -1   2   27.56    0.93
  -4  -1   2   24.35    0.98
  -4  -1   2   27.18    1.04
  -4  -1   2   27.51    0.94
   3   1  -2    4.15    0.25
   3   1  -2    4.55    0.17
   3   1  -2    4.89    0.27
   3   1  -2    4.50    0.23
  -3  -1   2    4.46    0.28
  -3  -1   2    3.91    0.25
  -3  -1   2    4.38    0.30
  -3  -1   2    4.29    0.29
  -3  -1   2    4.15    0.23
   2   1  -2  236.14    6.98
   2   1  -2  245.76    7.03
   2   1  -2  242.68    7.03
   2   1  -2  254.64    7.05
   2   1  -2  239.98    6.95
  -2  -1   2  239.56    7.04
  -2  -1   2  255.21    7.04
  -2  -1   2  241.79    6.95
  -2  -1   2  242.40    6.94
  -2  -1   2  244.96    7.03
   1   1  -2   87.72    2.61
   1   1  -2   95.71    2.68
   1   1  -2   93.68    2.68
  -1  -1   2   84.56    2.66
  -1  -1   2   89.63    2.67
  -1  -1   2   91.12    2.62
   0   1  -2   14.50    0.52
   0   1  -2   14.55    0.52
   0   1  -2   14.92    0.50
   0  -1   2   14.75    0.53
   0  -1   2   14.88    0.51
   0  -1   2   14.18    0.52
  -1   1  -2    0.79    0.08
  -1   1  -2    0.52    0.11
  -1   1  -2    0.79    0.14
  -1   1  -2    0.86    0.11
   1  -1   2    0.58    0.10
   1  -1   2    0.62    0.11
   1  -1   2    0.80    0.08
  -2   1  -2    6.28    0.28
  -2   1  -2    6.10    0.28
  -2   1  -2    5.58    0.34
   2  -1   2    5.64    0.28
   2  -1   2    6.26    0.32
   2  -1   2    5.91    0.29
   2  -1   2    6.07    0.28
  -3   1  -2   82.90    2.67
  -3   1  -2   85.78    2.58
   3  -1   2   85.25    2.53
   3  -1   2   88.30    2.88
   3  -1   2   82.28    2.52
  -4   1  -2   29.51    1.17
   4  -1   2   29.79    0.99
   4  -1   2   30.21    0.99
  -5   1  -2   23.81    1.08
   5  -1   2   25.03    0.86
   5  -1   2   25.02    0.87
  -6   1  -2    0.23    0.22
   6  -1   2    0.46    0.13
  -7   1  -2    4.74    0.59
   7  -1   2    5.31    0.33
  -8   1  -2    5.55    0.67
  -9   0   2    1.94    0.40
  -9   0   2    2.51    0.50
   8   0  -2    1.31    0.18
  -8   0   2    1.87    0.34
  -8   0   2    1.47    0.33
   7   0  -2    0.13    0.11
   7   0  -2    0.04    0.08
  -7   0   2   -0.04    0.17
  -7   0   2    0.21    0.18
  -7   0   2   -0.07    0.20
   6   0  -2    9.80    0.45
   6   0  -2   10.43    0.44
   6   0  -2    9.95    0.44
  -6   0   2   11.22    0.69
  -6   0   2   10.57    0.58
  -6   0   2   10.82    0.57
   5   0  -2    8.63    0.37
   5   0  -2    8.54    0.36
  -5   0   2    8.67    0.45
  -5   0   2    6.74    0.49
  -5   0   2    7.64    0.44
  -5   0   2    8.40    0.34
   4   0  -2   15.10    0.55
   4   0  -2   15.29    0.55
   4   0  -2   15.40    0.54
  -4   0   2   14.35    0.68
  -4   0   2   14.48    0.61
  -4   0   2   15.45    0.61
  -4   0   2   15.82    0.54
   3   0  -2    2.72    0.20
   3   0  -2    2.45    0.16
   3   0  -2    2.70    0.17
   3   0  -2    2.72    0.16
  -3   0   2    2.41    0.25
  -3   0   2    2.68    0.17
  -3   0   2    3.09    0.17
  -3   0   2    2.71    0.20
   2   0  -2    0.91    0.10
   2   0  -2    0.84    0.11
   2   0  -2    1.00    0.11
   2   0  -2    1.00    0.15
  -2   0   2    0.97    0.15
  -2   0   2    1.00    0.12
  -2   0   2    0.93    0.15
  -2   0   2    0.83    0.11
  -2   0   2    0.84    0.11
   1   0  -2  997.62   27.97
   1   0  -2 1000.00   27.96
   1   0  -2  989.89   28.01
   1   0  -2  993.90   28.03
  -1   0   2  928.76   27.91
  -1   0   2  989.65   28.01
  -1   0   2  957.68   28.03
  -1   0   2  981.19   27.89
   0   0  -2    9.12    0.37
   0   0  -2    9.04    0.36
   0   0   2    8.51    0.36
   0   0   2    9.69    0.36
  -1   0  -2  429.65   12.55
  -1   0  -2  436.27   12.55
   1   0   2  448.67   12.59
   1   0   2  439.65   12.55
   1   0   2  460.01   12.55
   1   0   2  426.80   12.55
  -2   0  -2  133.50    3.86
  -2   0  -2  131.26    3.92
  -2   0  -2  125.05    3.84
   2   0   2  131.42    3.85
   2   0   2  128.35    3.85
   2   0   2  136.57    3.86
  -3   0  -2    7.06    0.44
  -3   0  -2    7.12    0.42
  -3   0  -2    7.65    0.36
   3   0   2    7.24    0.36
   3   0   2    7.77    0.37
  -4   0  -2    8.62    0.53
  -4   0  -2    8.71    0.42
  -4   0  -2    8.76    0.51
   4   0   2    9.41    0.43
   4   0   2    9.26    0.44
  -5   0  -2   29.40    1.18
  -5   0  -2   29.41    1.21
   5   0   2   26.87    1.02
  -6   0  -2    3.03    0.41
  -6   0  -2    3.53    0.48
   6   0   2    3.29    0.33
  -7   0  -2    1.52    0.38
   7   0   2    1.49    0.24
  -8   0  -2    4.27    0.61
  -9   1   2   14.34    0.89
  -8   1   2    2.81    0.49
  -8   1   2    3.45    0.47
  -8   1   2    3.65    0.40
   7  -1  -2   17.26    0.73
  -7   1   2   17.60    0.97
  -7   1   2   17.22    0.77
  -7   1   2   17.03    0.87
   6  -1  -2    7.89    0.43
   6  -1  -2    8.98    0.32
   6  -1  -2    8.57    0.32
  -6   1   2    7.63    0.51
  -6   1   2    7.30    0.56
  -6   1   2    8.62    0.47
   5  -1  -2   15.52    0.64
   5  -1  -2   16.99    0.54
   5  -1  -2   17.21    0.55
  -5   1   2   15.49    0.76
  -5   1   2   15.54    0.77
  -5   1   2   14.95    0.71
  -5   1   2   16.19    0.64
   4  -1  -2   16.70    0.64
   4  -1  -2   16.05    0.56
   4  -1  -2   16.99    0.56
  -4   1   2   16.71    0.73
  -4   1   2   17.20    0.54
  -4   1   2   17.18    0.54
  -4   1   2   16.82    0.74
  -4   1   2   16.91    0.61
   3  -1  -2    9.09    0.36
   3  -1  -2    9.37    0.40
   3  -1  -2   10.31    0.44
   3  -1  -2    9.69    0.36
  -3   1   2    9.42    0.35
  -3   1   2    8.54    0.45
  -3   1   2    9.69    0.41
  -3   1   2    8.80    0.35
  -3   1   2    9.07    0.46
   2  -1  -2   53.56    1.65
   2  -1  -2   52.61    1.67
   2  -1  -2   58.58    1.73
   2  -1  -2   54.98    1.65
  -2   1   2   55.43    1.65
  -2   1   2   55.03    1.65
  -2   1   2   54.29    1.67
  -2   1   2   52.94    1.71
   1  -1  -2    2.83    0.19
   1  -1  -2    2.73    0.19
   1  -1  -2    2.55    0.19
  -1   1   2    2.56    0.19
  -1   1   2    2.23    0.18
  -1   1   2    2.41    0.18
  -1   1   2    2.57    0.19
   0  -1  -2  284.42    8.40
   0  -1  -2  295.59    8.44
   0  -1  -2  291.16    8.43
   0   1   2  276.87    8.43
   0   1   2  302.61    8.43
   0   1   2  308.86    8.41
   0   1   2  292.13    8.41
  -1  -1  -2    6.94    0.37
  -1  -1  -2    6.45    0.35
  -1  -1  -2    7.20    0.36
  -1  -1  -2    7.36    0.33
   1   1   2    7.26    0.34
   1   1   2    6.42    0.35
   1   1   2    6.71    0.35
  -2  -1  -2  329.55    9.95
  -2  -1  -2  332.30    9.86
  -2  -1  -2  347.81    9.91
   2   1   2  356.99    9.87
   2   1   2  353.06    9.92
   2   1   2  342.44    9.92
  -3  -1  -2    7.94    0.48
  -3  -1  -2    7.69    0.41
   3   1   2    7.28    0.42
   3   1   2    8.51    0.42
  -4  -1  -2   11.37    0.55
  -4  -1  -2   12.59    0.66
  -4  -1  -2   11.99    0.65
   4   1   2   11.28    0.56
   4   1   2   12.14    0.57
  -5  -1  -2    2.47    0.38
  -5  -1  -2    2.44    0.37
   5   1   2    2.42    0.30
  -6  -1  -2    0.26    0.22
  -6  -1  -2    0.11    0.20
   6   1   2    0.31    0.16
  -7  -1  -2    6.94    0.71
  -7  -1  -2    6.09    0.66
   7   1   2    6.02    0.46
   8  -2  -2   21.40    0.92
  -8   2   2   20.95    1.17
   7  -2  -2   93.74    2.97
  -7   2   2   95.25    3.21
  -7   2   2   92.15    2.89
   6  -2  -2   56.95    1.91
  -6   2   2   58.68    2.07
  -6   2   2   58.72    1.83
  -6   2   2   57.06    2.08
   5  -2  -2   30.42    0.92
   5  -2  -2   29.92    0.92
   5  -2  -2   29.00    1.08
  -5   2   2   29.87    0.97
  -5   2   2   29.31    1.19
   4  -2  -2    0.70    0.15
   4  -2  -2    0.55    0.09
   4  -2  -2    0.81    0.10
  -4   2   2    0.68    0.08
  -4   2   2    0.65    0.09
  -4   2   2    0.69    0.09
  -4   2   2    0.84    0.21
  -4   2   2    0.56    0.18
   3  -2  -2    1.62    0.20
   3  -2  -2    2.15    0.17
   3  -2  -2    2.30    0.18
  -3   2   2    2.98    0.29
  -3   2   2    2.18    0.26
  -3   2   2    2.42    0.17
  -3   2   2    2.54    0.11
  -3   2   2    2.90    0.18
   2  -2  -2   51.91    1.64
   2  -2  -2   53.73    1.63
   2  -2  -2   49.66    1.61
  -2   2   2   52.71    1.62
  -2   2   2   50.06    1.67
  -2   2   2   51.91    1.62
  -2   2   2   52.99    1.69
  -2   2   2   52.37    1.53
   1  -2  -2   30.58    1.05
   1  -2  -2   30.20    1.04
   1  -2  -2   29.25    1.02
  -1   2   2   30.89    1.04
  -1   2   2   30.74    1.02
  -1   2   2   30.74    1.04
  -1   2   2   31.08    0.98
   0  -2  -2   62.55    1.97
   0  -2  -2   61.80    1.99
   0  -2  -2   65.93    2.01
   0  -2  -2   62.61    1.95
   0   2   2   60.78    2.00
   0   2   2   64.32    1.95
   0   2   2   64.67    2.00
   0   2   2   65.19    1.97
  -1  -2  -2   17.09    0.65
  -1  -2  -2   17.81    0.72
  -1  -2  -2   17.12    0.71
   1   2   2   18.47    0.66
   1   2   2   17.34    0.72
   1   2   2   18.23    0.72
  -2  -2  -2    1.35    0.18
  -2  -2  -2    1.95    0.25
  -2  -2  -2    1.75    0.25
   2   2   2    1.48    0.24
  -3  -2  -2    0.80    0.20
  -3  -2  -2    0.49    0.17
   3   2   2    1.00    0.20
  -4  -2  -2    7.88    0.48
  -4  -2  -2    6.73    0.52
   4   2   2    7.05    0.47
  -5  -2  -2    8.86    0.63
  -5  -2  -2    8.65    0.62
   5   2   2    7.53    0.53
  -6  -2  -2    3.70    0.49
  -6  -2  -2    4.71    0.60
   6   2   2    4.17    0.45
  -7  -2  -2    7.42    0.65
  -7  -2  -2    6.09    0.71
   7   2   2    6.55    0.55
   9  -3  -2    2.58    0.39
  -9   3   2    1.74    0.45
   8  -3  -2    0.16    0.17
  -8   3   2    0.33    0.28
  -8   3   2   -0.27    0.20
   7  -3  -2    5.38    0.43
  -7   3   2    5.53    0.61
  -7   3   2    5.96    0.62
   6  -3  -2    6.44    0.44
   6  -3  -2    6.75    0.24
  -6   3   2    7.21    0.54
  -6   3   2    6.73    0.53
   5  -3  -2   17.91    0.63
   5  -3  -2   18.54    0.79
   5  -3  -2   18.46    0.64
  -5   3   2   19.42    0.58
  -5   3   2   18.37    0.88
  -5   3   2   17.43    0.84
   4  -3  -2   11.81    0.48
   4  -3  -2   11.82    0.57
   4  -3  -2   12.64    0.49
  -4   3   2   11.95    0.63
  -4   3   2   11.82    0.61
   3  -3  -2    3.83    0.25
   3  -3  -2    3.78    0.29
   3  -3  -2    3.08    0.24
  -3   3   2    3.30    0.29
  -3   3   2    3.07    0.33
  -3   3   2    3.03    0.23
   2  -3  -2    8.34    0.43
   2  -3  -2    8.21    0.44
   2  -3  -2    9.57    0.45
  -2   3   2    9.11    0.49
  -2   3   2    9.63    0.45
  -2   3   2    9.93    0.36
   1  -3  -2  147.18    4.41
   1  -3  -2  141.86    4.44
   1  -3  -2  152.08    4.37
   1  -3  -2  152.43    4.47
  -1   3   2  144.46    4.45
  -1   3   2  155.42    4.37
   0  -3  -2    0.27    0.13
   0  -3  -2    0.19    0.11
   0  -3  -2    0.31    0.16
   0   3   2    0.21    0.14
  -1  -3  -2   55.32    1.90
  -1  -3  -2   58.47    1.84
  -1  -3  -2   60.73    1.95
   1   3   2   56.92    1.94
  -2  -3  -2    7.46    0.38
  -2  -3  -2    8.25    0.49
  -2  -3  -2    6.62    0.45
   2   3   2    6.56    0.47
  -3  -3  -2    2.02    0.31
  -3  -3  -2    2.21    0.34
  -3  -3  -2    1.88    0.22
   3   3   2    1.49    0.28
  -4  -3  -2    1.21    0.29
  -4  -3  -2    1.25    0.26
   4   3   2    1.16    0.27
  -5  -3  -2   11.73    0.73
  -5  -3  -2   10.73    0.76
   5   3   2   10.92    0.69
  -6  -3  -2   -0.04    0.23
  -6  -3  -2    0.03    0.24
   6   3   2   -0.17    0.18
  -7  -3  -2   11.77    0.94
   9  -4  -2   12.21    0.75
  -9   4   2   12.60    0.92
  -9   4   2   10.44    0.88
   8  -4  -2   -0.05    0.17
  -8   4   2    0.46    0.30
  -8   4   2   -0.05    0.23
   7  -4  -2   -0.16    0.15
  -7   4   2    0.14    0.23
  -7   4   2    0.09    0.21
   6  -4  -2    3.90    0.23
   6  -4  -2    3.49    0.40
  -6   4   2    3.54    0.45
  -6   4   2    3.67    0.47
   5  -4  -2    2.26    0.23
   5  -4  -2    2.55    0.34
   5  -4  -2    2.20    0.22
  -5   4   2    2.20    0.32
  -5   4   2    1.66    0.32
  -5   4   2    2.27    0.19
   4  -4  -2   15.97    0.65
   4  -4  -2   15.39    0.64
   4  -4  -2   15.50    0.72
  -4   4   2   14.81    0.77
  -4   4   2   16.10    0.73
  -4   4   2   14.87    0.62
   3  -4  -2    0.76    0.17
   3  -4  -2    0.24    0.13
   3  -4  -2    0.22    0.14
  -3   4   2    0.25    0.16
  -3   4   2    0.18    0.12
  -3   4   2    0.42    0.14
   2  -4  -2   -0.11    0.11
   2  -4  -2   -0.01    0.11
   2  -4  -2    0.04    0.07
  -2   4   2    0.01    0.11
  -2   4   2    0.04    0.07
   1  -4  -2   15.76    0.72
   1  -4  -2   16.09    0.68
   1  -4  -2   15.75    0.64
  -1   4   2   14.93    0.70
   0  -4  -2   15.27    0.68
   0  -4  -2   16.30    0.75
   0  -4  -2   15.52    0.67
   0   4   2   16.55    0.76
  -1  -4  -2   55.43    1.91
  -1  -4  -2   56.06    1.81
  -1  -4  -2   53.77    1.93
   1   4   2   57.05    1.96
  -2  -4  -2   34.85    1.37
  -2  -4  -2   36.77    1.38
  -2  -4  -2   34.01    1.20
   2   4   2   33.16    1.37
  -3  -4  -2   18.67    0.75
  -3  -4  -2   17.74    0.93
  -3  -4  -2   19.72    0.94
   3   4   2   18.98    0.95
  -4  -4  -2   16.54    0.95
  -4  -4  -2   18.54    0.92
   4   4   2   16.25    0.90
  -5  -4  -2    2.97    0.45
  -5  -4  -2    4.56    0.59
   5   4   2    3.62    0.50
  -6  -4  -2   -0.27    0.24
  -6  -4  -2    0.01    0.27
   6   4   2   -0.11    0.19
   9  -5  -2   -0.16    0.18
  -9   5   2   -0.01    0.26
  -9   5   2   -0.02    0.27
   8  -5  -2   14.19    0.84
  -8   5   2   15.81    0.96
  -8   5   2   14.77    0.97
   7  -5  -2   39.85    1.57
   7  -5  -2   39.31    1.24
  -7   5   2   38.04    1.62
  -7   5   2   38.66    1.69
   6  -5  -2    5.00    0.50
   6  -5  -2    4.22    0.29
  -6   5   2    4.27    0.54
  -6   5   2    3.86    0.47
   5  -5  -2   29.58    1.20
   5  -5  -2   27.39    1.04
  -5   5   2   28.76    1.19
  -5   5   2   29.57    1.29
   4  -5  -2   17.03    0.73
   4  -5  -2   15.91    0.70
   4  -5  -2   14.76    0.76
  -4   5   2   15.37    0.83
  -4   5   2   15.45    0.75
  -4   5   2   16.67    0.70
   3  -5  -2    3.10    0.34
   3  -5  -2    2.69    0.33
  -3   5   2    2.80    0.38
  -3   5   2    2.79    0.31
  -3   5   2    2.45    0.30
   2  -5  -2   43.35    1.40
   2  -5  -2   42.75    1.53
   2  -5  -2   42.62    1.55
  -2   5   2   41.99    1.54
   1  -5  -2   51.02    1.71
   1  -5  -2   51.41    1.75
   1  -5  -2   50.27    1.82
  -1   5   2   52.36    1.83
   0  -5  -2    8.34    0.51
   0  -5  -2    8.18    0.49
   0  -5  -2    8.79    0.57
   0   5   2    8.71    0.58
  -1  -5  -2   50.27    1.84
  -1  -5  -2   50.54    1.73
  -1  -5  -2   54.66    1.92
   1   5   2   49.93    1.89
  -2  -5  -2   16.12    0.72
  -2  -5  -2   17.63    0.90
  -2  -5  -2   16.07    0.88
   2   5   2   16.47    0.90
  -3  -5  -2    0.76    0.27
  -3  -5  -2    0.44    0.27
   3   5   2    1.31    0.35
  -4  -5  -2   13.06    0.91
   4   5   2   13.49    0.87
  -5  -5  -2    6.63    0.75
   5   5   2    5.44    0.66
   8  -6  -2   20.50    1.08
  -8   6   2   20.91    1.17
  -8   6   2   20.61    1.21
   7  -6  -2    4.55    0.53
   7  -6  -2    4.62    0.31
  -7   6   2    3.69    0.56
  -7   6   2    4.24    0.56
   6  -6  -2    8.47    0.49
   6  -6  -2    8.64    0.66
  -6   6   2    9.33    0.65
  -6   6   2   10.90    0.76
   5  -6  -2    2.37    0.40
   5  -6  -2    2.71    0.32
  -5   6   2    2.12    0.34
  -5   6   2    3.11    0.47
   4  -6  -2  110.79    3.48
   4  -6  -2  103.86    3.39
  -4   6   2  105.50    3.40
  -4   6   2  108.61    3.58
   3  -6  -2    3.01    0.37
   3  -6  -2    2.69    0.37
  -3   6   2    2.97    0.43
  -3   6   2    3.10    0.34
  -3   6   2    3.23    0.38
   2  -6  -2   50.86    1.86
   2  -6  -2   50.45    1.68
   2  -6  -2   50.04    1.80
  -2   6   2   51.83    1.86
   1  -6  -2   30.74    1.17
   1  -6  -2   31.02    1.22
   1  -6  -2   28.89    1.28
  -1   6   2   32.29    1.31
   0  -6  -2    1.89    0.37
   0  -6  -2    1.68    0.29
   0  -6  -2    1.64    0.29
   0   6   2    1.48    0.33
  -1  -6  -2   16.36    0.91
  -1  -6  -2   15.80    0.85
  -1  -6  -2   16.67    0.78
   1   6   2   15.76    0.92
  -2  -6  -2   22.82    1.14
  -2  -6  -2   23.80    0.97
  -2  -6  -2   24.42    1.21
   2   6   2   23.92    1.20
  -3  -6  -2    0.25    0.28
  -3  -6  -2    0.10    0.27
   3   6   2    0.71    0.31
  -4  -6  -2    1.97    0.49
   4   6   2    2.73    0.50
   8  -7  -2   24.30    1.29
  -8   7   2   25.55    1.31
  -8   7   2   26.87    1.47
   7  -7  -2    9.53    0.74
   7  -7  -2    8.15    0.50
  -7   7   2    8.16    0.66
  -7   7   2    9.26    0.92
   6  -7  -2    0.90    0.23
   6  -7  -2    0.89    0.33
  -6   7   2    0.33    0.29
  -6   7   2    0.61    0.27
   5  -7  -2    4.73    0.55
   5  -7  -2    3.89    0.44
  -5   7   2    4.55    0.61
  -5   7   2    4.44    0.47
   4  -7  -2   13.60    0.80
   4  -7  -2   12.96    0.75
  -4   7   2   13.00    0.69
  -4   7   2   13.91    0.88
   3  -7  -2   14.95    0.83
   3  -7  -2   15.60    0.84
  -3   7   2   14.25    0.79
  -3   7   2   15.44    0.92
  -3   7   2   14.52    0.71
   2  -7  -2   15.33    0.86
   2  -7  -2   15.17    0.82
   2  -7  -2   14.67    0.70
  -2   7   2   16.82    0.88
   1  -7  -2    9.74    0.69
   1  -7  -2    9.96    0.64
   1  -7  -2    9.72    0.59
  -1   7   2    9.38    0.68
   0  -7  -2    1.01    0.27
   0  -7  -2    0.81    0.27
   0  -7  -2    0.77    0.29
   0   7   2    0.98    0.33
  -1  -7  -2    0.86    0.26
  -1  -7  -2    1.04    0.32
  -1  -7  -2    1.35    0.35
   1   7   2    1.02    0.35
  -2  -7  -2    5.91    0.71
  -2  -7  -2    6.35    0.69
   2   7   2    5.93    0.71
  -3  -7  -2    6.07    0.70
  -3  -7  -2    5.35    0.71
   3   7   2    5.42    0.70
   7  -8  -2    7.66    0.53
   7  -8  -2    7.55    0.77
  -7   8   2    8.96    0.94
   6  -8  -2    0.65    0.31
   6  -8  -2    0.83    0.25
  -6   8   2    0.25    0.34
   5  -8  -2    6.21    0.65
   5  -8  -2    7.40    0.57
  -5   8   2    6.53    0.77
   4  -8  -2   -0.07    0.24
   4  -8  -2   -0.14    0.16
  -4   8   2   -0.03    0.28
   3  -8  -2    2.14    0.40
   3  -8  -2    1.45    0.35
  -3   8   2    1.93    0.44
   2  -8  -2    6.73    0.69
   2  -8  -2    7.36    0.67
  -2   8   2    7.83    0.67
   1  -8  -2    5.93    0.67
   1  -8  -2    6.03    0.51
   1  -8  -2    6.80    0.63
  -1   8   2    5.77    0.67
   0  -8  -2    3.00    0.43
   0  -8  -2    2.60    0.43
   0  -8  -2    3.76    0.58
   0   8   2    3.13    0.57
  -1  -8  -2    3.30    0.49
  -1  -8  -2    3.25    0.56
   1   8   2    4.19    0.63
   5  -9  -2   -0.12    0.26
   5  -9  -2   -0.11    0.20
  -5   9   2    0.52    0.37
   4  -9  -2    0.31    0.28
   4  -9  -2    0.29    0.29
  -4   9   2    0.54    0.33
   3  -9  -2    0.41    0.29
   3  -9  -2    1.40    0.40
  -3   9   2    0.11    0.30
   2  -9  -2    6.34    0.73
   2  -9  -2    5.68    0.61
   1  -9  -2    0.87    0.32
   1  -9  -2    0.02    0.28
  -1   9   2    1.30    0.42
   0  10  -3    4.46    0.66
   0 -10   3    4.61    0.66
   1 -10   3    8.18    0.65
   1 -10   3    6.15    0.72
   2 -10   3    2.01    0.46
   2 -10   3    2.47    0.44
  -3  10  -3    2.66    0.55
   3 -10   3    2.46    0.47
   3 -10   3    3.47    0.56
   2   9  -3    2.31    0.51
  -2  -9   3    1.90    0.49
  -2  -9   3    2.19    0.46
   1   9  -3    2.89    0.52
  -1  -9   3    2.71    0.50
  -1  -9   3    3.60    0.53
   0   9  -3   10.09    0.80
   0  -9   3    9.41    0.62
   0  -9   3    9.05    0.67
   0  -9   3    8.63    0.73
  -1   9  -3    4.79    0.60
   1  -9   3    5.39    0.55
   1  -9   3    3.97    0.56
   1  -9   3    4.78    0.50
   2  -9   3    1.07    0.33
   2  -9   3    1.05    0.32
  -3   9  -3   24.58    1.26
   3  -9   3   22.78    1.16
   3  -9   3   25.33    1.20
  -4   9  -3    3.01    0.50
   4  -9   3    3.20    0.45
   4  -9   3    2.30    0.43
  -5   9  -3   12.62    0.88
   5  -9   3   11.19    0.73
   5  -9   3   10.71    0.81
   4   8  -3   18.40    1.16
  -4  -8   3   17.37    1.09
  -4  -8   3   19.09    1.13
   3   8  -3    2.04    0.44
  -3  -8   3    0.95    0.35
  -3  -8   3    2.34    0.47
   2   8  -3    0.77    0.31
  -2  -8   3    0.17    0.28
  -2  -8   3    1.06    0.32
   1   8  -3    1.63    0.37
  -1  -8   3    1.85    0.38
  -1  -8   3    1.60    0.29
  -1  -8   3    2.76    0.42
   0   8  -3    8.55    0.64
   0  -8   3    6.50    0.50
   0  -8   3    6.48    0.55
   0  -8   3    6.51    0.66
  -1   8  -3   37.04    1.52
   1  -8   3   35.48    1.51
   1  -8   3   36.28    1.41
   1  -8   3   33.94    1.39
  -2   8  -3    5.41    0.58
   2  -8   3    5.90    0.60
   2  -8   3    5.72    0.44
   2  -8   3    5.85    0.55
  -3   8  -3   12.42    0.80
   3  -8   3   14.37    0.82
   3  -8   3   13.19    0.77
  -4   8  -3   13.65    0.86
   4  -8   3   14.41    0.87
   4  -8   3   15.34    0.81
  -5   8  -3    0.33    0.27
   5  -8   3    0.44    0.22
   5  -8   3    1.33    0.36
  -6   8  -3   13.10    0.87
   6  -8   3   12.48    0.67
   6  -8   3   12.28    0.86
   5   7  -3    0.54    0.34
  -5  -7   3    0.63    0.35
   4   7  -3    6.27    0.70
  -4  -7   3    5.50    0.65
  -4  -7   3    4.87    0.61
   3   7  -3   42.73    1.80
  -3  -7   3   47.45    1.83
  -3  -7   3   41.38    1.75
   2   7  -3    1.53    0.37
  -2  -7   3    1.89    0.36
  -2  -7   3    1.05    0.31
   1   7  -3   32.51    1.41
  -1  -7   3   33.98    1.37
  -1  -7   3   32.68    1.20
  -1  -7   3   31.45    1.40
   0   7  -3    9.40    0.64
   0  -7   3    9.87    0.56
   0  -7   3    8.83    0.62
   0  -7   3    9.64    0.59
  -1   7  -3   13.61    0.77
   1  -7   3   13.58    0.69
   1  -7   3   13.19    0.75
   1  -7   3   14.72    0.73
  -2   7  -3    1.57    0.31
   2  -7   3    1.01    0.26
   2  -7   3    1.17    0.28
  -3   7  -3    2.89    0.40
   3  -7   3    3.63    0.40
  -4   7  -3   18.57    0.93
   4  -7   3   16.22    0.80
  -5   7  -3    5.75    0.60
   5  -7   3    6.13    0.44
  -6   7  -3    1.97    0.41
   6  -7   3    1.89    0.26
  -7   7  -3    5.20    0.63
   6   6  -3    2.55    0.47
  -6  -6   3    2.05    0.46
   5   6  -3    9.08    0.72
  -5  -6   3    9.03    0.73
   4   6  -3   17.89    0.98
  -4  -6   3   18.16    1.00
  -4  -6   3   18.67    0.97
   3   6  -3    6.42    0.55
  -3  -6   3    6.97    0.56
  -3  -6   3    5.62    0.58
   2   6  -3   15.32    0.86
  -2  -6   3   15.84    0.84
  -2  -6   3   16.73    0.64
  -2  -6   3   16.61    0.84
   1   6  -3    0.83    0.24
  -1  -6   3    0.89    0.23
  -1  -6   3    1.08    0.19
  -1  -6   3    0.93    0.25
   0   6  -3   17.75    0.85
   0  -6   3   17.31    0.75
   0  -6   3   16.35    0.83
   0  -6   3   17.66    0.79
  -1   6  -3    0.76    0.23
   1  -6   3    0.43    0.20
  -2   6  -3   33.82    1.27
   2  -6   3   31.95    1.26
  -3   6  -3    6.36    0.43
  -3   6  -3    6.26    0.48
   3  -6   3    6.05    0.43
  -4   6  -3   67.43    2.30
   4  -6   3   66.20    2.18
  -5   6  -3    3.51    0.44
   5  -6   3    3.33    0.33
  -6   6  -3    2.65    0.42
  -6   6  -3    2.17    0.44
   6  -6   3    2.40    0.25
  -7   6  -3    1.27    0.39
  -7   6  -3    1.28    0.34
   7   5  -3   10.59    0.76
  -7  -5   3    9.89    0.82
   6   5  -3   -0.07    0.20
  -6  -5   3    0.81    0.35
   5   5  -3   64.71    2.31
  -5  -5   3   63.36    2.27
  -5  -5   3   61.69    2.33
   4   5  -3    5.28    0.54
  -4  -5   3    5.77    0.57
  -4  -5   3    6.05    0.56
   3   5  -3    1.50    0.31
  -3  -5   3    0.99    0.11
  -3  -5   3    1.11    0.27
  -3  -5   3    0.84    0.25
   2   5  -3    0.44    0.19
  -2  -5   3    0.26    0.17
  -2  -5   3    0.43    0.18
  -2  -5   3    0.31    0.10
   1   5  -3   10.96    0.59
  -1  -5   3    9.66    0.57
  -1  -5   3   10.52    0.56
  -1  -5   3    9.97    0.46
   0  -5   3    8.31    0.51
   1  -5   3   22.90    0.71
   1  -5   3   21.97    0.92
   2  -5   3    8.20    0.38
   2  -5   3    7.24    0.45
   2  -5   3    7.86    0.45
  -3   5  -3   24.58    1.00
  -3   5  -3   24.25    1.06
   3  -5   3   25.30    0.95
   3  -5   3   24.92    0.95
  -4   5  -3   11.85    0.72
  -4   5  -3   12.01    0.64
   4  -5   3   11.59    0.55
  -5   5  -3   37.43    1.57
  -5   5  -3   38.40    1.47
   5  -5   3   38.29    1.28
  -6   5  -3    3.82    0.55
  -6   5  -3    4.07    0.48
   6  -5   3    3.78    0.25
  -7   5  -3    3.23    0.53
  -7   5  -3    3.19    0.46
  -8   5  -3    2.66    0.57
   8   4  -3    1.00    0.30
  -8  -4   3    0.93    0.40
   7   4  -3   12.38    0.78
  -7  -4   3   12.44    0.88
   6   4  -3    0.68    0.24
  -6  -4   3    0.13    0.26
   5   4  -3   12.09    0.71
  -5  -4   3   11.82    0.74
  -5  -4   3   13.56    0.70
   4   4  -3   42.11    1.60
  -4  -4   3   41.93    1.63
  -4  -4   3   47.22    1.61
  -4  -4   3   42.95    1.38
   3   4  -3   10.79    0.60
   3   4  -3   10.86    0.66
  -3  -4   3   11.66    0.36
  -3  -4   3   10.37    0.59
  -3  -4   3   10.14    0.60
  -3  -4   3   11.06    0.35
   2   4  -3   52.23    1.77
  -2  -4   3   53.98    1.78
  -2  -4   3   52.07    1.56
  -2  -4   3   47.06    1.74
   1   4  -3   33.85    1.23
  -1  -4   3   33.02    1.23
  -1  -4   3   34.17    1.09
   0   4  -3   60.34    1.95
   0  -4   3   58.04    1.85
   0  -4   3   59.22    1.94
  -1   4  -3   32.18    1.15
  -1   4  -3   31.16    1.13
   1  -4   3   31.87    1.15
   1  -4   3   32.48    1.02
   1  -4   3   33.21    1.16
  -2   4  -3   15.77    0.70
  -2   4  -3   15.05    0.63
  -2   4  -3   14.65    0.63
   2  -4   3   14.97    0.64
   2  -4   3   15.17    0.65
   2  -4   3   14.36    0.62
  -3   4  -3    4.69    0.30
  -3   4  -3    4.93    0.34
  -3   4  -3    5.32    0.40
   3  -4   3    4.10    0.29
   3  -4   3    3.92    0.29
  -4   4  -3   29.09    1.09
  -4   4  -3   27.38    1.18
   4  -4   3   28.00    0.98
   4  -4   3   28.02    0.98
  -5   4  -3   20.98    1.05
  -5   4  -3   21.92    0.95
   5  -4   3   21.41    0.77
  -6   4  -3   41.76    1.71
  -6   4  -3   40.15    1.56
   6  -4   3   40.81    1.29
  -7   4  -3    5.35    0.65
  -8   4  -3   12.53    0.94
   8   3  -3    1.68    0.32
  -8  -3   3    1.23    0.37
   7   3  -3    6.46    0.51
  -7  -3   3    7.22    0.70
   6   3  -3   30.42    1.24
  -6  -3   3   31.83    1.34
   5   3  -3    5.50    0.43
  -5  -3   3    5.69    0.49
  -5  -3   3    5.86    0.42
  -5  -3   3    5.23    0.31
  -4  -3   3    1.28    0.24
  -4  -3   3    1.30    0.23
  -4  -3   3    1.46    0.15
  -4  -3   3    1.46    0.26
   3   3  -3   22.27    0.88
  -3  -3   3   22.30    0.68
  -3  -3   3   20.88    0.89
  -3  -3   3   21.99    0.87
  -3  -3   3   20.92    0.81
   2   3  -3    5.43    0.36
  -2  -3   3    6.21    0.38
  -2  -3   3    5.70    0.29
  -2  -3   3    6.04    0.21
   1   3  -3  126.14    3.81
  -1  -3   3  123.53    3.65
  -1  -3   3  128.57    3.81
  -1  -3   3  126.74    3.64
   0   3  -3  170.17    5.10
   0   3  -3  172.79    5.18
   0  -3   3  168.88    5.17
   0  -3   3  187.30    5.11
   0  -3   3  178.45    5.18
  -1   3  -3    0.56    0.13
  -1   3  -3    0.72    0.15
   1  -3   3    0.57    0.15
   1  -3   3    0.58    0.14
  -2   3  -3  171.77    5.14
  -2   3  -3  173.66    5.04
  -2   3  -3  167.13    5.02
   2  -3   3  176.01    5.05
   2  -3   3  171.18    5.04
  -3   3  -3  169.05    5.11
  -3   3  -3  168.96    5.06
  -3   3  -3  174.26    5.26
   3  -3   3  181.32    5.09
   3  -3   3  173.29    5.08
  -4   3  -3   15.80    0.58
  -4   3  -3   16.18    0.70
  -4   3  -3   14.76    0.80
   4  -3   3   15.93    0.61
   4  -3   3   16.26    0.61
  -5   3  -3   36.22    1.47
   5  -3   3   35.22    1.17
  -6   3  -3    9.76    0.71
   6  -3   3    9.85    0.42
  -7   3  -3    0.05    0.27
  -8   3  -3    7.07    0.79
   9   2  -3    7.69    0.54
  -9  -2   3    7.27    0.74
   8   2  -3    2.35    0.33
  -8  -2   3    1.45    0.35
   7   2  -3   14.65    0.71
  -7  -2   3   14.29    0.82
   6   2  -3   65.61    2.19
  -6  -2   3   66.54    2.30
  -6  -2   3   67.67    2.14
  -6  -2   3   65.17    2.34
   5   2  -3   57.53    1.84
  -5  -2   3   53.20    1.91
  -5  -2   3   57.12    1.76
  -5  -2   3   55.42    1.81
  -5  -2   3   52.28    1.90
   4   2  -3   85.42    2.53
   4   2  -3   80.46    2.59
   4   2  -3   83.19    2.59
  -4  -2   3   82.21    2.63
  -4  -2   3   83.02    2.58
  -4  -2   3   83.72    2.47
  -4  -2   3   81.29    2.65
   3   2  -3  109.38    3.35
   3   2  -3  118.22    3.36
  -3  -2   3  109.85    3.35
  -3  -2   3  109.15    3.34
  -3  -2   3  109.65    3.38
  -3  -2   3  108.22    3.16
   2   2  -3   36.39    1.19
   2   2  -3   33.25    1.18
  -2  -2   3   34.54    1.05
  -2  -2   3   35.39    1.12
  -2  -2   3   33.06    1.17
   1   2  -3    9.39    0.44
   1   2  -3   10.37    0.46
   1   2  -3    9.16    0.34
  -1  -2   3   10.30    0.46
  -1  -2   3   10.72    0.46
  -1  -2   3    9.99    0.39
   0   2  -3  262.94    7.62
   0   2  -3  259.90    7.62
   0   2  -3  251.94    7.57
   0  -2   3  279.05    7.64
   0  -2   3  258.39    7.62
   0  -2   3  270.68    7.58
  -1   2  -3   15.35    0.59
  -1   2  -3   15.72    0.60
  -1   2  -3   15.63    0.62
  -1   2  -3   15.24    0.52
   1  -2   3   15.37    0.60
   1  -2   3   15.16    0.60
   1  -2   3   16.39    0.63
  -2   2  -3   41.29    1.40
  -2   2  -3   40.93    1.30
  -2   2  -3   40.37    1.27
   2  -2   3   40.24    1.26
   2  -2   3   40.41    1.31
   2  -2   3   38.91    1.30
  -3   2  -3  108.49    3.46
  -3   2  -3  113.39    3.42
  -3   2  -3  114.10    3.29
   3  -2   3  110.87    3.32
   3  -2   3  109.30    3.29
   3  -2   3  108.51    3.30
  -4   2  -3   19.28    0.92
   4  -2   3   20.90    0.74
   4  -2   3   20.14    0.74
  -5   2  -3   24.41    1.11
   5  -2   3   23.23    0.84
  -6   2  -3   13.27    0.84
   6  -2   3   15.34    0.60
  -7   2  -3    1.42    0.41
  -8   2  -3    0.70    0.36
  -9  -1   3   12.86    0.84
   8   1  -3    2.97    0.32
  -8  -1   3    2.91    0.42
   7   1  -3    5.28    0.37
  -7  -1   3    4.78    0.39
  -7  -1   3    4.82    0.49
  -7  -1   3    4.71    0.56
   6   1  -3  147.32    4.44
   6   1  -3  147.77    4.31
  -6  -1   3  154.08    4.50
  -6  -1   3  149.55    4.58
  -6  -1   3  145.10    4.66
   5   1  -3   18.64    0.76
   5   1  -3   19.88    0.66
   5   1  -3   20.52    0.77
  -5  -1   3   20.76    0.76
  -5  -1   3   19.54    0.84
  -5  -1   3   21.29    0.78
  -5  -1   3   20.25    0.90
   4   1  -3  120.83    3.50
   4   1  -3  121.10    3.61
   4   1  -3  124.86    3.57
   4   1  -3  121.96    3.61
  -4  -1   3  112.67    3.69
  -4  -1   3  120.97    3.66
  -4  -1   3  123.62    3.60
   3   1  -3   81.62    2.46
   3   1  -3   83.37    2.37
   3   1  -3   77.95    2.45
   3   1  -3   80.92    2.36
  -3  -1   3   80.55    2.49
  -3  -1   3   76.30    2.44
  -3  -1   3   82.20    2.36
   2   1  -3   10.08    0.44
   2   1  -3   10.67    0.44
   2   1  -3   10.50    0.45
   2   1  -3   10.09    0.38
  -2  -1   3    9.98    0.44
  -2  -1   3   10.36    0.45
  -2  -1   3   10.56    0.45
  -2  -1   3   10.64    0.39
   1   1  -3   10.07    0.45
   1   1  -3   11.23    0.40
   1   1  -3   10.67    0.41
   1   1  -3   10.81    0.45
  -1  -1   3   11.32    0.46
  -1  -1   3   10.47    0.45
  -1  -1   3   11.41    0.43
   0   1  -3  133.78    3.91
   0   1  -3  140.90    3.91
   0   1  -3  128.75    3.88
   0  -1   3  125.05    3.89
   0  -1   3  134.87    3.91
   0  -1   3  131.64    3.88
  -1   1  -3   45.76    1.45
  -1   1  -3   46.22    1.50
  -1   1  -3   44.25    1.45
   1  -1   3   45.12    1.45
   1  -1   3   46.30    1.34
   1  -1   3   48.64    1.47
   1  -1   3   44.09    1.45
  -2   1  -3  308.06    8.69
  -2   1  -3  293.71    8.78
   2  -1   3  308.15    8.69
   2  -1   3  287.55    8.68
   2  -1   3  309.31    8.64
  -3   1  -3    3.45    0.25
  -3   1  -3    4.05    0.34
   3  -1   3    3.32    0.24
   3  -1   3    3.13    0.24
   3  -1   3    2.96    0.26
  -4   1  -3   49.84    1.56
  -4   1  -3   46.62    1.59
  -4   1  -3   46.25    1.73
   4  -1   3   46.02    1.56
   4  -1   3   51.33    1.58
  -5   1  -3    6.10    0.51
   5  -1   3    5.76    0.35
  -6   1  -3    3.72    0.53
   6  -1   3    3.52    0.33
  -7   1  -3    7.99    0.70
   7  -1   3    8.60    0.47
  -8   1  -3   -0.08    0.30
   8   0  -3    8.91    0.43
  -8   0   3    9.04    0.76
  -8   0   3    9.56    0.62
   7   0  -3   55.96    1.78
   7   0  -3   54.36    1.78
  -7   0   3   55.94    1.94
  -7   0   3   54.82    2.11
  -7   0   3   59.26    1.97
   6   0  -3   38.88    1.28
   6   0  -3   40.61    1.30
   6   0  -3   40.23    1.29
  -6   0   3   38.95    1.55
  -6   0   3   38.39    1.40
   5   0  -3    0.73    0.12
   5   0  -3    0.57    0.12
   5   0  -3    0.66    0.13
  -5   0   3    0.59    0.16
  -5   0   3    0.56    0.19
   4   0  -3    1.31    0.18
   4   0  -3    1.16    0.14
   4   0  -3    1.42    0.16
   4   0  -3    1.41    0.16
  -4   0   3    1.37    0.16
  -4   0   3    1.04    0.16
  -4   0   3    1.28    0.16
  -4   0   3    1.52    0.24
   3   0  -3  102.72    3.14
   3   0  -3  110.92    3.15
   3   0  -3  109.66    3.14
   3   0  -3  101.02    3.11
  -3   0   3  105.97    3.24
  -3   0   3  104.40    3.22
  -3   0   3  106.24    3.14
  -3   0   3  104.93    3.13
  -3   0   3  108.27    3.12
   2   0  -3    0.72    0.12
   2   0  -3    0.58    0.12
   2   0  -3    0.75    0.13
   2   0  -3    0.60    0.12
  -2   0   3    1.13    0.14
  -2   0   3    1.09    0.14
  -2   0   3    1.29    0.16
  -2   0   3    0.85    0.14
   1   0  -3    4.34    0.25
   1   0  -3    4.14    0.26
   1   0  -3    4.24    0.26
   1   0  -3    4.26    0.22
  -1   0   3    4.74    0.26
  -1   0   3    4.56    0.22
  -1   0   3    4.45    0.25
   0   0  -3    1.97    0.19
   0   0  -3    1.93    0.19
   0   0  -3    2.28    0.22
   0   0   3    1.83    0.19
   0   0   3    1.41    0.17
   0   0   3    2.11    0.20
  -1   0  -3   76.03    2.42
  -1   0  -3   79.70    2.44
   1   0   3   84.14    2.45
   1   0   3   74.62    2.43
   1   0   3   84.62    2.44
  -2   0  -3    1.00    0.17
   2   0   3    1.10    0.18
   2   0   3    1.07    0.17
  -3   0  -3  166.54    5.09
  -3   0  -3  167.99    4.95
   3   0   3  167.78    4.96
   3   0   3  167.17    4.97
  -4   0  -3    1.85    0.32
  -4   0  -3    1.86    0.24
   4   0   3    1.33    0.21
   4   0   3    1.68    0.24
  -5   0  -3   30.89    1.32
   5   0   3   30.51    1.15
  -6   0  -3    0.15    0.24
   6   0   3    0.39    0.17
  -7   0  -3   -0.13    0.23
   7   0   3    0.08    0.16
  -9   1   3    0.96    0.38
   8  -1  -3    8.54    0.78
  -8   1   3    8.13    0.69
  -8   1   3    8.22    0.52
   7  -1  -3    3.84    0.35
   7  -1  -3    3.54    0.21
  -7   1   3    3.54    0.36
  -7   1   3    3.33    0.46
   6  -1  -3   26.63    0.89
   6  -1  -3   27.22    0.89
   6  -1  -3   26.69    0.99
  -6   1   3   27.35    1.18
  -6   1   3   27.66    1.00
   5  -1  -3   25.27    0.85
   5  -1  -3   26.00    0.86
   5  -1  -3   25.19    0.92
  -5   1   3   27.07    0.83
  -5   1   3   24.37    1.05
  -5   1   3   26.45    0.91
  -5   1   3   23.76    1.04
   4  -1  -3  127.20    3.61
   4  -1  -3  125.78    3.61
   4  -1  -3  120.12    3.65
  -4   1   3  126.33    3.60
  -4   1   3  112.38    3.58
  -4   1   3  122.53    3.78
  -4   1   3  123.52    3.77
   3  -1  -3   59.81    1.90
   3  -1  -3   63.15    1.89
   3  -1  -3   61.98    1.89
  -3   1   3   63.56    1.98
  -3   1   3   60.39    1.88
  -3   1   3   58.04    1.97
  -3   1   3   62.83    1.91
   2  -1  -3   93.07    2.58
   2  -1  -3   90.47    2.60
   2  -1  -3   82.69    2.56
   2  -1  -3   81.51    2.56
  -2   1   3   85.90    2.56
  -2   1   3   79.00    2.55
  -2   1   3   77.85    2.57
  -2   1   3   89.45    2.58
   1  -1  -3    8.60    0.40
   1  -1  -3    8.15    0.39
   1  -1  -3    7.55    0.37
  -1   1   3    7.96    0.38
  -1   1   3    7.89    0.39
  -1   1   3    8.80    0.39
  -1   1   3    7.73    0.36
   0  -1  -3   67.96    2.03
   0  -1  -3   61.57    1.98
   0  -1  -3   64.01    2.01
   0   1   3   62.38    2.00
   0   1   3   64.52    2.01
  -1  -1  -3    8.39    0.42
  -1  -1  -3    6.91    0.36
   1   1   3    7.29    0.39
   1   1   3    6.81    0.39
  -2  -1  -3   76.63    2.41
  -2  -1  -3   78.51    2.37
  -2  -1  -3   77.24    2.47
   2   1   3   79.76    2.42
   2   1   3   70.49    2.40
  -3  -1  -3    2.16    0.27
  -3  -1  -3    2.00    0.29
   3   1   3    2.00    0.26
   3   1   3    1.97    0.25
  -4  -1  -3   60.18    1.98
  -4  -1  -3   60.08    2.12
  -4  -1  -3   57.53    2.11
   4   1   3   60.27    2.01
  -5  -1  -3    7.51    0.59
  -5  -1  -3    7.43    0.58
   5   1   3    5.88    0.45
  -6  -1  -3   10.72    0.78
   6   1   3   11.82    0.67
  -7  -1  -3    1.41    0.39
   7   1   3    1.71    0.31
  -9   2   3    0.29    0.29
   8  -2  -3    0.00    0.14
  -8   2   3   -0.02    0.22
   7  -2  -3    5.34    0.40
  -7   2   3    5.65    0.60
  -7   2   3    6.93    0.58
  -7   2   3    5.55    0.35
   6  -2  -3    2.74    0.17
   6  -2  -3    2.20    0.27
   6  -2  -3    2.75    0.18
  -6   2   3    2.11    0.36
  -6   2   3    2.48    0.38
  -6   2   3    2.91    0.22
   5  -2  -3    5.06    0.27
   5  -2  -3    5.24    0.34
   5  -2  -3    5.14    0.27
  -5   2   3    5.68    0.25
  -5   2   3    4.94    0.41
  -5   2   3    5.38    0.42
  -5   2   3    5.20    0.26
   4  -2  -3    7.19    0.35
   4  -2  -3    7.58    0.40
   4  -2  -3    7.33    0.35
  -4   2   3    7.22    0.46
  -4   2   3    6.84    0.44
  -4   2   3    7.70    0.35
  -4   2   3    7.46    0.29
   3  -2  -3    3.96    0.29
   3  -2  -3    3.91    0.26
   3  -2  -3    4.00    0.26
  -3   2   3    4.44    0.32
  -3   2   3    4.54    0.34
  -3   2   3    3.80    0.26
   2  -2  -3   45.68    1.57
   2  -2  -3   48.14    1.58
   2  -2  -3   52.11    1.60
  -2   2   3   48.06    1.61
  -2   2   3   51.13    1.50
  -2   2   3   47.92    1.58
   1  -2  -3   23.44    0.88
   1  -2  -3   22.86    0.85
   1  -2  -3   24.82    0.89
  -1   2   3   23.03    0.82
  -1   2   3   23.89    0.89
   0  -2  -3   17.60    0.73
   0  -2  -3   17.33    0.69
   0   2   3   18.05    0.74
  -1  -2  -3   22.26    0.88
  -1  -2  -3   21.71    0.82
  -1  -2  -3   21.84    0.87
   1   2   3   21.34    0.88
  -2  -2  -3   52.16    1.82
  -2  -2  -3   53.25    1.71
  -2  -2  -3   52.01    1.79
   2   2   3   53.04    1.80
  -3  -2  -3    0.82    0.18
  -3  -2  -3    0.97    0.24
  -3  -2  -3    0.88    0.22
   3   2   3    1.26    0.26
  -4  -2  -3   10.88    0.62
  -4  -2  -3   12.32    0.74
   4   2   3   11.61    0.66
  -5  -2  -3    2.21    0.39
  -5  -2  -3    2.82    0.45
   5   2   3    2.59    0.38
  -6  -2  -3    3.10    0.52
  -6  -2  -3    2.69    0.51
   6   2   3    2.71    0.39
  -7  -2  -3    0.94    0.38
   7   2   3    0.94    0.29
   9  -3  -3    1.06    0.30
  -9   3   3    0.83    0.37
   8  -3  -3    7.53    0.52
  -8   3   3    7.36    0.66
  -8   3   3    7.79    0.76
   7  -3  -3   19.42    0.61
   7  -3  -3   19.59    0.88
  -7   3   3   19.12    1.02
  -7   3   3   19.17    1.03
   6  -3  -3    3.14    0.35
   6  -3  -3    4.09    0.24
   6  -3  -3    3.80    0.23
  -6   3   3    2.99    0.41
  -6   3   3    3.03    0.43
   5  -3  -3    9.65    0.43
   5  -3  -3    8.63    0.41
   5  -3  -3    8.96    0.51
  -5   3   3    9.84    0.60
  -5   3   3    9.29    0.58
   4  -3  -3    1.75    0.21
   4  -3  -3    1.54    0.24
   4  -3  -3    1.60    0.21
  -4   3   3    1.62    0.26
  -4   3   3    1.80    0.30
  -4   3   3    1.43    0.19
   3  -3  -3  196.89    5.56
   3  -3  -3  181.87    5.54
   3  -3  -3  182.15    5.57
  -3   3   3  190.46    5.54
  -3   3   3  183.39    5.64
  -3   3   3  192.59    5.39
   2  -3  -3    1.91    0.24
   2  -3  -3    1.60    0.23
   2  -3  -3    2.38    0.27
  -2   3   3    2.07    0.17
  -2   3   3    1.79    0.24
  -2   3   3    1.94    0.26
   1  -3  -3  260.64    7.66
   1  -3  -3  256.81    7.60
  -1   3   3  264.11    7.65
   0  -3  -3   20.83    0.84
   0  -3  -3   21.47    0.89
   0  -3  -3   21.25    0.83
   0   3   3   20.54    0.89
  -1  -3  -3    1.48    0.21
  -1  -3  -3    1.21    0.24
  -1  -3  -3    1.45    0.25
   1   3   3    1.32    0.25
  -2  -3  -3   41.05    1.56
  -2  -3  -3   44.47    1.57
  -2  -3  -3   41.40    1.43
   2   3   3   40.56    1.55
  -3  -3  -3   45.91    1.51
  -3  -3  -3   45.48    1.66
  -3  -3  -3   44.88    1.72
   3   3   3   40.82    1.64
  -4  -3  -3    6.07    0.62
  -4  -3  -3    6.26    0.51
   4   3   3    6.18    0.52
  -5  -3  -3    7.11    0.64
  -5  -3  -3    7.31    0.74
   5   3   3    7.54    0.60
  -6  -3  -3    0.78    0.34
  -6  -3  -3    0.47    0.31
   6   3   3    0.37    0.26
   9  -4  -3    2.94    0.44
  -9   4   3    1.96    0.45
  -9   4   3    2.23    0.49
   8  -4  -3   21.64    1.01
  -8   4   3   19.32    1.14
  -8   4   3   21.10    1.15
   7  -4  -3   26.64    0.90
   7  -4  -3   26.79    1.15
  -7   4   3   28.39    1.29
  -7   4   3   27.18    1.29
   6  -4  -3    9.59    0.59
   6  -4  -3    9.95    0.46
  -6   4   3    9.33    0.68
  -6   4   3   10.42    0.66
   5  -4  -3   21.82    0.95
   5  -4  -3   21.70    0.84
   5  -4  -3   23.06    0.88
  -5   4   3   20.78    1.01
  -5   4   3   22.77    0.83
  -5   4   3   20.92    0.98
   4  -4  -3   50.78    1.73
   4  -4  -3   53.56    1.82
   4  -4  -3   52.96    1.75
  -4   4   3   51.83    1.88
  -4   4   3   52.32    1.83
  -4   4   3   52.28    1.72
   3  -4  -3    1.67    0.24
   3  -4  -3    2.40    0.29
   3  -4  -3    1.94    0.27
  -3   4   3    1.84    0.30
  -3   4   3    1.68    0.23
  -3   4   3    2.30    0.16
   2  -4  -3    3.80    0.33
   2  -4  -3    3.49    0.34
  -2   4   3    3.21    0.39
  -2   4   3    3.94    0.38
   1  -4  -3    8.07    0.44
   1  -4  -3    8.19    0.47
   1  -4  -3    8.22    0.52
  -1   4   3    8.28    0.52
   0  -4  -3   10.57    0.55
   0  -4  -3   10.52    0.57
   0  -4  -3   10.29    0.60
   0   4   3   10.22    0.61
  -1  -4  -3    5.61    0.39
  -1  -4  -3    5.04    0.49
  -1  -4  -3    6.17    0.47
   1   4   3    5.39    0.46
  -2  -4  -3    7.33    0.56
  -2  -4  -3    8.05    0.58
  -2  -4  -3    6.52    0.42
   2   4   3    6.33    0.54
  -3  -4  -3    1.27    0.24
  -3  -4  -3    2.13    0.37
  -3  -4  -3    1.42    0.33
   3   4   3    1.49    0.32
  -4  -4  -3    8.62    0.71
   4   4   3    9.63    0.69
  -5  -4  -3   10.19    0.81
   5   4   3   11.00    0.76
   9  -5  -3   10.94    0.76
  -9   5   3   10.17    0.92
  -9   5   3   11.83    0.90
   8  -5  -3    7.00    0.66
  -8   5   3    6.35    0.72
  -8   5   3    6.19    0.70
   7  -5  -3   22.76    1.09
   7  -5  -3   23.05    0.85
  -7   5   3   23.08    1.16
  -7   5   3   22.62    1.20
   6  -5  -3   10.12    0.51
   6  -5  -3    9.79    0.66
  -6   5   3   10.58    0.68
  -6   5   3   10.37    0.74
   5  -5  -3    3.67    0.43
   5  -5  -3    3.03    0.33
  -5   5   3    2.99    0.44
  -5   5   3    3.29    0.40
   4  -5  -3   43.78    1.57
   4  -5  -3   44.64    1.64
  -4   5   3   45.40    1.63
  -4   5   3   44.70    1.56
  -4   5   3   43.05    1.71
   3  -5  -3   39.32    1.47
   3  -5  -3   39.40    1.46
  -3   5   3   40.91    1.46
  -3   5   3   38.16    1.54
   2  -5  -3   20.20    0.89
   2  -5  -3   20.00    0.91
  -2   5   3   19.31    0.90
   1  -5  -3   21.64    0.94
   1  -5  -3   22.30    1.01
   1  -5  -3   23.43    0.92
  -1   5   3   21.91    1.00
   0  -5  -3   16.53    0.78
   0  -5  -3   15.13    0.82
   0  -5  -3   15.39    0.74
   0   5   3   14.81    0.81
  -1  -5  -3    9.43    0.57
  -1  -5  -3    9.59    0.62
  -1  -5  -3   10.32    0.67
   1   5   3    9.94    0.67
  -2  -5  -3   39.77    1.64
  -2  -5  -3   39.61    1.45
  -2  -5  -3   42.05    1.65
   2   5   3   40.17    1.65
  -3  -5  -3    0.26    0.22
  -3  -5  -3    0.51    0.27
   3   5   3   -0.09    0.19
  -4  -5  -3    2.10    0.45
   4   5   3    2.82    0.48
   8  -6  -3    0.22    0.25
  -8   6   3    0.34    0.33
  -8   6   3    0.14    0.29
   7  -6  -3   27.05    1.25
   7  -6  -3   25.20    1.00
  -7   6   3   25.43    1.26
  -7   6   3   26.04    1.35
   6  -6  -3    4.00    0.39
   6  -6  -3    3.39    0.48
  -6   6   3    3.62    0.46
  -6   6   3    3.51    0.53
   5  -6  -3   17.99    0.92
   5  -6  -3   17.33    0.82
  -5   6   3   17.43    0.88
  -5   6   3   17.70    1.00
   4  -6  -3    0.87    0.29
   4  -6  -3    0.78    0.24
  -4   6   3    0.43    0.26
  -4   6   3    1.06    0.25
   3  -6  -3    3.26    0.42
   3  -6  -3    3.64    0.42
  -3   6   3    2.99    0.37
  -3   6   3    3.65    0.48
  -3   6   3    3.04    0.39
   2  -6  -3   50.52    1.93
   2  -6  -3   55.55    1.92
  -2   6   3   51.84    1.93
   1  -6  -3    7.61    0.51
   1  -6  -3    8.10    0.55
   1  -6  -3    7.97    0.60
  -1   6   3    7.69    0.59
   0  -6  -3   48.59    1.78
   0  -6  -3   47.44    1.87
   0  -6  -3   48.22    1.74
   0   6   3   45.96    1.85
  -1  -6  -3    0.89    0.31
  -1  -6  -3    0.79    0.29
  -1  -6  -3    0.59    0.23
   1   6   3    0.73    0.32
  -2  -6  -3    2.68    0.45
  -2  -6  -3    2.45    0.43
   2   6   3    2.53    0.47
  -3  -6  -3   11.11    0.83
  -3  -6  -3   12.27    0.88
   3   6   3   13.66    0.90
   8  -7  -3    0.31    0.29
  -8   7   3    0.57    0.37
  -8   7   3    0.69    0.35
   7  -7  -3    4.78    0.60
   7  -7  -3    4.29    0.43
  -7   7   3    5.28    0.62
  -7   7   3    4.71    0.68
   6  -7  -3    8.41    0.67
   6  -7  -3    7.29    0.53
  -6   7   3    8.19    0.62
  -6   7   3    7.96    0.83
   5  -7  -3    1.65    0.39
   5  -7  -3    2.27    0.35
  -5   7   3    0.98    0.35
  -5   7   3    1.54    0.32
   4  -7  -3   11.32    0.70
   4  -7  -3   10.76    0.71
  -4   7   3    9.96    0.77
  -4   7   3    9.60    0.62
   3  -7  -3    4.46    0.51
   3  -7  -3    3.84    0.50
  -3   7   3    4.84    0.53
  -3   7   3    4.19    0.43
  -3   7   3    3.06    0.49
   2  -7  -3   10.52    0.60
   2  -7  -3   11.46    0.70
   2  -7  -3   11.47    0.75
  -2   7   3    9.79    0.71
   1  -7  -3    0.67    0.24
   1  -7  -3    1.08    0.33
   1  -7  -3    0.44    0.22
  -1   7   3    0.46    0.26
   0  -7  -3   10.73    0.72
   0  -7  -3   11.16    0.81
   0  -7  -3   10.43    0.68
   0   7   3   11.71    0.81
  -1  -7  -3   11.42    0.85
  -1  -7  -3   12.90    0.76
  -1  -7  -3   12.19    0.81
   1   7   3   13.98    0.91
  -2  -7  -3    0.47    0.29
  -2  -7  -3    0.30    0.32
   2   7   3    0.16    0.29
   6  -8  -3    0.13    0.21
   6  -8  -3    0.50    0.32
  -6   8   3    0.64    0.36
   5  -8  -3    5.03    0.57
   5  -8  -3    5.85    0.67
  -5   8   3    3.93    0.61
   4  -8  -3    2.69    0.45
   4  -8  -3    2.80    0.43
  -4   8   3    2.51    0.49
   3  -8  -3    7.39    0.63
   3  -8  -3    8.32    0.67
  -3   8   3    5.91    0.73
   2  -8  -3    3.07    0.47
   2  -8  -3    2.43    0.44
  -2   8   3    2.66    0.46
   1  -8  -3    0.44    0.28
   1  -8  -3    0.36    0.28
  -1   8   3    0.28    0.27
   0  -8  -3    0.19    0.25
   0  -8  -3    0.21    0.26
   0  -8  -3   -0.12    0.25
   0   8   3    0.71    0.37
  -3   9   3    0.92    0.40
   0  10  -4    8.60    0.90
   0 -10   4    8.02    0.86
   0 -10   4    9.11    0.72
   1 -10   4   16.93    1.08
   1 -10   4   17.61    0.97
   2 -10   4   -0.13    0.22
   2 -10   4    0.21    0.28
  -3  10  -4    1.88    0.45
   3   9  -4    5.11    0.73
  -3  -9   4    5.29    0.68
  -3  -9   4    6.31    0.77
   2   9  -4   10.31    0.82
  -2  -9   4    7.97    0.82
  -2  -9   4    9.94    0.79
   1   9  -4    0.50    0.31
  -1  -9   4    0.51    0.30
  -1  -9   4    0.39    0.29
   0   9  -4    8.32    0.72
   0  -9   4    7.90    0.59
   0  -9   4    6.87    0.72
   0  -9   4    8.58    0.67
  -1   9  -4   14.04    1.00
   1  -9   4   13.50    0.90
   1  -9   4   13.37    0.78
   1  -9   4   15.03    0.84
   2  -9   4    2.92    0.43
   2  -9   4    2.19    0.42
  -3   9  -4    2.51    0.46
   3  -9   4    2.10    0.40
   3  -9   4    2.05    0.38
  -4   9  -4   29.32    1.41
   4  -9   4   31.70    1.37
   4  -9   4   31.87    1.46
  -5   9  -4    9.33    0.79
   5  -9   4   10.38    0.67
   5  -9   4    9.57    0.78
   4   8  -4   11.59    0.87
  -4  -8   4   11.27    0.87
  -4  -8   4   10.77    0.89
   3   8  -4    0.86    0.33
  -3  -8   4    0.22    0.30
  -3  -8   4   -0.16    0.22
   2   8  -4    2.60    0.50
  -2  -8   4    1.35    0.36
  -2  -8   4    2.30    0.42
   1   8  -4    1.02    0.33
  -1  -8   4    1.10    0.32
  -1  -8   4    1.78    0.40
  -1  -8   4    1.17    0.24
   0   8  -4   10.50    0.74
   0  -8   4   10.45    0.66
   0  -8   4    8.86    0.68
   0  -8   4    9.45    0.60
  -1   8  -4    1.75    0.37
   1  -8   4    1.31    0.30
   1  -8   4    1.72    0.35
   1  -8   4    1.82    0.32
   2  -8   4    2.06    0.38
   2  -8   4    1.50    0.31
  -3   8  -4    2.92    0.43
   3  -8   4    3.58    0.44
  -4   8  -4    7.44    0.62
   4  -8   4    7.90    0.56
  -5   8  -4    8.25    0.65
   5  -8   4    8.16    0.56
   6  -8   4    0.53    0.20
   5   7  -4   26.56    1.37
  -5  -7   4   29.85    1.45
   4   7  -4    1.84    0.41
  -4  -7   4    1.61    0.38
  -4  -7   4    1.74    0.42
   3   7  -4    2.37    0.44
  -3  -7   4    1.68    0.39
  -3  -7   4    1.97    0.40
   2   7  -4    2.11    0.41
  -2  -7   4    1.33    0.33
  -2  -7   4    1.77    0.38
   1   7  -4   18.06    0.97
  -1  -7   4   18.95    0.81
  -1  -7   4   20.47    0.96
  -1  -7   4   18.34    0.97
   0   7  -4    1.68    0.34
   0  -7   4    1.62    0.33
   0  -7   4    1.83    0.28
   0  -7   4    1.55    0.30
  -1   7  -4   11.80    0.69
   1  -7   4   10.22    0.66
  -2   7  -4   -0.01    0.16
   2  -7   4    0.31    0.22
  -3   7  -4    2.32    0.36
   3  -7   4    2.10    0.34
  -4   7  -4    3.26    0.42
   4  -7   4    2.53    0.35
  -5   7  -4    3.78    0.49
   5  -7   4    3.34    0.37
   6  -7   4    3.20    0.34
   6   6  -4    1.53    0.36
  -6  -6   4    0.77    0.35
   5   6  -4   20.82    1.10
  -5  -6   4   20.46    1.11
  -5  -6   4   20.63    1.08
   4   6  -4   19.86    1.03
  -4  -6   4   19.59    1.03
  -4  -6   4   19.31    1.03
   3   6  -4    0.18    0.20
  -3  -6   4   -0.01    0.17
  -3  -6   4    0.05    0.22
   2   6  -4   16.98    0.88
  -2  -6   4   16.35    0.86
  -2  -6   4   16.27    0.84
  -2  -6   4   16.45    0.66
   1   6  -4    4.34    0.48
  -1  -6   4    3.21    0.41
   0  -6   4   44.47    1.65
   1  -6   4    0.36    0.19
   2  -6   4   16.64    0.79
  -3   6  -4    7.18    0.49
   3  -6   4    6.89    0.47
  -4   6  -4   14.43    0.84
  -4   6  -4   14.42    0.74
   4  -6   4   13.90    0.68
  -5   6  -4    4.02    0.45
  -5   6  -4    3.65    0.51
   5  -6   4    3.39    0.34
  -6   6  -4   27.27    1.24
  -6   6  -4   29.80    1.42
   6  -6   4   27.83    1.04
  -7   6  -4    0.60    0.33
   7   5  -4    2.02    0.41
  -7  -5   4    1.16    0.38
   6   5  -4    4.19    0.53
  -6  -5   4    3.88    0.54
   5   5  -4    9.35    0.68
  -5  -5   4   10.87    0.70
  -5  -5   4    9.73    0.72
   4   5  -4   22.50    1.07
  -4  -5   4   24.35    1.07
  -4  -5   4   23.88    1.13
  -3  -5   4   16.64    0.57
  -3  -5   4   14.95    0.80
  -3  -5   4   17.45    0.85
   2   5  -4   10.87    0.64
  -2  -5   4   13.16    0.68
  -2  -5   4   12.41    0.47
  -2  -5   4   12.46    0.69
   1   5  -4    0.33    0.16
  -1  -5   4    0.08    0.09
  -1  -5   4    0.12    0.15
   0   5  -4   14.50    0.70
   0  -5   4   13.39    0.69
  -1   5  -4   64.96    2.20
   1  -5   4   69.66    2.02
   1  -5   4   65.05    2.20
  -2   5  -4   15.60    0.77
  -2   5  -4   18.13    0.76
  -2   5  -4   17.18    0.73
   2  -5   4   15.32    0.73
   2  -5   4   18.82    0.77
  -3   5  -4   72.87    2.26
  -3   5  -4   68.41    2.26
  -3   5  -4   70.00    2.39
   3  -5   4   73.14    2.28
   3  -5   4   65.12    2.24
  -4   5  -4    1.40    0.33
  -4   5  -4    0.88    0.21
   4  -5   4    1.29    0.22
  -5   5  -4    2.64    0.44
  -5   5  -4    3.06    0.38
   5  -5   4    2.53    0.28
  -6   5  -4    6.73    0.52
  -6   5  -4    6.51    0.72
   6  -5   4    5.88    0.36
  -7   5  -4    4.95    0.68
   8   4  -4    4.65    0.55
  -8  -4   4    5.16    0.67
   7   4  -4    0.66    0.26
  -7  -4   4    0.58    0.29
   6   4  -4   42.27    1.72
  -6  -4   4   49.12    1.85
   5   4  -4   13.11    0.73
  -5  -4   4   13.55    0.80
  -5  -4   4   15.18    0.75
  -4  -4   4    2.77    0.31
  -4  -4   4    2.50    0.36
  -4  -4   4    2.48    0.33
   3   4  -4   14.88    0.72
  -3  -4   4   14.59    0.59
  -3  -4   4   14.40    0.49
  -3  -4   4   13.42    0.70
  -3  -4   4   13.64    0.71
   2   4  -4   66.96    2.22
  -2  -4   4   66.56    2.02
  -2  -4   4   66.49    2.21
  -2  -4   4   67.77    1.95
   1   4  -4    4.48    0.35
  -1  -4   4    4.76    0.22
  -1  -4   4    5.06    0.25
  -1  -4   4    4.89    0.38
   0   4  -4   46.99    1.55
   0   4  -4   49.80    1.65
   0  -4   4   45.63    1.63
   0  -4   4   50.02    1.56
  -1   4  -4  107.80    3.30
  -1   4  -4  107.94    3.32
   1  -4   4  105.97    3.31
   1  -4   4  109.10    3.32
  -2   4  -4    2.97    0.25
  -2   4  -4    3.51    0.29
  -2   4  -4    4.00    0.34
   2  -4   4    4.00    0.30
   2  -4   4    3.47    0.29
  -3   4  -4  163.98    4.96
  -3   4  -4  164.95    5.14
  -3   4  -4  171.70    4.98
   3  -4   4  168.53    4.99
   3  -4   4  168.38    4.98
  -4   4  -4    4.14    0.33
  -4   4  -4    3.70    0.46
   4  -4   4    3.28    0.29
  -5   4  -4   41.75    1.50
  -5   4  -4   40.69    1.67
   5  -4   4   40.39    1.37
  -6   4  -4    2.47    0.45
   6  -4   4    1.26    0.19
  -7   4  -4    0.68    0.34
   8   3  -4    6.52    0.53
  -8  -3   4    8.25    0.78
   7   3  -4    4.51    0.47
  -7  -3   4    5.36    0.60
   6   3  -4   78.38    2.62
  -6  -3   4   78.47    2.69
  -6  -3   4   79.53    2.71
   5   3  -4   32.29    1.22
  -5  -3   4   31.19    1.21
  -5  -3   4   30.71    1.22
  -5  -3   4   30.74    1.28
   4   3  -4   21.11    0.90
  -4  -3   4   21.43    0.94
  -4  -3   4   23.08    0.88
  -4  -3   4   20.61    0.89
   3   3  -4   28.78    1.09
   3   3  -4   27.46    1.08
  -3  -3   4   27.83    1.07
  -3  -3   4   29.35    0.89
  -3  -3   4   28.09    1.00
   2   3  -4   18.98    0.80
  -2  -3   4   19.24    0.69
  -2  -3   4   19.93    0.67
  -2  -3   4   18.59    0.79
   1   3  -4    1.38    0.13
   1   3  -4    1.55    0.23
  -1  -3   4    1.19    0.21
   0   3  -4   16.04    0.63
   0   3  -4   16.60    0.69
   0  -3   4   16.33    0.63
   0  -3   4   16.70    0.69
   0  -3   4   16.66    0.70
  -1   3  -4   53.49    1.61
  -1   3  -4   51.13    1.71
  -1   3  -4   51.08    1.70
  -1   3  -4   51.14    1.82
   1  -3   4   55.61    1.73
   1  -3   4   51.73    1.71
  -2   3  -4    8.58    0.43
  -2   3  -4    8.19    0.48
  -2   3  -4    8.36    0.51
  -2   3  -4    8.96    0.38
   2  -3   4    7.92    0.43
   2  -3   4    8.55    0.43
  -3   3  -4   60.63    2.16
  -3   3  -4   64.23    2.00
  -3   3  -4   64.59    2.01
   3  -3   4   65.04    2.03
   3  -3   4   63.83    2.03
  -4   3  -4   86.35    2.59
  -4   3  -4   80.65    2.80
   4  -3   4   87.09    2.60
   4  -3   4   80.17    2.58
  -5   3  -4    3.97    0.51
   5  -3   4    3.94    0.30
  -6   3  -4   25.11    1.25
   6  -3   4   23.56    0.89
  -7   3  -4    2.87    0.51
   9   2  -4    3.69    0.42
  -9  -2   4    3.98    0.57
   8   2  -4    1.48    0.28
  -8  -2   4    1.68    0.39
   7   2  -4   10.32    0.59
  -7  -2   4    9.69    0.70
  -7  -2   4   10.73    0.70
  -6  -2   4   27.78    1.21
  -6  -2   4   28.62    1.20
   5   2  -4   39.42    1.47
   5   2  -4   44.77    1.49
  -5  -2   4   43.19    1.47
  -5  -2   4   42.77    1.56
  -5  -2   4   42.41    1.55
   4   2  -4   16.09    0.72
   4   2  -4   16.61    0.55
   4   2  -4   18.09    0.73
  -4  -2   4   17.20    0.55
  -4  -2   4   17.00    0.74
  -4  -2   4   16.97    0.76
  -4  -2   4   17.64    0.72
   3   2  -4  376.60   10.73
   3   2  -4  370.64   10.89
   3   2  -4  359.61   10.89
  -3  -2   4  386.43   10.74
  -3  -2   4  383.48   10.87
  -3  -2   4  383.68   10.89
   2   2  -4   15.16    0.46
   2   2  -4   14.78    0.63
   2   2  -4   13.72    0.62
  -2  -2   4   14.55    0.63
  -2  -2   4   15.83    0.55
   1   2  -4  194.66    5.54
   1   2  -4  198.68    5.67
  -1  -2   4  190.49    5.59
  -1  -2   4  185.15    5.64
   0   2  -4   22.88    0.86
   0   2  -4   22.83    0.81
   0  -2   4   22.22    0.85
   0  -2   4   23.75    0.86
  -1   2  -4    1.72    0.24
  -1   2  -4    1.89    0.10
  -1   2  -4    1.44    0.21
   1  -2   4    1.61    0.20
   1  -2   4    1.70    0.22
  -2   2  -4   29.50    1.03
  -2   2  -4   28.16    1.10
   2  -2   4   29.89    0.93
   2  -2   4   28.77    1.03
   2  -2   4   29.35    1.03
  -3   2  -4    5.87    0.34
  -3   2  -4    5.70    0.44
   3  -2   4    5.98    0.32
   3  -2   4    6.64    0.36
   3  -2   4    5.64    0.35
  -4   2  -4   46.50    1.52
  -4   2  -4   45.88    1.73
   4  -2   4   44.75    1.53
   4  -2   4   47.73    1.55
  -5   2  -4   11.53    0.74
   5  -2   4   10.20    0.51
  -6   2  -4    7.61    0.76
   6  -2   4    7.03    0.42
  -7   2  -4    8.36    0.74
   7  -2   4    8.02    0.61
  -9  -1   4    3.78    0.52
   8   1  -4   22.89    0.92
  -8  -1   4   20.78    1.03
  -8  -1   4   23.14    1.19
  -7  -1   4    1.06    0.27
  -7  -1   4    0.51    0.28
   6   1  -4   28.69    0.94
   6   1  -4   28.09    1.06
  -6  -1   4   28.61    1.15
  -6  -1   4   30.85    1.25
   5   1  -4   49.39    1.60
   5   1  -4   47.47    1.48
   5   1  -4   50.57    1.56
   5   1  -4   47.88    1.60
  -5  -1   4   50.91    1.59
  -5  -1   4   45.90    1.64
  -5  -1   4   45.23    1.70
   4   1  -4   32.48    1.09
   4   1  -4   27.99    1.07
   4   1  -4   31.75    1.00
   4   1  -4   29.58    0.98
  -4  -1   4   30.88    1.08
  -4  -1   4   31.48    0.99
  -4  -1   4   30.72    1.15
   3   1  -4   90.76    2.69
   3   1  -4   85.52    2.68
   3   1  -4   84.20    2.59
  -3  -1   4   88.51    2.59
  -3  -1   4   89.62    2.68
  -3  -1   4   84.97    2.70
   2   1  -4   15.03    0.57
   2   1  -4   14.65    0.62
   2   1  -4   15.62    0.59
   2   1  -4   15.42    0.62
  -2  -1   4   15.45    0.57
  -2  -1   4   14.95    0.62
   1   1  -4    0.97    0.17
   1   1  -4    1.31    0.12
   1   1  -4    1.47    0.19
   1   1  -4    1.07    0.15
  -1  -1   4    1.05    0.17
  -1  -1   4    1.10    0.19
  -1  -1   4    1.37    0.17
   0   1  -4    3.62    0.26
   0   1  -4    3.61    0.27
   0  -1   4    4.12    0.28
   0  -1   4    3.48    0.27
  -1   1  -4   12.70    0.55
   1  -1   4   12.19    0.55
   1  -1   4   12.57    0.40
   1  -1   4   13.56    0.56
  -2   1  -4    7.89    0.42
  -2   1  -4    8.04    0.49
   2  -1   4    8.03    0.43
   2  -1   4    8.49    0.35
   2  -1   4    8.69    0.44
  -3   1  -4    1.79    0.22
  -3   1  -4    1.75    0.29
   3  -1   4    1.87    0.24
   3  -1   4    1.77    0.23
   3  -1   4    1.74    0.22
  -4   1  -4   10.02    0.50
  -4   1  -4   10.20    0.64
   4  -1   4    9.53    0.51
   4  -1   4    9.75    0.66
  -5   1  -4    3.15    0.44
   5  -1   4    3.85    0.36
  -6   1  -4   10.14    0.76
   6  -1   4    9.96    0.56
  -7   1  -4    0.32    0.29
   7  -1   4   -0.08    0.15
  -9   0   4    0.49    0.35
   8   0  -4    3.05    0.28
  -8   0   4    2.54    0.45
  -8   0   4    2.64    0.36
   7   0  -4   21.78    0.81
   7   0  -4   22.06    0.81
  -7   0   4   21.30    1.07
  -7   0   4   21.18    0.93
   6   0  -4    0.53    0.14
   6   0  -4    0.50    0.13
   6   0  -4    0.44    0.13
  -6   0   4    0.96    0.20
  -6   0   4    0.99    0.27
   5   0  -4   40.75    1.34
   5   0  -4   40.09    1.37
   5   0  -4   43.13    1.37
  -5   0   4   42.48    1.36
  -5   0   4   40.02    1.52
  -5   0   4   41.98    1.41
   4   0  -4    2.54    0.20
   4   0  -4    2.65    0.21
   4   0  -4    2.72    0.21
   4   0  -4    2.55    0.24
  -4   0   4    1.99    0.28
  -4   0   4    2.09    0.21
  -4   0   4    2.67    0.25
  -4   0   4    2.04    0.27
   3   0  -4   12.65    0.51
   3   0  -4   12.91    0.55
   3   0  -4   13.66    0.56
  -3   0   4   12.48    0.54
  -3   0   4   12.97    0.58
  -3   0   4   13.84    0.53
  -3   0   4   12.01    0.58
   2   0  -4    3.90    0.26
   2   0  -4    3.46    0.24
   2   0  -4    3.28    0.26
   2   0  -4    3.37    0.23
  -2   0   4    3.63    0.27
  -2   0   4    3.77    0.25
  -2   0   4    3.68    0.24
   1   0  -4    4.59    0.31
   1   0  -4    4.84    0.31
   1   0  -4    4.76    0.30
  -1   0   4    4.93    0.31
  -1   0   4    4.76    0.24
  -1   0   4    5.08    0.34
   0   0  -4   53.59    1.75
   0   0  -4   53.96    1.73
   0   0   4   55.99    1.77
  -1   0  -4    0.85    0.18
  -1   0  -4    0.90    0.17
   1   0   4    1.15    0.19
   1   0   4    0.62    0.15
  -2   0  -4   11.03    0.53
   2   0   4   11.25    0.54
   2   0   4   10.60    0.53
  -3   0  -4    8.52    0.55
  -3   0  -4    8.60    0.47
   3   0   4    7.98    0.47
   3   0   4    8.07    0.47
  -4   0  -4    3.24    0.44
  -4   0  -4    3.86    0.32
   4   0   4    3.18    0.35
  -5   0  -4    3.16    0.47
   5   0   4    2.95    0.35
  -6   0  -4    0.21    0.27
   6   0   4    0.51    0.21
  -7   0  -4    5.62    0.68
   7   0   4    6.80    0.50
  -9   1   4    0.48    0.32
   8  -1  -4    3.11    0.33
   8  -1  -4    3.05    0.22
  -8   1   4    2.85    0.50
   7  -1  -4   12.44    0.51
   7  -1  -4   11.81    0.58
  -7   1   4   12.07    0.77
  -7   1   4   12.61    0.60
   6  -1  -4    5.82    0.32
   6  -1  -4    6.21    0.33
   6  -1  -4    5.96    0.36
  -6   1   4    5.81    0.48
  -6   1   4    4.81    0.51
  -6   1   4    5.35    0.35
   5  -1  -4    5.08    0.31
   5  -1  -4    6.24    0.35
   5  -1  -4    5.86    0.32
  -5   1   4    5.74    0.32
  -5   1   4    5.31    0.30
  -5   1   4    6.14    0.46
  -5   1   4    5.23    0.42
   4  -1  -4   29.72    1.03
   4  -1  -4   31.40    1.04
   4  -1  -4   29.68    1.05
  -4   1   4   30.46    1.15
  -4   1   4   28.83    1.15
  -4   1   4   29.44    1.02
   3  -1  -4   53.97    1.72
   3  -1  -4   55.38    1.73
   3  -1  -4   50.86    1.71
  -3   1   4   51.85    1.76
  -3   1   4   56.46    1.72
   2  -1  -4   13.02    0.55
   2  -1  -4   14.18    0.58
   2  -1  -4   12.48    0.55
  -2   1   4   12.47    0.54
  -2   1   4   11.89    0.55
   1  -1  -4   99.06    3.10
   1  -1  -4  105.69    3.14
  -1   1   4   98.95    3.06
  -1   1   4  106.76    3.14
   0  -1  -4    9.16    0.45
   0  -1  -4    9.75    0.48
   0   1   4    8.01    0.46
  -1  -1  -4    0.51    0.15
  -1  -1  -4    0.96    0.18
   1   1   4    0.99    0.19
  -2  -1  -4    7.92    0.44
  -2  -1  -4    7.17    0.44
   2   1   4    8.20    0.48
  -3  -1  -4   25.13    0.99
   3   1   4   22.96    0.99
  -4  -1  -4    1.61    0.35
  -4  -1  -4    1.07    0.27
   4   1   4    1.00    0.23
  -5  -1  -4    1.19    0.33
   5   1   4    1.34    0.28
  -6  -1  -4    5.04    0.62
   6   1   4    6.48    0.51
  -9   2   4   10.02    0.82
   8  -2  -4    0.96    0.23
  -8   2   4    0.57    0.29
   7  -2  -4   16.16    0.76
   7  -2  -4   16.22    0.61
  -7   2   4   17.59    0.94
  -7   2   4   16.38    0.93
   6  -2  -4    9.08    0.43
   6  -2  -4    9.71    0.52
   6  -2  -4    8.90    0.42
  -6   2   4    9.13    0.41
  -6   2   4    9.61    0.64
  -6   2   4    9.93    0.64
   5  -2  -4    1.12    0.17
   5  -2  -4    1.00    0.19
   5  -2  -4    1.29    0.19
  -5   2   4    1.27    0.26
  -5   2   4    1.03    0.16
  -5   2   4    1.02    0.24
  -5   2   4    1.13    0.14
   4  -2  -4   10.65    0.52
   4  -2  -4   11.34    0.50
   4  -2  -4   10.26    0.48
  -4   2   4    8.67    0.54
  -4   2   4   10.48    0.48
  -4   2   4   11.22    0.59
   3  -2  -4   10.80    0.52
   3  -2  -4   11.10    0.51
   3  -2  -4   11.23    0.52
  -3   2   4   10.30    0.55
  -3   2   4   11.27    0.51
   2  -2  -4   23.17    0.92
   2  -2  -4   26.85    1.03
   2  -2  -4   24.52    0.93
  -2   2   4   24.72    0.87
  -2   2   4   26.01    0.95
  -2   2   4   23.11    0.92
   1  -2  -4   21.48    0.83
   1  -2  -4   21.91    0.87
  -1   2   4   20.81    0.86
   0  -2  -4  113.56    3.39
   0  -2  -4  110.39    3.44
   0   2   4  108.24    3.44
  -1  -2  -4    1.37    0.22
  -1  -2  -4    1.77    0.27
   1   2   4    1.59    0.25
  -2  -2  -4   88.00    2.77
  -2  -2  -4   89.27    2.86
   2   2   4   87.72    2.88
  -3  -2  -4    8.15    0.48
  -3  -2  -4    7.95    0.52
   3   2   4    7.22    0.53
   4   2   4    1.46    0.30
  -5  -2  -4   11.88    0.83
   5   2   4   12.42    0.74
  -6  -2  -4    9.39    0.78
   6   2   4    8.83    0.68
   9  -3  -4   11.78    0.70
  -9   3   4   11.47    0.88
   8  -3  -4    3.10    0.40
  -8   3   4    2.84    0.48
  -8   3   4    2.86    0.50
   7  -3  -4   25.94    0.92
   7  -3  -4   27.00    1.12
  -7   3   4   26.23    1.25
  -7   3   4   28.13    1.28
   6  -3  -4   29.12    1.00
   6  -3  -4   27.38    1.11
  -6   3   4   26.88    1.20
  -6   3   4   26.45    1.23
   5  -3  -4    5.36    0.34
   5  -3  -4    5.74    0.42
   5  -3  -4    5.96    0.35
  -5   3   4    4.27    0.48
  -5   3   4    5.27    0.20
  -5   3   4    4.76    0.48
  -5   3   4    5.61    0.34
   4  -3  -4   23.34    0.96
   4  -3  -4   23.02    0.91
   4  -3  -4   24.99    0.94
  -4   3   4   24.42    0.78
  -4   3   4   24.86    1.03
  -4   3   4   25.35    1.05
  -4   3   4   23.53    0.91
   3  -3  -4    4.66    0.34
   3  -3  -4    4.27    0.33
   3  -3  -4    4.26    0.34
  -3   3   4    3.94    0.32
  -3   3   4    4.59    0.25
  -3   3   4    4.25    0.36
   2  -3  -4    6.30    0.41
   2  -3  -4    6.31    0.42
  -2   3   4    6.46    0.44
  -2   3   4    6.44    0.42
   1  -3  -4   67.19    2.23
  -1   3   4   66.96    2.23
   0  -3  -4   61.00    2.07
   0  -3  -4   59.95    1.99
   0   3   4   60.02    2.07
  -1  -3  -4   68.06    2.22
  -1  -3  -4   69.33    2.34
   1   3   4   68.30    2.34
  -2  -3  -4   16.51    0.84
  -2  -3  -4   17.11    0.88
  -2  -3  -4   16.17    0.74
   2   3   4   17.18    0.86
  -3  -3  -4   19.46    0.83
  -3  -3  -4   18.96    0.99
  -3  -3  -4   18.95    0.94
   3   3   4   18.44    0.96
  -4  -3  -4    5.82    0.65
   4   3   4    7.17    0.60
  -5  -3  -4    0.15    0.28
   5   3   4    0.14    0.24
   9  -4  -4   14.52    0.84
  -9   4   4   14.30    1.00
  -9   4   4   14.98    1.03
   8  -4  -4    9.11    0.64
  -8   4   4    7.47    0.79
  -8   4   4    8.94    0.74
   7  -4  -4   21.72    1.04
   7  -4  -4   23.30    0.86
  -7   4   4   22.79    1.14
  -7   4   4   22.36    1.16
   6  -4  -4   32.65    1.17
   6  -4  -4   31.45    1.30
  -6   4   4   33.49    1.43
  -6   4   4   32.65    1.39
   5  -4  -4    2.24    0.34
   5  -4  -4    2.10    0.27
  -5   4   4    1.64    0.31
  -5   4   4    2.06    0.35
  -5   4   4    2.26    0.40
   4  -4  -4    2.41    0.31
   4  -4  -4    2.20    0.31
   4  -4  -4    2.21    0.30
  -4   4   4    2.60    0.37
  -4   4   4    3.50    0.40
  -4   4   4    2.72    0.31
   3  -4  -4   11.74    0.62
   3  -4  -4   12.03    0.63
  -3   4   4   12.10    0.49
  -3   4   4   11.31    0.60
  -3   4   4   11.69    0.67
   2  -4  -4   44.43    1.59
   2  -4  -4   43.46    1.61
  -2   4   4   46.15    1.63
   1  -4  -4    0.91    0.24
   1  -4  -4    1.27    0.24
  -1   4   4    1.25    0.27
   0  -4  -4   12.18    0.64
   0  -4  -4   12.48    0.70
   0   4   4   11.30    0.68
  -1  -4  -4    3.15    0.42
  -1  -4  -4    4.40    0.48
  -1  -4  -4    4.17    0.42
   1   4   4    3.46    0.45
  -2  -4  -4   16.65    0.90
  -2  -4  -4   15.74    0.76
  -2  -4  -4   16.78    0.90
   2   4   4   16.66    0.90
  -3  -4  -4    7.40    0.50
  -3  -4  -4    8.69    0.67
  -3  -4  -4    9.04    0.67
   3   4   4    7.64    0.64
  -4  -4  -4    1.20    0.38
   4   4   4    1.58    0.40
  -5  -4  -4    0.43    0.30
   5   4   4    0.41    0.32
   9  -5  -4    8.23    0.75
  -9   5   4    7.91    0.86
  -9   5   4    6.32    0.80
   8  -5  -4    8.85    0.66
  -8   5   4    8.40    0.75
  -8   5   4    8.41    0.85
   7  -5  -4    0.75    0.30
   7  -5  -4    0.50    0.16
  -7   5   4    0.38    0.29
  -7   5   4    0.75    0.28
   6  -5  -4   35.28    1.46
   6  -5  -4   35.26    1.32
  -6   5   4   37.09    1.60
  -6   5   4   36.27    1.51
   5  -5  -4   12.97    0.75
   5  -5  -4   13.14    0.69
  -5   5   4   16.01    0.88
  -5   5   4   14.30    0.79
   4  -5  -4   20.62    0.92
   4  -5  -4   19.51    0.95
  -4   5   4   20.89    0.95
  -4   5   4   20.70    1.03
  -4   5   4   19.88    0.89
   3  -5  -4    3.17    0.40
   3  -5  -4    4.18    0.44
  -3   5   4    4.15    0.48
  -3   5   4    4.14    0.44
   2  -5  -4   23.51    1.08
   2  -5  -4   25.26    1.07
  -2   5   4   24.32    1.09
   1  -5  -4    3.42    0.40
   1  -5  -4    3.15    0.42
  -1   5   4    2.77    0.41
   0  -5  -4   26.31    1.19
   0  -5  -4   25.41    1.09
   0  -5  -4   25.34    1.12
   0   5   4   25.84    1.18
  -1  -5  -4   38.26    1.45
  -1  -5  -4   39.32    1.61
  -1  -5  -4   37.73    1.55
   1   5   4   37.18    1.58
  -2  -5  -4    0.82    0.24
  -2  -5  -4    0.68    0.29
  -2  -5  -4    0.48    0.26
   2   5   4    0.22    0.24
  -3  -5  -4   14.41    0.93
  -3  -5  -4   14.09    0.90
   3   5   4   13.68    0.92
  -4  -5  -4    2.47    0.51
   4   5   4    2.10    0.47
   8  -6  -4    5.23    0.62
  -8   6   4    6.41    0.74
  -8   6   4    5.18    0.72
   7  -6  -4    4.55    0.38
   7  -6  -4    4.62    0.56
  -7   6   4    4.16    0.55
  -7   6   4    3.69    0.57
   6  -6  -4    4.13    0.53
   6  -6  -4    3.98    0.43
  -6   6   4    3.34    0.53
  -6   6   4    4.40    0.54
   5  -6  -4   24.20    1.11
   5  -6  -4   22.27    1.01
  -5   6   4   22.48    1.17
  -5   6   4   22.34    1.07
   4  -6  -4    0.44    0.23
   4  -6  -4    0.78    0.25
  -4   6   4    0.50    0.22
  -4   6   4    0.89    0.32
   3  -6  -4   31.95    1.37
   3  -6  -4   32.97    1.36
  -3   6   4   31.32    1.42
  -3   6   4   32.70    1.36
   2  -6  -4    0.50    0.25
   2  -6  -4    0.75    0.26
  -2   6   4    0.48    0.24
   1  -6  -4    0.87    0.27
   1  -6  -4    0.96    0.29
  -1   6   4    1.90    0.38
   0  -6  -4   -0.07    0.18
   0  -6  -4   -0.08    0.22
   0  -6  -4    0.10    0.22
   0   6   4    0.14    0.21
  -1  -6  -4   46.20    1.88
  -1  -6  -4   41.58    1.76
  -1  -6  -4   44.03    1.67
   1   6   4   45.50    1.86
  -2  -6  -4    0.61    0.32
  -2  -6  -4    0.06    0.26
   2   6   4    0.51    0.30
  -3  -6  -4    5.08    0.67
   3   6   4    5.16    0.68
   7  -7  -4    1.01    0.36
   7  -7  -4    1.11    0.26
  -7   7   4    1.58    0.37
  -7   7   4    1.27    0.42
   6  -7  -4    1.42    0.30
   6  -7  -4    2.16    0.41
  -6   7   4    2.43    0.51
  -6   7   4    1.78    0.38
   5  -7  -4    4.11    0.55
   5  -7  -4    2.60    0.40
  -5   7   4    2.88    0.42
  -5   7   4    2.72    0.49
   4  -7  -4   11.76    0.77
   4  -7  -4   12.01    0.77
  -4   7   4   12.09    0.88
  -4   7   4   10.62    0.69
   3  -7  -4    1.51    0.34
   3  -7  -4    1.89    0.38
  -3   7   4    1.28    0.38
  -3   7   4    1.62    0.42
   2  -7  -4    3.53    0.52
   2  -7  -4    3.13    0.44
  -2   7   4    4.86    0.59
   1  -7  -4    0.74    0.28
   1  -7  -4    0.05    0.23
  -1   7   4    0.66    0.31
   0  -7  -4    4.67    0.57
   0  -7  -4    5.98    0.61
   0  -7  -4    5.59    0.68
   0   7   4    7.10    0.74
  -1  -7  -4    0.75    0.34
  -1  -7  -4    0.82    0.33
   1   7   4    0.76    0.36
   6  -8  -4    0.12    0.27
   6  -8  -4    0.41    0.23
  -6   8   4   -0.16    0.28
   5  -8  -4    2.17    0.42
   5  -8  -4    2.03    0.44
  -5   8   4    1.41    0.43
   4  -8  -4    4.38    0.59
   4  -8  -4    3.75    0.52
  -4   8   4    3.57    0.60
   3  -8  -4   13.30    0.90
   3  -8  -4   14.28    0.91
  -3   8   4   14.28    0.99
   2  -8  -4    0.22    0.25
   2  -8  -4    0.61    0.32
  -2   8   4    0.31    0.29
   1  -8  -4    7.39    0.81
   1  -8  -4    9.32    0.71
  -1   8   4    7.44    0.82
   0 -10   5    0.83    0.42
   0 -10   5    0.24    0.33
   1 -10   5    7.38    0.68
   1 -10   5    6.23    0.72
   2 -10   5    6.63    0.79
   3   9  -5    3.20    0.58
  -3  -9   5    4.43    0.63
  -3  -9   5    4.33    0.60
   2   9  -5    7.42    0.83
  -2  -9   5    5.47    0.65
  -2  -9   5    7.10    0.77
   1   9  -5   26.98    1.41
  -1  -9   5   30.75    1.41
  -1  -9   5   29.17    1.45
   0   9  -5    3.74    0.55
   0  -9   5    3.46    0.49
   0  -9   5    3.31    0.52
   0  -9   5    3.62    0.45
   1  -9   5    3.67    0.47
   1  -9   5    3.64    0.47
   1  -9   5    4.13    0.56
   2  -9   5   13.68    0.84
   2  -9   5   12.80    0.82
  -3   9  -5    0.99    0.33
   3  -9   5    0.82    0.27
   4  -9   5    2.03    0.38
   4   8  -5    1.03    0.38
  -4  -8   5    0.86    0.39
  -4  -8   5    1.23    0.38
   3   8  -5    1.73    0.42
  -3  -8   5    2.50    0.50
  -3  -8   5    2.51    0.47
   2   8  -5    0.89    0.34
  -2  -8   5    0.66    0.32
  -2  -8   5    0.47    0.28
   1   8  -5    4.70    0.59
  -1  -8   5    2.77    0.45
  -1  -8   5    3.84    0.49
  -1  -8   5    3.03    0.35
   0   8  -5    4.42    0.55
   0  -8   5    5.02    0.61
   0  -8   5    4.80    0.53
   0  -8   5    4.52    0.46
  -1   8  -5    4.54    0.56
   1  -8   5    5.43    0.59
   2  -8   5    0.72    0.29
  -3   8  -5   16.98    0.89
   3  -8   5   15.65    0.88
  -4   8  -5    6.15    0.55
   4  -8   5    6.34    0.53
   5  -8   5    6.19    0.52
   5   7  -5    6.50    0.72
  -5  -7   5    6.21    0.72
   4   7  -5   10.25    0.80
  -4  -7   5   11.07    0.81
  -4  -7   5   11.13    0.78
   3   7  -5    0.73    0.30
  -3  -7   5    0.37    0.25
  -3  -7   5    0.19    0.24
   2   7  -5   20.00    1.06
  -2  -7   5   21.95    1.09
  -2  -7   5   21.11    0.91
  -2  -7   5   19.99    1.03
   1   7  -5    4.68    0.54
  -1  -7   5    3.77    0.49
   0  -7   5    3.30    0.44
   1  -7   5   12.85    0.76
  -2   7  -5    2.52    0.36
   2  -7   5    2.07    0.34
  -3   7  -5   11.23    0.66
   3  -7   5   11.72    0.68
  -4   7  -5    6.69    0.52
   4  -7   5    7.12    0.51
  -5   7  -5    0.33    0.29
   5  -7   5    0.07    0.16
  -6   7  -5    7.95    0.84
   6  -7   5    7.02    0.48
   6   6  -5    6.91    0.72
  -6  -6   5    6.17    0.70
   5   6  -5   14.80    0.89
  -5  -6   5   13.75    0.89
  -5  -6   5   14.23    0.86
   4   6  -5    4.94    0.56
  -4  -6   5    4.09    0.51
  -4  -6   5    4.01    0.52
  -3  -6   5   17.58    0.92
  -3  -6   5   18.43    0.96
   2   6  -5   27.34    1.20
  -2  -6   5   27.55    1.22
   1   6  -5   12.62    0.70
  -1  -6   5   11.73    0.70
   0   6  -5   12.66    0.70
   0  -6   5   13.02    0.71
  -1   6  -5   15.65    0.77
   1  -6   5   14.74    0.76
  -2   6  -5    2.48    0.36
  -2   6  -5    2.84    0.33
  -2   6  -5    2.04    0.29
   2  -6   5    1.92    0.30
  -3   6  -5   18.26    0.81
  -3   6  -5   18.12    0.92
   3  -6   5   16.77    0.81
  -4   6  -5   23.42    1.15
  -4   6  -5   23.15    1.00
   4  -6   5   25.00    1.01
  -5   6  -5    0.78    0.31
   5  -6   5    1.08    0.23
  -6   6  -5    2.42    0.49
   6  -6   5    2.91    0.32
  -7   6  -5    3.21    0.58
   7   5  -5    0.98    0.31
  -7  -5   5    0.69    0.36
   6   5  -5   28.01    1.31
  -6  -5   5   29.89    1.38
   5   5  -5   28.38    1.26
  -5  -5   5   27.08    1.29
  -5  -5   5   28.86    1.25
   4   5  -5    0.35    0.19
  -4  -5   5   -0.15    0.17
  -4  -5   5    0.37    0.23
   3   5  -5   28.84    1.19
  -3  -5   5   26.87    1.17
  -3  -5   5   28.03    0.96
  -3  -5   5   26.99    1.18
   2   5  -5   66.88    2.31
  -2  -5   5   67.33    1.98
  -2  -5   5   70.52    2.01
  -2  -5   5   62.12    2.27
   1   5  -5    2.38    0.33
  -1  -5   5    2.28    0.14
  -1  -5   5    2.66    0.21
  -1  -5   5    2.44    0.35
   0   5  -5   51.42    1.79
   0  -5   5   49.55    1.77
  -1   5  -5   12.31    0.63
  -1   5  -5   11.64    0.60
   1  -5   5   12.65    0.52
   1  -5   5   11.60    0.62
  -2   5  -5    9.95    0.50
  -2   5  -5   10.40    0.58
  -2   5  -5    9.50    0.54
   2  -5   5    9.70    0.56
  -3   5  -5    0.57    0.17
  -3   5  -5    0.56    0.25
  -3   5  -5    0.61    0.16
   3  -5   5    0.86    0.22
  -4   5  -5   67.63    2.18
  -4   5  -5   64.70    2.39
   4  -5   5   66.95    2.19
  -5   5  -5    7.39    0.74
   5  -5   5    6.66    0.43
  -6   5  -5    6.55    0.76
   6  -5   5    7.36    0.43
  -7   5  -5    7.54    0.85
   8   4  -5    8.17    0.65
  -8  -4   5    8.74    0.74
   7   4  -5    7.00    0.66
  -7  -4   5    6.36    0.68
   6   4  -5    1.48    0.30
  -6  -4   5    1.64    0.32
  -6  -4   5    1.76    0.38
   5   4  -5  109.38    3.49
  -5  -4   5  110.26    3.49
  -5  -4   5  108.93    3.42
  -5  -4   5  103.93    3.54
   4   4  -5   47.01    1.70
  -4  -4   5   47.36    1.69
  -4  -4   5   44.44    1.56
  -4  -4   5   45.04    1.70
   3   4  -5  161.13    4.99
  -3  -4   5  160.83    4.97
  -3  -4   5  166.85    4.73
  -3  -4   5  161.47    4.80
   2   4  -5   73.10    2.44
   2   4  -5   72.33    2.38
  -2  -4   5   70.68    2.37
  -2  -4   5   70.87    2.18
   1   4  -5    3.13    0.21
   1   4  -5    3.31    0.40
   1   4  -5    3.44    0.37
  -1  -4   5    2.95    0.34
   0   4  -5    0.21    0.15
   0   4  -5    0.19    0.11
   0   4  -5    0.06    0.14
   0  -4   5    0.36    0.16
  -1   4  -5    8.98    0.59
  -1   4  -5    9.08    0.50
  -1   4  -5    9.23    0.50
   1  -4   5    9.13    0.52
  -2   4  -5   27.62    1.03
  -2   4  -5   27.05    0.91
  -2   4  -5   24.14    1.06
   2  -4   5   26.99    1.03
   2  -4   5   25.71    1.02
  -3   4  -5    4.53    0.29
  -3   4  -5    3.70    0.32
  -3   4  -5    4.36    0.48
   3  -4   5    4.30    0.34
   3  -4   5    4.64    0.35
  -4   4  -5   19.50    0.99
  -4   4  -5   18.80    0.79
   4  -4   5   20.26    0.83
  -5   4  -5   26.07    1.28
   5  -4   5   27.70    1.04
  -6   4  -5    4.88    0.63
   6  -4   5    4.11    0.33
  -7   4  -5   22.19    1.31
   8   3  -5    8.41    0.61
  -8  -3   5    9.18    0.73
   7   3  -5    2.57    0.37
  -7  -3   5    1.81    0.36
  -7  -3   5    2.16    0.38
   6   3  -5    0.77    0.22
  -6  -3   5    1.20    0.27
  -6  -3   5    0.78    0.29
   5   3  -5    1.03    0.24
   5   3  -5    1.76    0.28
  -5  -3   5    1.41    0.26
  -5  -3   5    1.33    0.25
  -5  -3   5    1.54    0.30
   4   3  -5   28.09    1.11
  -4  -3   5   27.49    1.10
  -4  -3   5   27.71    0.88
  -4  -3   5   28.36    1.06
   3   3  -5    5.03    0.39
  -3  -3   5    5.29    0.33
  -3  -3   5    5.75    0.28
  -3  -3   5    5.53    0.40
   2   3  -5   76.43    2.56
   2   3  -5   78.80    2.31
  -2  -3   5   80.78    2.56
  -2  -3   5   83.57    2.44
   1   3  -5   11.45    0.57
   1   3  -5   11.20    0.45
  -1  -3   5   10.91    0.57
   0   3  -5    2.54    0.29
   0   3  -5    2.23    0.24
   0  -3   5    3.01    0.32
  -1   3  -5    3.86    0.31
  -1   3  -5    3.90    0.31
  -1   3  -5    3.64    0.18
   1  -3   5    3.57    0.34
   1  -3   5    3.45    0.35
  -2   3  -5   17.09    0.59
  -2   3  -5   18.07    0.75
  -2   3  -5   17.54    0.80
   2  -3   5   17.69    0.75
   2  -3   5   16.51    0.74
  -3   3  -5    1.15    0.26
  -3   3  -5    1.11    0.20
  -3   3  -5    0.79    0.24
   3  -3   5    0.87    0.19
   3  -3   5    1.32    0.23
  -4   3  -5    6.79    0.56
   4  -3   5    6.60    0.41
  -5   3  -5   10.30    0.73
   5  -3   5    8.71    0.50
  -6   3  -5   -0.18    0.24
   6  -3   5    0.30    0.15
  -7   3  -5    5.85    0.75
   9   2  -5    2.91    0.38
  -9  -2   5    2.34    0.46
  -9  -2   5    1.68    0.44
   8   2  -5   12.19    0.68
  -8  -2   5   11.72    0.78
  -8  -2   5   11.82    0.83
   7   2  -5   14.21    0.71
  -7  -2   5   14.39    0.86
  -7  -2   5   14.43    0.81
   6   2  -5   11.96    0.64
  -6  -2   5   14.37    0.77
  -6  -2   5   13.12    0.72
   5   2  -5   35.40    1.31
   5   2  -5   37.68    1.33
   5   2  -5   34.65    1.11
  -5  -2   5   35.53    1.35
  -5  -2   5   33.18    1.34
  -5  -2   5   36.43    1.30
  -5  -2   5   36.59    1.12
   4   2  -5   25.84    0.85
   4   2  -5   25.67    1.00
   4   2  -5   26.37    0.78
  -4  -2   5   24.23    0.98
  -4  -2   5   23.91    0.99
  -4  -2   5   26.32    0.85
   3   2  -5    9.03    0.40
   3   2  -5    9.73    0.51
  -3  -2   5    9.84    0.49
  -3  -2   5    9.83    0.41
  -3  -2   5    9.91    0.51
   2   2  -5    2.41    0.21
   2   2  -5    2.21    0.27
   2   2  -5    2.15    0.21
  -2  -2   5    1.70    0.25
  -2  -2   5    1.70    0.21
   1   2  -5   45.37    1.58
   1   2  -5   48.36    1.44
  -1  -2   5   46.64    1.59
   0   2  -5    5.16    0.33
   0   2  -5    5.61    0.37
   0  -2   5    5.37    0.36
  -1   2  -5   29.09    1.07
  -1   2  -5   29.14    1.11
   1  -2   5   29.43    1.08
   1  -2   5   29.40    1.09
  -2   2  -5    7.19    0.49
  -2   2  -5    8.35    0.45
   2  -2   5    8.99    0.47
   2  -2   5    7.92    0.45
  -3   2  -5   28.17    1.22
  -3   2  -5   28.88    1.10
   3  -2   5   31.75    1.13
   3  -2   5   29.51    1.11
   3  -2   5   30.90    1.01
  -4   2  -5    2.41    0.36
  -4   2  -5    2.93    0.41
   4  -2   5    3.22    0.33
  -5   2  -5   11.64    0.80
   5  -2   5   12.40    0.62
  -6   2  -5    1.42    0.41
   6  -2   5    1.05    0.24
  -7   2  -5    0.21    0.33
   7  -2   5    0.42    0.30
   9   1  -5    0.12    0.15
  -9  -1   5    0.07    0.22
  -9  -1   5    0.50    0.31
  -8  -1   5    2.31    0.43
  -8  -1   5    1.47    0.32
   7   1  -5   18.39    0.82
  -7  -1   5   20.57    0.93
  -7  -1   5   19.31    1.00
   6   1  -5   19.32    0.70
   6   1  -5   17.97    0.80
  -6  -1   5   18.83    0.86
  -6  -1   5   19.94    0.96
  -6  -1   5   19.77    1.00
   5   1  -5   21.94    0.89
   5   1  -5   22.17    0.81
   5   1  -5   23.79    0.90
   5   1  -5   22.57    0.79
  -5  -1   5   23.25    0.80
  -5  -1   5   21.03    0.96
  -5  -1   5   22.82    0.88
   4   1  -5  102.74    3.03
   4   1  -5  102.99    3.01
   4   1  -5   95.84    3.12
   4   1  -5  107.14    3.14
  -4  -1   5  103.70    3.04
  -4  -1   5  101.12    3.12
  -4  -1   5   95.74    3.18
   3   1  -5    6.35    0.33
   3   1  -5    5.57    0.37
   3   1  -5    5.93    0.37
  -3  -1   5    6.09    0.38
   2   1  -5   75.02    2.21
   2   1  -5   70.41    2.22
   2   1  -5   70.57    2.28
  -2  -1   5   71.01    2.28
   1   1  -5   29.46    1.12
   1   1  -5   30.49    1.08
   1   1  -5   32.40    0.98
  -1  -1   5   31.55    1.12
   0   1  -5    7.89    0.43
   0   1  -5    7.39    0.41
   0  -1   5    7.98    0.44
  -1   1  -5    0.42    0.15
   1  -1   5    0.20    0.13
  -2   1  -5   18.64    0.78
  -2   1  -5   16.96    0.83
   2  -1   5   18.28    0.63
   2  -1   5   17.42    0.77
   2  -1   5   19.72    0.79
  -3   1  -5   34.97    1.26
  -3   1  -5   32.78    1.38
   3  -1   5   36.39    1.17
   3  -1   5   33.82    1.26
   3  -1   5   33.09    1.27
  -4   1  -5    0.22    0.22
   4  -1   5    0.44    0.18
  -5   1  -5    0.28    0.25
   5  -1   5    0.76    0.22
  -6   1  -5    9.08    0.75
   6  -1   5    7.79    0.53
  -7   1  -5    0.67    0.39
   7  -1   5    0.83    0.24
  -9   0   5    0.53    0.31
   8   0  -5    1.62    0.23
  -8   0   5    1.69    0.41
  -8   0   5    1.78    0.31
   7   0  -5    9.09    0.45
   7   0  -5    8.86    0.47
  -7   0   5    8.60    0.65
  -7   0   5    8.52    0.53
   6   0  -5   30.18    1.09
   6   0  -5   29.26    1.05
  -6   0   5   29.60    1.26
  -6   0   5   29.67    1.12
   5   0  -5    0.27    0.13
   5   0  -5    0.50    0.14
   5   0  -5    0.44    0.12
  -5   0   5    0.38    0.18
  -5   0   5    0.44    0.14
   4   0  -5   29.01    1.06
   4   0  -5   30.49    1.08
   4   0  -5   27.85    1.02
  -4   0   5   29.18    1.12
  -4   0   5   29.13    1.14
  -4   0   5   30.07    1.07
   3   0  -5   10.25    0.49
   3   0  -5   10.10    0.47
   3   0  -5    9.16    0.49
  -3   0   5    9.45    0.49
  -3   0   5   10.49    0.50
   2   0  -5    3.66    0.29
   2   0  -5    4.04    0.28
   2   0  -5    3.90    0.26
  -2   0   5    2.91    0.24
  -2   0   5    3.52    0.31
   1   0  -5    1.05    0.18
   1   0  -5    1.17    0.21
  -1   0   5    1.82    0.17
  -1   0   5    1.52    0.23
   0   0  -5    3.70    0.30
   0   0  -5    4.23    0.32
   0   0   5    4.84    0.23
   0   0   5    4.37    0.33
  -1   0  -5    5.71    0.37
  -1   0  -5    5.44    0.37
   1   0   5    5.56    0.38
  -2   0  -5   23.27    0.94
   2   0   5   23.03    0.95
  -3   0  -5    4.16    0.35
  -3   0  -5    3.04    0.41
   3   0   5    3.93    0.40
  -4   0  -5    1.06    0.32
   4   0   5    0.96    0.24
  -5   0  -5    2.44    0.45
   5   0   5    1.93    0.33
  -6   0  -5    3.49    0.56
   6   0   5    3.38    0.42
  -9   1   5   14.33    0.98
   8  -1  -5    9.99    0.55
   8  -1  -5   10.28    0.48
  -8   1   5   10.39    0.77
   7  -1  -5    3.56    0.35
   7  -1  -5    3.80    0.29
  -7   1   5    4.36    0.52
  -7   1   5    3.48    0.34
   6  -1  -5   71.54    2.29
   6  -1  -5   66.90    2.25
  -6   1   5   73.49    2.50
  -6   1   5   74.04    2.27
  -6   1   5   72.18    2.49
   5  -1  -5    4.59    0.32
   5  -1  -5    4.55    0.31
   5  -1  -5    3.55    0.33
  -5   1   5    3.21    0.39
  -5   1   5    3.63    0.29
  -5   1   5    4.19    0.44
   4  -1  -5   51.11    1.68
   4  -1  -5   53.24    1.69
   4  -1  -5   51.99    1.69
  -4   1   5   48.52    1.74
  -4   1   5   50.65    1.67
  -4   1   5   48.57    1.77
   3  -1  -5    1.44    0.21
   3  -1  -5    1.50    0.21
   3  -1  -5    1.86    0.25
  -3   1   5    0.92    0.19
  -3   1   5    1.08    0.20
   2  -1  -5    0.17    0.13
   2  -1  -5    0.11    0.11
  -2   1   5    0.09    0.13
  -2   1   5    0.22    0.11
   1  -1  -5  229.42    6.71
   1  -1  -5  231.82    6.74
  -1   1   5  227.11    6.63
  -1   1   5  224.60    6.74
   0  -1  -5   15.26    0.66
   0  -1  -5   14.93    0.68
   0   1   5   14.12    0.68
  -1  -1  -5   68.26    2.23
  -1  -1  -5   71.46    2.28
   1   1   5   66.53    2.27
  -2  -1  -5    2.16    0.31
  -2  -1  -5    2.03    0.27
   2   1   5    2.13    0.31
  -3  -1  -5    1.27    0.26
   3   1   5    1.37    0.27
  -4  -1  -5    5.19    0.58
   4   1   5    5.03    0.51
  -5  -1  -5    0.25    0.26
   5   1   5    0.48    0.24
  -6  -1  -5    2.28    0.49
   6   1   5    1.45    0.34
  -9   2   5    4.53    0.64
   8  -2  -5    9.05    0.43
   8  -2  -5    8.88    0.55
  -8   2   5    9.22    0.74
  -8   2   5    8.75    0.72
   7  -2  -5    2.85    0.34
   7  -2  -5    3.44    0.28
  -7   2   5    3.57    0.50
  -7   2   5    4.09    0.51
   6  -2  -5    5.56    0.36
   6  -2  -5    4.87    0.39
  -6   2   5    4.67    0.52
  -6   2   5    5.77    0.57
  -6   2   5    5.39    0.31
   5  -2  -5   74.14    2.47
   5  -2  -5   74.74    2.43
   5  -2  -5   77.74    2.44
  -5   2   5   80.82    2.61
  -5   2   5   78.50    2.41
  -5   2   5   74.54    2.59
   4  -2  -5    0.93    0.21
   4  -2  -5    0.78    0.17
   4  -2  -5    0.87    0.19
  -4   2   5    0.78    0.18
  -4   2   5    0.57    0.21
   3  -2  -5  103.37    3.29
   3  -2  -5  105.56    3.29
  -3   2   5  113.20    3.32
  -3   2   5  104.10    3.32
   2  -2  -5    8.97    0.50
   2  -2  -5    9.31    0.52
  -2   2   5    9.42    0.51
  -2   2   5    9.13    0.48
   1  -2  -5    0.59    0.17
   1  -2  -5    0.27    0.15
  -1   2   5    0.36    0.18
   0  -2  -5    4.71    0.36
   0  -2  -5    4.84    0.39
   0   2   5    4.99    0.40
  -1  -2  -5   43.15    1.53
  -1  -2  -5   43.12    1.59
   1   2   5   43.03    1.60
  -2  -2  -5   99.76    3.12
  -2  -2  -5  101.76    3.21
   2   2   5   94.12    3.20
  -3  -2  -5   36.49    1.44
   3   2   5   36.08    1.46
   4   2   5   18.30    0.97
  -5  -2  -5    0.61    0.34
   5   2   5    0.66    0.28
   9  -3  -5    1.54    0.31
  -9   3   5    1.17    0.41
  -9   3   5    1.25    0.41
   8  -3  -5    2.98    0.40
   8  -3  -5    2.79    0.26
  -8   3   5    2.93    0.53
  -8   3   5    3.13    0.51
   7  -3  -5    3.92    0.31
   7  -3  -5    3.79    0.42
  -7   3   5    3.01    0.48
  -7   3   5    2.68    0.47
   6  -3  -5    4.56    0.35
   6  -3  -5    5.52    0.50
  -6   3   5    4.71    0.54
  -6   3   5    4.55    0.54
   5  -3  -5   12.66    0.67
   5  -3  -5   12.08    0.60
  -5   3   5   12.50    0.59
  -5   3   5   12.68    0.73
  -5   3   5   12.47    0.72
   4  -3  -5    3.38    0.37
   4  -3  -5    3.84    0.34
  -4   3   5    4.91    0.27
  -4   3   5    3.85    0.43
  -4   3   5    4.73    0.42
   3  -3  -5    2.86    0.33
   3  -3  -5    2.06    0.28
  -3   3   5    2.27    0.30
  -3   3   5    2.05    0.31
   2  -3  -5  124.33    3.92
   2  -3  -5  128.23    3.97
  -2   3   5  125.57    3.93
  -2   3   5  129.43    3.96
   1  -3  -5    0.56    0.20
   1  -3  -5    0.75    0.21
  -1   3   5    0.40    0.19
   0  -3  -5   12.84    0.71
   0  -3  -5   13.16    0.67
   0   3   5   13.98    0.74
  -1  -3  -5   37.76    1.50
  -1  -3  -5   37.23    1.40
   1   3   5   40.14    1.54
  -2  -3  -5   68.47    2.39
  -2  -3  -5   67.65    2.25
   2   3   5   64.32    2.37
  -3  -3  -5    4.15    0.51
  -3  -3  -5    4.30    0.44
   3   3   5    4.55    0.53
   4   3   5   32.89    1.46
  -5  -3  -5    7.76    0.81
   5   3   5    8.72    0.73
   9  -4  -5    2.79    0.43
  -9   4   5    1.24    0.44
  -9   4   5    2.19    0.49
   8  -4  -5   19.97    0.78
   8  -4  -5   20.47    1.00
  -8   4   5   18.80    1.12
  -8   4   5   19.64    1.14
   7  -4  -5   15.49    0.69
   7  -4  -5   13.46    0.78
  -7   4   5   15.93    0.92
  -7   4   5   14.28    0.92
   6  -4  -5   11.53    0.61
   6  -4  -5   12.06    0.70
  -6   4   5   12.96    0.81
  -6   4   5   11.51    0.75
   5  -4  -5   37.99    1.43
   5  -4  -5   36.41    1.36
  -5   4   5   36.78    1.48
  -5   4   5   33.93    1.48
   4  -4  -5    2.13    0.30
   4  -4  -5    2.33    0.33
  -4   4   5    2.18    0.36
  -4   4   5    2.32    0.31
   3  -4  -5   13.07    0.69
   3  -4  -5   11.37    0.66
  -3   4   5   12.86    0.71
  -3   4   5   12.80    0.69
   2  -4  -5    0.13    0.19
   2  -4  -5    0.21    0.16
  -2   4   5    0.40    0.20
  -2   4   5    0.12    0.16
   1  -4  -5    2.99    0.38
   1  -4  -5    3.17    0.41
  -1   4   5    3.65    0.45
   0  -4  -5    0.93    0.26
   0  -4  -5    0.96    0.27
   0   4   5    1.02    0.27
  -1  -4  -5   49.53    1.89
  -1  -4  -5   49.47    1.78
   1   4   5   48.89    1.91
  -2  -4  -5   -0.12    0.18
  -2  -4  -5    0.69    0.28
   2   4   5    0.17    0.26
  -3  -4  -5    0.32    0.19
  -3  -4  -5    0.24    0.25
   3   4   5    0.15    0.23
   4   4   5    3.31    0.53
   9  -5  -5    0.66    0.30
  -9   5   5    0.27    0.30
  -9   5   5    0.47    0.35
   8  -5  -5   32.08    1.19
   8  -5  -5   35.17    1.46
  -8   5   5   29.63    1.55
  -8   5   5   33.01    1.55
   7  -5  -5   11.42    0.62
   7  -5  -5   12.90    0.79
  -7   5   5   10.84    0.83
  -7   5   5   12.12    0.83
   6  -5  -5    0.66    0.20
   6  -5  -5    0.59    0.26
  -6   5   5    0.57    0.26
  -6   5   5    0.62    0.30
   5  -5  -5   10.29    0.62
   5  -5  -5    9.58    0.66
  -5   5   5   10.32    0.69
  -5   5   5   12.06    0.77
   4  -5  -5   51.00    1.84
   4  -5  -5   47.69    1.79
  -4   5   5   47.95    1.88
  -4   5   5   47.35    1.76
   3  -5  -5    0.95    0.28
   3  -5  -5    0.67    0.23
  -3   5   5    1.36    0.31
  -3   5   5    0.68    0.26
   2  -5  -5    7.85    0.56
   2  -5  -5    8.12    0.59
  -2   5   5    8.58    0.62
   1  -5  -5    1.63    0.34
   1  -5  -5    1.61    0.33
  -1   5   5    1.51    0.33
   0  -5  -5    3.61    0.44
   0  -5  -5    5.46    0.59
   0   5   5    4.96    0.57
  -1  -5  -5   -0.20    0.18
  -1  -5  -5    0.13    0.23
   1   5   5   -0.01    0.25
  -2  -5  -5    0.55    0.25
  -2  -5  -5    0.76    0.31
   2   5   5    0.32    0.27
   3   5   5    0.79    0.37
   8  -6  -5    6.89    0.48
   8  -6  -5    7.62    0.75
  -8   6   5    7.58    0.79
  -8   6   5    7.25    0.84
   7  -6  -5    8.95    0.81
   7  -6  -5    9.98    0.60
  -7   6   5   10.25    0.83
  -7   6   5    8.52    0.73
   6  -6  -5    0.08    0.24
   6  -6  -5    0.07    0.15
  -6   6   5   -0.05    0.21
  -6   6   5    0.12    0.27
   5  -6  -5   17.97    0.97
   5  -6  -5   16.60    0.89
  -5   6   5   16.63    1.00
  -5   6   5   16.54    0.92
   4  -6  -5    1.34    0.31
   4  -6  -5    1.55    0.35
  -4   6   5    1.24    0.31
  -4   6   5    1.83    0.40
   3  -6  -5    7.63    0.62
   3  -6  -5    7.79    0.60
  -3   6   5    7.94    0.65
  -3   6   5    7.27    0.59
   2  -6  -5   -0.36    0.20
   2  -6  -5    0.20    0.22
  -2   6   5   -0.02    0.25
   1  -6  -5   14.00    0.90
   1  -6  -5   14.22    0.82
  -1   6   5   13.52    0.87
   0  -6  -5    0.78    0.26
   0  -6  -5    0.58    0.29
   0   6   5    0.47    0.29
  -1  -6  -5    6.79    0.74
  -1  -6  -5    6.71    0.62
   1   6   5    7.69    0.79
  -2  -6  -5   -0.01    0.27
   2   6   5    0.19    0.28
   7  -7  -5    2.53    0.47
   7  -7  -5    3.78    0.46
  -7   7   5    3.02    0.62
  -7   7   5    3.81    0.55
   6  -7  -5    2.88    0.42
   6  -7  -5    3.65    0.52
  -6   7   5    2.95    0.49
  -6   7   5    3.30    0.58
   5  -7  -5   10.92    0.79
   5  -7  -5   10.55    0.73
  -5   7   5   12.34    0.77
  -5   7   5   11.81    0.88
   4  -7  -5    1.07    0.31
   4  -7  -5    0.82    0.29
  -4   7   5    1.19    0.33
  -4   7   5    1.32    0.38
   3  -7  -5    0.70    0.30
   3  -7  -5    0.56    0.28
  -3   7   5    0.29    0.28
   2  -7  -5    0.81    0.34
   2  -7  -5    0.29    0.28
  -2   7   5    0.41    0.28
   1  -7  -5    0.31    0.27
   1  -7  -5    0.87    0.33
  -1   7   5    1.29    0.41
   0  -7  -5   28.41    1.30
   0  -7  -5   25.31    1.41
   0   7   5   27.89    1.43
   4  -8  -5    0.35    0.29
   4  -8  -5   -0.04    0.25
  -4   8   5    0.29    0.34
   3  -8  -5    2.97    0.50
   3  -8  -5    2.96    0.53
  -3   8   5    2.60    0.55
   3   9  -6    4.43    0.65
  -3  -9   6    4.31    0.65
  -3  -9   6    4.93    0.66
   2   9  -6    0.98    0.35
  -2  -9   6    0.56    0.31
  -2  -9   6    0.64    0.35
   1   9  -6    0.61    0.34
  -1  -9   6    0.28    0.28
  -1  -9   6    0.51    0.29
   0   9  -6    9.33    0.78
   0  -9   6    9.95    0.67
   0  -9   6   10.53    0.79
   0  -9   6    9.63    0.71
   1  -9   6   17.82    1.03
  -2   9  -6    2.19    0.41
   2  -9   6    1.18    0.35
   3  -9   6   14.74    0.90
   4  -9   6    4.34    0.55
   4   8  -6    3.09    0.54
  -4  -8   6    3.13    0.54
  -4  -8   6    3.05    0.53
   3   8  -6    4.29    0.61
  -3  -8   6    3.70    0.57
  -3  -8   6    3.82    0.58
   2   8  -6   18.75    1.08
  -2  -8   6   18.56    1.04
  -2  -8   6   19.24    1.10
   1   8  -6    0.33    0.23
  -1  -8   6   -0.18    0.23
   0   8  -6    0.59    0.27
   0  -8   6   -0.04    0.25
  -1   8  -6    4.27    0.53
   1  -8   6    4.41    0.56
  -2   8  -6   15.54    0.83
   2  -8   6   14.78    0.88
   3  -8   6   -0.08    0.21
   4  -8   6   19.92    1.00
   5  -8   6   11.61    0.72
   6   7  -6    0.32    0.42
  -6  -7   6    1.09    0.40
   5   7  -6    4.20    0.60
  -5  -7   6    3.68    0.54
  -5  -7   6    3.89    0.57
   4   7  -6   13.26    0.91
  -4  -7   6   14.44    0.91
  -4  -7   6   14.55    0.93
   3   7  -6    1.64    0.39
  -3  -7   6    0.96    0.33
  -3  -7   6    1.48    0.36
  -2  -7   6   45.99    1.85
   1   7  -6    2.58    0.40
  -1  -7   6    3.12    0.46
   0   7  -6   37.32    1.52
   0  -7   6   36.53    1.53
  -1   7  -6    5.45    0.54
   1  -7   6    4.26    0.48
  -2   7  -6    2.31    0.33
   2  -7   6    2.39    0.38
  -3   7  -6   10.06    0.69
   3  -7   6   10.12    0.65
  -4   7  -6   11.52    0.82
   4  -7   6   11.41    0.68
  -5   7  -6    7.12    0.76
   5  -7   6    6.46    0.51
  -6   7  -6    0.65    0.35
   6  -7   6    0.37    0.22
   6   6  -6    0.50    0.30
  -6  -6   6    0.24    0.26
   5   6  -6    7.77    0.66
  -5  -6   6    8.77    0.67
  -5  -6   6    8.27    0.69
  -4  -6   6    5.26    0.59
  -4  -6   6    4.93    0.56
   3   6  -6    3.10    0.44
  -3  -6   6    2.99    0.46
   2   6  -6   11.81    0.74
  -2  -6   6   11.76    0.75
   1   6  -6   19.97    0.97
  -1  -6   6   18.93    0.95
   0   6  -6    3.73    0.44
   0  -6   6    4.09    0.45
  -1   6  -6   14.50    0.72
  -1   6  -6   13.67    0.74
   1  -6   6   14.59    0.78
  -2   6  -6    6.58    0.48
  -2   6  -6    6.14    0.41
  -2   6  -6    6.08    0.49
   2  -6   6    6.39    0.49
  -3   6  -6    2.13    0.37
   3  -6   6    2.81    0.37
  -4   6  -6    3.12    0.49
   4  -6   6    2.39    0.34
  -5   6  -6   18.40    1.08
   5  -6   6   19.37    0.87
  -6   6  -6    0.08    0.27
   6  -6   6    0.35    0.18
   7   5  -6   10.25    0.76
  -7  -5   6   10.95    0.82
   6   5  -6    0.66    0.28
  -6  -5   6    0.43    0.32
   5   5  -6   25.94    1.16
  -5  -5   6   22.49    1.13
  -5  -5   6   23.81    1.13
  -5  -5   6   22.95    0.99
  -4  -5   6   21.12    0.85
  -4  -5   6   21.37    1.02
  -4  -5   6   22.20    1.05
   3   5  -6    3.53    0.44
  -3  -5   6    3.84    0.45
  -3  -5   6    4.11    0.29
   2   5  -6   49.34    1.78
  -2  -5   6   45.42    1.49
  -2  -5   6   48.12    1.76
   1   5  -6   19.79    0.93
  -1  -5   6   20.04    0.92
   0   5  -6    9.52    0.50
   0   5  -6    9.53    0.59
   0  -5   6   10.48    0.61
  -1   5  -6    8.32    0.51
  -1   5  -6    6.78    0.46
   1  -5   6    6.51    0.47
  -2   5  -6   19.12    0.92
  -2   5  -6   19.48    0.88
  -2   5  -6   20.16    0.76
   2  -5   6   20.20    0.90
  -3   5  -6    4.70    0.54
   3  -5   6    3.17    0.38
  -4   5  -6    4.26    0.56
   4  -5   6    4.22    0.42
  -5   5  -6   10.34    0.80
   5  -5   6    9.55    0.57
  -6   5  -6    6.41    0.77
   6  -5   6    6.92    0.47
   8   4  -6    4.68    0.56
  -8  -4   6    3.98    0.60
   7   4  -6   10.38    0.69
  -7  -4   6    9.50    0.68
  -7  -4   6    9.83    0.74
   6   4  -6   13.56    0.78
  -6  -4   6   13.68    0.76
  -6  -4   6   13.64    0.83
   5   4  -6    2.09    0.35
  -5  -4   6    2.23    0.36
  -5  -4   6    2.18    0.32
  -5  -4   6    2.14    0.39
   4   4  -6   65.07    2.28
   4   4  -6   64.24    2.26
  -4  -4   6   64.70    2.25
  -4  -4   6   66.35    2.14
   3   4  -6   47.52    1.74
  -3  -4   6   46.68    1.58
  -3  -4   6   48.97    1.73
   2   4  -6   22.74    1.01
  -2  -4   6   24.37    1.02
   1   4  -6  199.94    5.66
   1   4  -6  189.01    5.85
  -1  -4   6  191.84    5.85
   0   4  -6   49.17    1.63
   0   4  -6   48.61    1.73
   0  -4   6   48.24    1.73
  -1   4  -6   51.54    1.52
  -1   4  -6   49.32    1.72
  -1   4  -6   49.27    1.87
  -1   4  -6   49.14    1.71
   1  -4   6   44.83    1.70
  -2   4  -6   34.87    1.36
  -2   4  -6   34.57    1.10
  -2   4  -6   35.67    1.31
  -2   4  -6   34.40    1.45
   2  -4   6   33.47    1.30
  -3   4  -6   30.41    1.27
  -3   4  -6   33.03    1.33
   3  -4   6   29.61    1.19
  -4   4  -6    0.28    0.24
   4  -4   6    0.00    0.15
  -5   4  -6    6.32    0.69
   5  -4   6    5.35    0.42
  -6   4  -6    5.01    0.69
   6  -4   6    4.53    0.39
   8   3  -6    0.36    0.22
  -8  -3   6   -0.02    0.26
  -8  -3   6    0.13    0.26
   7   3  -6    3.17    0.40
  -7  -3   6    2.18    0.42
  -7  -3   6    2.99    0.45
   6   3  -6   17.13    0.85
  -6  -3   6   18.04    0.93
  -6  -3   6   18.77    0.92
   5   3  -6    6.53    0.49
  -5  -3   6    7.23    0.49
  -5  -3   6    6.69    0.52
  -5  -3   6    7.71    0.52
   4   3  -6   34.80    1.31
  -4  -3   6   33.72    1.09
  -4  -3   6   33.85    1.29
  -4  -3   6   31.07    1.23
   3   3  -6   20.95    0.90
  -3  -3   6   20.09    0.82
  -3  -3   6   19.55    0.87
   2   3  -6    1.73    0.27
   2   3  -6    2.03    0.15
  -2  -3   6    1.93    0.29
   1   3  -6    3.88    0.38
   1   3  -6    3.70    0.25
  -1  -3   6    3.52    0.37
   0   3  -6    8.03    0.49
   0   3  -6    8.02    0.44
   0  -3   6    8.41    0.50
  -1   3  -6   38.64    1.42
  -1   3  -6   39.77    1.42
   1  -3   6   39.19    1.42
  -2   3  -6   47.13    1.72
  -2   3  -6   48.47    1.66
   2  -3   6   45.85    1.64
  -3   3  -6   69.84    2.25
  -3   3  -6   66.08    2.38
   3  -3   6   68.20    2.26
  -4   3  -6   10.19    0.70
  -4   3  -6   10.27    0.67
   4  -3   6    8.75    0.55
  -5   3  -6    5.49    0.65
   5  -3   6    4.61    0.44
  -6   3  -6    5.82    0.74
   6  -3   6    5.89    0.44
   9   2  -6    0.47    0.22
  -9  -2   6    0.34    0.34
  -9  -2   6    0.61    0.31
  -8  -2   6    2.81    0.43
  -8  -2   6    2.04    0.44
   7   2  -6    2.75    0.36
  -7  -2   6    2.77    0.41
  -7  -2   6    2.13    0.38
   6   2  -6   26.16    1.10
   6   2  -6   25.88    1.03
  -6  -2   6   27.47    1.15
  -6  -2   6   29.09    1.21
   5   2  -6    2.23    0.21
   5   2  -6    2.31    0.31
   5   2  -6    2.26    0.17
  -5  -2   6    2.29    0.31
  -5  -2   6    2.11    0.31
   4   2  -6   40.52    1.50
   4   2  -6   41.99    1.35
   4   2  -6   42.52    1.27
  -4  -2   6   42.16    1.50
  -4  -2   6   40.97    1.49
   3   2  -6   25.29    0.89
   3   2  -6   23.89    1.00
  -3  -2   6   24.21    0.99
   2   2  -6   65.44    2.05
   2   2  -6   64.80    2.01
   2   2  -6   64.93    2.15
  -2  -2   6   63.49    2.14
   1   2  -6    6.04    0.26
   1   2  -6    5.69    0.40
  -1  -2   6    6.53    0.42
   0   2  -6  145.93    4.29
   0   2  -6  138.91    4.30
   0  -2   6  138.90    4.31
  -1   2  -6    3.86    0.40
  -1   2  -6    4.24    0.34
   1  -2   6    4.17    0.36
  -2   2  -6    3.99    0.39
  -2   2  -6    4.17    0.45
   2  -2   6    4.24    0.35
  -3   2  -6    3.07    0.34
  -3   2  -6    3.00    0.42
   3  -2   6    2.99    0.36
  -4   2  -6    5.05    0.58
   4  -2   6    5.05    0.42
  -5   2  -6    4.60    0.61
   5  -2   6    4.37    0.44
  -6   2  -6    7.17    0.80
   6  -2   6    5.50    0.52
   9   1  -6    4.66    0.44
  -9  -1   6    4.70    0.64
  -9  -1   6    5.04    0.56
   8   1  -6    0.41    0.18
  -8  -1   6    0.11    0.25
  -8  -1   6    0.48    0.23
   7   1  -6    3.18    0.36
  -7  -1   6    1.87    0.38
  -7  -1   6    3.24    0.41
   6   1  -6    6.71    0.36
   6   1  -6    5.84    0.42
  -6  -1   6    6.31    0.52
  -6  -1   6    6.55    0.46
  -6  -1   6    5.69    0.64
   5   1  -6   15.56    0.61
   5   1  -6   15.03    0.60
   5   1  -6   14.49    0.69
   5   1  -6   14.74    0.69
  -5  -1   6   12.99    0.72
  -5  -1   6   14.48    0.68
   4   1  -6    5.89    0.39
   4   1  -6    5.52    0.34
  -4  -1   6    5.81    0.43
  -4  -1   6    6.48    0.42
   3   1  -6   66.10    2.21
   3   1  -6   66.72    2.13
  -3  -1   6   70.34    2.22
   2   1  -6    5.17    0.34
   2   1  -6    4.58    0.37
   2   1  -6    6.02    0.31
  -2  -1   6    5.82    0.40
   1   1  -6    0.59    0.17
   1   1  -6    0.17    0.13
  -1  -1   6    0.44    0.16
   0   1  -6   14.86    0.67
   0   1  -6   14.96    0.69
   0  -1   6   13.76    0.68
  -1   1  -6    6.60    0.42
   1  -1   6    5.11    0.39
  -2   1  -6    4.39    0.37
  -2   1  -6    4.28    0.46
   2  -1   6    3.23    0.36
   2  -1   6    4.16    0.21
  -3   1  -6   25.30    1.01
  -3   1  -6   23.03    1.11
   3  -1   6   22.68    1.00
  -4   1  -6   19.78    1.06
   4  -1   6   20.48    0.94
  -5   1  -6    0.34    0.28
   5  -1   6    0.51    0.21
  -6   1  -6    1.57    0.44
   6  -1   6    1.74    0.34
  -9   0   6    8.16    0.86
   8   0  -6    3.22    0.34
  -8   0   6    3.48    0.41
  -8   0   6    2.93    0.50
   7   0  -6    3.23    0.34
   7   0  -6    2.96    0.30
  -7   0   6    3.05    0.45
  -7   0   6    2.96    0.36
   6   0  -6    4.11    0.39
   6   0  -6    3.64    0.29
  -6   0   6    3.32    0.45
  -6   0   6    3.21    0.35
   5   0  -6   13.13    0.60
   5   0  -6   14.12    0.66
   5   0  -6   14.18    0.65
  -5   0   6   13.33    0.74
  -5   0   6   14.14    0.65
   4   0  -6    0.07    0.11
   4   0  -6   -0.05    0.10
  -4   0   6   -0.07    0.12
  -4   0   6    0.26    0.15
   3   0  -6   39.93    1.41
   3   0  -6   39.17    1.36
  -3   0   6   39.76    1.36
  -3   0   6   37.96    1.39
   2   0  -6   14.67    0.68
   2   0  -6   13.44    0.63
  -2   0   6   14.12    0.67
  -2   0   6   14.34    0.58
   1   0  -6    2.60    0.31
   1   0  -6    2.88    0.31
  -1   0   6    3.37    0.21
  -1   0   6    3.05    0.34
   0   0  -6    5.12    0.39
   0   0  -6    4.19    0.34
   0   0   6    4.60    0.23
   0   0   6    4.53    0.38
  -1   0  -6   21.89    0.92
  -1   0  -6   21.58    0.91
   1   0   6   20.65    0.91
  -2   0  -6  149.19    4.56
   2   0   6  146.29    4.57
  -3   0  -6    0.23    0.16
  -3   0  -6    0.63    0.26
   3   0   6    0.27    0.18
  -4   0  -6   24.11    1.21
   4   0   6   23.03    1.06
  -5   0  -6    5.57    0.68
   5   0   6    7.04    0.56
  -6   0  -6   -0.08    0.28
   6   0   6    0.16    0.23
  -9   1   6    0.42    0.32
   8  -1  -6    7.25    0.47
   8  -1  -6    7.44    0.45
  -8   1   6    6.74    0.72
   7  -1  -6   55.68    1.89
   7  -1  -6   55.84    1.87
  -7   1   6   55.92    2.13
  -7   1   6   55.81    1.87
   6  -1  -6    3.48    0.35
   6  -1  -6    3.62    0.36
  -6   1   6    3.53    0.46
  -6   1   6    3.30    0.43
   5  -1  -6   55.59    1.80
   5  -1  -6   49.63    1.76
   5  -1  -6   51.24    1.79
  -5   1   6   53.61    1.89
  -5   1   6   51.64    1.92
  -5   1   6   53.80    1.78
   4  -1  -6   16.07    0.71
   4  -1  -6   15.46    0.72
  -4   1   6   16.82    0.73
  -4   1   6   16.12    0.75
   3  -1  -6    0.39    0.16
   3  -1  -6    0.34    0.14
  -3   1   6    0.58    0.18
  -3   1   6    0.32    0.17
   2  -1  -6  128.86    4.00
   2  -1  -6  128.13    3.96
  -2   1   6  127.12    3.90
  -2   1   6  134.95    4.01
   1  -1  -6    1.68    0.28
   1  -1  -6    1.12    0.22
  -1   1   6    0.62    0.20
  -1   1   6    0.96    0.16
   0  -1  -6    9.29    0.56
   0  -1  -6    9.76    0.54
   0   1   6    9.38    0.57
  -1  -1  -6    1.52    0.30
  -1  -1  -6    1.12    0.25
   1   1   6    1.03    0.24
  -2  -1  -6   53.99    1.88
  -2  -1  -6   53.02    1.83
   2   1   6   48.34    1.85
  -3  -1  -6    4.19    0.47
   3   1   6    4.02    0.48
  -4  -1  -6   14.93    0.95
   4   1   6   13.54    0.81
  -5  -1  -6   20.44    1.18
   5   1   6   20.22    1.06
  -9   2   6    0.62    0.35
   8  -2  -6    0.32    0.15
   8  -2  -6    0.56    0.21
  -8   2   6    0.03    0.28
  -8   2   6    0.47    0.27
   7  -2  -6   49.04    1.74
   7  -2  -6   49.91    1.66
  -7   2   6   44.44    1.88
  -7   2   6   49.07    1.93
   6  -2  -6   26.44    1.03
   6  -2  -6   26.32    1.07
  -6   2   6   25.64    1.18
  -6   2   6   25.03    1.19
   5  -2  -6   15.74    0.73
   5  -2  -6   15.66    0.75
   5  -2  -6   17.27    0.89
  -5   2   6   14.89    0.71
  -5   2   6   15.76    0.82
  -5   2   6   15.20    0.83
   4  -2  -6   58.48    1.97
   4  -2  -6   55.13    1.95
  -4   2   6   57.74    1.96
  -4   2   6   60.41    2.03
   3  -2  -6   17.50    0.82
   3  -2  -6   17.82    0.81
  -3   2   6   19.47    0.83
  -3   2   6   18.93    0.84
   2  -2  -6    0.49    0.17
   2  -2  -6    0.36    0.16
  -2   2   6    0.20    0.14
  -2   2   6    0.09    0.14
   1  -2  -6   69.10    2.31
   1  -2  -6   69.17    2.35
  -1   2   6   70.79    2.25
  -1   2   6   69.50    2.35
   0  -2  -6    1.25    0.26
   0  -2  -6    1.20    0.28
   0   2   6    1.15    0.26
  -1  -2  -6  107.72    3.56
  -1  -2  -6  112.75    3.49
   1   2   6  109.86    3.58
  -2  -2  -6    4.41    0.48
  -2  -2  -6    5.09    0.49
   2   2   6    4.02    0.49
  -3  -2  -6    1.20    0.28
   3   2   6    1.13    0.31
   4   2   6    1.17    0.34
  -5  -2  -6   17.55    1.12
   5   2   6   18.61    1.04
   9  -3  -6    0.65    0.27
  -9   3   6    0.76    0.38
  -9   3   6    0.31    0.37
   8  -3  -6   28.43    1.07
   8  -3  -6   27.16    1.21
  -8   3   6   28.34    1.40
  -8   3   6   27.65    1.40
   7  -3  -6    6.68    0.52
   7  -3  -6    6.89    0.46
  -7   3   6    6.16    0.66
  -7   3   6    6.55    0.68
   6  -3  -6    3.14    0.40
   6  -3  -6    2.09    0.30
  -6   3   6    2.27    0.40
  -6   3   6    1.75    0.37
   5  -3  -6    6.22    0.44
   5  -3  -6    5.70    0.46
  -5   3   6    6.24    0.52
  -5   3   6    6.61    0.53
  -5   3   6    6.13    0.44
   4  -3  -6   90.39    2.95
   4  -3  -6   87.65    2.95
  -4   3   6   90.57    3.01
  -4   3   6   95.83    2.95
   3  -3  -6    0.72    0.22
   3  -3  -6    0.79    0.23
  -3   3   6    0.61    0.21
  -3   3   6    0.50    0.22
   2  -3  -6    0.61    0.20
   2  -3  -6    0.46    0.21
  -2   3   6    0.67    0.22
  -2   3   6    0.09    0.15
   1  -3  -6    1.01    0.25
   1  -3  -6    1.34    0.26
  -1   3   6    1.44    0.30
   0  -3  -6   27.61    1.22
   0  -3  -6   29.15    1.18
   0   3   6   27.76    1.23
  -1  -3  -6    0.96    0.28
  -1  -3  -6    1.83    0.33
   1   3   6    1.57    0.35
  -2  -3  -6   13.97    0.82
  -2  -3  -6   12.16    0.70
   2   3   6   12.93    0.82
  -3  -3  -6    4.33    0.48
   3   3   6    4.54    0.56
   4   3   6    3.72    0.53
   9  -4  -6    3.46    0.46
  -9   4   6    3.23    0.58
  -9   4   6    3.02    0.58
   8  -4  -6    4.27    0.51
   8  -4  -6    3.82    0.39
  -8   4   6    4.83    0.65
  -8   4   6    3.28    0.56
   7  -4  -6   21.73    0.94
   7  -4  -6   21.37    1.06
  -7   4   6   21.78    1.15
  -7   4   6   21.83    1.18
   6  -4  -6    3.89    0.41
   6  -4  -6    4.03    0.48
  -6   4   6    4.11    0.55
  -6   4   6    3.68    0.51
   5  -4  -6   40.28    1.55
   5  -4  -6   43.76    1.63
  -5   4   6   41.80    1.68
  -5   4   6   40.35    1.65
   4  -4  -6   25.34    1.12
   4  -4  -6   25.92    1.13
  -4   4   6   27.12    1.19
  -4   4   6   25.19    1.11
   3  -4  -6    3.50    0.43
   3  -4  -6    4.17    0.46
  -3   4   6    4.03    0.48
  -3   4   6    4.85    0.50
   2  -4  -6    8.75    0.62
   2  -4  -6    8.76    0.60
  -2   4   6    7.70    0.56
  -2   4   6    9.35    0.63
   1  -4  -6   16.62    0.92
   1  -4  -6   17.28    0.85
  -1   4   6   15.35    0.88
   0  -4  -6    0.63    0.23
   0  -4  -6    0.45    0.24
   0   4   6    0.52    0.28
  -1  -4  -6   27.28    1.18
  -1  -4  -6   27.81    1.31
   1   4   6   26.75    1.29
  -2  -4  -6    0.26    0.27
  -2  -4  -6    0.90    0.28
   2   4   6    0.75    0.35
  -3  -4  -6   11.00    0.87
   3   4   6    9.76    0.81
   8  -5  -6    2.42    0.42
   8  -5  -6    2.48    0.34
  -8   5   6    2.42    0.51
  -8   5   6    2.12    0.46
   7  -5  -6    3.71    0.42
   7  -5  -6    3.02    0.46
  -7   5   6    4.07    0.59
  -7   5   6    4.53    0.61
   6  -5  -6    6.68    0.63
   6  -5  -6    6.67    0.50
  -6   5   6    5.42    0.64
  -6   5   6    5.34    0.61
   5  -5  -6   12.41    0.74
   5  -5  -6   11.68    0.77
  -5   5   6   13.60    0.88
  -5   5   6   13.59    0.81
   4  -5  -6    0.51    0.26
   4  -5  -6    0.42    0.20
  -4   5   6    0.44    0.25
  -4   5   6    1.04    0.32
   3  -5  -6    1.41    0.32
   3  -5  -6    1.13    0.30
  -3   5   6    0.65    0.28
  -3   5   6    1.07    0.31
   2  -5  -6    0.22    0.20
   2  -5  -6    0.18    0.21
  -2   5   6   -0.21    0.18
  -2   5   6    0.22    0.24
   1  -5  -6    2.01    0.36
   1  -5  -6    3.04    0.47
  -1   5   6    2.37    0.43
   0  -5  -6   27.33    1.32
   0  -5  -6   25.48    1.19
   0   5   6   27.76    1.34
  -1  -5  -6    2.60    0.42
  -1  -5  -6    2.57    0.47
   1   5   6    2.13    0.45
  -2  -5  -6    8.29    0.85
  -2  -5  -6    6.55    0.63
   2   5   6   10.03    0.79
   7  -6  -6    2.19    0.36
   7  -6  -6    1.35    0.39
  -7   6   6    1.34    0.44
  -7   6   6    1.55    0.40
   6  -6  -6    1.00    0.33
   6  -6  -6    1.19    0.29
  -6   6   6    1.27    0.34
  -6   6   6    1.97    0.47
   5  -6  -6   10.18    0.68
   5  -6  -6   10.84    0.75
  -5   6   6   10.51    0.75
  -5   6   6   10.01    0.78
   4  -6  -6    0.27    0.22
   4  -6  -6   -0.29    0.18
  -4   6   6   -0.10    0.22
   3  -6  -6    0.10    0.23
   3  -6  -6    0.08    0.25
  -3   6   6    0.30    0.25
  -3   6   6    0.16    0.25
   2  -6  -6    1.11    0.33
   2  -6  -6    1.19    0.33
  -2   6   6    0.49    0.29
  -2   6   6    0.55    0.28
   1  -6  -6    3.82    0.50
   1  -6  -6    3.56    0.54
  -1   6   6    3.54    0.55
   0  -6  -6    1.06    0.37
   0  -6  -6    1.18    0.36
   0   6   6    1.94    0.47
  -1  -6  -6    0.58    0.34
  -1  -6  -6    0.36    0.30
   1   6   6    0.85    0.40
   6  -7  -6    6.69    0.67
   6  -7  -6    5.26    0.64
  -6   7   6    6.89    0.74
  -6   7   6    5.72    0.76
   5  -7  -6   40.03    1.78
   5  -7  -6   42.67    1.78
  -5   7   6   42.95    1.89
  -5   7   6   39.99    1.73
   4  -7  -6    0.07    0.25
   4  -7  -6   -0.09    0.28
  -4   7   6   -0.28    0.26
   3  -7  -6    2.30    0.44
  -3   7   6    2.11    0.46
   2  -7  -6    3.69    0.57
   2  -7  -6    3.94    0.54
  -2   7   6    4.92    0.66
  -2   7   6    4.50    0.63
   1  -7  -6    0.78    0.35
   1  -7  -6    0.78    0.35
  -1   7   6    1.37    0.43
   2   9  -7    8.38    0.88
  -2  -9   7    7.78    0.83
  -2  -9   7    9.65    0.79
   1   9  -7    6.23    0.75
  -1  -9   7    6.42    0.73
   0   9  -7    5.21    0.67
   0  -9   7    4.97    0.68
   1  -9   7    4.68    0.61
   2  -9   7    0.62    0.32
   3  -9   7    0.44    0.29
   4   8  -7    7.12    0.80
  -4  -8   7    5.38    0.68
  -4  -8   7    4.99    0.65
   3   8  -7    0.61    0.29
  -3  -8   7    0.34    0.29
  -3  -8   7    0.17    0.27
  -2  -8   7    1.91    0.43
  -2  -8   7    1.59    0.41
  -1  -8   7   18.26    1.05
   0  -8   7   13.71    0.87
   1  -8   7   -0.02    0.20
   2  -8   7   14.46    0.86
   3  -8   7    0.76    0.29
   4  -8   7    3.80    0.49
   5   7  -7    0.18    0.26
  -5  -7   7    0.18    0.29
  -5  -7   7    0.49    0.33
  -4  -7   7    8.29    0.69
  -4  -7   7    6.93    0.72
   3   7  -7   12.29    0.81
  -3  -7   7   11.13    0.79
   2   7  -7    0.86    0.28
  -2  -7   7    1.33    0.35
   1   7  -7    9.98    0.71
  -1  -7   7    8.71    0.66
   0   7  -7   39.71    1.61
   0  -7   7   37.54    1.58
  -1   7  -7    4.06    0.48
   1  -7   7    2.84    0.43
  -2   7  -7   14.29    0.81
   2  -7   7   13.50    0.79
  -3   7  -7   15.03    0.89
   3  -7   7   13.37    0.80
  -4   7  -7    5.67    0.68
   4  -7   7    6.24    0.54
  -5   7  -7    1.28    0.40
   5  -7   7    1.87    0.35
   6   6  -7    3.21    0.52
  -6  -6   7    3.24    0.55
   5   6  -7    6.46    0.67
  -5  -6   7    4.70    0.58
  -5  -6   7    5.66    0.63
   4   6  -7    5.66    0.64
  -4  -6   7    7.20    0.71
  -4  -6   7    7.05    0.60
   3   6  -7   23.20    1.15
  -3  -6   7   24.64    1.16
   2   6  -7    1.96    0.37
  -2  -6   7    3.87    0.50
   1   6  -7   23.49    1.10
  -1  -6   7   23.08    1.09
   0   6  -7    2.78    0.32
   0   6  -7    3.55    0.45
   0  -6   7    2.25    0.39
  -1   6  -7    0.19    0.19
  -1   6  -7    0.24    0.17
   1  -6   7    0.09    0.20
  -2   6  -7    1.62    0.33
   2  -6   7    1.09    0.29
  -3   6  -7   63.22    2.33
   3  -6   7   63.25    2.23
  -4   6  -7    5.20    0.62
   4  -6   7    5.68    0.49
  -5   6  -7   12.37    0.88
   5  -6   7   12.13    0.70
   7   5  -7    2.42    0.43
  -7  -5   7    2.61    0.49
   6   5  -7   16.34    0.92
  -6  -5   7   16.63    0.99
   5   5  -7    3.65    0.48
  -5  -5   7    4.28    0.52
  -5  -5   7    4.09    0.41
  -5  -5   7    3.55    0.47
   4   5  -7   12.29    0.74
  -4  -5   7   11.62    0.72
  -4  -5   7   10.69    0.57
   3   5  -7   24.52    1.14
   3   5  -7   24.30    1.18
  -3  -5   7   25.31    1.13
  -3  -5   7   24.54    0.93
   2   5  -7    3.57    0.51
   2   5  -7    2.12    0.37
  -2  -5   7    2.40    0.25
  -2  -5   7    2.63    0.38
   1   5  -7   56.53    2.06
   1   5  -7   57.68    1.84
   1   5  -7   55.41    2.16
  -1  -5   7   59.21    2.07
   0   5  -7    2.99    0.39
   0   5  -7    3.66    0.53
   0   5  -7    3.13    0.33
   0  -5   7    2.28    0.34
  -1   5  -7    9.69    0.57
  -1   5  -7    9.55    0.50
  -1   5  -7    9.87    0.61
  -1   5  -7    9.74    0.71
   1  -5   7    8.22    0.59
  -2   5  -7   14.39    0.74
  -2   5  -7   13.73    0.76
   2  -5   7   13.40    0.74
  -3   5  -7   18.50    0.99
   3  -5   7   18.72    0.90
  -4   5  -7    4.28    0.57
   4  -5   7    3.30    0.41
  -5   5  -7    2.64    0.50
   5  -5   7    2.96    0.38
  -6   5  -7    9.79    0.86
   6  -5   7    9.35    0.60
   8   4  -7    1.49    0.34
  -8  -4   7    2.24    0.46
  -8  -4   7    1.92    0.42
   7   4  -7    3.78    0.49
  -7  -4   7    3.15    0.45
  -7  -4   7    4.36    0.57
   6   4  -7   36.66    1.50
  -6  -4   7   33.87    1.50
  -6  -4   7   37.11    1.45
   5   4  -7   13.91    0.78
   5   4  -7   12.71    0.76
  -5  -4   7   12.94    0.69
  -5  -4   7   13.09    0.75
   4   4  -7   10.38    0.65
  -4  -4   7   10.21    0.56
  -4  -4   7   10.27    0.64
   3   4  -7   82.78    2.75
  -3  -4   7   84.64    2.75
  -3  -4   7   76.67    2.56
   2   4  -7   25.45    0.86
   2   4  -7   25.34    1.11
  -2  -4   7   26.06    1.11
   1   4  -7   17.17    0.84
   1   4  -7   16.92    0.69
  -1  -4   7   16.44    0.82
   0   4  -7   27.73    1.08
   0   4  -7   29.31    1.18
   0  -4   7   28.00    1.18
  -1   4  -7    7.31    0.51
  -1   4  -7    7.40    0.49
   1  -4   7    6.56    0.50
  -2   4  -7    8.56    0.58
  -2   4  -7    8.36    0.54
   2  -4   7    8.65    0.55
  -3   4  -7    0.85    0.29
  -3   4  -7    1.03    0.30
   3  -4   7    1.49    0.29
  -4   4  -7    5.90    0.66
   4  -4   7    6.38    0.48
  -5   4  -7    1.78    0.44
   5  -4   7    0.92    0.25
  -6   4  -7   13.55    1.02
   6  -4   7   16.10    0.79
   8   3  -7    1.31    0.30
  -8  -3   7    1.40    0.37
  -8  -3   7    0.78    0.33
   7   3  -7    1.15    0.29
  -7  -3   7    2.78    0.43
  -7  -3   7    2.32    0.40
   6   3  -7    2.65    0.38
  -6  -3   7    1.69    0.35
  -6  -3   7    2.95    0.40
   5   3  -7   24.51    1.10
  -5  -3   7   25.31    1.07
  -5  -3   7   23.98    1.05
   4   3  -7    6.64    0.49
  -4  -3   7    5.62    0.43
  -4  -3   7    5.54    0.45
   3   3  -7   70.87    2.12
   3   3  -7   72.96    2.43
  -3  -3   7   71.79    2.41
   2   3  -7   39.88    1.32
   2   3  -7   41.73    1.53
  -2  -3   7   40.58    1.52
   1   3  -7    7.26    0.40
   1   3  -7    6.77    0.48
   1   3  -7    6.93    0.30
  -1  -3   7    5.94    0.46
   0   3  -7   12.69    0.63
   0   3  -7   12.66    0.68
   0  -3   7   14.76    0.72
  -1   3  -7    5.01    0.42
  -1   3  -7    4.18    0.43
   1  -3   7    4.60    0.39
  -2   3  -7   12.55    0.72
  -2   3  -7   12.97    0.68
   2  -3   7   12.35    0.68
  -3   3  -7   64.41    2.29
   3  -3   7   59.41    2.12
  -4   3  -7   18.49    1.01
  -4   3  -7   17.79    1.02
   4  -3   7   18.25    0.88
  -5   3  -7   16.51    1.06
   5  -3   7   15.94    0.82
  -6   3  -7    1.80    0.49
   6  -3   7    2.59    0.37
  -9  -2   7    6.78    0.77
  -9  -2   7    6.37    0.68
   8   2  -7   -0.03    0.16
  -8  -2   7   -0.05    0.24
  -8  -2   7   -0.15    0.20
   7   2  -7    1.18    0.28
  -7  -2   7    1.12    0.35
  -7  -2   7    0.94    0.29
   6   2  -7    3.92    0.27
   6   2  -7    3.78    0.43
  -6  -2   7    4.06    0.47
   5   2  -7    2.86    0.36
   5   2  -7    2.63    0.26
  -5  -2   7    2.47    0.34
  -5  -2   7    2.25    0.33
   4   2  -7    2.21    0.32
   4   2  -7    2.14    0.25
  -4  -2   7    2.46    0.33
  -4  -2   7    1.95    0.30
   3   2  -7    2.64    0.35
   3   2  -7    3.48    0.28
  -3  -2   7    3.42    0.39
   2   2  -7    3.22    0.23
   2   2  -7    2.66    0.29
   2   2  -7    2.38    0.33
  -2  -2   7    3.22    0.37
   1   2  -7    7.14    0.49
  -1  -2   7    8.36    0.52
   0   2  -7    2.26    0.31
   0  -2   7    3.11    0.37
  -1   2  -7    5.16    0.41
  -1   2  -7    4.64    0.42
   1  -2   7    5.38    0.44
  -2   2  -7   22.52    0.98
  -2   2  -7   22.73    1.05
   2  -2   7   21.20    0.97
  -3   2  -7    1.09    0.31
   3  -2   7    0.89    0.26
  -4   2  -7    0.68    0.31
   4  -2   7    0.58    0.24
  -5   2  -7    8.89    0.78
   5  -2   7    8.87    0.62
  -6   2  -7   13.63    1.02
   6  -2   7   13.76    0.78
   9   1  -7    0.50    0.20
  -9  -1   7    0.83    0.38
   8   1  -7    0.77    0.22
  -8  -1   7    0.45    0.24
  -8  -1   7    0.26    0.28
   7   1  -7    9.93    0.61
  -7  -1   7    9.98    0.73
  -7  -1   7   10.36    0.62
   6   1  -7    2.06    0.25
   6   1  -7    2.84    0.35
  -6  -1   7    2.68    0.40
   5   1  -7    0.51    0.16
   5   1  -7    0.35    0.17
  -5  -1   7    0.40    0.19
  -5  -1   7    0.43    0.21
   4   1  -7    4.05    0.42
   4   1  -7    3.90    0.30
  -4  -1   7    3.13    0.37
   3   1  -7   21.00    0.93
   3   1  -7   22.07    0.88
  -3  -1   7   22.34    0.94
   2   1  -7    8.10    0.52
   2   1  -7    7.85    0.47
   2   1  -7    9.15    0.40
  -2  -1   7    8.49    0.54
   1   1  -7    2.14    0.28
   1   1  -7    2.02    0.30
  -1  -1   7    2.41    0.32
   0   1  -7    1.80    0.27
   0   1  -7    2.39    0.32
   0  -1   7    1.81    0.31
  -1   1  -7    1.47    0.26
   1  -1   7    1.96    0.29
  -2   1  -7   48.73    1.84
  -2   1  -7   48.05    1.74
   2  -1   7   46.34    1.75
  -3   1  -7    1.74    0.36
   3  -1   7    1.36    0.30
  -4   1  -7    7.63    0.67
   4  -1   7    7.73    0.58
  -5   1  -7    9.28    0.80
   5  -1   7    7.49    0.60
   9   0  -7    0.20    0.17
  -9   0   7    0.61    0.32
   8   0  -7    2.64    0.35
  -8   0   7    2.43    0.47
  -8   0   7    2.43    0.41
   7   0  -7   25.85    1.08
   7   0  -7   26.52    1.03
  -7   0   7   25.23    1.24
  -7   0   7   27.26    1.09
   6   0  -7    6.41    0.41
   6   0  -7    5.83    0.44
  -6   0   7    5.71    0.58
   5   0  -7    1.17    0.24
   5   0  -7    1.39    0.23
  -5   0   7    1.42    0.31
  -5   0   7    1.15    0.26
  -5   0   7    1.25    0.28
   4   0  -7   51.21    1.80
   4   0  -7   53.79    1.88
  -4   0   7   54.56    1.86
  -4   0   7   55.12    1.85
   3   0  -7   28.71    1.09
   3   0  -7   27.51    1.13
  -3   0   7   28.13    1.05
  -3   0   7   28.59    1.13
   2   0  -7    9.71    0.53
   2   0  -7    9.74    0.58
  -2   0   7    8.53    0.54
  -2   0   7    9.14    0.44
   1   0  -7   17.19    0.79
   1   0  -7   18.38    0.84
  -1   0   7   17.28    0.82
  -1   0   7   16.95    0.64
   0   0  -7    1.98    0.30
   0   0  -7    1.60    0.28
   0   0   7    1.59    0.16
   0   0   7    1.45    0.28
  -1   0  -7    8.09    0.55
  -1   0  -7    8.60    0.55
   1   0   7    8.27    0.57
  -2   0  -7    8.28    0.56
   2   0   7    7.63    0.55
  -3   0  -7   10.97    0.77
   3   0   7   10.85    0.68
  -4   0  -7    1.45    0.40
   4   0   7    0.77    0.27
  -5   0  -7   22.26    1.28
   5   0   7   22.79    1.14
   9  -1  -7    4.30    0.41
  -9   1   7    5.15    0.73
   8  -1  -7    5.71    0.43
   8  -1  -7    5.21    0.42
  -8   1   7    5.13    0.65
   7  -1  -7   22.92    0.98
   7  -1  -7   22.91    0.98
  -7   1   7   23.28    1.16
  -7   1   7   24.54    1.20
  -7   1   7   22.82    0.95
   6  -1  -7   38.87    1.39
   6  -1  -7   35.56    1.38
  -6   1   7   38.46    1.52
  -6   1   7   34.96    1.53
   5  -1  -7    4.72    0.43
   5  -1  -7    3.61    0.38
  -5   1   7    3.49    0.42
  -5   1   7    3.61    0.45
  -5   1   7    4.60    0.43
   4  -1  -7  205.85    6.26
   4  -1  -7  208.44    6.30
  -4   1   7  211.77    6.29
  -4   1   7  211.46    6.28
   3  -1  -7   22.33    0.98
   3  -1  -7   22.45    0.95
  -3   1   7   23.24    0.92
  -3   1   7   22.29    0.97
   2  -1  -7    0.70    0.20
   2  -1  -7    0.69    0.20
  -2   1   7    0.91    0.18
  -2   1   7    0.75    0.22
   1  -1  -7   37.90    1.44
   1  -1  -7   36.68    1.39
  -1   1   7   36.66    1.43
  -1   1   7   37.05    1.27
   0  -1  -7   49.62    1.73
   0  -1  -7   47.61    1.76
   0   1   7   47.80    1.56
   0   1   7   46.65    1.77
  -1  -1  -7    1.67    0.30
  -1  -1  -7    1.30    0.27
   1   1   7    1.26    0.31
  -2  -1  -7    1.84    0.34
  -2  -1  -7    1.76    0.34
   2   1   7    1.56    0.32
   3   1   7    5.61    0.60
  -4  -1  -7    1.02    0.37
   4   1   7    0.36    0.27
   9  -2  -7    5.68    0.46
  -9   2   7    6.13    0.78
   8  -2  -7    3.72    0.44
   8  -2  -7    3.23    0.36
  -8   2   7    2.54    0.48
  -8   2   7    3.29    0.53
   7  -2  -7    3.26    0.37
   7  -2  -7    2.99    0.39
  -7   2   7    2.16    0.44
  -7   2   7    2.78    0.48
   6  -2  -7   37.99    1.45
   6  -2  -7   39.17    1.48
  -6   2   7   39.04    1.62
  -6   2   7   38.26    1.58
   5  -2  -7    2.36    0.33
   5  -2  -7    2.10    0.32
  -5   2   7    2.45    0.39
  -5   2   7    2.59    0.34
  -5   2   7    2.46    0.36
   4  -2  -7   29.01    1.21
   4  -2  -7   29.56    1.20
  -4   2   7   29.75    1.22
  -4   2   7   32.48    1.24
   3  -2  -7   21.60    0.98
   3  -2  -7   22.46    0.97
  -3   2   7   21.11    0.92
  -3   2   7   22.46    0.99
   2  -2  -7    0.38    0.19
   2  -2  -7    0.47    0.20
  -2   2   7    0.37    0.16
  -2   2   7    0.31    0.21
   1  -2  -7    9.13    0.59
   1  -2  -7   10.23    0.65
  -1   2   7   10.07    0.53
  -1   2   7    9.15    0.62
   0  -2  -7   10.56    0.67
   0  -2  -7   10.90    0.65
   0   2   7    9.61    0.66
  -1  -2  -7   58.75    2.08
  -1  -2  -7   58.76    2.16
   1   2   7   58.57    2.16
  -2  -2  -7    6.38    0.58
  -2  -2  -7    6.66    0.58
   2   2   7    7.05    0.61
   3   2   7   29.42    1.36
  -4  -2  -7   -0.28    0.23
   4   2   7    0.02    0.25
   9  -3  -7    0.84    0.29
  -9   3   7    1.50    0.44
  -9   3   7    1.53    0.45
   8  -3  -7    6.44    0.47
   8  -3  -7    6.87    0.63
  -8   3   7    6.74    0.76
  -8   3   7    6.64    0.73
   7  -3  -7    0.25    0.23
   7  -3  -7    0.01    0.16
  -7   3   7   -0.04    0.24
  -7   3   7    0.12    0.25
   6  -3  -7   10.46    0.67
   6  -3  -7   10.19    0.63
  -6   3   7   10.38    0.73
  -6   3   7   11.82    0.77
   5  -3  -7    0.17    0.19
   5  -3  -7    0.21    0.19
  -5   3   7    0.33    0.23
  -5   3   7    0.39    0.21
   4  -3  -7    0.66    0.22
   4  -3  -7    0.66    0.25
  -4   3   7    1.20    0.28
  -4   3   7    0.47    0.21
   3  -3  -7    5.87    0.50
   3  -3  -7    5.98    0.56
  -3   3   7    6.66    0.49
  -3   3   7    6.13    0.50
   2  -3  -7    0.23    0.19
   2  -3  -7   -0.04    0.15
  -2   3   7   -0.04    0.18
  -2   3   7    0.09    0.16
   1  -3  -7    5.46    0.52
   1  -3  -7    4.29    0.52
  -1   3   7    5.45    0.44
  -1   3   7    5.84    0.58
   0  -3  -7    6.80    0.55
   0  -3  -7    6.67    0.65
   0   3   7    6.46    0.64
  -1  -3  -7    2.95    0.43
  -1  -3  -7    3.16    0.49
   1   3   7    3.87    0.54
  -2  -3  -7    0.10    0.22
  -2  -3  -7    0.30    0.23
   2   3   7    0.34    0.28
   3   3   7    4.82    0.63
   8  -4  -7    4.92    0.57
   8  -4  -7    4.18    0.45
  -8   4   7    4.14    0.61
  -8   4   7    4.19    0.65
   7  -4  -7    0.43    0.22
   7  -4  -7    0.53    0.26
  -7   4   7    0.83    0.34
  -7   4   7    0.24    0.25
   6  -4  -7    0.29    0.23
   6  -4  -7    0.29    0.19
  -6   4   7    0.12    0.24
  -6   4   7    0.41    0.29
   5  -4  -7   41.02    1.59
   5  -4  -7   38.33    1.55
  -5   4   7   37.63    1.60
   4  -4  -7    0.69    0.23
   4  -4  -7    0.65    0.27
  -4   4   7    0.78    0.26
  -4   4   7    0.57    0.24
   3  -4  -7   12.31    0.78
   3  -4  -7   12.57    0.75
  -3   4   7   12.58    0.76
  -3   4   7   12.92    0.75
   2  -4  -7    0.53    0.24
   2  -4  -7    0.82    0.27
  -2   4   7    0.32    0.24
  -2   4   7    0.44    0.24
   1  -4  -7    0.12    0.19
   1  -4  -7    0.46    0.25
  -1   4   7    0.39    0.27
   0  -4  -7    3.07    0.47
   0  -4  -7    3.48    0.46
   0   4   7    3.61    0.52
  -1  -4  -7    0.11    0.24
  -1  -4  -7    0.02    0.23
   1   4   7   -0.03    0.26
  -2  -4  -7   -0.05    0.21
  -2  -4  -7   -0.30    0.20
   2   4   7    0.33    0.30
   8  -5  -7    2.03    0.33
   8  -5  -7    1.57    0.36
  -8   5   7    1.33    0.44
  -8   5   7    1.76    0.44
   7  -5  -7    0.30    0.21
   7  -5  -7   -0.07    0.24
  -7   5   7   -0.27    0.20
  -7   5   7   -0.04    0.26
   6  -5  -7    3.40    0.49
   6  -5  -7    2.76    0.41
  -6   5   7    3.14    0.50
  -6   5   7    3.99    0.57
   5  -5  -7   38.45    1.57
   5  -5  -7   38.79    1.61
  -5   5   7   38.16    1.67
  -5   5   7   37.82    1.63
   4  -5  -7    0.36    0.26
   4  -5  -7    0.42    0.25
  -4   5   7    0.26    0.25
   3  -5  -7    3.87    0.50
   3  -5  -7    3.91    0.51
  -3   5   7    4.45    0.55
  -3   5   7    3.96    0.51
   2  -5  -7    5.13    0.60
   2  -5  -7    6.16    0.61
  -2   5   7    5.55    0.60
  -2   5   7    5.43    0.62
   1  -5  -7    1.01    0.35
   1  -5  -7    1.02    0.34
  -1   5   7    1.08    0.35
   0  -5  -7    1.46    0.34
   0  -5  -7    1.37    0.39
   0   5   7    1.60    0.42
  -1  -5  -7   -0.30    0.19
  -1  -5  -7   -0.15    0.22
   1   5   7   -0.14    0.26
   7  -6  -7    3.54    0.47
   7  -6  -7    3.57    0.54
  -7   6   7    3.18    0.59
  -7   6   7    3.10    0.53
   6  -6  -7   14.03    0.84
   6  -6  -7   12.24    0.86
  -6   6   7   13.19    0.89
  -6   6   7   12.38    0.95
   5  -6  -7    6.72    0.70
   5  -6  -7    6.83    0.70
  -5   6   7    6.43    0.69
  -5   6   7    7.10    0.77
   4  -6  -7    0.68    0.26
   4  -6  -7    1.05    0.37
  -4   6   7    0.59    0.31
   3  -6  -7    0.06    0.25
   3  -6  -7    0.08    0.27
  -3   6   7   -0.26    0.21
  -3   6   7    0.18    0.28
   2  -6  -7    7.63    0.79
   2  -6  -7    7.08    0.70
  -2   6   7    7.98    0.79
  -2   6   7    8.56    0.74
   1  -6  -7    1.97    0.47
   1  -6  -7    2.64    0.49
  -1   6   7    1.81    0.49
   2   9  -8    0.59    0.33
  -2  -9   8    0.69    0.37
  -2  -9   8    0.92    0.40
  -1  -9   8    4.59    0.63
   0  -9   8   16.32    1.04
   1  -9   8    1.29    0.41
   2  -9   8    5.34    0.66
   4   8  -8    0.25    0.28
  -4  -8   8    0.09    0.29
  -4  -8   8    0.14    0.29
  -3  -8   8    6.61    0.73
  -3  -8   8    6.66    0.74
   2   8  -8    2.38    0.45
  -2  -8   8    1.43    0.40
   1   8  -8    1.43    0.37
  -1  -8   8    1.50    0.40
   0   8  -8   12.79    0.86
   0  -8   8   13.13    0.88
   1  -8   8    4.81    0.60
   2  -8   8    1.69    0.40
   3  -8   8   38.27    1.63
  -5  -7   8   14.79    0.97
  -5  -7   8   13.56    0.94
   4   7  -8    0.06    0.22
  -4  -7   8    0.46    0.36
  -4  -7   8   -0.34    0.23
   3   7  -8   15.46    0.96
  -3  -7   8   15.22    0.94
   2   7  -8   45.23    1.87
  -2  -7   8   45.32    1.87
   1   7  -8    4.73    0.57
  -1  -7   8    4.35    0.54
   0   7  -8    9.43    0.69
   0  -7   8    9.00    0.68
  -1   7  -8    3.96    0.57
  -1   7  -8    5.16    0.53
   1  -7   8    4.76    0.56
  -2   7  -8    1.85    0.36
   2  -7   8    1.53    0.36
  -3   7  -8    6.88    0.72
   3  -7   8    7.33    0.60
  -4   7  -8    0.44    0.30
   4  -7   8    0.25    0.23
   6   6  -8    6.74    0.71
  -6  -6   8    8.24    0.82
   5   6  -8    6.32    0.68
  -5  -6   8    7.37    0.76
  -5  -6   8    7.89    0.67
   4   6  -8    5.75    0.63
  -4  -6   8    5.25    0.59
   3   6  -8   14.12    0.88
  -3  -6   8   16.22    0.92
   2   6  -8   60.44    2.24
  -2  -6   8   59.18    2.22
   1   6  -8    5.40    0.58
  -1  -6   8    4.03    0.51
   0   6  -8    8.88    0.54
   0   6  -8   10.06    0.68
   0  -6   8    8.54    0.64
  -1   6  -8   12.57    0.75
  -1   6  -8   12.90    0.71
   1  -6   8   11.86    0.75
  -2   6  -8    3.65    0.46
   2  -6   8    3.24    0.45
  -3   6  -8   10.00    0.71
   3  -6   8    7.76    0.61
  -4   6  -8    1.69    0.41
   4  -6   8    1.29    0.32
  -5   6  -8    3.67    0.59
   5  -6   8    4.02    0.48
   7   5  -8    2.76    0.48
  -7  -5   8    3.44    0.55
   6   5  -8    6.39    0.66
  -6  -5   8    8.50    0.71
   5   5  -8    2.89    0.48
   5   5  -8    3.27    0.46
  -5  -5   8    3.26    0.43
  -5  -5   8    3.26    0.48
   4   5  -8    1.14    0.34
   4   5  -8    1.06    0.29
  -4  -5   8    0.64    0.27
  -4  -5   8    1.03    0.23
   3   5  -8   33.46    1.43
   3   5  -8   34.91    1.54
  -3  -5   8   31.95    1.22
  -3  -5   8   33.78    1.42
   2   5  -8   24.42    1.11
  -2  -5   8   21.13    1.06
   1   5  -8    0.30    0.20
   1   5  -8    0.53    0.16
  -1  -5   8    0.53    0.27
   0   5  -8   15.57    0.74
   0   5  -8   15.23    0.83
   0   5  -8   14.65    0.94
   0  -5   8   16.70    0.88
  -1   5  -8    2.78    0.49
  -1   5  -8    3.06    0.43
  -1   5  -8    2.74    0.37
   1  -5   8    3.02    0.41
  -2   5  -8    1.92    0.42
  -2   5  -8    2.02    0.37
   2  -5   8    1.07    0.29
  -3   5  -8    7.76    0.64
   3  -5   8    7.04    0.56
  -4   5  -8    4.10    0.59
   4  -5   8    5.07    0.52
  -5   5  -8    2.13    0.48
   5  -5   8    1.96    0.36
   8   4  -8    2.13    0.40
  -8  -4   8    1.55    0.46
  -8  -4   8    1.89    0.41
   7   4  -8    0.73    0.28
  -7  -4   8    0.81    0.34
  -7  -4   8    0.83    0.30
   6   4  -8    0.31    0.22
  -6  -4   8    0.42    0.24
  -6  -4   8    0.53    0.27
   5   4  -8   11.43    0.74
  -5  -4   8   11.14    0.72
  -5  -4   8   10.87    0.64
   4   4  -8    1.11    0.30
  -4  -4   8    1.12    0.24
  -4  -4   8    0.14    0.20
   3   4  -8    6.42    0.53
  -3  -4   8    5.62    0.55
   2   4  -8   24.94    1.12
   2   4  -8   24.33    0.89
  -2  -4   8   26.01    1.13
   1   4  -8   11.99    0.59
   1   4  -8   12.10    0.72
  -1  -4   8   12.66    0.73
   0   4  -8   43.51    1.68
   0   4  -8   44.28    1.60
   0  -4   8   46.29    1.71
  -1   4  -8   33.03    1.33
  -1   4  -8   31.49    1.30
   1  -4   8   31.37    1.31
  -2   4  -8   12.26    0.70
  -2   4  -8   11.51    0.73
   2  -4   8   11.82    0.72
  -3   4  -8    2.51    0.47
  -3   4  -8    1.67    0.36
   3  -4   8    1.95    0.36
  -4   4  -8    5.72    0.69
   4  -4   8    4.55    0.50
  -5   4  -8    6.98    0.83
   5  -4   8    6.26    0.52
   8   3  -8    3.73    0.50
  -8  -3   8    3.48    0.52
  -8  -3   8    3.76    0.53
   7   3  -8    3.18    0.45
  -7  -3   8    3.68    0.51
  -7  -3   8    3.29    0.47
   6   3  -8    1.66    0.32
  -6  -3   8    2.42    0.40
   5   3  -8    0.68    0.23
  -5  -3   8    1.45    0.32
  -5  -3   8    1.69    0.33
   4   3  -8    7.56    0.56
  -4  -3   8    6.75    0.51
  -4  -3   8    7.17    0.56
   3   3  -8   66.38    2.03
   3   3  -8   64.63    2.29
  -3  -3   8   65.69    2.29
   2   3  -8    0.75    0.23
   2   3  -8    1.20    0.20
  -2  -3   8    1.60    0.30
   1   3  -8   24.49    1.07
   1   3  -8   24.30    0.97
  -1  -3   8   23.45    1.07
   0   3  -8   13.64    0.75
   0   3  -8   12.82    0.68
   0  -3   8   12.72    0.72
  -1   3  -8    8.19    0.56
  -1   3  -8    8.82    0.60
   1  -3   8    8.08    0.59
  -2   3  -8   26.50    1.22
  -2   3  -8   28.01    1.19
   2  -3   8   27.52    1.19
  -3   3  -8    1.83    0.40
   3  -3   8    1.82    0.34
  -4   3  -8    0.11    0.24
  -4   3  -8    0.45    0.29
   4  -3   8    0.03    0.23
  -5   3  -8    5.87    0.75
   5  -3   8    4.92    0.54
   9   2  -8    0.08    0.18
  -9  -2   8    0.43    0.28
  -9  -2   8   -0.20    0.30
   8   2  -8    1.00    0.28
  -8  -2   8    1.24    0.40
  -8  -2   8    1.13    0.31
   7   2  -8   19.00    0.96
  -7  -2   8   18.81    1.03
  -7  -2   8   21.03    1.02
   6   2  -8    5.60    0.37
   6   2  -8    5.72    0.50
  -6  -2   8    5.97    0.62
   5   2  -8    0.51    0.23
   5   2  -8    0.76    0.18
  -5  -2   8    1.19    0.30
  -5  -2   8    0.96    0.25
   4   2  -8   23.70    0.96
   4   2  -8   24.84    1.10
  -4  -2   8   26.09    1.10
   3   2  -8   45.79    1.64
   3   2  -8   48.93    1.78
  -3  -2   8   49.45    1.78
   2   2  -8    1.66    0.30
   2   2  -8    2.13    0.29
  -2  -2   8    1.49    0.29
   1   2  -8    2.45    0.35
  -1  -2   8    2.50    0.36
   0   2  -8   12.71    0.71
   0  -2   8   11.41    0.69
  -1   2  -8    6.88    0.54
  -1   2  -8    5.88    0.48
   1  -2   8    6.93    0.51
  -2   2  -8   11.10    0.75
  -2   2  -8    9.62    0.63
   2  -2   8    9.20    0.62
  -3   2  -8   11.85    0.82
   3  -2   8   12.13    0.74
  -4   2  -8    3.26    0.55
   4  -2   8    2.70    0.42
  -5   2  -8    5.26    0.70
   5  -2   8    4.76    0.54
   9   1  -8    0.52    0.24
  -9  -1   8    0.78    0.38
   8   1  -8    0.53    0.23
  -8  -1   8    0.39    0.25
  -8  -1   8    0.56    0.32
   7   1  -8    1.66    0.32
  -7  -1   8    0.97    0.32
  -7  -1   8    1.34    0.30
   6   1  -8   25.54    1.15
   6   1  -8   28.43    1.06
  -6  -1   8   29.28    1.28
   5   1  -8   11.78    0.67
   5   1  -8   10.55    0.55
  -5  -1   8   11.04    0.65
  -5  -1   8    9.87    0.67
   4   1  -8  103.83    3.27
   4   1  -8  101.10    3.36
  -4  -1   8  108.09    3.38
   3   1  -8   11.77    0.61
   3   1  -8   10.47    0.65
  -3  -1   8   12.01    0.67
   2   1  -8    2.56    0.36
   2   1  -8    2.53    0.33
  -2  -1   8    3.53    0.42
   1   1  -8    2.74    0.38
   1   1  -8    3.26    0.37
  -1  -1   8    2.48    0.36
   0   1  -8   20.85    0.98
   0   1  -8   22.09    0.98
   0  -1   8   21.39    1.00
  -1   1  -8    5.88    0.47
   1  -1   8    5.16    0.53
  -2   1  -8    7.08    0.52
  -2   1  -8    5.56    0.63
   2  -1   8    6.35    0.54
  -3   1  -8    4.71    0.60
   3  -1   8    4.61    0.54
  -4   1  -8   10.59    0.83
   4  -1   8    9.71    0.70
  -5   1  -8    1.17    0.45
   5  -1   8    1.39    0.35
   9   0  -8   13.92    0.76
  -9   0   8   15.29    1.04
   8   0  -8    1.54    0.30
  -8   0   8    1.57    0.41
   7   0  -8    1.71    0.32
   7   0  -8    1.72    0.28
  -7   0   8    1.52    0.39
   6   0  -8    0.32    0.20
   6   0  -8    0.40    0.19
  -6   0   8    0.18    0.23
   5   0  -8    2.47    0.33
   5   0  -8    1.83    0.31
  -5   0   8    2.45    0.35
  -5   0   8    2.59    0.35
  -5   0   8    2.63    0.41
   4   0  -8    1.83    0.30
   4   0  -8    2.38    0.36
  -4   0   8    2.17    0.29
  -4   0   8    1.96    0.31
   3   0  -8   19.84    0.89
   3   0  -8   20.30    0.95
  -3   0   8   22.35    0.98
  -3   0   8   20.47    0.84
   2   0  -8    0.92    0.24
   2   0  -8    0.83    0.23
  -2   0   8    1.08    0.28
  -2   0   8    0.93    0.17
   1   0  -8   11.62    0.65
   1   0  -8   10.19    0.66
  -1   0   8   10.75    0.46
  -1   0   8   10.54    0.66
   0   0  -8    2.52    0.35
   0   0  -8    2.86    0.40
   0   0   8    2.02    0.35
  -1   0  -8   41.09    1.56
  -1   0  -8   38.46    1.57
   1   0   8   40.26    1.62
  -2   0  -8    3.21    0.45
   2   0   8    3.08    0.46
  -3   0  -8   16.89    1.04
   3   0   8   17.98    0.99
  -4   0  -8    3.03    0.57
   4   0   8    3.15    0.48
   9  -1  -8   14.55    0.75
  -9   1   8   12.53    0.96
   8  -1  -8   26.03    1.11
   8  -1  -8   25.08    1.11
  -8   1   8   27.97    1.38
   7  -1  -8    2.08    0.32
   7  -1  -8    1.63    0.31
  -7   1   8    2.65    0.46
  -7   1   8    2.18    0.42
   6  -1  -8   24.23    1.05
   6  -1  -8   24.91    1.08
  -6   1   8   23.32    1.18
  -6   1   8   24.81    1.15
   5  -1  -8    6.53    0.51
   5  -1  -8    6.11    0.46
  -5   1   8    5.74    0.48
  -5   1   8    5.74    0.56
   4  -1  -8   22.76    1.05
   4  -1  -8   23.43    1.02
  -4   1   8   24.18    1.01
  -4   1   8   24.45    1.06
   3  -1  -8   58.70    2.08
   3  -1  -8   55.30    2.00
  -3   1   8   59.30    2.06
  -3   1   8   58.00    1.95
   2  -1  -8   31.95    1.27
   2  -1  -8   33.84    1.34
  -2   1   8   30.79    1.32
  -2   1   8   30.92    1.15
   1  -1  -8   31.96    1.35
   1  -1  -8   31.55    1.30
  -1   1   8   34.06    1.16
  -1   1   8   31.90    1.36
   0  -1  -8   10.29    0.64
   0  -1  -8   11.01    0.69
   0   1   8    9.96    0.48
   0   1   8    9.64    0.66
  -1  -1  -8    1.75    0.33
  -1  -1  -8    1.56    0.33
   1   1   8    1.43    0.33
  -2  -1  -8    4.57    0.56
   2   1   8    5.04    0.59
   3   1   8    6.08    0.66
  -4  -1  -8   27.28    1.51
   4   1   8   28.62    1.38
   9  -2  -8    2.32    0.33
  -9   2   8    1.79    0.48
   8  -2  -8    9.91    0.66
   8  -2  -8    9.87    0.62
  -8   2   8    9.59    0.78
  -8   2   8   10.57    0.82
   7  -2  -8    9.23    0.60
   7  -2  -8    8.53    0.59
  -7   2   8    9.41    0.73
  -7   2   8    8.50    0.70
   6  -2  -8    1.30    0.30
   6  -2  -8    1.93    0.33
  -6   2   8    1.60    0.37
  -6   2   8    1.49    0.35
   5  -2  -8  102.32    3.33
   5  -2  -8  102.99    3.35
  -5   2   8  104.60    3.32
  -5   2   8   98.49    3.36
   4  -2  -8   29.99    1.25
   4  -2  -8   28.04    1.24
  -4   2   8   29.57    1.25
  -4   2   8   29.34    1.21
   3  -2  -8   13.37    0.75
   3  -2  -8   12.60    0.75
  -3   2   8   13.73    0.70
  -3   2   8   14.10    0.80
   2  -2  -8   35.71    1.45
   2  -2  -8   36.25    1.42
  -2   2   8   34.85    1.45
  -2   2   8   33.93    1.30
   1  -2  -8   12.16    0.77
   1  -2  -8   14.28    0.78
  -1   2   8   13.39    0.66
  -1   2   8   13.41    0.82
   0  -2  -8   20.93    1.05
   0  -2  -8   19.48    0.96
   0   2   8   18.92    1.03
   0   2   8   19.32    0.84
  -1  -2  -8    1.24    0.30
  -1  -2  -8    1.28    0.34
   1   2   8    1.21    0.37
  -2  -2  -8   -0.02    0.21
  -2  -2  -8    0.07    0.21
   2   2   8   -0.20    0.23
   3   2   8    0.40    0.28
   8  -3  -8    1.85    0.38
   8  -3  -8    1.88    0.33
  -8   3   8    0.80    0.36
  -8   3   8    2.07    0.47
   7  -3  -8    0.29    0.22
   7  -3  -8    0.31    0.24
  -7   3   8   -0.36    0.21
  -7   3   8    0.43    0.28
   6  -3  -8    0.29    0.25
   6  -3  -8    0.52    0.24
  -6   3   8    0.12    0.27
  -6   3   8    0.44    0.28
   5  -3  -8   40.18    1.65
   5  -3  -8   44.77    1.69
  -5   3   8   42.94    1.71
   4  -3  -8    2.82    0.42
   4  -3  -8    3.00    0.43
  -4   3   8    3.25    0.43
  -4   3   8    2.81    0.43
   3  -3  -8    1.06    0.30
   3  -3  -8    1.17    0.29
  -3   3   8    1.42    0.34
  -3   3   8    0.92    0.25
   2  -3  -8    7.44    0.61
   2  -3  -8    8.24    0.63
  -2   3   8    7.00    0.52
  -2   3   8    7.53    0.71
   1  -3  -8   10.32    0.69
   1  -3  -8   10.01    0.71
  -1   3   8   10.24    0.73
  -1   3   8   10.52    0.63
   0  -3  -8    0.92    0.29
   0  -3  -8    0.83    0.29
   0   3   8    0.33    0.26
  -1  -3  -8    2.73    0.43
  -1  -3  -8    3.01    0.50
   1   3   8    2.86    0.52
  -2  -3  -8    1.06    0.32
   2   3   8    0.65    0.36
   8  -4  -8    0.34    0.22
   8  -4  -8   -0.12    0.22
  -8   4   8    0.52    0.34
  -8   4   8   -0.04    0.26
   7  -4  -8    4.38    0.56
   7  -4  -8    4.02    0.49
  -7   4   8    5.17    0.65
  -7   4   8    5.02    0.65
   6  -4  -8    5.90    0.60
   6  -4  -8    5.72    0.63
  -6   4   8    4.98    0.63
  -6   4   8    5.11    0.63
   5  -4  -8    2.24    0.40
   5  -4  -8    2.30    0.40
  -5   4   8    2.05    0.41
   4  -4  -8    0.07    0.19
   4  -4  -8   -0.02    0.20
  -4   4   8   -0.16    0.21
  -4   4   8   -0.03    0.20
   3  -4  -8    0.40    0.25
   3  -4  -8    0.37    0.24
  -3   4   8    0.67    0.27
  -3   4   8    0.02    0.21
   2  -4  -8    6.50    0.67
   2  -4  -8    9.05    0.69
  -2   4   8    7.27    0.74
  -2   4   8    6.01    0.52
   1  -4  -8    0.07    0.23
   1  -4  -8    0.19    0.23
  -1   4   8    0.46    0.25
  -1   4   8    0.31    0.27
   0  -4  -8    0.41    0.29
   0  -4  -8    0.07    0.23
   0   4   8    0.96    0.37
  -1  -4  -8   -0.37    0.23
  -1  -4  -8    0.02    0.28
   1   4   8    0.41    0.32
   7  -5  -8   -0.29    0.25
   7  -5  -8    0.07    0.21
  -7   5   8   -0.24    0.25
  -7   5   8    0.65    0.33
   6  -5  -8    1.55    0.40
   6  -5  -8    1.94    0.37
  -6   5   8    1.50    0.39
  -6   5   8    1.94    0.44
   5  -5  -8    5.29    0.60
   5  -5  -8    3.92    0.52
  -5   5   8    3.77    0.56
   4  -5  -8    2.60    0.44
   4  -5  -8    3.33    0.49
  -4   5   8    3.46    0.53
   3  -5  -8    0.20    0.25
   3  -5  -8    0.34    0.26
  -3   5   8    0.04    0.25
  -3   5   8    0.07    0.26
   2  -5  -8   -0.17    0.22
   2  -5  -8    0.42    0.31
  -2   5   8    0.65    0.28
  -2   5   8    0.58    0.34
   1  -5  -8    0.29    0.27
   1  -5  -8   -0.01    0.27
  -1   5   8   -0.09    0.24
  -1   5   8    0.51    0.31
   0  -5  -8    2.71    0.48
   0  -5  -8    2.85    0.56
   0   5   8    2.52    0.52
   5  -6  -8    1.88    0.47
   5  -6  -8    1.12    0.37
  -5   6   8    1.25    0.42
   4  -6  -8    4.94    0.66
   4  -6  -8    4.82    0.64
  -4   6   8    4.39    0.61
   3  -6  -8    2.37    0.46
   3  -6  -8    3.03    0.56
  -3   6   8    2.36    0.48
   4   8  -9    1.88    0.47
  -4  -8   9    1.70    0.50
  -4  -8   9    1.63    0.46
   3   8  -9    5.77    0.71
  -3  -8   9    7.92    0.83
   2   8  -9   29.05    1.49
  -2  -8   9   32.74    1.54
   1   8  -9    6.64    0.73
  -1  -8   9    6.38    0.72
   0   8  -9    4.81    0.84
   0  -8   9    3.00    0.50
   1  -8   9   19.65    1.12
   2  -8   9    1.50    0.38
   5   7  -9    2.52    0.50
  -5  -7   9    1.61    0.43
  -5  -7   9    2.67    0.51
   4   7  -9    5.74    0.69
  -4  -7   9    4.72    0.63
   3   7  -9    6.02    0.67
  -3  -7   9    5.03    0.62
   2   7  -9   11.30    0.81
  -2  -7   9   11.43    0.82
   1   7  -9   23.36    1.18
  -1  -7   9   20.79    1.14
   0   7  -9    0.41    0.25
   0  -7   9    0.27    0.26
  -1   7  -9   33.65    1.38
   1  -7   9   31.98    1.46
  -2   7  -9   16.37    0.93
   2  -7   9   15.56    0.94
  -3   7  -9    1.33    0.37
   3  -7   9    1.43    0.39
   6   6  -9   -0.08    0.20
  -6  -6   9    0.01    0.27
   5   6  -9    7.13    0.73
  -5  -6   9    5.84    0.66
   4   6  -9    1.98    0.44
  -4  -6   9    1.30    0.36
   3   6  -9    0.11    0.24
   3   6  -9    0.12    0.21
  -3  -6   9   -0.03    0.22
   2   6  -9    4.66    0.65
   2   6  -9    3.90    0.56
  -2  -6   9    4.67    0.57
   1   6  -9   10.09    0.73
   1   6  -9    9.23    0.80
  -1  -6   9   11.27    0.76
   0   6  -9    4.65    0.55
   0   6  -9    4.17    0.44
   0   6  -9    4.14    0.67
   0  -6   9    3.46    0.48
  -1   6  -9    5.82    0.51
  -1   6  -9    6.11    0.75
   1  -6   9    5.37    0.60
  -2   6  -9   28.59    1.32
   2  -6   9   27.88    1.31
  -3   6  -9    2.54    0.48
   3  -6   9    1.72    0.37
  -4   6  -9    1.47    0.42
   4  -6   9    2.03    0.41
   7   5  -9   13.11    0.88
  -7  -5   9   14.25    0.97
   6   5  -9    3.11    0.49
   6   5  -9    5.25    0.64
  -6  -5   9    5.07    0.64
   5   5  -9   -0.20    0.17
   5   5  -9    0.36    0.26
  -5  -5   9    0.34    0.28
   4   5  -9   11.02    0.77
  -4  -5   9   11.82    0.65
  -4  -5   9   11.92    0.78
   3   5  -9   36.25    1.53
  -3  -5   9   34.58    1.32
  -3  -5   9   33.95    1.50
   2   5  -9    5.25    0.58
  -2  -5   9    4.12    0.51
   1   5  -9    2.19    0.30
   1   5  -9    2.49    0.42
  -1  -5   9    2.44    0.41
   0   5  -9    0.25    0.22
   0   5  -9    0.34    0.17
   0  -5   9   -0.02    0.22
  -1   5  -9   -0.14    0.16
  -1   5  -9    0.04    0.18
   1  -5   9   -0.03    0.19
  -2   5  -9    0.77    0.29
  -2   5  -9    0.60    0.34
   2  -5   9    0.81    0.31
  -3   5  -9    6.12    0.78
  -3   5  -9    5.32    0.64
   3  -5   9    4.66    0.56
  -4   5  -9    0.28    0.31
   4  -5   9   -0.14    0.21
   7   4  -9    5.62    0.64
  -7  -4   9    6.90    0.72
  -7  -4   9    6.06    0.64
   6   4  -9    0.85    0.28
  -6  -4   9    0.63    0.26
   5   4  -9    2.54    0.43
  -5  -4   9    3.41    0.47
  -5  -4   9    2.24    0.37
   4   4  -9   11.41    0.75
  -4  -4   9   11.92    0.68
  -4  -4   9   12.32    0.77
   3   4  -9   68.44    2.47
  -3  -4   9   69.67    2.47
   2   4  -9    2.01    0.25
   2   4  -9    1.80    0.35
  -2  -4   9    2.22    0.40
   1   4  -9   30.40    1.30
   1   4  -9   28.03    1.12
  -1  -4   9   29.22    1.29
   0   4  -9    5.07    0.43
   0   4  -9    4.39    0.53
   0  -4   9    4.90    0.55
  -1   4  -9    1.45    0.32
  -1   4  -9    1.72    0.34
   1  -4   9    1.43    0.32
  -2   4  -9    0.42    0.26
   2  -4   9    0.43    0.27
  -3   4  -9    5.60    0.72
  -3   4  -9    5.99    0.68
   3  -4   9    5.81    0.61
  -4   4  -9    2.93    0.55
  -4   4  -9    2.86    0.54
   4  -4   9    2.67    0.43
   8   3  -9   -0.12    0.19
  -8  -3   9    0.24    0.28
  -8  -3   9   -0.01    0.22
   7   3  -9    1.37    0.35
  -7  -3   9    0.94    0.31
  -7  -3   9    1.44    0.34
   6   3  -9    2.16    0.38
  -6  -3   9    1.46    0.34
   5   3  -9    0.10    0.20
  -5  -3   9    0.11    0.22
  -5  -3   9    0.32    0.24
   4   3  -9   21.53    1.07
  -4  -3   9   24.30    1.12
   3   3  -9    5.24    0.58
   3   3  -9    4.48    0.32
  -3  -3   9    4.01    0.48
   2   3  -9   11.06    0.70
   2   3  -9   10.94    0.58
  -2  -3   9   13.06    0.76
   1   3  -9    5.18    0.55
   1   3  -9    4.83    0.40
  -1  -3   9    4.86    0.53
   0   3  -9   35.67    1.42
   0   3  -9   35.27    1.47
   0  -3   9   35.67    1.47
  -1   3  -9    5.29    0.55
  -1   3  -9    4.17    0.50
   1  -3   9    3.80    0.47
  -2   3  -9    6.92    0.60
   2  -3   9    6.86    0.59
  -3   3  -9    8.27    0.83
   3  -3   9    8.11    0.62
  -4   3  -9   21.73    1.25
   4  -3   9   23.37    1.13
   8   2  -9    2.15    0.41
  -8  -2   9    1.91    0.41
  -8  -2   9    2.72    0.53
   7   2  -9    2.56    0.41
  -7  -2   9    2.26    0.44
   6   2  -9    1.31    0.24
   6   2  -9    1.56    0.32
  -6  -2   9    1.57    0.34
   5   2  -9    6.34    0.54
   5   2  -9    7.25    0.46
  -5  -2   9    6.34    0.63
  -5  -2   9    7.61    0.58
   4   2  -9    8.14    0.50
   4   2  -9    7.66    0.58
  -4  -2   9    6.98    0.56
   3   2  -9    5.14    0.46
   3   2  -9    4.79    0.53
  -3  -2   9    4.32    0.50
   2   2  -9   24.55    1.05
   2   2  -9   25.85    1.15
  -2  -2   9   24.06    1.11
   1   2  -9    0.68    0.25
  -1  -2   9    0.81    0.27
   0   2  -9   10.00    0.66
   0  -2   9    8.66    0.64
  -1   2  -9   13.62    0.83
  -1   2  -9   14.22    0.82
   1  -2   9   14.67    0.83
  -2   2  -9    0.11    0.23
   2  -2   9   -0.08    0.19
  -3   2  -9    1.09    0.37
   3  -2   9    0.69    0.29
  -4   2  -9    7.83    0.85
   4  -2   9    7.56    0.65
   8   1  -9    7.23    0.58
  -8  -1   9    6.69    0.57
  -8  -1   9    6.84    0.77
   7   1  -9    2.20    0.37
  -7  -1   9    1.50    0.38
   6   1  -9    0.82    0.26
   6   1  -9    0.53    0.20
  -6  -1   9    0.35    0.26
   5   1  -9    6.13    0.45
   5   1  -9    5.17    0.53
  -5  -1   9    5.03    0.52
  -5  -1   9    4.85    0.55
   4   1  -9  109.10    3.64
   4   1  -9  115.68    3.54
  -4  -1   9  110.27    3.62
   3   1  -9    0.84    0.25
   3   1  -9    0.57    0.22
  -3  -1   9    0.44    0.23
   2   1  -9   61.66    2.17
   2   1  -9   62.44    2.26
  -2  -1   9   64.64    2.26
   1   1  -9   11.21    0.71
   1   1  -9   11.47    0.68
  -1  -1   9   11.55    0.72
   0   1  -9    1.85    0.35
   0   1  -9    1.95    0.35
   0  -1   9    1.35    0.32
  -1   1  -9    9.66    0.68
   1  -1   9    8.88    0.65
  -2   1  -9    5.81    0.68
   2  -1   9    5.43    0.58
  -3   1  -9   -0.08    0.24
   3  -1   9    0.38    0.24
  -4   1  -9    8.42    0.89
   4  -1   9    8.83    0.71
   9   0  -9    4.50    0.51
  -9   0   9    5.28    0.71
   8   0  -9   11.63    0.72
  -8   0   9   10.11    0.83
   7   0  -9    1.10    0.26
   7   0  -9    0.68    0.26
  -7   0   9    1.21    0.35
   6   0  -9    2.36    0.34
   6   0  -9    3.10    0.44
  -6   0   9    2.26    0.42
   5   0  -9   47.21    1.74
   5   0  -9   46.78    1.81
  -5   0   9   50.57    1.82
   4   0  -9    9.25    0.59
   4   0  -9   10.88    0.71
  -4   0   9   11.29    0.69
  -4   0   9   10.60    0.60
   3   0  -9    2.53    0.39
   3   0  -9    2.81    0.40
  -3   0   9    1.85    0.35
  -3   0   9    2.17    0.28
   2   0  -9    3.13    0.42
   2   0  -9    3.08    0.42
  -2   0   9    2.87    0.42
  -2   0   9    3.40    0.27
   1   0  -9   26.26    1.13
   1   0  -9   24.35    1.16
  -1   0   9   25.36    1.17
   0   0  -9    0.65    0.25
   0   0  -9    0.67    0.26
   0   0   9    1.21    0.32
  -1   0  -9    4.21    0.52
   1   0   9    4.20    0.54
   2   0   9    0.60    0.27
  -3   0  -9    0.18    0.32
   3   0   9    0.46    0.31
   9  -1  -9    0.40    0.22
  -9   1   9    0.41    0.33
   8  -1  -9    8.53    0.59
   8  -1  -9    8.00    0.59
  -8   1   9    6.27    0.76
   7  -1  -9    1.37    0.33
   7  -1  -9    2.15    0.36
  -7   1   9    1.35    0.36
  -7   1   9    1.51    0.38
   6  -1  -9    1.34    0.32
   6  -1  -9    1.48    0.31
  -6   1   9    1.16    0.34
  -6   1   9    1.34    0.33
   5  -1  -9   67.27    2.37
   5  -1  -9   67.05    2.32
  -5   1   9   64.33    2.34
  -5   1   9   66.82    2.33
   4  -1  -9   20.43    0.97
   4  -1  -9   20.45    1.01
  -4   1   9   21.43    1.03
  -4   1   9   20.12    0.92
   3  -1  -9   14.35    0.79
   3  -1  -9   14.01    0.82
  -3   1   9   14.89    0.83
  -3   1   9   14.50    0.70
   2  -1  -9   51.66    1.92
   2  -1  -9   50.45    1.98
  -2   1   9   52.47    1.97
  -2   1   9   52.32    1.75
   1  -1  -9   11.06    0.70
   1  -1  -9   10.48    0.73
  -1   1   9   10.43    0.74
   0  -1  -9    3.02    0.47
   0  -1  -9    2.58    0.40
   0   1   9    3.93    0.52
  -1  -1  -9   16.30    0.92
  -1  -1  -9   15.57    0.94
   1   1   9   17.56    1.00
   2   1   9    0.73    0.32
  -3  -1  -9    2.20    0.53
   3   1   9    1.84    0.42
   8  -2  -9    1.60    0.35
   8  -2  -9    2.59    0.40
  -8   2   9    0.97    0.36
  -8   2   9    1.20    0.42
   7  -2  -9    5.66    0.57
   7  -2  -9    3.84    0.47
  -7   2   9    5.31    0.64
  -7   2   9    6.24    0.74
   6  -2  -9    0.97    0.30
   6  -2  -9    0.65    0.25
  -6   2   9    1.09    0.35
  -6   2   9    0.53    0.26
   5  -2  -9    2.16    0.40
   5  -2  -9    1.70    0.36
  -5   2   9    1.40    0.33
  -5   2   9    1.70    0.38
   4  -2  -9    7.48    0.59
   4  -2  -9    8.04    0.63
  -4   2   9    8.43    0.63
  -4   2   9    7.72    0.55
   3  -2  -9   15.31    0.83
   3  -2  -9   13.49    0.83
  -3   2   9   13.91    0.73
  -3   2   9   14.54    0.85
   2  -2  -9   23.30    1.08
   2  -2  -9   24.37    1.16
  -2   2   9   21.66    1.12
  -2   2   9   21.57    0.95
   1  -2  -9   12.73    0.82
   1  -2  -9   14.26    0.82
  -1   2   9   12.96    0.84
   0  -2  -9    1.17    0.36
   0  -2  -9    0.20    0.22
   0   2   9    0.69    0.33
  -1  -2  -9    0.24    0.25
  -1  -2  -9    0.15    0.24
   1   2   9    0.11    0.23
   2   2   9    3.25    0.53
   8  -3  -9    0.29    0.27
   8  -3  -9    0.37    0.23
  -8   3   9   -0.21    0.30
  -8   3   9    0.26    0.32
   7  -3  -9    6.66    0.65
   7  -3  -9    7.93    0.63
  -7   3   9    7.29    0.75
  -7   3   9    7.48    0.83
   6  -3  -9    2.48    0.42
   6  -3  -9    3.27    0.49
  -6   3   9    1.89    0.43
  -6   3   9    2.65    0.44
   5  -3  -9    3.43    0.47
   5  -3  -9    3.91    0.52
  -5   3   9    3.35    0.48
   4  -3  -9    2.44    0.43
   4  -3  -9    2.29    0.43
  -4   3   9    2.05    0.40
  -4   3   9    1.59    0.34
   3  -3  -9    0.75    0.28
   3  -3  -9    1.01    0.31
  -3   3   9    1.09    0.28
  -3   3   9    0.76    0.31
   2  -3  -9    1.42    0.34
   2  -3  -9    0.51    0.28
  -2   3   9    0.91    0.32
  -2   3   9    1.10    0.27
   1  -3  -9    0.43    0.32
   1  -3  -9    0.43    0.27
  -1   3   9    0.33    0.29
   0  -3  -9    2.79    0.50
   0  -3  -9    1.96    0.39
   0   3   9    3.34    0.56
  -1  -3  -9    4.08    0.54
  -1  -3  -9    4.95    0.65
   1   3   9    4.78    0.64
   7  -4  -9    0.25    0.23
   7  -4  -9    0.14    0.24
  -7   4   9    0.60    0.34
  -7   4   9    0.28    0.30
   6  -4  -9   14.20    0.88
   6  -4  -9   16.27    0.95
  -6   4   9   14.36    0.93
  -6   4   9   14.09    0.96
   5  -4  -9   11.05    0.79
   5  -4  -9   11.84    0.81
  -5   4   9   11.95    0.82
   4  -4  -9    0.67    0.30
   4  -4  -9    0.59    0.28
  -4   4   9    1.04    0.40
  -4   4   9    0.77    0.28
   3  -4  -9    5.18    0.64
   3  -4  -9    6.46    0.69
  -3   4   9    5.37    0.58
  -3   4   9    6.32    0.72
   2  -4  -9    6.55    0.68
   2  -4  -9    5.35    0.67
  -2   4   9    6.96    0.77
  -2   4   9    5.81    0.59
   1  -4  -9    0.37    0.31
   1  -4  -9   -0.29    0.22
  -1   4   9    0.57    0.34
   0  -4  -9    2.52    0.48
   0  -4  -9    1.90    0.47
   0   4   9    2.03    0.50
   6  -5  -9    2.49    0.47
   6  -5  -9    2.28    0.44
  -6   5   9    2.80    0.53
  -6   5   9    3.69    0.58
   5  -5  -9    2.33    0.47
   5  -5  -9    1.44    0.40
  -5   5   9    2.23    0.47
   4  -5  -9    1.27    0.40
   4  -5  -9    0.94    0.37
  -4   5   9    1.31    0.39
   3  -5  -9    4.90    0.65
   3  -5  -9    5.74    0.68
  -3   5   9    5.23    0.69
  -3   5   9    4.83    0.61
   2  -5  -9   11.61    0.83
   2  -5  -9   10.61    0.85
  -2   5   9   10.48    0.85
   3   8 -10    6.62    0.78
  -3  -8  10    6.52    0.79
   2   8 -10    3.20    0.55
  -2  -8  10    2.80    0.54
   1   8 -10    9.94    0.84
  -1  -8  10   12.45    0.90
   0  -8  10    2.75    0.51
   1  -8  10    1.91    0.61
   4   7 -10    1.86    0.46
  -4  -7  10    2.33    0.52
   3   7 -10   34.12    1.60
  -3  -7  10   31.87    1.56
   2   7 -10    3.21    0.54
  -2  -7  10    3.10    0.55
   1   7 -10    9.35    0.78
  -1  -7  10    9.96    0.77
   0   7 -10   13.03    0.91
   0  -7  10   14.01    0.94
   1  -7  10    2.01    0.44
  -2   7 -10    4.63    0.57
   2  -7  10    5.91    0.66
   6   6 -10    0.87    0.36
  -6  -6  10    0.84    0.35
   5   6 -10    1.44    0.39
  -5  -6  10    1.89    0.46
   4   6 -10   15.87    0.98
   4   6 -10   13.82    1.03
  -4  -6  10   16.03    0.98
   3   6 -10   23.00    1.23
   3   6 -10   23.04    1.32
  -3  -6  10   23.99    1.25
   2   6 -10    1.47    0.50
   2   6 -10    1.95    0.42
  -2  -6  10    1.49    0.40
   1   6 -10    6.94    0.87
   1   6 -10    5.54    0.64
  -1  -6  10    5.96    0.66
   0   6 -10   20.62    1.29
   0   6 -10   21.66    1.15
   0  -6  10   21.61    1.14
  -1   6 -10    1.98    0.38
  -1   6 -10    2.71    0.61
   1  -6  10    2.21    0.44
  -2   6 -10    1.54    0.36
   2  -6  10    0.73    0.31
  -3   6 -10    2.08    0.47
   3  -6  10    1.63    0.39
   6   5 -10    4.79    0.61
   6   5 -10    5.23    0.69
   5   5 -10    0.46    0.29
  -5  -5  10    0.67    0.29
   4   5 -10   11.09    0.82
  -4  -5  10   11.19    0.79
  -4  -5  10   11.56    0.80
   3   5 -10    2.50    0.45
  -3  -5  10    2.50    0.44
   2   5 -10    4.41    0.57
  -2  -5  10    4.84    0.59
   1   5 -10   -0.02    0.19
  -1  -5  10    0.22    0.26
   0   5 -10   17.58    1.00
   0   5 -10   18.35    0.92
   0  -5  10   20.13    1.05
  -1   5 -10    2.34    0.41
   1  -5  10    2.19    0.41
  -2   5 -10    0.40    0.34
  -2   5 -10    0.52    0.29
   2  -5  10    0.18    0.23
  -3   5 -10    1.56    0.44
  -3   5 -10    2.35    0.54
   3  -5  10    2.16    0.44
   7   4 -10    0.25    0.25
  -7  -4  10    0.36    0.30
  -7  -4  10    0.62    0.29
   6   4 -10    0.60    0.29
  -6  -4  10    0.92    0.28
   5   4 -10    2.03    0.39
  -5  -4  10    2.12    0.40
  -5  -4  10    2.23    0.39
   4   4 -10    7.31    0.63
  -4  -4  10    7.46    0.64
  -4  -4  10    7.62    0.58
   3   4 -10    3.41    0.49
  -3  -4  10    2.82    0.48
   2   4 -10    5.42    0.60
   2   4 -10    5.03    0.43
  -2  -4  10    4.76    0.57
   1   4 -10    0.63    0.22
   1   4 -10    0.53    0.28
  -1  -4  10    0.59    0.28
   0   4 -10    0.51    0.24
   0   4 -10    0.39    0.23
   0  -4  10    0.66    0.28
  -1   4 -10    6.60    0.67
  -1   4 -10    7.25    0.61
   1  -4  10    7.36    0.63
  -2   4 -10    0.36    0.28
   2  -4  10    0.35    0.28
  -3   4 -10    0.53    0.30
   3  -4  10    0.20    0.27
   8   3 -10    5.89    0.67
  -8  -3  10    5.20    0.65
  -8  -3  10    6.15    0.73
   7   3 -10    0.25    0.22
  -7  -3  10    0.34    0.27
   6   3 -10    0.13    0.22
  -6  -3  10    0.25    0.23
   5   3 -10    0.98    0.28
  -5  -3  10    0.43    0.28
  -5  -3  10    0.47    0.28
   4   3 -10   63.49    2.39
  -4  -3  10   66.76    2.40
   3   3 -10    1.11    0.22
   3   3 -10    0.67    0.27
  -3  -3  10    0.85    0.30
   2   3 -10   22.14    0.97
   2   3 -10   21.43    1.10
  -2  -3  10   23.26    1.13
   1   3 -10    8.62    0.67
   1   3 -10    8.67    0.58
  -1  -3  10    8.66    0.66
   0   3 -10    3.04    0.43
   0   3 -10    2.69    0.43
   0  -3  10    2.79    0.43
  -1   3 -10    8.76    0.68
  -1   3 -10    8.60    0.66
   1  -3  10    7.77    0.64
  -2   3 -10   12.31    0.84
   2  -3  10   10.94    0.77
  -3   3 -10    1.57    0.45
   3  -3  10    1.45    0.39
   8   2 -10    6.55    0.68
  -8  -2  10    7.51    0.74
  -8  -2  10    8.98    0.76
   7   2 -10    2.53    0.42
  -7  -2  10    1.84    0.42
   6   2 -10    0.58    0.21
   6   2 -10    0.90    0.29
  -6  -2  10    0.38    0.29
   5   2 -10   10.50    0.62
   5   2 -10   11.59    0.78
  -5  -2  10   11.07    0.74
  -5  -2  10   11.67    0.78
   4   2 -10   22.06    1.11
   4   2 -10   21.28    0.99
  -4  -2  10   25.56    1.16
   3   2 -10   10.67    0.63
   3   2 -10    9.22    0.68
  -3  -2  10    9.25    0.68
   2   2 -10   16.00    0.85
   2   2 -10   15.46    0.89
  -2  -2  10   16.14    0.91
   1   2 -10   74.28    2.61
  -1  -2  10   71.95    2.61
   0   2 -10    0.54    0.25
   0   2 -10    0.45    0.25
   0  -2  10    0.53    0.28
  -1   2 -10   11.70    0.81
  -1   2 -10   12.66    0.81
   1  -2  10   12.78    0.83
  -2   2 -10   13.03    0.92
   2  -2  10   13.85    0.86
  -3   2 -10    0.82    0.36
   3  -2  10    0.32    0.29
   8   1 -10    1.95    0.39
  -8  -1  10    2.17    0.51
   7   1 -10    3.57    0.48
  -7  -1  10    4.28    0.58
   6   1 -10    3.90    0.50
   6   1 -10    3.62    0.41
  -6  -1  10    4.14    0.58
   5   1 -10   16.67    0.84
   5   1 -10   17.70    0.97
  -5  -1  10   18.16    0.97
   4   1 -10    8.96    0.59
   4   1 -10    8.69    0.65
  -4  -1  10    9.71    0.67
   3   1 -10    8.83    0.62
   3   1 -10    9.41    0.68
  -3  -1  10    9.67    0.71
   2   1 -10    3.07    0.46
   2   1 -10    1.90    0.36
  -2  -1  10    1.89    0.39
   1   1 -10   46.01    1.82
   1   1 -10   43.60    1.73
  -1  -1  10   44.93    1.80
   0   1 -10    9.05    0.68
   0  -1  10    9.18    0.69
  -1   1 -10    3.40    0.51
   1  -1  10    2.95    0.47
  -2   1 -10    2.16    0.47
   2  -1  10    2.12    0.45
  -3   1 -10    3.71    0.63
   3  -1  10    4.86    0.60
   8   0 -10    3.65    0.48
  -8   0  10    1.46    0.40
   7   0 -10    6.79    0.67
   7   0 -10    6.78    0.55
  -7   0  10    7.79    0.81
   6   0 -10    2.59    0.40
   6   0 -10    2.37    0.41
  -6   0  10    1.94    0.45
   5   0 -10    0.76    0.24
   5   0 -10    0.25    0.21
  -5   0  10    0.83    0.30
   4   0 -10    4.79    0.56
   4   0 -10    4.88    0.53
  -4   0  10    5.58    0.44
  -4   0  10    5.45    0.58
   3   0 -10    5.68    0.57
   3   0 -10    5.44    0.61
  -3   0  10    6.15    0.63
   2   0 -10    6.84    0.57
   2   0 -10    7.37    0.60
  -2   0  10    7.35    0.71
   1   0 -10    0.94    0.29
   1   0 -10    1.29    0.33
  -1   0  10    1.04    0.34
   0   0 -10    0.61    0.27
   0   0 -10    0.42    0.24
   0   0  10    0.25    0.26
  -1   0 -10    0.64    0.28
   1   0  10   -0.05    0.25
   2   0  10    0.31    0.31
   8  -1 -10    0.59    0.28
   8  -1 -10    0.75    0.29
  -8   1  10    0.72    0.38
   7  -1 -10   18.00    0.99
   7  -1 -10   18.32    0.95
  -7   1  10   18.74    1.12
   6  -1 -10    3.90    0.51
   6  -1 -10    4.71    0.52
  -6   1  10    4.78    0.64
  -6   1  10    5.20    0.57
   5  -1 -10    2.30    0.40
   5  -1 -10    1.83    0.37
  -5   1  10    2.56    0.40
  -5   1  10    1.90    0.40
   4  -1 -10    4.35    0.51
   4  -1 -10    6.37    0.65
  -4   1  10    5.97    0.63
  -4   1  10    5.44    0.46
   3  -1 -10    4.93    0.57
   3  -1 -10    5.04    0.60
  -3   1  10    5.45    0.63
   2  -1 -10   -0.08    0.20
   2  -1 -10    0.07    0.21
  -2   1  10    0.34    0.25
   1  -1 -10    3.96    0.52
   1  -1 -10    3.74    0.55
  -1   1  10    3.37    0.51
   0  -1 -10    3.15    0.51
   0  -1 -10    3.35    0.48
   0   1  10    3.23    0.51
  -1  -1 -10    0.36    0.26
  -1  -1 -10    0.06    0.26
   1   1  10    0.92    0.35
   8  -2 -10    0.92    0.34
   8  -2 -10    0.90    0.31
  -8   2  10    0.97    0.41
  -8   2  10    1.17    0.40
   7  -2 -10    1.46    0.37
   7  -2 -10    1.32    0.35
  -7   2  10    1.14    0.38
  -7   2  10    1.51    0.43
   6  -2 -10    5.26    0.62
   6  -2 -10    6.59    0.66
  -6   2  10    5.43    0.61
  -6   2  10    6.92    0.76
   5  -2 -10    7.58    0.63
   5  -2 -10    5.34    0.59
  -5   2  10    6.06    0.54
   4  -2 -10    0.95    0.33
   4  -2 -10    0.03    0.21
  -4   2  10    0.41    0.26
  -4   2  10    0.42    0.22
   3  -2 -10   11.29    0.79
   3  -2 -10   10.64    0.74
  -3   2  10   11.22    0.81
   2  -2 -10   11.60    0.83
   2  -2 -10   11.55    0.78
  -2   2  10   11.32    0.83
   1  -2 -10    0.52    0.29
   1  -2 -10    0.91    0.35
  -1   2  10    0.71    0.34
   0  -2 -10    7.53    0.79
   0  -2 -10    8.72    0.70
   0   2  10   10.33    0.82
  -1  -2 -10    2.81    0.58
  -1  -2 -10    3.10    0.51
   1   2  10    2.47    0.50
   7  -3 -10    0.17    0.26
   7  -3 -10    0.17    0.29
  -7   3  10   -0.04    0.27
  -7   3  10    0.24    0.28
   6  -3 -10    0.62    0.29
   6  -3 -10    0.43    0.27
  -6   3  10    0.67    0.34
  -6   3  10    0.15    0.28
   5  -3 -10    6.25    0.69
   5  -3 -10    6.36    0.65
  -5   3  10    5.49    0.61
   4  -3 -10    5.68    0.64
   4  -3 -10    5.95    0.68
  -4   3  10    5.25    0.57
  -4   3  10    4.69    0.59
   3  -3 -10   11.87    0.83
   3  -3 -10   10.13    0.77
  -3   3  10   11.26    0.83
   2  -3 -10   14.93    0.97
   2  -3 -10   14.54    0.92
  -2   3  10   16.09    1.00
   1  -3 -10    0.44    0.28
   1  -3 -10    0.33    0.28
  -1   3  10    0.63    0.30
   0  -3 -10    1.20    0.37
   0  -3 -10    1.34    0.39
   0   3  10    1.76    0.45
   6  -4 -10    0.26    0.30
   6  -4 -10    0.48    0.28
  -6   4  10    0.22    0.26
  -6   4  10   -0.20    0.29
   5  -4 -10    6.18    0.69
   5  -4 -10    5.45    0.67
  -5   4  10    6.35    0.69
   4  -4 -10    5.91    0.71
   4  -4 -10    4.53    0.59
  -4   4  10    4.03    0.52
   3  -4 -10   -0.01    0.31
   3  -4 -10   -0.08    0.23
  -3   4  10    0.23    0.28
   2  -4 -10    4.34    0.62
   2  -4 -10    3.83    0.62
  -2   4  10    5.22    0.69
   3   7 -11    0.34    0.31
  -3  -7  11    0.00    0.29
   2   7 -11    7.82    0.86
  -2  -7  11    7.29    0.80
   1   7 -11   -0.07    0.27
  -1  -7  11    0.28    0.33
   5   6 -11   -0.03    0.27
   5   6 -11    0.22    0.32
  -5  -6  11    0.46    0.32
   4   6 -11    0.00    0.27
   4   6 -11   -0.21    0.27
  -4  -6  11    0.70    0.33
   3   6 -11    4.42    0.61
   3   6 -11    6.01    0.87
  -3  -6  11    3.98    0.59
   2   6 -11    1.13    0.37
   2   6 -11    0.89    0.38
  -2  -6  11    0.51    0.36
   1   6 -11    4.54    0.64
   1   6 -11    4.45    0.74
  -1  -6  11    4.85    0.66
   0   6 -11    0.08    0.31
   0  -6  11   -0.24    0.26
  -1   6 -11    4.22    0.60
  -1   6 -11    5.12    0.79
   1  -6  11    6.00    0.70
   6   5 -11    5.34    0.67
   5   5 -11   10.80    0.83
  -5  -5  11   11.13    0.86
   4   5 -11   11.32    0.84
  -4  -5  11   12.34    0.86
   3   5 -11    0.75    0.31
  -3  -5  11    0.22    0.35
   2   5 -11    2.07    0.42
  -2  -5  11    1.16    0.39
   1   5 -11    7.33    0.75
  -1  -5  11    6.51    0.70
   0   5 -11   15.95    0.97
   0   5 -11   15.30    0.86
   0  -5  11   16.41    1.02
  -1   5 -11    2.35    0.43
   1  -5  11    2.10    0.44
  -2   5 -11    9.00    1.03
  -2   5 -11    8.64    0.73
   2  -5  11    8.20    0.71
   6   4 -11    0.86    0.32
  -6  -4  11    0.84    0.32
   5   4 -11    1.08    0.33
  -5  -4  11    1.65    0.35
  -5  -4  11    1.69    0.40
   4   4 -11   12.80    0.87
  -4  -4  11   12.40    0.84
   3   4 -11   10.88    0.78
  -3  -4  11    9.95    0.76
   2   4 -11    0.96    0.32
  -2  -4  11    1.76    0.40
   1   4 -11   28.56    1.22
   1   4 -11   28.49    1.38
  -1  -4  11   28.23    1.36
   0   4 -11    3.31    0.46
   0   4 -11    5.19    0.62
   0  -4  11    4.01    0.57
  -1   4 -11    2.28    0.43
   1  -4  11    1.91    0.45
  -2   4 -11    3.92    0.59
   2  -4  11    3.58    0.57
   7   3 -11    2.90    0.50
  -7  -3  11    3.13    0.52
   6   3 -11    6.87    0.73
  -6  -3  11    5.29    0.61
   5   3 -11    0.83    0.30
  -5  -3  11    1.12    0.32
  -5  -3  11    0.91    0.34
   4   3 -11    2.38    0.44
  -4  -3  11    1.81    0.40
   3   3 -11    9.96    0.76
  -3  -3  11    9.59    0.73
   2   3 -11    1.45    0.30
   2   3 -11    1.33    0.38
  -2  -3  11    1.39    0.37
   1   3 -11   15.92    0.96
   1   3 -11   16.95    0.90
  -1  -3  11   17.69    1.01
   0   3 -11    8.91    0.69
   0   3 -11   10.05    0.74
   0  -3  11    9.43    0.73
  -1   3 -11    1.04    0.32
   1  -3  11    0.39    0.32
  -2   3 -11    1.42    0.42
   2  -3  11    1.58    0.41
   7   2 -11    8.61    0.72
  -7  -2  11    9.95    0.81
   6   2 -11   10.48    0.78
   6   2 -11   11.19    0.66
  -6  -2  11   12.14    0.83
   5   2 -11    5.44    0.52
   5   2 -11    4.07    0.55
  -5  -2  11    4.63    0.57
   4   2 -11    6.76    0.55
   4   2 -11    6.70    0.70
  -4  -2  11    7.18    0.71
   3   2 -11   17.10    1.00
   3   2 -11   18.50    0.92
  -3  -2  11   16.58    0.98
   2   2 -11    1.80    0.40
  -2  -2  11    2.08    0.43
   1   2 -11    3.04    0.48
  -1  -2  11    2.88    0.48
   0   2 -11    9.69    0.73
   0   2 -11    9.20    0.71
   0  -2  11    9.12    0.75
  -1   2 -11    5.72    0.69
   1  -2  11    4.82    0.62
  -2   2 -11    2.42    0.53
   2  -2  11    1.67    0.45
   7   1 -11   16.97    1.02
  -7  -1  11   18.20    1.12
   6   1 -11    3.67    0.45
   6   1 -11    3.17    0.49
  -6  -1  11    3.96    0.59
   5   1 -11    3.75    0.52
   5   1 -11    3.63    0.47
  -5  -1  11    3.33    0.50
   4   1 -11    0.76    0.28
   4   1 -11    1.38    0.30
  -4  -1  11    0.69    0.32
   3   1 -11   17.58    0.94
   3   1 -11   17.44    1.01
  -3  -1  11   18.09    1.03
   2   1 -11   24.90    1.26
   2   1 -11   25.94    1.20
  -2  -1  11   23.65    1.24
   1   1 -11    2.86    0.49
   1   1 -11    2.71    0.46
  -1  -1  11    2.60    0.47
   0   1 -11   16.05    0.99
   0  -1  11   16.96    1.03
  -1   1 -11   11.66    0.86
   1  -1  11    9.76    0.81
   7   0 -11    6.85    0.57
   7   0 -11    7.21    0.72
  -7   0  11    9.94    0.97
   6   0 -11    6.64    0.64
   6   0 -11    7.54    0.75
  -6   0  11    6.10    0.71
   5   0 -11    1.38    0.33
   5   0 -11    0.79    0.28
  -5   0  11    0.92    0.32
   4   0 -11    0.91    0.31
   4   0 -11    0.31    0.23
  -4   0  11    0.61    0.30
   3   0 -11    0.15    0.25
   3   0 -11   -0.08    0.20
  -3   0  11    0.20    0.27
   2   0 -11   21.16    1.06
   2   0 -11   18.13    1.07
  -2   0  11   20.40    1.11
   1   0 -11    1.97    0.41
   1   0 -11    2.24    0.45
  -1   0  11    1.21    0.38
   0   0 -11    9.64    0.77
   0   0 -11    8.82    0.73
   0   0  11    9.37    0.89
   1   0  11    1.51    0.45
   7  -1 -11    1.50    0.39
   7  -1 -11    0.75    0.30
  -7   1  11    1.63    0.47
   6  -1 -11    2.32    0.45
   6  -1 -11    2.20    0.43
  -6   1  11    2.33    0.43
   5  -1 -11    9.21    0.75
   5  -1 -11   10.24    0.72
   4  -1 -11    0.63    0.28
   4  -1 -11    0.96    0.34
  -4   1  11    0.56    0.29
   3  -1 -11    7.16    0.74
   3  -1 -11    7.59    0.73
  -3   1  11    9.20    0.74
   2  -1 -11    3.43    0.54
   2  -1 -11    3.33    0.49
  -2   1  11    3.49    0.55
   1  -1 -11    0.33    0.28
   1  -1 -11    0.12    0.27
  -1   1  11    1.19    0.37
   0  -1 -11    1.85    0.44
   0  -1 -11    0.72    0.36
   0   1  11    1.75    0.47
   7  -2 -11    3.98    0.56
   7  -2 -11    4.04    0.57
  -7   2  11    3.86    0.63
  -7   2  11    3.46    0.52
   6  -2 -11    0.12    0.24
   6  -2 -11    0.05    0.22
  -6   2  11    0.53    0.32
   5  -2 -11    3.45    0.53
   5  -2 -11    3.97    0.54
   4  -2 -11    3.23    0.52
   4  -2 -11    2.31    0.41
  -4   2  11    2.23    0.45
   3  -2 -11   -0.14    0.21
   3  -2 -11    0.28    0.29
  -3   2  11   -0.18    0.24
   2  -2 -11    5.56    0.69
   2  -2 -11    4.21    0.57
  -2   2  11    4.75    0.67
   1  -2 -11    4.18    0.58
   1  -2 -11    4.68    0.65
  -1   2  11    4.63    0.67
   5  -3 -11   -0.02    0.25
   5  -3 -11   -0.11    0.25
   4  -3 -11    1.31    0.40
   4  -3 -11    2.25    0.48
   3  -3 -11    1.82    0.44
   3  -3 -11    2.72    0.53
  -3   3  11    0.90    0.38
   3   6 -12    1.28    0.40
  -3  -6  12    0.79    0.38
   2   6 -12    0.02    0.28
  -2  -6  12    0.85    0.41
   1   6 -12    3.24    0.56
  -1  -6  12    2.93    0.56
   5   5 -12    1.44    0.44
  -5  -5  12    1.66    0.48
   4   5 -12    1.84    0.47
  -4  -5  12    1.82    0.44
   3   5 -12    3.13    0.56
  -3  -5  12    4.14    0.63
   2   5 -12    1.06    0.36
  -2  -5  12    0.62    0.36
   1   5 -12   10.94    0.83
  -1  -5  12    9.53    0.80
   0  -5  12    5.43    0.69
   6   4 -12   15.00    1.70
  -6  -4  12   17.14    1.03
   5   4 -12    1.16    0.37
  -5  -4  12    1.83    0.47
  -5  -4  12    2.23    0.45
   4   4 -12    2.46    0.46
  -4  -4  12    2.30    0.48
   3   4 -12    2.64    0.50
  -3  -4  12    1.96    0.44
   2   4 -12    5.19    0.66
  -2  -4  12    6.29    0.71
   1   4 -12    3.40    0.55
  -1  -4  12    3.74    0.57
   0   4 -12   15.40    0.93
   0  -4  12   16.43    1.02
   6   3 -12   12.15    0.87
   5   3 -12    4.18    0.61
  -5  -3  12    4.10    0.58
   4   3 -12    0.30    0.28
  -4  -3  12    0.02    0.26
   3   3 -12    2.49    0.48
  -3  -3  12    2.04    0.45
   2   3 -12   12.06    0.86
  -2  -3  12   11.13    0.85
   1   3 -12    2.08    0.47
   1   3 -12    2.36    0.41
  -1  -3  12    2.53    0.49
   0   3 -12    4.05    0.57
   0   3 -12    5.57    0.70
   0  -3  12    2.78    0.52
   6   2 -12    0.68    0.34
   6   2 -12    0.94    0.28
  -6  -2  12    0.64    0.37
   5   2 -12    8.95    0.65
   5   2 -12    8.34    0.72
  -5  -2  12    8.83    0.74
   4   2 -12    7.65    0.80
   4   2 -12    8.77    0.66
  -4  -2  12    8.87    0.86
   3   2 -12    1.18    0.31
   3   2 -12    1.70    0.42
  -3  -2  12    1.04    0.35
   2   2 -12   19.57    1.12
  -2  -2  12   19.64    1.15
   1   2 -12    3.16    0.49
   1   2 -12    3.67    0.58
  -1  -2  12    3.11    0.52
   0   2 -12    8.52    0.84
   0   2 -12    6.40    0.73
   0  -2  12    7.19    0.77
   6   1 -12    1.66    0.34
   6   1 -12    1.29    0.39
  -6  -1  12    0.86    0.39
   5   1 -12    6.48    0.74
   5   1 -12    5.97    0.61
  -5  -1  12    5.00    0.66
   4   1 -12    2.85    0.50
   4   1 -12    3.27    0.46
  -4  -1  12    3.52    0.55
   3   1 -12    0.96    0.36
   3   1 -12    0.70    0.30
  -3  -1  12    0.83    0.34
   2   1 -12    5.28    0.66
   2   1 -12    5.85    0.64
  -2  -1  12    6.37    0.70
   1   1 -12   11.94    0.87
  -1  -1  12   10.49    0.86
   0   1 -12    0.04    0.25
   0  -1  12   -0.09    0.24
   6   0 -12    5.61    0.69
   6   0 -12    5.92    0.61
   5   0 -12    6.66    0.65
   5   0 -12    5.46    0.66
   4   0 -12    0.51    0.29
   4   0 -12    0.20    0.26
  -4   0  12   -0.01    0.24
   3   0 -12    0.32    0.28
   3   0 -12    0.48    0.30
  -3   0  12    0.26    0.27
   2   0 -12    2.56    0.49
   2   0 -12    2.08    0.46
  -2   0  12    2.96    0.53
   1   0 -12    3.77    0.60
   1   0 -12    4.55    0.62
  -1   0  12    3.69    0.59
   6  -1 -12    0.30    0.26
   5  -1 -12    0.09    0.29
   5  -1 -12   -0.17    0.26
   4  -1 -12   -0.10    0.24
   4  -1 -12   -0.20    0.22
  -4   1  12    0.16    0.32
   3  -1 -12    2.87    0.53
   3  -1 -12    3.44    0.58
  -3   1  12    2.82    0.55
   2  -1 -12    0.43    0.27
   2  -1 -12    0.45    0.29
  -2   1  12    0.25    0.32
   3   4 -13   -0.09    0.25
  -3  -4  13    0.63    0.35
   2   4 -13   11.72    0.91
  -2  -4  13   10.37    0.87
   4   3 -13    6.43    0.77
  -4  -3  13    5.87    0.71
   3   3 -13    0.38    0.30
  -3  -3  13    0.33    0.31
   2   3 -13    2.86    0.53
  -2  -3  13    3.02    0.57
   4   2 -13    3.06    0.54
   4   2 -13    2.89    0.48
  -4  -2  13    1.93    0.50
   3   2 -13    0.64    0.32
  -3  -2  13    0.81    0.39
   2   2 -13    0.71    0.35
  -2  -2  13    1.21    0.43
   4   1 -13    0.01    0.22
   4   1 -13    0.20    0.31
  -4  -1  13    0.05    0.29
   3   1 -13    1.00    0.34
   3   1 -13    1.02    0.36
  -3  -1  13    0.35    0.34
   0   0   0    0.00    0.00
;
_shelx_hkl_checksum              94923
_shelx_shelxl_version_number     2014/7
_olex2_submission_special_instructions 'No special instructions were received'
loop_
_space_group_symop_operation_xyz
'x, y, z'
loop_
_atom_site_label
_atom_site_type_symbol
_atom_site_fract_x
_atom_site_fract_y
_atom_site_fract_z
_atom_site_U_iso_or_equiv
_atom_site_adp_type
_atom_site_occupancy
_atom_site_site_symmetry_order
_atom_site_calc_flag
_atom_site_refinement_flags_posn
_atom_site_refinement_flags_occupancy
_atom_site_disorder_assembly
_atom_site_disorder_group
S1' S 1.14098(11) 0.47314(10) 0.80496(9) 0.0197(2) Uani 1 1 d . . . .
S1 S -0.17282(11) 0.61252(10) 0.19361(9) 0.0210(2) Uani 1 1 d . . . .
O1' O 1.1556(4) 0.6153(4) 0.9259(3) 0.0253(7) Uani 1 1 d . . . .
O2' O 1.2529(5) 0.5057(5) 0.7270(4) 0.0296(8) Uani 1 1 d . . . .
F3 F 0.6416(4) 0.9513(4) 0.7385(3) 0.0419(7) Uani 1 1 d . . . .
F1' F 0.2324(4) 0.1312(4) 0.4472(4) 0.0528(10) Uani 1 1 d . . . .
F2 F 0.7312(4) 0.9370(4) 0.5671(3) 0.0388(7) Uani 1 1 d . . . .
F1 F 0.6882(5) 0.7123(4) 0.6335(4) 0.0576(10) Uani 1 1 d . . . .
O2 O -0.1921(4) 0.4690(4) 0.0737(3) 0.0257(7) Uani 1 1 d . . . .
O1 O -0.2908(5) 0.5869(5) 0.2697(4) 0.0292(8) Uani 1 1 d . . . .
C5' C 0.9050(6) 0.3981(6) 0.6856(5) 0.0192(9) Uani 1 1 d . . . .
F2' F 0.2682(5) 0.3528(4) 0.3783(4) 0.0551(10) Uani 1 1 d . . . .
F3' F 0.3133(5) 0.1128(5) 0.2735(4) 0.0603(10) Uani 1 1 d . . . .
C6' C 0.7682(7) 0.3808(6) 0.7389(5) 0.0234(10) Uani 1 1 d . . . .
H6' H 0.7995 0.4088 0.8380 0.028 Uiso 1 1 calc R . . .
C8 C -0.1998(6) 0.7957(6) 0.1414(5) 0.0211(10) Uani 1 1 d . . . .
C2 C 0.4210(6) 0.7865(6) 0.5072(5) 0.0208(10) Uani 1 1 d . . . .
C1 C 0.6191(7) 0.8454(6) 0.6106(6) 0.0290(11) Uani 1 1 d . . . .
C6 C 0.0972(6) 0.7196(6) 0.4597(5) 0.0232(10) Uani 1 1 d . . . .
H6 H -0.0015 0.7110 0.4920 0.028 Uiso 1 1 calc R . . .
C7 C 0.2798(7) 0.7739(6) 0.5565(5) 0.0251(11) Uani 1 1 d . . . .
H7 H 0.3075 0.8021 0.6552 0.030 Uiso 1 1 calc R . . .
C7' C 0.5835(7) 0.3214(6) 0.6441(6) 0.0267(11) Uani 1 1 d . . . .
H7' H 0.4872 0.3075 0.6783 0.032 Uiso 1 1 calc R . . .
C4' C 0.8625(7) 0.3581(6) 0.5399(5) 0.0242(10) Uani 1 1 d . . . .
H4' H 0.9583 0.3698 0.5049 0.029 Uiso 1 1 calc R . . .
C12 C -0.2381(7) 0.9583(6) 0.2235(6) 0.0318(12) Uani 1 1 d . . . .
H12C H -0.1300 1.0636 0.2704 0.038 Uiso 1 1 calc R . . .
H12D H -0.2944 0.9375 0.2906 0.038 Uiso 1 1 calc R . . .
C3 C 0.3833(6) 0.7398(6) 0.3626(5) 0.0233(10) Uani 1 1 d . . . .
H3 H 0.4821 0.7452 0.3306 0.028 Uiso 1 1 calc R . . .
C2' C 0.5398(7) 0.2827(6) 0.5005(6) 0.0268(11) Uani 1 1 d . . . .
C9' C 1.1857(7) 0.1222(6) 0.7659(6) 0.0265(10) Uani 1 1 d . . . .
H00A H 1.3089 0.1130 0.7660 0.032 Uiso 0.700(8) 1 calc R P A 1
H00B H 1.0905 0.0837 0.6682 0.032 Uiso 0.700(8) 1 calc R P A 1
H9'A H 1.1013 0.0137 0.7592 0.032 Uiso 0.300(8) 1 calc R P A 2
H9'B H 1.2091 0.1196 0.6793 0.032 Uiso 0.300(8) 1 calc R P A 2
C4 C 0.2013(7) 0.6857(6) 0.2663(5) 0.0224(10) Uani 1 1 d . . . .
H4 H 0.1730 0.6542 0.1674 0.027 Uiso 1 1 calc R . . .
C12' C 1.1291(8) 0.2288(7) 0.9644(5) 0.0383(13) Uani 1 1 d . . . .
H00R H 1.0329 0.2581 1.0015 0.046 Uiso 0.700(8) 1 calc R P A 1
H12A H 1.1065 0.3202 1.0342 0.046 Uiso 0.300(8) 1 calc R P A 2
H12B H 1.0199 0.1246 0.9157 0.046 Uiso 0.300(8) 1 calc R P A 2
C3' C 0.6773(7) 0.3013(6) 0.4481(5) 0.0269(11) Uani 1 1 d . . . .
H3' H 0.6448 0.2750 0.3490 0.032 Uiso 1 1 calc R . . .
C9 C -0.1340(7) 0.8332(7) 0.0308(5) 0.0305(11) Uani 1 1 d . . . .
H9A H -0.0659 0.9559 0.0504 0.037 Uiso 1 1 calc R . . .
H9B H -0.0904 0.7413 -0.0213 0.037 Uiso 1 1 calc R . . .
C10 C -0.3364(7) 0.7963(7) -0.0004(5) 0.0350(12) Uani 1 1 d . . . .
H10 H -0.4322 0.6895 -0.0757 0.042 Uiso 1 1 calc R . . .
C5 C 0.0588(6) 0.6783(6) 0.3178(5) 0.0198(10) Uani 1 1 d . . . .
C8' C 1.1882(8) 0.2988(7) 0.8622(5) 0.0322(12) Uani 1 1 d . . . .
C1' C 0.3402(7) 0.2207(6) 0.4001(6) 0.0328(12) Uani 1 1 d . . . .
C12" C 1.1261(7) 0.0393(7) 0.8669(6) 0.0270(13) Uani 0.700(8) 1 d . P A 1
H01A H 1.2186 -0.0144 0.9178 0.032 Uiso 0.700(8) 1 calc R P A 1
H01B H 1.0012 -0.0451 0.8197 0.032 Uiso 0.700(8) 1 calc R P A 1
C11 C -0.3805(6) 0.9564(6) 0.0806(5) 0.0441(11) Uani 1 1 d . . . .
H11C H -0.5102 0.9329 0.0741 0.053 Uiso 1 1 calc R . . .
H11D H -0.3473 1.0631 0.0560 0.053 Uiso 1 1 calc R . . .
C11" C 1.3298(9) 0.3378(9) 1.0159(7) 0.0279(16) Uani 0.700(8) 1 d . P A 1
H1A H 1.4284 0.2753 1.0290 0.033 Uiso 0.700(8) 1 calc R P A 1
H1B H 1.3667 0.4592 1.0835 0.033 Uiso 0.700(8) 1 calc R P A 1
C10' C 1.3300(17) 0.2243(18) 0.9004(14) 0.030(3) Uani 0.300(8) 1 d . P A 2
H10' H 1.4586 0.2790 0.9111 0.036 Uiso 0.300(8) 1 calc R P A 2
C11' C 1.2870(19) 0.187(2) 1.0213(15) 0.036(4) Uani 0.300(8) 1 d . P A 2
H11A H 1.2707 0.0629 1.0178 0.043 Uiso 0.300(8) 1 calc R P A 2
H11B H 1.3711 0.2698 1.1167 0.043 Uiso 0.300(8) 1 calc R P A 2
loop_
_atom_site_aniso_label
_atom_site_aniso_U_11
_atom_site_aniso_U_22
_atom_site_aniso_U_33
_atom_site_aniso_U_23
_atom_site_aniso_U_13
_atom_site_aniso_U_12
S1' 0.0218(6) 0.0192(5) 0.0235(6) 0.0100(4) 0.0123(5) 0.0077(4)
S1 0.0218(6) 0.0232(5) 0.0236(6) 0.0108(5) 0.0129(5) 0.0075(4)
O1' 0.0269(19) 0.0185(15) 0.0257(18) 0.0027(14) 0.0091(15) 0.0036(14)
O2' 0.0248(18) 0.044(2) 0.0303(19) 0.0213(17) 0.0151(15) 0.0111(15)
F3 0.0418(18) 0.0491(18) 0.0237(14) 0.0072(14) 0.0054(13) 0.0068(14)
F1' 0.0255(16) 0.0456(18) 0.078(3) 0.0315(19) 0.0062(16) -0.0025(14)
F2 0.0270(16) 0.0463(17) 0.0337(16) 0.0133(14) 0.0047(12) 0.0005(13)
F1 0.0462(19) 0.0261(15) 0.076(2) 0.0178(16) -0.0102(17) 0.0160(14)
O2 0.0258(19) 0.0247(17) 0.0284(19) 0.0094(15) 0.0127(16) 0.0059(14)
O1 0.0247(19) 0.0392(19) 0.034(2) 0.0173(17) 0.0190(16) 0.0108(15)
C5' 0.019(2) 0.015(2) 0.024(2) 0.0064(19) 0.0098(19) 0.0035(17)
F2' 0.0362(17) 0.0247(15) 0.082(2) 0.0206(16) -0.0066(16) 0.0093(12)
F3' 0.040(2) 0.050(2) 0.050(2) -0.0129(17) -0.0049(16) 0.0036(15)
C6' 0.025(2) 0.019(2) 0.025(2) 0.0051(18) 0.011(2) 0.0028(18)
C8 0.022(2) 0.024(2) 0.025(2) 0.0137(19) 0.0113(18) 0.0115(17)
C2 0.027(2) 0.0136(19) 0.022(2) 0.0092(18) 0.0072(19) 0.0084(17)
C1 0.035(3) 0.021(2) 0.029(3) 0.009(2) 0.007(2) 0.010(2)
C6 0.027(3) 0.026(2) 0.026(3) 0.012(2) 0.018(2) 0.011(2)
C7 0.038(3) 0.020(2) 0.025(3) 0.011(2) 0.017(2) 0.013(2)
C7' 0.022(2) 0.020(2) 0.040(3) 0.009(2) 0.016(2) 0.0044(17)
C4' 0.032(3) 0.017(2) 0.025(3) 0.006(2) 0.013(2) 0.010(2)
C12 0.036(3) 0.027(3) 0.043(3) 0.016(2) 0.022(2) 0.014(2)
C3 0.024(2) 0.020(2) 0.027(2) 0.0073(19) 0.012(2) 0.0062(17)
C2' 0.026(3) 0.0127(19) 0.038(3) 0.0058(19) 0.010(2) 0.0053(17)
C9' 0.028(2) 0.020(2) 0.035(3) 0.008(2) 0.015(2) 0.0113(18)
C4 0.029(3) 0.024(2) 0.021(2) 0.0099(19) 0.015(2) 0.0094(18)
C12' 0.045(3) 0.034(3) 0.027(3) 0.017(2) 0.005(2) -0.005(2)
C3' 0.036(3) 0.019(2) 0.020(2) 0.0033(19) 0.006(2) 0.007(2)
C9 0.038(3) 0.030(2) 0.030(2) 0.017(2) 0.015(2) 0.0097(19)
C10 0.032(3) 0.036(3) 0.032(3) 0.018(2) 0.002(2) 0.007(2)
C5 0.027(3) 0.017(2) 0.023(2) 0.0100(19) 0.013(2) 0.0121(18)
C8' 0.053(3) 0.027(2) 0.025(3) 0.012(2) 0.019(2) 0.018(2)
C1' 0.030(3) 0.017(2) 0.042(3) 0.009(2) 0.004(2) 0.0055(19)
C12" 0.018(3) 0.023(3) 0.037(3) 0.015(2) 0.004(2) 0.003(2)
C11 0.026(2) 0.046(3) 0.067(3) 0.030(3) 0.014(2) 0.0179(19)
C11" 0.020(3) 0.024(3) 0.032(3) 0.010(3) 0.001(2) 0.008(2)
C10' 0.024(7) 0.034(7) 0.039(8) 0.019(6) 0.013(6) 0.013(6)
C11' 0.034(8) 0.040(8) 0.038(8) 0.021(7) 0.011(6) 0.015(6)
loop_
_atom_type_symbol
_atom_type_description
_atom_type_scat_dispersion_real
_atom_type_scat_dispersion_imag
_atom_type_scat_source
C C 0.0033 0.0016 'International Tables Vol C Tables 4.2.6.8 and 6.1.1.4'
H H 0.0000 0.0000 'International Tables Vol C Tables 4.2.6.8 and 6.1.1.4'
F F 0.0171 0.0103 'International Tables Vol C Tables 4.2.6.8 and 6.1.1.4'
O O 0.0106 0.0060 'International Tables Vol C Tables 4.2.6.8 and 6.1.1.4'
S S 0.1246 0.1234 'International Tables Vol C Tables 4.2.6.8 and 6.1.1.4'
loop_
_geom_angle_atom_site_label_1
_geom_angle_atom_site_label_2
_geom_angle_atom_site_label_3
_geom_angle
O1' S1' C5' 107.5(2)
O1' S1' C8' 107.7(2)
O2' S1' O1' 118.9(2)
O2' S1' C5' 108.1(2)
O2' S1' C8' 108.3(2)
C8' S1' C5' 105.5(2)
O2 S1 O1 118.7(2)
O2 S1 C8 108.9(2)
O2 S1 C5 108.8(2)
O1 S1 C8 108.4(2)
O1 S1 C5 107.1(2)
C8 S1 C5 103.9(2)
C6' C5' S1' 119.0(4)
C6' C5' C4' 121.9(4)
C4' C5' S1' 119.1(3)
C5' C6' H6' 120.8
C5' C6' C7' 118.5(4)
C7' C6' H6' 120.8
C12 C8 S1 125.5(3)
C12 C8 C10 91.8(4)
C9 C8 S1 121.8(3)
C9 C8 C12 110.6(4)
C9 C8 C10 58.5(3)
C10 C8 S1 126.8(4)
C7 C2 C1 119.6(4)
C7 C2 C3 121.4(4)
C3 C2 C1 119.0(4)
F3 C1 C2 112.5(4)
F2 C1 F3 106.0(4)
F2 C1 C2 112.1(4)
F1 C1 F3 105.9(4)
F1 C1 F2 106.6(4)
F1 C1 C2 113.2(4)
C7 C6 H6 120.0
C5 C6 H6 120.0
C5 C6 C7 120.0(4)
C2 C7 C6 119.0(4)
C2 C7 H7 120.5
C6 C7 H7 120.5
C6' C7' H7' 119.9
C2' C7' C6' 120.2(5)
C2' C7' H7' 119.9
C5' C4' H4' 120.8
C3' C4' C5' 118.3(4)
C3' C4' H4' 120.8
C8 C12 H12C 113.9
C8 C12 H12D 113.9
C8 C12 C11 88.4(4)
H12C C12 H12D 111.1
C11 C12 H12C 113.9
C11 C12 H12D 113.9
C2 C3 H3 120.2
C4 C3 C2 119.5(4)
C4 C3 H3 120.2
C7' C2' C3' 121.0(5)
C7' C2' C1' 119.5(5)
C3' C2' C1' 119.5(5)
H00A C9' H00B 111.4
H9'A C9' H9'B 115.5
C8' C9' H00A 114.3
C8' C9' H00B 114.3
C8' C9' H9'A 118.3
C8' C9' H9'B 118.3
C8' C9' C12" 86.3(4)
C12" C9' H00A 114.3
C12" C9' H00B 114.3
C10' C9' H9'A 118.3
C10' C9' H9'B 118.3
C10' C9' C8' 54.5(6)
C3 C4 H4 120.7
C3 C4 C5 118.6(4)
C5 C4 H4 120.7
H12A C12' H12B 110.2
C8' C12' H00R 127.5
C8' C12' H12A 112.7
C8' C12' H12B 112.7
C8' C12' C12" 84.9(4)
C8' C12' C11" 61.6(4)
C12" C12' H00R 127.5
C11" C12' H00R 127.5
C11" C12' C12" 103.5(5)
C11' C12' H12A 112.7
C11' C12' H12B 112.7
C11' C12' C8' 95.0(7)
C4' C3' H3' 120.0
C2' C3' C4' 120.1(5)
C2' C3' H3' 120.0
C8 C9 H9A 117.6
C8 C9 H9B 117.6
H9A C9 H9B 114.7
C10 C9 C8 61.7(3)
C10 C9 H9A 117.6
C10 C9 H9B 117.6
C8 C10 H10 124.4
C9 C10 C8 59.8(3)
C9 C10 H10 124.4
C9 C10 C11 110.5(4)
C11 C10 C8 88.9(4)
C11 C10 H10 124.4
C6 C5 S1 120.5(3)
C6 C5 C4 121.4(4)
C4 C5 S1 118.0(4)
C9' C8' S1' 124.1(4)
C9' C8' C11" 109.8(5)
C12' C8' S1' 129.6(4)
C12' C8' C9' 97.1(4)
C12' C8' C11" 59.8(3)
C11" C8' S1' 119.2(4)
C10' C8' S1' 139.6(7)
C10' C8' C9' 59.0(6)
C10' C8' C12' 84.3(6)
F1' C1' C2' 112.4(5)
F2' C1' F1' 105.8(4)
F2' C1' C2' 112.8(4)
F3' C1' F1' 105.5(4)
F3' C1' F2' 106.7(4)
F3' C1' C2' 113.0(5)
C9' C12" C12' 91.8(4)
C9' C12" H01A 113.3
C9' C12" H01B 113.3
C12' C12" H01A 113.3
C12' C12" H01B 113.3
H01A C12" H01B 110.7
C12 C11 H11C 113.5
C12 C11 H11D 113.5
C10 C11 C12 90.9(3)
C10 C11 H11C 113.5
C10 C11 H11D 113.5
H11C C11 H11D 110.8
C12' C11" C8' 58.7(4)
C12' C11" H1A 117.9
C12' C11" H1B 117.9
C8' C11" H1A 117.9
C8' C11" H1B 117.9
H1A C11" H1B 115.1
C9' C10' H10' 122.6
C9' C10' C11' 111.6(10)
C8' C10' C9' 66.5(6)
C8' C10' H10' 122.6
C8' C10' C11' 93.9(9)
C11' C10' H10' 122.6
C12' C11' C10' 84.8(9)
C12' C11' H11A 114.5
C12' C11' H11B 114.5
C10' C11' H11A 114.5
C10' C11' H11B 114.5
H11A C11' H11B 111.6
loop_
_geom_bond_atom_site_label_1
_geom_bond_atom_site_label_2
_geom_bond_distance
S1' O1' 1.446(3)
S1' O2' 1.435(3)
S1' C5' 1.772(5)
S1' C8' 1.727(5)
S1 O2 1.433(3)
S1 O1 1.445(3)
S1 C8 1.739(4)
S1 C5 1.764(5)
F3 C1 1.342(6)
F1' C1' 1.334(6)
F2 C1 1.340(5)
F1 C1 1.331(5)
C5' C6' 1.382(6)
C5' C4' 1.402(6)
F2' C1' 1.332(6)
F3' C1' 1.328(6)
C6' H6' 0.9500
C6' C7' 1.390(7)
C8 C12 1.521(7)
C8 C9 1.508(6)
C8 C10 1.535(7)
C2 C1 1.498(7)
C2 C7 1.382(6)
C2 C3 1.394(6)
C6 H6 0.9500
C6 C7 1.385(7)
C6 C5 1.368(6)
C7 H7 0.9500
C7' H7' 0.9500
C7' C2' 1.380(7)
C4' H4' 0.9500
C4' C3' 1.385(7)
C12 H12C 0.9900
C12 H12D 0.9900
C12 C11 1.554(7)
C3 H3 0.9500
C3 C4 1.380(7)
C2' C3' 1.381(6)
C2' C1' 1.497(7)
C9' H00A 0.9900
C9' H00B 0.9900
C9' H9'A 0.9900
C9' H9'B 0.9900
C9' C8' 1.527(7)
C9' C12" 1.558(7)
C9' C10' 1.427(14)
C4 H4 0.9500
C4 C5 1.406(6)
C12' H00R 1.0000
C12' H12A 0.9900
C12' H12B 0.9900
C12' C8' 1.512(7)
C12' C12" 1.613(8)
C12' C11" 1.529(8)
C12' C11' 1.335(14)
C3' H3' 0.9500
C9 H9A 0.9900
C9 H9B 0.9900
C9 C10 1.487(7)
C10 H10 1.0000
C10 C11 1.525(7)
C8' C11" 1.556(9)
C8' C10' 1.355(13)
C12" H01A 0.9900
C12" H01B 0.9900
C11 H11C 0.9900
C11 H11D 0.9900
C11" H1A 0.9900
C11" H1B 0.9900
C10' H10' 1.0000
C10' C11' 1.517(19)
C11' H11A 0.9900
C11' H11B 0.9900
