#------------------------------------------------------------------------------
#$Date: 2017-03-04 07:18:36 +0200 (Sat, 04 Mar 2017) $
#$Revision: 193149 $
#$URL: file:///home/coder/svn-repositories/cod/cif/4/12/57/4125775.cif $
#------------------------------------------------------------------------------
#
# This file is available in the Crystallography Open Database (COD),
# http://www.crystallography.net/
#
# All data on this site have been placed in the public domain by the
# contributors.
#
data_4125775
loop_
_publ_author_name
'Lo, Julian C.'
'Kim, Dongyoung'
'Pan, Chung-Mao'
'Edwards, Jacob T.'
'Yabe, Yuki'
'Gui, Jinghan'
'Qin, Tian'
'Guti\'errez, Sara'
'Giacoboni, Jessica'
'Smith, Myles W.'
'Holland, Patrick L.'
'Baran, Phil S.'
_publ_section_title
;
 Fe-Catalyzed C-C Bond Construction from Olefins via Radicals.
;
_journal_issue                   6
_journal_name_full               'Journal of the American Chemical Society'
_journal_page_first              2484
_journal_page_last               2503
_journal_paper_doi               10.1021/jacs.6b13155
_journal_volume                  139
_journal_year                    2017
_chemical_formula_moiety         'C14 H26 Fe O6'
_chemical_formula_sum            'C14 H26 Fe O6'
_chemical_formula_weight         346.20
_space_group_crystal_system      triclinic
_space_group_IT_number           2
_space_group_name_Hall           '-P 1'
_space_group_name_H-M_alt        'P -1'
_symmetry_space_group_name_Hall  '-P 1'
_symmetry_space_group_name_H-M   'P -1'
_atom_sites_solution_hydrogens   mixed
_atom_sites_solution_primary     SHELXT
_atom_sites_solution_secondary   difmap
_audit_creation_method           SHELXL-2014/7
_cell_angle_alpha                75.803(7)
_cell_angle_beta                 82.097(7)
_cell_angle_gamma                76.752(7)
_cell_formula_units_Z            1
_cell_length_a                   5.2765(5)
_cell_length_b                   8.7572(7)
_cell_length_c                   9.3297(8)
_cell_measurement_reflns_used    4192
_cell_measurement_temperature    93(2)
_cell_measurement_theta_max      26.3220
_cell_measurement_theta_min      2.5100
_cell_volume                     405.30(6)
_computing_cell_refinement       'CrysAlisPro 1.171.39.9d (Rigaku OD, 2015)'
_computing_data_collection       'CrysAlisPro 1.171.39.9d (Rigaku OD, 2015)'
_computing_data_reduction        'CrysAlisPro 1.171.39.9d (Rigaku OD, 2015)'
_computing_molecular_graphics
;
Dolomanov, O.V.; Bourhis, L.J.; Gildea, R.J.; Howard, J.A.K.; Puschmann, H., 
OLEX2: A complete structure solution, refinement and analysis program
(2009). J. Appl. Cryst., 42, 339-341.
;
_computing_publication_material  'CIFTAB-2013/2 (Sheldrick, 2014)'
_computing_structure_refinement  'SHELXL-2014/7 (Sheldrick, 2014)'
_computing_structure_solution    'SHELXT-2014/5 (Sheldrick, 2014)'
_diffrn_ambient_temperature      93(2)
_diffrn_detector_area_resol_mean 6.8
_diffrn_measured_fraction_theta_full 0.999
_diffrn_measured_fraction_theta_max 0.998
_diffrn_measurement_device_type  'Rigaku Mercury275R CCD'
_diffrn_measurement_method       \w
_diffrn_radiation_type           MoK\a
_diffrn_radiation_wavelength     0.71073
_diffrn_reflns_av_R_equivalents  0.0354
_diffrn_reflns_av_unetI/netI     0.0288
_diffrn_reflns_Laue_measured_fraction_full 0.999
_diffrn_reflns_Laue_measured_fraction_max 0.998
_diffrn_reflns_limit_h_max       6
_diffrn_reflns_limit_h_min       -6
_diffrn_reflns_limit_k_max       10
_diffrn_reflns_limit_k_min       -10
_diffrn_reflns_limit_l_max       11
_diffrn_reflns_limit_l_min       -11
_diffrn_reflns_number            6541
_diffrn_reflns_point_group_measured_fraction_full 0.999
_diffrn_reflns_point_group_measured_fraction_max 0.998
_diffrn_reflns_theta_full        25.242
_diffrn_reflns_theta_max         26.446
_diffrn_reflns_theta_min         2.450
_diffrn_source                   'fine-focus sealed X-ray tube'
_exptl_absorpt_coefficient_mu    0.953
_exptl_absorpt_correction_T_max  1.00000
_exptl_absorpt_correction_T_min  0.96624
_exptl_absorpt_correction_type   multi-scan
_exptl_absorpt_process_details
; 
CrysAlisPro 1.171.39.9d (Rigaku Oxford Diffraction, 2015) 
Empirical absorption correction using spherical harmonics, 
 implemented in SCALE3 ABSPACK scaling algorithm. 
;
_exptl_crystal_colour            Black
_exptl_crystal_density_diffrn    1.418
_exptl_crystal_density_method    'not measured'
_exptl_crystal_description       Block
_exptl_crystal_F_000             184
_exptl_crystal_size_max          0.500
_exptl_crystal_size_mid          0.200
_exptl_crystal_size_min          0.020
_refine_diff_density_max         0.355
_refine_diff_density_min         -0.377
_refine_diff_density_rms         0.086
_refine_ls_extinction_method     none
_refine_ls_goodness_of_fit_ref   1.101
_refine_ls_hydrogen_treatment    mixed
_refine_ls_matrix_type           full
_refine_ls_number_parameters     104
_refine_ls_number_reflns         1670
_refine_ls_number_restraints     1
_refine_ls_restrained_S_all      1.104
_refine_ls_R_factor_all          0.0312
_refine_ls_R_factor_gt           0.0286
_refine_ls_shift/su_max          0.000
_refine_ls_shift/su_mean         0.000
_refine_ls_structure_factor_coef Fsqd
_refine_ls_weighting_details
'w=1/[\s^2^(Fo^2^)+(0.0213P)^2^+0.2679P] where P=(Fo^2^+2Fc^2^)/3'
_refine_ls_weighting_scheme      calc
_refine_ls_wR_factor_gt          0.0630
_refine_ls_wR_factor_ref         0.0643
_reflns_Friedel_coverage         0.000
_reflns_number_gt                1565
_reflns_number_total             1670
_reflns_threshold_expression     'I > 2\s(I)'
_cod_data_source_file            ja6b13155_si_002.cif
_cod_data_source_block           mini-16080
_cod_database_code               4125775
_shelx_shelxl_version_number     2014/7
_shelx_space_group_comment
; 
The symmetry employed for this shelxl refinement is uniquely defined 
by the following loop, which should always be used as a source of 
symmetry information in preference to the above space-group names. 
They are only intended as comments. 
;
_shelx_estimated_absorpt_t_min   0.647
_shelx_estimated_absorpt_t_max   0.981
_shelx_res_file
; 
  
    mini-16080.res created by SHELXL-2014/7 
  
TITL mini-16080 
CELL 0.71073 5.2765 8.7572 9.3297 75.803 82.097 76.752 
ZERR 1 0.0005 0.0007 0.0008 0.007 0.007 0.007 
LATT 1 
SFAC C H Fe O 
UNIT 14 26 1 6 
DFIX 0.9 O10 H10 
  
L.S. 10 
SIZE 0.5 0.2 0.02 
TEMP -180 
EQIV $1 x+1, y, z 
HTAB O10 O11_$1 
BOND $H 
MORE -1 
CONF 
ACTA 
OMIT 0 0 1 
  
WGHT    0.021300    0.267900 
FVAR       1.22788 
FE1   3    0.500000    0.500000    0.500000    10.50000    0.01310    0.01405 = 
         0.01303   -0.00217   -0.00197   -0.00396 
O11   4    0.315625    0.310690    0.529992    11.00000    0.01287    0.01603 = 
         0.01546   -0.00290   -0.00230   -0.00406 
O21   4    0.648262    0.393958    0.699016    11.00000    0.01374    0.01635 = 
         0.01525   -0.00345   -0.00293   -0.00328 
C11   1    0.211683    0.053159    0.614376    11.00000    0.01538    0.01774 = 
         0.02573   -0.00588   -0.00135   -0.00446 
AFIX 137 
H11A  2    0.022340    0.088825    0.632344    11.00000   -1.50000 
H11B  2    0.271125   -0.046518    0.686804    11.00000   -1.50000 
H11C  2    0.253345    0.033794    0.513880    11.00000   -1.50000 
AFIX   0 
C21   1    0.347085    0.181099    0.629877    11.00000    0.00953    0.01540 = 
         0.01856   -0.00634    0.00323   -0.00121 
C31   1    0.492848    0.152078    0.750627    11.00000    0.01366    0.01545 = 
         0.01670   -0.00085   -0.00023   -0.00281 
AFIX  43 
H31   2    0.500110    0.051123    0.818741    11.00000   -1.20000 
AFIX   0 
C41   1    0.629858    0.258290    0.780819    11.00000    0.00951    0.01785 = 
         0.01374   -0.00397    0.00155    0.00075 
C51   1    0.770705    0.209305    0.919775    11.00000    0.01790    0.02590 = 
         0.01660   -0.00139   -0.00317   -0.00525 
AFIX 137 
H51A  2    0.958560    0.202611    0.893174    11.00000   -1.50000 
H51B  2    0.739684    0.104087    0.976193    11.00000   -1.50000 
H51C  2    0.705626    0.289307    0.980481    11.00000   -1.50000 
AFIX   0 
O10   4    0.854340    0.368025    0.393906    11.00000    0.01111    0.01969 = 
         0.01484   -0.00484   -0.00245   -0.00216 
H10   2    0.993593    0.354572    0.433024    11.00000    0.03389 
C10   1    0.908636    0.411373    0.236521    11.00000    0.01613    0.02259 = 
         0.01529   -0.00509   -0.00256   -0.00309 
AFIX  23 
H10A  2    0.927834    0.524992    0.207383    11.00000   -1.20000 
H10B  2    0.759328    0.402071    0.187788    11.00000   -1.20000 
AFIX   0 
C20   1    1.153727    0.306405    0.183150    11.00000    0.01682    0.02882 = 
         0.02136   -0.01106    0.00111   -0.00328 
AFIX 137 
H20A  2    1.182307    0.338893    0.074906    11.00000   -1.50000 
H20B  2    1.135271    0.193826    0.211392    11.00000   -1.50000 
H20C  2    1.303095    0.318190    0.228419    11.00000   -1.50000 
AFIX   0 
HKLF 4 
  
REM  mini-16080 
REM R1 =  0.0286 for    1565 Fo > 4sig(Fo)  and  0.0312 for all    1670 data 
REM    104 parameters refined using      1 restraints 
  
END 
  
WGHT      0.0213      0.2679 
  
REM Highest difference peak  0.355,  deepest hole -0.377,  1-sigma level  0.086 
Q1    1   0.3756  0.1828  0.7157  11.00000  0.05    0.36 
Q2    1   0.4871  0.1455  0.6611  11.00000  0.05    0.32 
Q3    1   0.5042  0.2186  0.7770  11.00000  0.05    0.30 
Q4    1   0.2873  0.1187  0.6206  11.00000  0.05    0.29 
Q5    1   0.4719  0.1078  0.8019  11.00000  0.05    0.28 
Q6    1   0.4588  0.3944  0.5776  11.00000  0.05    0.26 
Q7    1   0.7896  0.2794  0.4376  11.00000  0.05    0.25 
Q8    1   0.3039 -0.0390  0.4623  11.00000  0.05    0.24 
Q9    1   0.3330 -0.0446  0.8046  11.00000  0.05    0.23 
Q10   1   0.7004  0.2305  0.8444  11.00000  0.05    0.23 
Q11   1   0.3330 -0.1808  0.5833  11.00000  0.05    0.22 
Q12   1   0.2982 -0.0155  0.3457  11.00000  0.05    0.22 
Q13   1   1.1867  0.0086  0.2627  11.00000  0.05    0.21 
Q14   1   0.3134 -0.0281  0.5795  11.00000  0.05    0.20 
Q15   1  -0.1940  0.0990  0.6768  11.00000  0.05    0.20 
Q16   1   0.8677  0.0425  0.9332  11.00000  0.05    0.20 
Q17   1   0.9563  0.1355  0.8850  11.00000  0.05    0.20 
Q18   1   0.9147  0.2577  0.8898  11.00000  0.05    0.20 
Q19   1   0.6603  0.0335  0.9432  11.00000  0.05    0.20 
Q20   1   1.1721  0.0627  0.1385  11.00000  0.05    0.20 
;
_shelx_res_checksum              54638
_shelx_hkl_file
; 
  -6  -6  -4  252.14   20.94 
  -6  -6  -3  385.21   24.53 
  -6  -6  -2   82.24   11.84 
  -6  -6  -1    8.43    6.02 
  -6  -6   0   83.39   12.11 
  -6  -5  -5  123.32   14.81 
  -6  -5  -4  404.18   25.17 
  -6  -5  -3  365.99   23.65 
  -6  -5  -2  167.96   15.87 
  -6  -5  -1   14.06    7.44 
  -6  -5   0  113.02   13.42 
  -6  -5   1  125.42   14.24 
  -6  -4  -6   31.40    7.63 
  -6  -4  -5   14.04    5.30 
  -6  -4  -4  326.96   22.12 
  -6  -4  -3  147.71   14.80 
  -6  -4  -2   48.13    8.49 
  -6  -4  -1  220.39   17.26 
  -6  -4   0    9.01    6.35 
  -6  -4   1    2.49    4.87 
  -6  -4   1    6.80    5.94 
  -6  -4   2  155.70   14.75 
  -6  -4   2  138.40   16.19 
  -6  -3  -6   10.96    6.58 
  -6  -3  -5    9.38    4.65 
  -6  -3  -4   14.37    5.42 
  -6  -3  -3    7.07    5.11 
  -6  -3  -3   -1.61    4.70 
  -6  -3  -2   12.77    5.10 
  -6  -3  -2    4.21    6.34 
  -6  -3  -1  190.12   15.64 
  -6  -3   0  186.96   16.73 
  -6  -3   0  201.96   15.78 
  -6  -3   1   42.73    8.43 
  -6  -3   1   22.64    6.84 
  -6  -3   2  140.77   13.19 
  -6  -3   2  169.67   17.26 
  -6  -3   3  149.56   17.22 
  -6  -2  -6  123.67   13.81 
  -6  -2  -5  135.75   14.07 
  -6  -2  -4    4.87    5.13 
  -6  -2  -3    7.77    5.03 
  -6  -2  -3   11.01    4.87 
  -6  -2  -2  108.26   12.45 
  -6  -2  -2  108.20   11.75 
  -6  -2  -1    4.26    5.39 
  -6  -2  -1    4.09    4.33 
  -6  -2   0   12.23    6.43 
  -6  -2   0    2.39    4.28 
  -6  -2   0   -1.99    4.08 
  -6  -2   1   57.45    9.14 
  -6  -2   1   65.58   10.57 
  -6  -2   1   43.99    8.67 
  -6  -2   2  176.32   16.92 
  -6  -2   2  203.52   18.50 
  -6  -2   3  101.90   14.36 
  -6  -2   3   96.41   13.38 
  -6  -1  -5  100.32   12.45 
  -6  -1  -4    4.98    5.53 
  -6  -1  -4    5.53    4.81 
  -6  -1  -3   -1.07    4.81 
  -6  -1  -3   -0.05    4.35 
  -6  -1  -2  731.37   28.17 
  -6  -1  -2  776.63   29.61 
  -6  -1  -2  740.45   30.37 
  -6  -1  -1  572.80   25.87 
  -6  -1  -1  580.35   26.63 
  -6  -1  -1  608.35   26.36 
  -6  -1   0   36.65    7.55 
  -6  -1   0   35.26    8.14 
  -6  -1   0   31.49    7.98 
  -6  -1   1   29.93    7.51 
  -6  -1   1   46.19    9.07 
  -6  -1   2    5.32    6.15 
  -6  -1   2    7.27    4.47 
  -6  -1   3    8.85    5.40 
  -6  -1   3   20.59    8.26 
  -6   0  -4   34.14    8.44 
  -6   0  -4   41.59    7.75 
  -6   0  -3   36.22    7.71 
  -6   0  -3   44.38    9.14 
  -6   0  -2   20.29    5.85 
  -6   0  -2   40.32    8.03 
  -6   0  -2   46.61    8.42 
  -6   0  -1  532.78   25.83 
  -6   0  -1  501.85   23.49 
  -6   0  -1  531.86   25.20 
  -6   0   0  464.88   24.71 
  -6   0   0  454.89   23.49 
  -6   0   0  478.24   24.80 
  -6   0   1  137.61   14.74 
  -6   0   1  126.37   13.35 
  -6   0   2   41.56    9.51 
  -6   0   2   60.91    9.97 
  -6   0   3   87.62   12.38 
  -6   1  -3  418.01   25.86 
  -6   1  -3  358.85   22.26 
  -6   1  -2  129.77   14.63 
  -6   1  -2  120.19   13.38 
  -6   1  -1   88.07   11.07 
  -6   1  -1   85.84   11.77 
  -6   1   0  251.31   18.39 
  -6   1   0  237.98   18.43 
  -6   1   0  198.01   15.63 
  -6   1   1   33.27    7.51 
  -6   1   1   49.68    8.98 
  -6   1   1   50.32    9.25 
  -6   1   2   47.24    8.91 
  -6   1   2   48.48   10.30 
  -6   2  -1   20.59    7.23 
  -6   2   0   43.54    9.21 
  -5  -8  -6   41.01    9.91 
  -5  -8  -5  151.51   16.59 
  -5  -8  -4   16.35    7.27 
  -5  -8  -3    6.41    7.18 
  -5  -8  -2   56.41   10.15 
  -5  -8  -1   60.91   10.70 
  -5  -8   0  105.77   14.86 
  -5  -7  -7  171.26   17.61 
  -5  -7  -6  487.11   27.55 
  -5  -7  -5  191.82   17.23 
  -5  -7  -4   60.60    9.61 
  -5  -7  -3   12.76    6.39 
  -5  -7  -2   45.69    9.64 
  -5  -7  -1  100.22   12.76 
  -5  -7   0  183.68   16.87 
  -5  -7   1  173.57   16.44 
  -5  -7   2   48.75    9.91 
  -5  -6  -8   47.65    9.15 
  -5  -6  -7   24.52    6.91 
  -5  -6  -6  186.49   17.21 
  -5  -6  -5  128.15   14.16 
  -5  -6  -4  157.91   14.95 
  -5  -6  -3  197.53   16.56 
  -5  -6  -2   68.52   10.06 
  -5  -6  -1  366.21   21.77 
  -5  -6   0  478.80   25.53 
  -5  -6   1  455.37   24.71 
  -5  -6   2  155.76   15.13 
  -5  -6   3   52.02    9.84 
  -5  -5  -8    1.31    5.02 
  -5  -5  -7   22.48    6.17 
  -5  -5  -6    5.74    6.58 
  -5  -5  -6    9.74    4.67 
  -5  -5  -5   89.63   11.76 
  -5  -5  -5   68.11    8.17 
  -5  -5  -4  119.94   12.96 
  -5  -5  -3  389.25   21.62 
  -5  -5  -2  259.59   17.87 
  -5  -5  -1   79.03   10.39 
  -5  -5   0  137.55   13.28 
  -5  -5   1  319.80   20.02 
  -5  -5   2  508.96   25.25 
  -5  -5   2  442.18   25.72 
  -5  -5   3    1.19    4.71 
  -5  -5   3   -1.26    4.79 
  -5  -5   4   48.90    8.94 
  -5  -5   4   37.40    8.69 
  -5  -4  -8   28.16    8.24 
  -5  -4  -7   11.88    5.53 
  -5  -4  -6   15.83    5.54 
  -5  -4  -5   14.38    6.04 
  -5  -4  -5    6.81    3.69 
  -5  -4  -4   83.45   10.87 
  -5  -4  -4   73.18    7.93 
  -5  -4  -3   86.72   10.72 
  -5  -4  -3   83.16    7.87 
  -5  -4  -2  632.90   20.40 
  -5  -4  -2  685.68   27.17 
  -5  -4  -1  195.60   14.69 
  -5  -4   0   31.26    6.50 
  -5  -4   0   21.66    6.12 
  -5  -4   1  111.81   12.96 
  -5  -4   1  131.02   12.27 
  -5  -4   2  115.32   12.96 
  -5  -4   2  144.27   13.32 
  -5  -4   3    9.27    5.31 
  -5  -4   3    6.50    5.50 
  -5  -4   4   15.43    6.53 
  -5  -4   4   23.57    7.12 
  -5  -4   5  186.17   15.62 
  -5  -4   5  146.07   16.75 
  -5  -3  -8  199.93   16.89 
  -5  -3  -7   96.61   11.24 
  -5  -3  -6   95.51   10.32 
  -5  -3  -5   57.46    8.41 
  -5  -3  -4  353.72   17.46 
  -5  -3  -4  358.79   20.28 
  -5  -3  -3  202.37   15.20 
  -5  -3  -3  193.93   12.72 
  -5  -3  -2   -3.34    3.85 
  -5  -3  -2   -0.45    3.31 
  -5  -3  -1    6.84    4.94 
  -5  -3   0    6.60    3.99 
  -5  -3   0    2.00    4.33 
  -5  -3   1  149.11   13.72 
  -5  -3   1  190.30   13.75 
  -5  -3   2   24.71    5.16 
  -5  -3   2   28.31    7.07 
  -5  -3   3  144.95   14.48 
  -5  -3   3  181.04   13.87 
  -5  -3   4  172.49   16.71 
  -5  -3   4  170.62   13.98 
  -5  -3   5    8.34    6.27 
  -5  -3   5    4.59    5.22 
  -5  -2  -8   32.44    7.62 
  -5  -2  -7  275.51   19.05 
  -5  -2  -6  220.49   16.25 
  -5  -2  -5   52.29    8.22 
  -5  -2  -4  200.42   12.11 
  -5  -2  -4  194.79   13.73 
  -5  -2  -3 1707.70   38.91 
  -5  -2  -3 1740.90   41.94 
  -5  -2  -3 1750.04   35.37 
  -5  -2  -2  278.60   16.88 
  -5  -2  -2  304.08   16.52 
  -5  -2  -2  261.38   14.57 
  -5  -2  -1    7.38    3.77 
  -5  -2  -1    4.46    3.89 
  -5  -2  -1    5.32    4.00 
  -5  -2  -1    9.78    4.68 
  -5  -2   0   11.67    4.51 
  -5  -2   0    3.33    4.00 
  -5  -2   0    9.69    4.47 
  -5  -2   1   28.51    6.62 
  -5  -2   1   19.10    4.54 
  -5  -2   1   19.81    5.80 
  -5  -2   2    4.55    4.62 
  -5  -2   2    5.95    4.03 
  -5  -2   2   -5.56    4.01 
  -5  -2   3   35.38    7.02 
  -5  -2   3   16.02    5.80 
  -5  -2   3   16.28    6.37 
  -5  -2   4  477.88   26.72 
  -5  -2   4  435.96   25.94 
  -5  -2   4  436.51   20.23 
  -5  -2   5  106.51   14.10 
  -5  -2   5  115.20   13.64 
  -5  -2   6    6.24    6.02 
  -5  -1  -8  126.36   14.82 
  -5  -1  -7  594.28   28.69 
  -5  -1  -6  417.41   23.08 
  -5  -1  -5  152.47   13.41 
  -5  -1  -5  154.42   11.90 
  -5  -1  -4   40.11    7.02 
  -5  -1  -4   30.19    5.69 
  -5  -1  -3  143.61   12.15 
  -5  -1  -3  119.47   10.47 
  -5  -1  -2  375.19   17.78 
  -5  -1  -2  373.69   18.15 
  -5  -1  -2  401.99   20.16 
  -5  -1  -2  375.74   17.89 
  -5  -1  -1  220.68   14.50 
  -5  -1  -1  222.84   14.39 
  -5  -1  -1  224.25   14.49 
  -5  -1  -1  228.92   14.56 
  -5  -1  -1  206.26   14.00 
  -5  -1   0  362.79   19.41 
  -5  -1   0  366.00   17.47 
  -5  -1   0  370.23   19.59 
  -5  -1   1  117.60   11.84 
  -5  -1   1  107.50   11.55 
  -5  -1   1  118.35   10.11 
  -5  -1   2  323.15   19.72 
  -5  -1   2  326.22   15.92 
  -5  -1   2  364.79   21.10 
  -5  -1   3  354.14   21.72 
  -5  -1   3  360.69   22.01 
  -5  -1   4   51.13    9.35 
  -5  -1   4   68.72   10.71 
  -5  -1   5   51.00    9.97 
  -5  -1   5   54.52   10.38 
  -5  -1   6    9.87    6.48 
  -5  -1   6   23.08    8.09 
  -5   0  -7  191.47   17.15 
  -5   0  -6  157.52   14.84 
  -5   0  -6  108.09   11.06 
  -5   0  -5  166.30   13.28 
  -5   0  -5  167.86   14.39 
  -5   0  -4  467.92   23.49 
  -5   0  -4  460.86   21.27 
  -5   0  -3    4.84    4.30 
  -5   0  -3   -0.84    3.01 
  -5   0  -3   -0.30    3.36 
  -5   0  -2   25.93    6.67 
  -5   0  -2   26.71    5.97 
  -5   0  -2   28.27    6.26 
  -5   0  -2   25.73    5.62 
  -5   0  -1  513.06   21.72 
  -5   0  -1  497.43   20.81 
  -5   0  -1  510.15   22.57 
  -5   0  -1  505.46   22.89 
  -5   0   0  294.74   17.27 
  -5   0   0  289.29   16.79 
  -5   0   0  281.64   17.10 
  -5   0   1   87.23    8.59 
  -5   0   1   98.19   10.83 
  -5   0   1  108.43   11.16 
  -5   0   1  102.33   11.32 
  -5   0   2  238.79   16.81 
  -5   0   2  248.68   17.73 
  -5   0   3  863.67   33.34 
  -5   0   3  864.56   32.84 
  -5   0   4  303.25   20.87 
  -5   0   4  282.76   19.91 
  -5   0   5   99.09   13.27 
  -5   0   5   92.08   12.44 
  -5   0   6   41.58   10.47 
  -5   0   6   28.97    8.44 
  -5   1  -7   41.77    8.35 
  -5   1  -7   44.44    9.73 
  -5   1  -6   16.92    6.25 
  -5   1  -6   11.05    5.98 
  -5   1  -5   12.46    5.80 
  -5   1  -5   10.96    5.58 
  -5   1  -4   23.18    6.47 
  -5   1  -4   46.63    8.31 
  -5   1  -3    6.61    4.22 
  -5   1  -3   14.04    6.17 
  -5   1  -2    5.73    3.48 
  -5   1  -2   11.48    5.38 
  -5   1  -1  512.16   21.80 
  -5   1  -1  480.95   19.97 
  -5   1  -1  515.60   24.33 
  -5   1  -1  511.68   23.82 
  -5   1   0  233.52   16.35 
  -5   1   0  241.28   15.97 
  -5   1   0  232.82   14.79 
  -5   1   1  155.38   13.86 
  -5   1   1  154.87   13.67 
  -5   1   1  153.04   12.70 
  -5   1   2  153.10   13.95 
  -5   1   2  161.60   13.93 
  -5   1   2  124.11   12.22 
  -5   1   3  122.39   13.40 
  -5   1   3  138.45   13.24 
  -5   1   4  284.10   20.07 
  -5   1   4  258.97   19.06 
  -5   1   5   58.12   10.75 
  -5   1   5   64.09   10.73 
  -5   1   6   32.08    8.15 
  -5   1   6   52.29    9.97 
  -5   2  -6   16.39    6.03 
  -5   2  -6   17.66    7.95 
  -5   2  -5  138.32   14.92 
  -5   2  -5  150.51   14.39 
  -5   2  -4   -2.78    3.77 
  -5   2  -4    2.56    4.80 
  -5   2  -3   -0.99    4.22 
  -5   2  -3    2.78    4.55 
  -5   2  -2  100.78   11.99 
  -5   2  -2   81.93   10.53 
  -5   2  -2   86.56    9.71 
  -5   2  -1  154.52   12.87 
  -5   2  -1  150.88   13.95 
  -5   2  -1  161.58   11.44 
  -5   2  -1  169.01   14.54 
  -5   2   0  275.72   15.91 
  -5   2   0  271.44   17.44 
  -5   2   0  274.51   18.49 
  -5   2   1   31.71    7.25 
  -5   2   1   34.70    7.39 
  -5   2   1   16.54    5.00 
  -5   2   2    2.26    5.27 
  -5   2   2   10.14    5.28 
  -5   2   2    0.44    3.75 
  -5   2   3   11.03    5.53 
  -5   2   3   15.40    5.81 
  -5   2   3   16.54    6.83 
  -5   2   4   96.46   12.56 
  -5   2   4   94.11   11.64 
  -5   2   5   34.90    8.24 
  -5   2   5   24.91    7.98 
  -5   3  -5   99.42   12.47 
  -5   3  -5  107.90   13.94 
  -5   3  -4   71.65   11.04 
  -5   3  -4   77.29   11.32 
  -5   3  -3   29.53    8.41 
  -5   3  -3   14.20    5.31 
  -5   3  -2  126.03   11.77 
  -5   3  -2  145.43   15.04 
  -5   3  -2   99.68   12.11 
  -5   3  -1  103.52   12.60 
  -5   3  -1   91.80   10.18 
  -5   3   0  327.60   21.29 
  -5   3   0  340.16   19.82 
  -5   3   1  215.53   17.09 
  -5   3   1  220.57   14.94 
  -5   3   1  214.45   16.50 
  -5   3   2    0.95    4.22 
  -5   3   2    9.84    6.24 
  -5   3   2   -5.42    5.14 
  -5   3   3    1.69    4.95 
  -5   3   3    4.48    4.96 
  -5   3   3    3.82    4.58 
  -5   3   4    2.04    5.06 
  -5   3   4   -2.82    5.20 
  -5   3   5   12.95    7.40 
  -5   4  -3  253.82   20.99 
  -5   4  -3  242.24   19.47 
  -5   4  -2  109.93   13.38 
  -5   4  -2  128.70   14.90 
  -5   4  -1   79.97   10.31 
  -5   4  -1   92.26   12.27 
  -5   4   0    2.35    4.16 
  -5   4   0    4.77    4.89 
  -5   4   1   49.75    8.81 
  -5   4   1   63.95   10.22 
  -5   4   2  146.27   15.03 
  -5   4   2  163.06   13.68 
  -5   4   2  144.91   15.07 
  -5   4   3   94.80   12.70 
  -5   4   3   88.85   12.60 
  -5   4   3   78.72   10.85 
  -5   4   4    2.77    4.98 
  -5   4   4   21.56    7.19 
  -5   5   0   76.96   12.26 
  -5   5   1    6.25    4.83 
  -4 -10  -3   60.63   11.10 
  -4  -9  -7   -4.12    6.62 
  -4  -9  -6   77.32   11.80 
  -4  -9  -5    4.17    6.21 
  -4  -9  -4   37.33    8.80 
  -4  -9  -3  272.11   20.23 
  -4  -9  -2  255.06   19.54 
  -4  -9  -1   87.72   12.62 
  -4  -9   0    1.77    5.72 
  -4  -9   1    6.70    6.49 
  -4  -8  -8  118.55   14.67 
  -4  -8  -7  279.62   20.87 
  -4  -8  -6  184.20   16.48 
  -4  -8  -5  117.48   13.15 
  -4  -8  -4   96.47   11.81 
  -4  -8  -3  273.60   18.89 
  -4  -8  -2  107.92   12.58 
  -4  -8  -1  213.66   17.36 
  -4  -8   0  134.59   14.48 
  -4  -8   1    6.08    4.85 
  -4  -8   2    2.81    5.83 
  -4  -8   3    6.09    6.12 
  -4  -7  -9   -5.93    4.57 
  -4  -7  -8   16.23    5.36 
  -4  -7  -7  320.71   21.45 
  -4  -7  -7  281.81   16.02 
  -4  -7  -6  159.05   14.86 
  -4  -7  -5  447.29   23.81 
  -4  -7  -4  483.06   24.00 
  -4  -7  -3  108.10   11.90 
  -4  -7  -2  175.31   15.15 
  -4  -7  -1  416.41   22.73 
  -4  -7   0  338.62   20.59 
  -4  -7   1   -1.60    4.91 
  -4  -7   2  111.22   12.58 
  -4  -7   3  273.56   19.99 
  -4  -7   4   79.30   11.67 
  -4  -6  -9    7.25    4.71 
  -4  -6  -8   52.92    8.41 
  -4  -6  -7   91.08    9.58 
  -4  -6  -7   99.03   12.26 
  -4  -6  -6  143.93   13.52 
  -4  -6  -6  105.51    9.30 
  -4  -6  -5  426.65   22.47 
  -4  -6  -5  376.26   15.66 
  -4  -6  -4  589.19   25.89 
  -4  -6  -3    4.04    3.84 
  -4  -6  -2   -0.74    3.99 
  -4  -6  -1  207.72   15.38 
  -4  -6   0  362.89   20.34 
  -4  -6   1  265.70   17.46 
  -4  -6   2   85.58   10.36 
  -4  -6   3  589.73   27.07 
  -4  -6   4  631.81   28.78 
  -4  -6   4  538.41   28.53 
  -4  -6   5  148.32   14.81 
  -4  -6   5  151.09   15.63 
  -4  -5  -9   68.68    9.77 
  -4  -5  -8  104.32   10.96 
  -4  -5  -7    2.73    3.80 
  -4  -5  -6   77.81    8.39 
  -4  -5  -6   87.18   10.74 
  -4  -5  -5  152.78   10.76 
  -4  -5  -5  143.12   12.84 
  -4  -5  -4   58.40    6.35 
  -4  -5  -4   63.61    9.21 
  -4  -5  -3   71.49    5.84 
  -4  -5  -3   84.05    9.58 
  -4  -5  -2   22.52    5.82 
  -4  -5  -1   66.47    8.32 
  -4  -5   0  133.21   11.69 
  -4  -5   1  442.57   21.16 
  -4  -5   2   43.64    8.22 
  -4  -5   2   57.95    8.61 
  -4  -5   3    9.63    5.56 
  -4  -5   3    6.44    4.48 
  -4  -5   4  333.60   21.69 
  -4  -5   4  405.22   21.60 
  -4  -5   5  339.02   20.82 
  -4  -5   5  299.83   21.06 
  -4  -5   6  150.17   15.00 
  -4  -5   6  134.88   15.44 
  -4  -4 -10  125.17   13.87 
  -4  -4  -9  653.10   28.88 
  -4  -4  -8  282.88   17.84 
  -4  -4  -7   31.59    6.48 
  -4  -4  -6  144.32   11.25 
  -4  -4  -5  402.98   20.96 
  -4  -4  -5  421.59   17.60 
  -4  -4  -4   41.58    5.54 
  -4  -4  -4   38.72    6.75 
  -4  -4  -3   26.73    4.33 
  -4  -4  -3   27.31    5.25 
  -4  -4  -2   28.57    3.86 
  -4  -4  -2   35.65    6.38 
  -4  -4  -1  112.86   10.18 
  -4  -4   0  330.57   18.30 
  -4  -4   0  375.89   18.43 
  -4  -4   1  354.10   19.21 
  -4  -4   1  404.57   19.15 
  -4  -4   2  628.77   23.86 
  -4  -4   2  578.90   25.97 
  -4  -4   3   24.05    6.35 
  -4  -4   3   41.01    7.22 
  -4  -4   4   22.93    5.43 
  -4  -4   4   21.15    6.51 
  -4  -4   5    4.26    4.40 
  -4  -4   5    4.56    3.93 
  -4  -4   6   46.99    9.41 
  -4  -4   6   54.60    9.24 
  -4  -4   7   96.19   12.13 
  -4  -4   7   81.90   12.45 
  -4  -3 -10   70.88   11.38 
  -4  -3  -9  444.06   24.54 
  -4  -3  -8  194.42   15.48 
  -4  -3  -7   79.97    9.56 
  -4  -3  -6   40.19    6.64 
  -4  -3  -5  319.83   15.96 
  -4  -3  -4  998.24   26.48 
  -4  -3  -4  946.00   29.73 
  -4  -3  -3  241.30   12.02 
  -4  -3  -3  246.33   14.71 
  -4  -3  -2  108.02    9.84 
  -4  -3  -2  103.14    7.65 
  -4  -3  -1  112.88   10.02 
  -4  -3  -1  109.06    7.68 
  -4  -3   0  287.03   15.22 
  -4  -3   0  276.77   15.85 
  -4  -3   1   60.55    7.41 
  -4  -3   1   42.08    7.08 
  -4  -3   2  123.81   11.74 
  -4  -3   2  122.05   10.27 
  -4  -3   3  468.02   19.82 
  -4  -3   3  391.68   21.45 
  -4  -3   4    3.86    4.39 
  -4  -3   4    4.73    3.54 
  -4  -3   5    2.53    4.76 
  -4  -3   5    4.71    4.14 
  -4  -3   6   74.97   10.98 
  -4  -3   6  102.26   10.80 
  -4  -3   7   53.41    9.22 
  -4  -3   7   47.90   10.44 
  -4  -2 -10  309.85   22.45 
  -4  -2  -9  153.10   14.79 
  -4  -2  -8  256.65   17.94 
  -4  -2  -7  182.57   14.32 
  -4  -2  -6   59.84    8.09 
  -4  -2  -5   18.60    4.59 
  -4  -2  -5   16.01    3.74 
  -4  -2  -4  452.62   15.22 
  -4  -2  -4  468.93   19.19 
  -4  -2  -3 1497.26   27.85 
  -4  -2  -3 1450.37   34.57 
  -4  -2  -3 1461.06   31.45 
  -4  -2  -2  970.75   24.50 
  -4  -2  -2  958.49   23.06 
  -4  -2  -2  945.32   26.86 
  -4  -2  -1  887.02   26.28 
  -4  -2  -1  870.81   25.41 
  -4  -2  -1  895.27   25.27 
  -4  -2   0  444.95   19.31 
  -4  -2   0  455.79   19.31 
  -4  -2   0  440.61   17.60 
  -4  -2   1  645.51   24.45 
  -4  -2   1  675.81   21.46 
  -4  -2   1  661.49   23.96 
  -4  -2   2  161.81   12.53 
  -4  -2   2  168.47   13.20 
  -4  -2   3   29.71    6.11 
  -4  -2   3   33.58    7.07 
  -4  -2   3   33.81    5.43 
  -4  -2   4   -1.46    3.53 
  -4  -2   4   -0.83    3.54 
  -4  -2   4   -2.13    3.53 
  -4  -2   5   37.47    7.68 
  -4  -2   5   34.21    7.42 
  -4  -2   5   37.96    5.89 
  -4  -2   6  345.25   22.06 
  -4  -2   6  371.58   18.39 
  -4  -2   6  357.35   22.89 
  -4  -2   7   96.91   12.52 
  -4  -2   7  108.65   13.89 
  -4  -1  -9    3.47    4.90 
  -4  -1  -8   23.17    5.80 
  -4  -1  -7  119.45   12.03 
  -4  -1  -7   91.30    8.48 
  -4  -1  -6  228.34   15.62 
  -4  -1  -6  207.00   12.10 
  -4  -1  -5  265.03   16.01 
  -4  -1  -5  260.16   13.04 
  -4  -1  -4   53.89    6.05 
  -4  -1  -4   47.34    6.69 
  -4  -1  -3  780.72   21.77 
  -4  -1  -3  759.18   24.00 
  -4  -1  -2 1118.31   28.31 
  -4  -1  -2 1109.28   26.79 
  -4  -1  -2 1084.22   28.41 
  -4  -1  -2 1114.09   27.10 
  -4  -1  -2 1118.65   26.20 
  -4  -1  -1  507.53   18.92 
  -4  -1  -1  549.53   20.26 
  -4  -1  -1  502.50   18.99 
  -4  -1  -1  505.83   18.62 
  -4  -1  -1  491.06   18.29 
  -4  -1   0    1.77    2.13 
  -4  -1   0    8.86    4.25 
  -4  -1   0    4.82    2.78 
  -4  -1   0    5.86    2.99 
  -4  -1   1  352.29   17.21 
  -4  -1   1  328.34   16.99 
  -4  -1   1  339.81   14.34 
  -4  -1   2 1136.85   32.63 
  -4  -1   2 1183.83   26.65 
  -4  -1   2 1171.68   32.95 
  -4  -1   3  158.08   10.19 
  -4  -1   3  134.83   12.10 
  -4  -1   3  125.42   11.97 
  -4  -1   4  142.12   12.93 
  -4  -1   4  144.50    9.99 
  -4  -1   4  150.90   13.28 
  -4  -1   5  222.14   16.72 
  -4  -1   5  221.86   16.98 
  -4  -1   5  225.08   12.79 
  -4  -1   6  184.43   16.16 
  -4  -1   6  180.79   16.09 
  -4  -1   7  219.07   18.57 
  -4  -1   7  214.57   18.13 
  -4  -1   8  189.97   18.30 
  -4   0  -9   15.45    7.45 
  -4   0  -8    5.80    4.61 
  -4   0  -8    6.30    3.94 
  -4   0  -7   30.02    7.02 
  -4   0  -7   15.38    4.90 
  -4   0  -6   41.40    6.41 
  -4   0  -6   49.09    8.19 
  -4   0  -5  186.39   12.39 
  -4   0  -5  211.19   14.99 
  -4   0  -4   94.04    9.44 
  -4   0  -4   78.40    7.96 
  -4   0  -3  240.13   11.07 
  -4   0  -3  228.40   13.18 
  -4   0  -3  229.01   14.06 
  -4   0  -2 1023.10   28.80 
  -4   0  -2 1026.72   24.06 
  -4   0  -2 1044.91   25.09 
  -4   0  -2  992.86   26.96 
  -4   0  -1   39.98    5.63 
  -4   0  -1   33.32    5.25 
  -4   0  -1   33.88    4.98 
  -4   0   0    6.12    2.95 
  -4   0   0   12.59    3.54 
  -4   0   0    7.24    3.09 
  -4   0   0    4.77    2.57 
  -4   0   1   70.46    8.04 
  -4   0   1   69.58    8.05 
  -4   0   1   70.63    7.99 
  -4   0   1   67.84    6.42 
  -4   0   2  311.37   17.21 
  -4   0   2  301.67   16.46 
  -4   0   2  302.21   12.42 
  -4   0   3  234.84   15.38 
  -4   0   3  249.60   11.22 
  -4   0   3  244.57   15.80 
  -4   0   4  325.25   19.14 
  -4   0   4  341.79   19.49 
  -4   0   5  495.46   24.96 
  -4   0   5  486.35   24.27 
  -4   0   6   56.90    9.90 
  -4   0   6   46.45    8.37 
  -4   0   7  162.72   15.93 
  -4   0   7  146.15   15.04 
  -4   0   8  232.16   19.91 
  -4   0   8  269.26   21.54 
  -4   1  -8   24.86    7.76 
  -4   1  -8   20.11    5.74 
  -4   1  -7  171.75   15.49 
  -4   1  -7  160.07   13.25 
  -4   1  -6  353.10   18.81 
  -4   1  -6  375.44   21.41 
  -4   1  -5   26.15    5.43 
  -4   1  -5   23.56    5.35 
  -4   1  -4   55.72    7.92 
  -4   1  -4   53.19    7.34 
  -4   1  -3  137.14   11.06 
  -4   1  -3  135.81    8.67 
  -4   1  -3  136.39   11.60 
  -4   1  -2  247.35   15.18 
  -4   1  -2  247.64   11.32 
  -4   1  -2  226.79   14.04 
  -4   1  -2  251.50   12.65 
  -4   1  -1    2.36    2.35 
  -4   1  -1    3.51    3.52 
  -4   1  -1   -0.07    2.44 
  -4   1  -1    1.02    2.52 
  -4   1   0   15.27    4.27 
  -4   1   0   20.41    4.41 
  -4   1   0   17.47    4.23 
  -4   1   1   39.54    6.01 
  -4   1   1   38.42    5.89 
  -4   1   1   30.84    5.91 
  -4   1   2   14.16    4.91 
  -4   1   2   18.09    5.13 
  -4   1   2   16.21    4.32 
  -4   1   3  357.59   18.64 
  -4   1   3  353.76   19.15 
  -4   1   4  383.57   21.31 
  -4   1   4  350.10   19.69 
  -4   1   5  246.85   17.15 
  -4   1   5  246.96   17.76 
  -4   1   6  125.50   13.17 
  -4   1   6  128.32   13.79 
  -4   1   7    4.30    4.45 
  -4   1   7    4.95    5.71 
  -4   1   8   29.73    8.48 
  -4   1   8   35.92    9.93 
  -4   2  -8   98.30   13.62 
  -4   2  -8   93.39   11.97 
  -4   2  -7  277.91   18.53 
  -4   2  -7  319.20   21.94 
  -4   2  -6  451.80   22.86 
  -4   2  -6  467.70   24.54 
  -4   2  -5   97.85   11.23 
  -4   2  -5   77.72    9.54 
  -4   2  -4   31.52    6.46 
  -4   2  -4   36.57    6.45 
  -4   2  -3  151.23   12.38 
  -4   2  -3  164.87   10.04 
  -4   2  -3  154.43   12.89 
  -4   2  -2   -2.00    3.34 
  -4   2  -2    1.37    3.08 
  -4   2  -1  290.86   16.70 
  -4   2  -1  286.12   14.95 
  -4   2  -1  301.42   13.34 
  -4   2  -1  342.09   18.60 
  -4   2   0  368.31   15.82 
  -4   2   0  392.89   18.31 
  -4   2   0  373.14   18.93 
  -4   2   1   22.30    4.90 
  -4   2   1   24.51    5.68 
  -4   2   1   20.99    5.06 
  -4   2   2    4.50    4.29 
  -4   2   2    2.90    2.83 
  -4   2   2    8.04    4.58 
  -4   2   3  136.93   11.90 
  -4   2   3  133.72   12.64 
  -4   2   3  120.19   11.27 
  -4   2   4  261.88   17.19 
  -4   2   4  234.97   16.71 
  -4   2   5    3.72    4.77 
  -4   2   5    1.90    3.92 
  -4   2   6   56.17   10.29 
  -4   2   6   38.73    7.96 
  -4   2   7   59.01   10.33 
  -4   2   7   59.95   10.43 
  -4   2   8   27.99    9.29 
  -4   3  -7  473.19   25.70 
  -4   3  -7  535.47   28.83 
  -4   3  -6  257.41   19.61 
  -4   3  -6  246.06   18.05 
  -4   3  -5  250.77   18.42 
  -4   3  -5  243.64   17.55 
  -4   3  -4  171.10   14.85 
  -4   3  -4  174.15   14.36 
  -4   3  -3   96.06    8.58 
  -4   3  -3  102.40   11.31 
  -4   3  -3   92.01   10.40 
  -4   3  -2    8.14    4.83 
  -4   3  -2    5.06    4.35 
  -4   3  -2    5.77    3.63 
  -4   3  -1   50.38    5.50 
  -4   3  -1   55.46    8.10 
  -4   3  -1   56.36    6.93 
  -4   3  -1   59.22    8.40 
  -4   3   0  888.12   24.37 
  -4   3   0  877.91   28.15 
  -4   3   0  854.39   29.97 
  -4   3   1  448.74   21.96 
  -4   3   1  430.77   20.66 
  -4   3   1  399.23   17.76 
  -4   3   2  240.98   14.82 
  -4   3   2  237.81   15.86 
  -4   3   2  233.17   16.07 
  -4   3   3  183.16   13.75 
  -4   3   3  181.43   14.55 
  -4   3   3  173.43   14.24 
  -4   3   4  374.10   21.51 
  -4   3   4  367.14   21.10 
  -4   3   4  388.92   21.00 
  -4   3   5  131.21   12.99 
  -4   3   5  135.81   13.86 
  -4   3   6  108.57   13.03 
  -4   3   6   96.78   12.62 
  -4   3   7   27.98    8.26 
  -4   3   7   26.95    8.30 
  -4   4  -6   23.69    6.79 
  -4   4  -6   28.78    7.88 
  -4   4  -5   94.77   12.32 
  -4   4  -5  102.35   12.60 
  -4   4  -4  212.27   16.64 
  -4   4  -4  226.84   18.21 
  -4   4  -3  120.31   12.98 
  -4   4  -3   98.73   11.82 
  -4   4  -2  397.33   23.17 
  -4   4  -2  384.52   18.27 
  -4   4  -2  395.01   21.97 
  -4   4  -1  322.26   17.32 
  -4   4  -1  322.60   19.79 
  -4   4  -1  341.07   20.64 
  -4   4   0  232.56   12.87 
  -4   4   0  234.85   16.84 
  -4   4   0  239.07   15.60 
  -4   4   1  373.72   21.11 
  -4   4   1  376.53   19.84 
  -4   4   1  387.33   17.82 
  -4   4   2  138.30   12.86 
  -4   4   2  154.84   13.99 
  -4   4   2  141.67   11.87 
  -4   4   3   30.96    6.58 
  -4   4   3   25.91    5.95 
  -4   4   3   31.48    7.00 
  -4   4   4   78.83    9.83 
  -4   4   4   79.08   10.03 
  -4   4   4   87.97   11.09 
  -4   4   5  606.15   28.49 
  -4   4   5  616.18   29.43 
  -4   4   5  629.32   28.68 
  -4   4   6  134.10   14.88 
  -4   4   6  125.06   13.94 
  -4   4   7    8.87    6.54 
  -4   4   7   13.45    7.30 
  -4   5  -5   60.19   11.15 
  -4   5  -5   31.84    8.23 
  -4   5  -4   38.84    9.47 
  -4   5  -4   42.20    8.56 
  -4   5  -3    7.96    5.94 
  -4   5  -3    9.77    5.19 
  -4   5  -2   23.38    6.05 
  -4   5  -2   31.11    7.55 
  -4   5  -2   32.43    7.69 
  -4   5  -1  587.98   28.23 
  -4   5  -1  559.01   24.09 
  -4   5   0  381.02   20.69 
  -4   5   0  390.34   23.00 
  -4   5   1  340.57   20.02 
  -4   5   1  306.69   16.29 
  -4   5   1  304.41   19.97 
  -4   5   2  133.89   13.49 
  -4   5   2  124.19   13.22 
  -4   5   2  119.34   11.19 
  -4   5   3   30.05    7.46 
  -4   5   3   30.94    6.37 
  -4   5   3   43.55    8.46 
  -4   5   4   13.30    5.97 
  -4   5   4   24.46    7.04 
  -4   5   4   18.18    6.01 
  -4   5   5   -0.53    4.80 
  -4   5   5    0.94    4.97 
  -4   5   5    7.84    6.68 
  -4   5   6  160.12   15.66 
  -4   5   6  159.72   16.54 
  -4   6  -3  134.64   15.30 
  -4   6  -3  167.56   17.16 
  -4   6  -2    6.56    6.05 
  -4   6  -2    4.36    5.57 
  -4   6  -1    0.64    4.62 
  -4   6  -1    6.75    5.16 
  -4   6   0  140.80   13.56 
  -4   6   0  145.02   15.18 
  -4   6   1   36.97    8.20 
  -4   6   1   22.62    6.42 
  -4   6   2    9.48    5.13 
  -4   6   2   17.25    6.36 
  -4   6   2    3.31    4.05 
  -4   6   3   48.15    8.72 
  -4   6   3   24.37    5.78 
  -4   6   3   48.19    9.83 
  -4   6   4  156.06   15.60 
  -4   6   4  159.01   15.75 
  -4   6   4  157.94   14.70 
  -4   6   5   17.24    6.12 
  -4   6   5    9.90    5.51 
  -3 -10  -6   65.00   10.44 
  -3 -10  -5   87.25   12.07 
  -3 -10  -4   55.88    9.91 
  -3 -10  -3  122.42   14.25 
  -3 -10  -2   11.81    5.72 
  -3 -10  -1    7.10    6.37 
  -3 -10   0   -3.53    6.26 
  -3  -9  -8  170.21   15.95 
  -3  -9  -7  251.77   18.44 
  -3  -9  -6  106.95   12.37 
  -3  -9  -5   20.22    6.41 
  -3  -9  -4   54.54    9.64 
  -3  -9  -3   55.54    9.44 
  -3  -9  -2  207.50   16.93 
  -3  -9  -1  151.11   14.48 
  -3  -9   0  105.66   13.14 
  -3  -9   1   69.67   10.73 
  -3  -9   2  146.37   15.18 
  -3  -9   3  172.58   17.10 
  -3  -8  -9   80.42   10.56 
  -3  -8  -8  212.51   15.29 
  -3  -8  -8  207.94   17.02 
  -3  -8  -7  189.03   15.80 
  -3  -8  -7  148.04   11.72 
  -3  -8  -6  221.39   16.92 
  -3  -8  -5   55.24    9.00 
  -3  -8  -4   62.75    9.18 
  -3  -8  -3  213.96   15.58 
  -3  -8  -2  653.33   27.52 
  -3  -8  -1  483.65   23.55 
  -3  -8   0   35.52    7.01 
  -3  -8   1  360.17   21.47 
  -3  -8   2  266.97   19.41 
  -3  -8   3   32.28    9.41 
  -3  -8   4   28.34    8.21 
  -3  -7 -10   76.84   11.06 
  -3  -7  -9   -0.71    4.16 
  -3  -7  -8   62.01    8.77 
  -3  -7  -7   50.73    9.17 
  -3  -7  -7   35.56    6.07 
  -3  -7  -6  151.29   13.17 
  -3  -7  -6  151.98   10.86 
  -3  -7  -5  177.96   13.99 
  -3  -7  -5  158.25    9.86 
  -3  -7  -4    4.91    3.99 
  -3  -7  -3  130.46   11.91 
  -3  -7  -2  821.20   28.97 
  -3  -7  -1  688.43   26.54 
  -3  -7   0  141.70   12.82 
  -3  -7   1  180.39   14.25 
  -3  -7   2  671.17   28.08 
  -3  -7   3  119.49   13.03 
  -3  -7   4   67.89   10.97 
  -3  -7   5   34.93    8.66 
  -3  -6 -10   45.10    9.13 
  -3  -6  -9    4.51    4.36 
  -3  -6  -8   14.92    4.66 
  -3  -6  -7    6.78    4.72 
  -3  -6  -7   22.37    5.99 
  -3  -6  -6   47.35    6.38 
  -3  -6  -6   40.40    7.26 
  -3  -6  -5  158.79   12.55 
  -3  -6  -5  163.67   10.18 
  -3  -6  -4  137.99    8.29 
  -3  -6  -4  145.80   11.91 
  -3  -6  -3  230.93   14.48 
  -3  -6  -2  323.21   17.39 
  -3  -6  -1  109.60   10.37 
  -3  -6   0  252.61   15.65 
  -3  -6   1    5.42    3.37 
  -3  -6   2   22.27    5.96 
  -3  -6   3  233.53   16.40 
  -3  -6   4  574.58   26.18 
  -3  -6   5  304.84   20.06 
  -3  -6   5  245.87   18.60 
  -3  -6   6   41.75    8.77 
  -3  -6   6   69.84   11.11 
  -3  -5 -10  283.23   19.94 
  -3  -5  -9   60.38    8.91 
  -3  -5  -8    3.47    4.10 
  -3  -5  -7  222.46   14.10 
  -3  -5  -6  388.84   19.40 
  -3  -5  -6  404.82   17.48 
  -3  -5  -5    9.22    3.97 
  -3  -5  -5   -0.38    2.03 
  -3  -5  -4  118.72   10.50 
  -3  -5  -4  108.99    7.52 
  -3  -5  -3  427.56   12.38 
  -3  -5  -3  447.98   19.05 
  -3  -5  -2  144.16   10.88 
  -3  -5  -1   77.29    8.01 
  -3  -5   0  420.22   18.34 
  -3  -5   1  251.38   14.65 
  -3  -5   2  135.13   11.41 
  -3  -5   2  117.72   10.99 
  -3  -5   3    8.32    4.22 
  -3  -5   3    5.66    3.55 
  -3  -5   4  117.03   10.90 
  -3  -5   4  122.69   11.85 
  -3  -5   5  240.62   17.44 
  -3  -5   5  320.95   19.22 
  -3  -5   6  137.33   13.84 
  -3  -5   6  115.27   12.79 
  -3  -5   7   37.21    8.18 
  -3  -5   7   27.87    7.86 
  -3  -4 -10  203.96   17.24 
  -3  -4  -9   45.73    8.23 
  -3  -4  -8   44.28    6.82 
  -3  -4  -7  253.71   15.14 
  -3  -4  -6 1335.85   32.04 
  -3  -4  -5 1263.26   28.31 
  -3  -4  -5 1255.14   32.78 
  -3  -4  -4  602.34   17.66 
  -3  -4  -4  578.32   21.56 
  -3  -4  -3  207.93   12.61 
  -3  -4  -3  206.37    9.38 
  -3  -4  -2   14.05    2.38 
  -3  -4  -2   12.95    3.61 
  -3  -4  -1   30.34    5.08 
  -3  -4   0   25.75    4.74 
  -3  -4   1  266.40   14.01 
  -3  -4   1  244.34   14.34 
  -3  -4   2  400.37   17.61 
  -3  -4   2  399.00   18.79 
  -3  -4   3   92.36    9.09 
  -3  -4   3   85.94    9.81 
  -3  -4   4  229.57   14.46 
  -3  -4   4  225.38   15.65 
  -3  -4   5  185.94   13.83 
  -3  -4   5  181.77   14.60 
  -3  -4   6  102.93   11.20 
  -3  -4   6   72.73   10.28 
  -3  -4   7    8.14    4.68 
  -3  -4   7   16.91    6.30 
  -3  -4   8    5.88    6.15 
  -3  -4   8    3.92    5.69 
  -3  -3 -11   92.93   12.76 
  -3  -3 -10   79.36   11.26 
  -3  -3  -9  172.13   14.81 
  -3  -3  -8  459.58   22.05 
  -3  -3  -7  218.22   14.06 
  -3  -3  -6    3.92    2.60 
  -3  -3  -5 1393.57   30.35 
  -3  -3  -5 1401.94   33.66 
  -3  -3  -4 2160.85   34.47 
  -3  -3  -4 2175.68   40.43 
  -3  -3  -3  437.07   14.25 
  -3  -3  -3  440.91   17.38 
  -3  -3  -2   96.89    6.11 
  -3  -3  -2   92.70    7.88 
  -3  -3  -1  751.06   15.23 
  -3  -3  -1  757.42   21.69 
  -3  -3   0  955.21   24.27 
  -3  -3   0  923.18   25.48 
  -3  -3   1  174.34   11.47 
  -3  -3   1  170.41   10.53 
  -3  -3   2  469.31   17.46 
  -3  -3   2  463.16   19.30 
  -3  -3   3  234.38   14.76 
  -3  -3   3  242.51   13.11 
  -3  -3   4  359.99   16.73 
  -3  -3   4  354.82   19.16 
  -3  -3   5  506.23   20.85 
  -3  -3   5  535.50   24.14 
  -3  -3   6   92.32   10.03 
  -3  -3   6   82.54   10.82 
  -3  -3   7   48.06    7.99 
  -3  -3   7   53.80    9.48 
  -3  -3   8    0.88    5.36 
  -3  -3   8    0.03    4.97 
  -3  -2 -10   -2.48    4.85 
  -3  -2  -9  161.98   14.62 
  -3  -2  -8  650.78   26.58 
  -3  -2  -7  526.91   22.35 
  -3  -2  -6   36.38    4.34 
  -3  -2  -6   36.05    5.87 
  -3  -2  -5  123.51    9.56 
  -3  -2  -5  110.30    6.32 
  -3  -2  -4  875.95   23.10 
  -3  -2  -4  843.82   16.81 
  -3  -2  -3   51.49    6.24 
  -3  -2  -3   47.72    4.24 
  -3  -2  -3   57.84    5.56 
  -3  -2  -2   93.47    5.94 
  -3  -2  -2   96.85    6.74 
  -3  -2  -2   89.96    7.65 
  -3  -2  -1  134.03    7.39 
  -3  -2  -1  152.56    9.51 
  -3  -2  -1  141.74    8.98 
  -3  -2   0 1906.17   33.45 
  -3  -2   0 1853.07   33.86 
  -3  -2   0 1895.64   31.78 
  -3  -2   1 2685.31   41.86 
  -3  -2   1 2770.63   38.58 
  -3  -2   2  966.88   23.19 
  -3  -2   2  962.92   26.82 
  -3  -2   2  930.83   26.11 
  -3  -2   3  608.53   18.89 
  -3  -2   3  560.96   21.45 
  -3  -2   3  582.08   22.00 
  -3  -2   4  204.17   14.07 
  -3  -2   4  194.68   13.74 
  -3  -2   4  197.72   11.39 
  -3  -2   5  220.97   13.14 
  -3  -2   5  232.71   15.52 
  -3  -2   5  233.09   15.70 
  -3  -2   6   99.77   10.86 
  -3  -2   6  116.52   11.96 
  -3  -2   6  105.36    9.57 
  -3  -2   7  185.02   15.50 
  -3  -2   7  186.14   15.37 
  -3  -2   7  192.26   13.80 
  -3  -2   8   97.39   12.14 
  -3  -2   8   86.85   11.91 
  -3  -2   8  102.30   10.94 
  -3  -2   9    1.67    5.34 
  -3  -2   9   -2.54    5.94 
  -3  -1 -10   23.69    7.36 
  -3  -1  -9  145.29   13.92 
  -3  -1  -8  239.04   16.45 
  -3  -1  -8  238.52   13.35 
  -3  -1  -7    6.33    3.25 
  -3  -1  -7    5.39    3.17 
  -3  -1  -6   75.03    6.62 
  -3  -1  -6   79.00    8.57 
  -3  -1  -5   22.03    3.72 
  -3  -1  -5   26.42    5.17 
  -3  -1  -4   56.81    6.27 
  -3  -1  -4   58.64    5.26 
  -3  -1  -3  210.76    9.77 
  -3  -1  -3  220.76   11.49 
  -3  -1  -2  146.16    8.15 
  -3  -1  -2  148.65    9.31 
  -3  -1  -2  153.77    8.96 
  -3  -1  -2  164.04    8.31 
  -3  -1  -1  246.86   11.02 
  -3  -1  -1  229.45   10.42 
  -3  -1  -1  230.41   10.60 
  -3  -1  -1  237.47   11.14 
  -3  -1  -1  239.26   11.07 
  -3  -1   0  379.35   13.41 
  -3  -1   0  351.38   12.93 
  -3  -1   0  354.15   14.15 
  -3  -1   0  376.05   14.76 
  -3  -1   0  349.07   13.42 
  -3  -1   1 1636.74   27.35 
  -3  -1   1 1648.75   31.90 
  -3  -1   1 1611.00   32.06 
  -3  -1   2  584.89   20.27 
  -3  -1   2  606.70   20.49 
  -3  -1   2  604.75   16.62 
  -3  -1   3  617.75   21.83 
  -3  -1   3  582.32   21.89 
  -3  -1   3  615.83   17.34 
  -3  -1   4  244.51   11.53 
  -3  -1   4  232.94   14.81 
  -3  -1   4  238.35   14.46 
  -3  -1   5    6.11    3.07 
  -3  -1   5    4.59    3.89 
  -3  -1   5    4.19    2.66 
  -3  -1   6  161.47   13.38 
  -3  -1   6  183.32   11.58 
  -3  -1   6  175.80   14.10 
  -3  -1   7  546.59   20.89 
  -3  -1   7  568.48   26.13 
  -3  -1   7  568.93   26.06 
  -3  -1   8  236.47   15.07 
  -3  -1   8  251.96   18.78 
  -3  -1   8  247.66   18.31 
  -3  -1   9    7.91    5.46 
  -3  -1   9   22.66    7.94 
  -3   0 -10   76.77   11.40 
  -3   0  -9  259.56   16.32 
  -3   0  -9  277.52   19.49 
  -3   0  -8  256.18   17.63 
  -3   0  -8  228.13   14.23 
  -3   0  -7   35.80    6.80 
  -3   0  -7   38.21    5.98 
  -3   0  -6   -1.76    2.53 
  -3   0  -6    2.01    2.88 
  -3   0  -5   23.43    5.18 
  -3   0  -5   18.00    3.82 
  -3   0  -4    2.78    2.27 
  -3   0  -4    2.28    2.10 
  -3   0  -3  554.40   17.33 
  -3   0  -3  555.44   19.23 
  -3   0  -3  584.69   13.53 
  -3   0  -2  107.92    6.62 
  -3   0  -2  107.55    6.49 
  -3   0  -2  112.28    7.88 
  -3   0  -2  108.94    8.09 
  -3   0  -1   88.97    7.19 
  -3   0  -1   92.69    6.96 
  -3   0  -1  103.60    7.01 
  -3   0  -1   87.47    7.16 
  -3   0  -1   85.88    6.92 
  -3   0   0  284.90   11.00 
  -3   0   0  287.42   12.87 
  -3   0   0  284.86   12.67 
  -3   0   0  304.61   13.18 
  -3   0   0  286.82   12.51 
  -3   0   1   78.22    7.16 
  -3   0   1   73.83    6.80 
  -3   0   1   65.56    5.09 
  -3   0   1   71.84    6.77 
  -3   0   2  357.20   15.66 
  -3   0   2  363.45   11.57 
  -3   0   2  332.85   14.89 
  -3   0   3  234.77   13.55 
  -3   0   3  236.20   13.64 
  -3   0   3  260.72   10.04 
  -3   0   4  117.16   10.34 
  -3   0   4  119.71   10.30 
  -3   0   4  125.57    7.32 
  -3   0   5    4.84    3.50 
  -3   0   5    8.83    3.29 
  -3   0   5    3.61    3.22 
  -3   0   6   33.58    6.67 
  -3   0   6   45.72    5.68 
  -3   0   6   51.78    8.13 
  -3   0   7  295.89   18.69 
  -3   0   7  262.22   13.27 
  -3   0   7  299.29   19.05 
  -3   0   8  138.11   14.04 
  -3   0   8  135.99   13.66 
  -3   0   9  136.09   14.97 
  -3   0   9  172.67   16.19 
  -3   1 -10   89.20   12.55 
  -3   1  -9  209.05   17.40 
  -3   1  -9  191.93   15.09 
  -3   1  -8   82.50    9.54 
  -3   1  -8   75.95   10.09 
  -3   1  -7  222.31   14.58 
  -3   1  -7  217.19   15.80 
  -3   1  -6   32.36    5.22 
  -3   1  -6   37.37    6.35 
  -3   1  -5   61.42    7.79 
  -3   1  -5   45.68    6.10 
  -3   1  -4  200.32   12.99 
  -3   1  -4  214.24   12.43 
  -3   1  -3  485.20   19.17 
  -3   1  -3  506.53   13.08 
  -3   1  -3  475.41   17.69 
  -3   1  -2 1812.44   33.37 
  -3   1  -2 1877.30   28.31 
  -3   1  -2 1896.66   25.01 
  -3   1  -2 1805.66   35.04 
  -3   1  -1  838.59   22.90 
  -3   1  -1  875.95   20.85 
  -3   1  -1  856.88   23.87 
  -3   1  -1  875.70   19.13 
  -3   1   0   33.35    4.33 
  -3   1   0   35.25    5.09 
  -3   1   0   30.47    4.86 
  -3   1   0   29.65    4.63 
  -3   1   1  198.84   11.44 
  -3   1   1  176.89    7.73 
  -3   1   1  191.99   11.39 
  -3   1   1  176.20   10.18 
  -3   1   2  161.02    6.97 
  -3   1   2  147.51   10.10 
  -3   1   2  157.52   10.86 
  -3   1   2  161.69   10.74 
  -3   1   3   87.85    8.54 
  -3   1   3   76.05    7.76 
  -3   1   3   83.78    8.29 
  -3   1   4  106.70    9.68 
  -3   1   4  108.26   10.30 
  -3   1   5  112.64   11.11 
  -3   1   5  127.92   11.48 
  -3   1   6  431.25   21.96 
  -3   1   6  441.33   22.03 
  -3   1   7  191.37   15.17 
  -3   1   7  187.56   15.70 
  -3   1   8   40.60    8.39 
  -3   1   8   31.31    7.42 
  -3   1   9  118.92   13.96 
  -3   1   9  100.72   12.58 
  -3   2  -9   36.23    7.87 
  -3   2  -9   80.31   11.85 
  -3   2  -8  188.95   16.67 
  -3   2  -8  177.48   15.00 
  -3   2  -7  214.09   15.45 
  -3   2  -7  237.01   17.48 
  -3   2  -6  389.50   20.80 
  -3   2  -6  382.17   19.35 
  -3   2  -5  299.60   16.45 
  -3   2  -5  323.12   17.98 
  -3   2  -4  463.59   19.63 
  -3   2  -4  437.22   20.02 
  -3   2  -3   86.72    8.47 
  -3   2  -3   78.28    8.20 
  -3   2  -3   83.36    5.87 
  -3   2  -2  854.05   20.19 
  -3   2  -2  818.84   24.49 
  -3   2  -2  892.21   16.07 
  -3   2  -2  835.09   25.57 
  -3   2  -1 1992.91   33.34 
  -3   2  -1 2050.67   40.08 
  -3   2  -1 1994.40   37.90 
  -3   2  -1 2085.98   28.17 
  -3   2   0  117.93    8.84 
  -3   2   0  129.01    8.06 
  -3   2   0  120.33    9.35 
  -3   2   0  134.12   10.23 
  -3   2   1   19.84    4.52 
  -3   2   1   19.17    4.60 
  -3   2   1   15.92    3.46 
  -3   2   2  456.64   18.71 
  -3   2   2  497.59   18.31 
  -3   2   2  478.88   19.31 
  -3   2   3  824.03   25.93 
  -3   2   3  870.63   27.12 
  -3   2   3  844.43   26.01 
  -3   2   4    8.55    4.17 
  -3   2   4    0.30    2.86 
  -3   2   5   -1.33    4.02 
  -3   2   5    4.16    3.77 
  -3   2   6  167.70   14.14 
  -3   2   6  160.27   13.42 
  -3   2   7  116.43   12.40 
  -3   2   7  121.56   12.40 
  -3   2   8  177.58   16.03 
  -3   2   8  152.84   14.95 
  -3   2   9   61.34   11.19 
  -3   2   9   63.42   10.50 
  -3   3  -8    8.86    4.35 
  -3   3  -8    9.92    4.99 
  -3   3  -7   82.59   10.98 
  -3   3  -7   73.52   10.42 
  -3   3  -6  377.65   21.19 
  -3   3  -6  338.54   19.66 
  -3   3  -5  545.70   23.83 
  -3   3  -5  575.21   25.15 
  -3   3  -4  476.57   22.01 
  -3   3  -4  488.17   21.69 
  -3   3  -3  710.14   25.14 
  -3   3  -3  695.47   18.77 
  -3   3  -3  732.15   26.14 
  -3   3  -2  424.35   15.62 
  -3   3  -2  399.05   19.28 
  -3   3  -2  404.61   18.79 
  -3   3  -1  308.78   14.11 
  -3   3  -1  321.60   16.35 
  -3   3  -1  307.68   11.05 
  -3   3  -1  356.56   18.48 
  -3   3   0   51.01    6.47 
  -3   3   0   51.29    6.90 
  -3   3   0   45.36    6.19 
  -3   3   0   37.19    4.53 
  -3   3   1  101.83    9.09 
  -3   3   1  103.27    8.19 
  -3   3   1   97.70    9.02 
  -3   3   2  145.54   10.59 
  -3   3   2  143.53   11.29 
  -3   3   2  148.36   11.47 
  -3   3   3  471.69   20.56 
  -3   3   3  481.78   19.49 
  -3   3   3  479.34   20.78 
  -3   3   4 1917.78   42.37 
  -3   3   4 1920.89   43.78 
  -3   3   4 1871.43   41.28 
  -3   3   5  670.99   26.89 
  -3   3   5  668.04   26.27 
  -3   3   6   61.07    8.77 
  -3   3   6   73.34   10.01 
  -3   3   7   39.84    7.76 
  -3   3   7   54.39    9.33 
  -3   3   8   70.20   10.72 
  -3   3   8   63.45    9.64 
  -3   3   9   13.25    6.48 
  -3   3   9   11.74    6.34 
  -3   4  -7   57.91   10.07 
  -3   4  -7   58.62   10.00 
  -3   4  -6  247.95   18.15 
  -3   4  -6  215.72   17.06 
  -3   4  -5   98.99   11.43 
  -3   4  -5  105.30   11.54 
  -3   4  -4   26.08    5.94 
  -3   4  -4   31.47    6.45 
  -3   4  -3  137.54    9.46 
  -3   4  -3  145.80   12.52 
  -3   4  -3  131.28   11.73 
  -3   4  -2  667.60   25.62 
  -3   4  -2  718.06   27.35 
  -3   4  -2  658.16   21.19 
  -3   4  -1   98.44    8.94 
  -3   4  -1  119.79   11.19 
  -3   4  -1   95.70    6.52 
  -3   4  -1  100.32    9.94 
  -3   4   0  199.33   12.80 
  -3   4   0  215.82   10.90 
  -3   4   0  218.52   14.47 
  -3   4   1  430.45   19.34 
  -3   4   1  420.57   16.50 
  -3   4   1  392.83   19.32 
  -3   4   2  220.32   14.39 
  -3   4   2  215.12   14.36 
  -3   4   2  210.34   12.72 
  -3   4   3   39.60    7.65 
  -3   4   3   41.80    7.12 
  -3   4   3   37.21    7.28 
  -3   4   4  355.40   19.04 
  -3   4   4  387.81   20.47 
  -3   4   4  373.26   19.10 
  -3   4   5  920.70   32.55 
  -3   4   5  900.09   31.08 
  -3   4   5  918.55   31.32 
  -3   4   6  206.04   16.08 
  -3   4   6  213.80   15.93 
  -3   4   7  105.03   11.89 
  -3   4   7  109.48   12.76 
  -3   4   8   76.75   10.95 
  -3   4   8   57.71    9.62 
  -3   5  -6  328.98   22.22 
  -3   5  -6  331.21   21.83 
  -3   5  -5  239.46   18.06 
  -3   5  -5  236.78   18.05 
  -3   5  -4   12.18    5.43 
  -3   5  -4    8.32    4.15 
  -3   5  -3   66.90    9.22 
  -3   5  -3   57.14    8.47 
  -3   5  -3   54.71    7.07 
  -3   5  -2   -0.65    3.29 
  -3   5  -2    4.57    4.09 
  -3   5  -2   -0.62    2.95 
  -3   5  -1   16.66    5.43 
  -3   5  -1   13.22    4.65 
  -3   5  -1    8.13    3.91 
  -3   5   0  103.45    9.89 
  -3   5   0  102.86    8.03 
  -3   5   0  102.15   10.50 
  -3   5   1  227.50   15.16 
  -3   5   1  214.73   15.21 
  -3   5   1  229.16   12.78 
  -3   5   2  224.89   15.55 
  -3   5   2  212.95   13.18 
  -3   5   2  231.07   15.50 
  -3   5   3  409.34   21.19 
  -3   5   3  368.01   18.56 
  -3   5   3  392.00   20.58 
  -3   5   4   73.94    9.89 
  -3   5   4   54.21    7.80 
  -3   5   4   68.54    9.22 
  -3   5   5  129.20   12.83 
  -3   5   5  113.50   11.79 
  -3   5   5  124.95   12.27 
  -3   5   6  122.18   13.17 
  -3   5   6  122.16   12.94 
  -3   5   6  104.56   11.72 
  -3   5   7    1.14    5.63 
  -3   5   7    6.46    4.44 
  -3   5   8   10.20    6.24 
  -3   5   8    1.15    5.69 
  -3   6  -5   18.64    6.92 
  -3   6  -5   14.35    6.56 
  -3   6  -4  269.37   19.97 
  -3   6  -4  247.70   19.39 
  -3   6  -3  105.87   12.50 
  -3   6  -3   83.54    9.58 
  -3   6  -2   17.99    5.25 
  -3   6  -2   19.65    5.82 
  -3   6  -2   29.49    7.01 
  -3   6  -1   65.27    8.43 
  -3   6  -1   73.45    9.98 
  -3   6   0  266.70   18.00 
  -3   6   0  226.28   15.53 
  -3   6   1  134.90   12.51 
  -3   6   1  122.39    9.94 
  -3   6   1  129.08   12.58 
  -3   6   2   12.85    4.60 
  -3   6   2   16.27    5.73 
  -3   6   2   18.02    5.72 
  -3   6   3   30.17    6.88 
  -3   6   3   34.49    7.36 
  -3   6   3   22.40    5.29 
  -3   6   4   60.59    9.51 
  -3   6   4   59.52    8.97 
  -3   6   4   74.54    9.67 
  -3   6   5   33.60    8.09 
  -3   6   5   31.60    7.29 
  -3   6   5   37.86    7.97 
  -3   6   6   76.32   11.59 
  -3   6   6   72.81   10.84 
  -3   6   6   59.99    9.30 
  -3   6   7   -5.80    4.89 
  -3   6   7   10.22    5.61 
  -3   7  -3  254.16   20.07 
  -3   7  -3  222.41   19.29 
  -3   7  -2   31.41    8.03 
  -3   7  -2   40.42    8.33 
  -3   7  -2   30.25    7.75 
  -3   7  -1   46.90    9.24 
  -3   7  -1   41.43    8.16 
  -3   7   0  280.04   19.71 
  -3   7   0  253.93   17.63 
  -3   7   1  238.35   18.29 
  -3   7   1  237.18   17.25 
  -3   7   2  137.34   13.94 
  -3   7   2  158.65   14.84 
  -3   7   2  133.96   11.49 
  -3   7   3   -3.71    5.18 
  -3   7   3    0.37    3.83 
  -3   7   3    1.72    3.97 
  -3   7   4   11.92    5.53 
  -3   7   4    8.04    5.95 
  -3   7   4    4.47    4.45 
  -3   7   5   85.10   11.27 
  -3   7   5   64.56   10.16 
  -3   7   5   75.27   11.09 
  -3   7   6   27.47    7.96 
  -3   7   6   21.05    7.61 
  -3   7   6   16.23    6.21 
  -3   8  -1   89.39   12.22 
  -3   8   0  204.45   18.18 
  -3   8   0  185.16   16.45 
  -3   8   1  244.98   19.50 
  -3   8   1  257.33   19.24 
  -3   8   2   63.06   10.14 
  -3   8   2   59.33    9.77 
  -3   8   3    7.88    7.00 
  -3   8   3    5.64    5.05 
  -3   8   3    4.52    4.91 
  -3   8   4   21.70    7.84 
  -3   8   4    4.17    5.38 
  -2 -10  -7   53.92    9.43 
  -2 -10  -6   14.40    5.86 
  -2 -10  -5  110.83   12.45 
  -2 -10  -4  371.02   21.30 
  -2 -10  -3  269.66   18.78 
  -2 -10  -2   48.71    9.06 
  -2 -10  -1   96.44   12.16 
  -2 -10   0   16.68    7.17 
  -2 -10   1   25.98    8.05 
  -2  -9  -8  249.82   17.43 
  -2  -9  -8  201.57   16.32 
  -2  -9  -7  185.37   15.04 
  -2  -9  -7  157.69   13.07 
  -2  -9  -6   28.39    6.85 
  -2  -9  -6   25.96    5.49 
  -2  -9  -5  303.63   18.08 
  -2  -9  -4  454.37   22.21 
  -2  -9  -3  369.94   20.40 
  -2  -9  -2   98.83   11.24 
  -2  -9  -1   22.00    6.21 
  -2  -9   0  177.42   15.32 
  -2  -9   1   62.87    9.69 
  -2  -9   2   86.48   11.75 
  -2  -9   3  160.78   15.95 
  -2  -8  -9   88.13   11.08 
  -2  -8  -8  163.61   13.44 
  -2  -8  -7  192.63   14.37 
  -2  -8  -7  212.35   14.63 
  -2  -8  -6  117.51    9.99 
  -2  -8  -6  122.55   11.47 
  -2  -8  -5   33.77    6.39 
  -2  -8  -5   45.23    6.12 
  -2  -8  -4  101.16   10.04 
  -2  -8  -3  280.78   17.25 
  -2  -8  -2  264.63   16.54 
  -2  -8  -1    3.73    3.68 
  -2  -8   0  240.34   16.40 
  -2  -8   1  634.50   26.96 
  -2  -8   2  229.02   16.94 
  -2  -8   3  215.23   17.34 
  -2  -8   4  157.79   15.38 
  -2  -8   5  102.64   13.83 
  -2  -7 -10    9.69    4.89 
  -2  -7  -9   79.45   10.06 
  -2  -7  -8  115.98   11.33 
  -2  -7  -7   45.27    6.89 
  -2  -7  -7   48.96    7.33 
  -2  -7  -6  348.84   16.92 
  -2  -7  -6  364.71   18.33 
  -2  -7  -5   95.31    9.54 
  -2  -7  -5   80.04    7.66 
  -2  -7  -4   11.71    3.03 
  -2  -7  -4   17.82    5.02 
  -2  -7  -3   17.17    3.30 
  -2  -7  -3   12.34    4.19 
  -2  -7  -2   47.01    6.96 
  -2  -7  -1  109.00   10.11 
  -2  -7   0    6.89    4.28 
  -2  -7   1   83.71    9.30 
  -2  -7   2  691.80   26.92 
  -2  -7   3  988.98   33.43 
  -2  -7   4  196.37   16.22 
  -2  -7   5    7.07    5.09 
  -2  -7   6  134.11   15.41 
  -2  -6 -10  170.58   15.06 
  -2  -6  -9  178.77   14.68 
  -2  -6  -8  406.25   20.48 
  -2  -6  -7  126.44   10.59 
  -2  -6  -7  113.31   10.67 
  -2  -6  -6    9.15    4.11 
  -2  -6  -6    4.69    2.87 
  -2  -6  -5   18.18    3.76 
  -2  -6  -5   13.05    4.16 
  -2  -6  -4   22.88    3.85 
  -2  -6  -4   25.47    5.17 
  -2  -6  -3   39.06    4.13 
  -2  -6  -3   49.96    6.53 
  -2  -6  -2  127.37    9.92 
  -2  -6  -1 1169.79   29.68 
  -2  -6   0  379.49   17.24 
  -2  -6   1  122.49   10.21 
  -2  -6   2   36.01    5.91 
  -2  -6   3  253.11   16.05 
  -2  -6   4   73.25    9.80 
  -2  -6   5    7.68    5.39 
  -2  -6   6   85.04   11.60 
  -2  -6   7  195.47   16.97 
  -2  -5 -11  204.28   18.06 
  -2  -5 -10  282.48   19.65 
  -2  -5  -9  124.47   12.10 
  -2  -5  -8  235.21   15.38 
  -2  -5  -7 1229.88   32.69 
  -2  -5  -6  437.59   17.70 
  -2  -5  -6  398.38   17.84 
  -2  -5  -5   76.72    7.81 
  -2  -5  -5   98.09    7.63 
  -2  -5  -4   20.08    4.11 
  -2  -5  -4   23.72    3.62 
  -2  -5  -3    1.53    2.78 
  -2  -5  -3    7.83    1.96 
  -2  -5  -2  377.01    9.25 
  -2  -5  -2  390.95   16.14 
  -2  -5  -1  837.04   22.95 
  -2  -5   0 1040.93   26.41 
  -2  -5   1  342.37   15.78 
  -2  -5   2  182.34   11.88 
  -2  -5   3   88.63    9.00 
  -2  -5   3   93.26    9.25 
  -2  -5   4   -0.60    2.66 
  -2  -5   4   -3.06    4.17 
  -2  -5   5   25.39    5.82 
  -2  -5   5   27.78    5.83 
  -2  -5   6   11.29    5.30 
  -2  -5   6    9.68    4.46 
  -2  -5   7   -1.30    4.16 
  -2  -5   7   28.58    8.15 
  -2  -5   8   78.50   10.76 
  -2  -5   8  119.19   14.08 
  -2  -4 -11  322.63   22.28 
  -2  -4 -10  334.30   20.94 
  -2  -4  -9  204.22   15.48 
  -2  -4  -8    0.51    3.19 
  -2  -4  -7   -1.55    3.45 
  -2  -4  -6 1045.22   27.20 
  -2  -4  -5 1129.74   27.82 
  -2  -4  -5 1110.48   25.65 
  -2  -4  -4  668.88   17.55 
  -2  -4  -4  670.94   20.39 
  -2  -4  -3  677.83   15.38 
  -2  -4  -3  671.84   19.95 
  -2  -4  -2 3226.82   27.43 
  -2  -4  -2 3252.28   42.41 
  -2  -4  -1 1638.72   30.07 
  -2  -4   0   46.32    5.53 
  -2  -4   1  394.07   15.33 
  -2  -4   2   92.95    8.28 
  -2  -4   2   93.33    8.41 
  -2  -4   3  106.24    8.98 
  -2  -4   3  104.84    9.28 
  -2  -4   4  265.49   15.00 
  -2  -4   4  239.62   14.01 
  -2  -4   5  415.89   19.54 
  -2  -4   5  380.25   18.43 
  -2  -4   6  172.05   13.48 
  -2  -4   6  172.38   13.44 
  -2  -4   7    9.50    4.78 
  -2  -4   7   11.60    4.99 
  -2  -4   8  102.94   12.15 
  -2  -4   8   72.19    9.99 
  -2  -3 -11   39.29    8.53 
  -2  -3 -10  141.44   14.00 
  -2  -3  -9  228.68   16.37 
  -2  -3  -8  103.63    9.96 
  -2  -3  -7   32.51    5.12 
  -2  -3  -6  272.95   13.92 
  -2  -3  -5 1167.19   26.34 
  -2  -3  -4  251.41   11.01 
  -2  -3  -4  243.14   12.11 
  -2  -3  -3  700.27   16.00 
  -2  -3  -3  696.22   19.09 
  -2  -3  -2 1617.43   28.14 
  -2  -3  -2 1595.70   20.03 
  -2  -3  -1 3156.08   38.37 
  -2  -3  -1 2988.75   21.60 
  -2  -3   0 1425.81   26.14 
  -2  -3   1  839.24   20.29 
  -2  -3   1  786.32   21.33 
  -2  -3   2  164.91   10.40 
  -2  -3   2  172.61    9.89 
  -2  -3   3    9.26    3.01 
  -2  -3   3    6.12    2.16 
  -2  -3   4  798.35   24.81 
  -2  -3   4  777.68   23.40 
  -2  -3   5  870.97   26.11 
  -2  -3   5  878.30   27.12 
  -2  -3   6  595.63   22.96 
  -2  -3   6  565.69   22.94 
  -2  -3   7  171.05   13.22 
  -2  -3   7  164.00   13.21 
  -2  -3   8  135.08   12.91 
  -2  -3   8   79.68   10.46 
  -2  -3   9  204.16   16.56 
  -2  -3   9  190.99   16.65 
  -2  -2 -11   10.00    5.99 
  -2  -2 -10   59.16    9.65 
  -2  -2  -9    0.56    2.79 
  -2  -2  -9   11.25    4.68 
  -2  -2  -8    4.61    2.06 
  -2  -2  -8   17.79    5.01 
  -2  -2  -7   81.45    6.11 
  -2  -2  -7  106.96   10.21 
  -2  -2  -6  193.02    8.29 
  -2  -2  -6  206.23   12.58 
  -2  -2  -5  707.19   20.89 
  -2  -2  -5  683.47   13.40 
  -2  -2  -4  460.86    9.24 
  -2  -2  -4  492.90   15.98 
  -2  -2  -3  912.66   19.02 
  -2  -2  -3  933.53   21.46 
  -2  -2  -2   59.36    4.30 
  -2  -2  -2   58.33    3.18 
  -2  -2  -2   53.10    5.10 
  -2  -2  -1  231.00    7.12 
  -2  -2  -1  224.92    9.58 
  -2  -2   0  990.07   13.47 
  -2  -2   0  982.14   19.56 
  -2  -2   0  934.19   20.57 
  -2  -2   1  440.68   13.42 
  -2  -2   1  413.71   14.39 
  -2  -2   1  437.38   14.82 
  -2  -2   2  412.04   15.10 
  -2  -2   2  398.08   15.37 
  -2  -2   2  427.84   13.67 
  -2  -2   3  148.68    8.88 
  -2  -2   3  126.65    9.24 
  -2  -2   3  137.57    9.57 
  -2  -2   4  410.54   15.54 
  -2  -2   4  401.15   16.69 
  -2  -2   4  413.83   17.27 
  -2  -2   5 1236.89   28.39 
  -2  -2   5 1250.34   31.26 
  -2  -2   5 1257.28   31.15 
  -2  -2   6  952.81   28.93 
  -2  -2   6  991.74   29.46 
  -2  -2   6  935.95   26.53 
  -2  -2   7  316.42   16.41 
  -2  -2   7  323.97   18.05 
  -2  -2   8    3.63    3.40 
  -2  -2   8    4.42    4.07 
  -2  -2   9  208.59   15.72 
  -2  -2   9  184.35   15.54 
  -2  -1 -11   31.22    7.63 
  -2  -1 -10  146.84   14.41 
  -2  -1 -10  117.36   10.83 
  -2  -1  -9  135.75   13.11 
  -2  -1  -9  117.23   10.06 
  -2  -1  -8    1.20    2.60 
  -2  -1  -8    3.74    3.80 
  -2  -1  -7  228.79   11.65 
  -2  -1  -7  265.28   15.39 
  -2  -1  -6  356.94   16.70 
  -2  -1  -6  400.76   13.75 
  -2  -1  -5   99.48    8.53 
  -2  -1  -5   94.68    6.27 
  -2  -1  -4 1181.03   19.46 
  -2  -1  -4 1196.54   25.04 
  -2  -1  -3  104.62    7.00 
  -2  -1  -3  110.61    5.47 
  -2  -1  -2  135.01    6.95 
  -2  -1  -2  130.60    7.45 
  -2  -1  -2  134.19    5.93 
  -2  -1  -1  339.39   10.18 
  -2  -1  -1  334.12    9.74 
  -2  -1  -1  307.18   10.67 
  -2  -1  -1  321.85    9.49 
  -2  -1  -1  358.26   10.76 
  -2  -1   0  266.21    9.81 
  -2  -1   0  313.20    9.46 
  -2  -1   0  263.53    9.35 
  -2  -1   0  284.61    9.58 
  -2  -1   0  264.50   10.27 
  -2  -1   1  524.25   15.33 
  -2  -1   1  523.31   12.92 
  -2  -1   1  526.65   15.44 
  -2  -1   2  366.19   14.00 
  -2  -1   2  371.93   13.91 
  -2  -1   2  377.75   11.41 
  -2  -1   3  785.11   17.66 
  -2  -1   3  717.43   21.07 
  -2  -1   3  750.81   21.04 
  -2  -1   4  117.89    7.58 
  -2  -1   4   96.30    8.33 
  -2  -1   4  113.27    8.94 
  -2  -1   5  282.51   14.67 
  -2  -1   5  270.53   12.21 
  -2  -1   5  287.02   14.93 
  -2  -1   6  374.37   17.41 
  -2  -1   6  354.51   14.90 
  -2  -1   6  366.27   17.94 
  -2  -1   7  104.75   10.15 
  -2  -1   7  104.86    9.11 
  -2  -1   7  123.92   11.41 
  -2  -1   8   36.93    7.02 
  -2  -1   8   42.95    6.57 
  -2  -1   8   33.92    6.76 
  -2  -1   9   16.12    5.56 
  -2  -1   9   21.18    6.45 
  -2  -1   9   13.13    4.76 
  -2  -1  10  172.75   14.14 
  -2  -1  10  167.80   15.72 
  -2   0 -11   74.30   11.26 
  -2   0 -10  177.65   15.89 
  -2   0 -10  137.28   12.44 
  -2   0  -9  122.49   12.61 
  -2   0  -9  104.13   10.30 
  -2   0  -8  532.39   23.92 
  -2   0  -8  483.93   19.95 
  -2   0  -7  458.15   20.62 
  -2   0  -7  449.13   17.80 
  -2   0  -6  297.33   15.38 
  -2   0  -6  307.11   13.66 
  -2   0  -5  130.86    9.44 
  -2   0  -5  130.32    8.47 
  -2   0  -4 1308.17   27.53 
  -2   0  -4 1303.48   23.94 
  -2   0  -3 1576.11   14.07 
  -2   0  -3 1535.35   27.68 
  -2   0  -3 1557.07   24.33 
  -2   0  -2  228.02    6.95 
  -2   0  -2  200.67    8.40 
  -2   0  -2  221.66    9.73 
  -2   0  -1   75.75    4.90 
  -2   0  -1   74.60    5.23 
  -2   0  -1   81.04    5.46 
  -2   0  -1   77.96    5.46 
  -2   0  -1   87.90    5.00 
  -2   0   0   35.90    3.34 
  -2   0   0   37.05    4.00 
  -2   0   0   36.24    3.90 
  -2   0   0   41.09    4.04 
  -2   0   0   37.33    3.68 
  -2   0   1 1282.50   17.50 
  -2   0   1 1217.29   22.17 
  -2   0   1 1197.59   22.17 
  -2   0   1 1240.42   22.95 
  -2   0   2  304.03   12.37 
  -2   0   2  307.66    8.76 
  -2   0   2  292.39   12.09 
  -2   0   3   75.60    7.06 
  -2   0   3   83.50    5.09 
  -2   0   3   90.49    7.51 
  -2   0   4  595.15   14.69 
  -2   0   4  577.25   19.64 
  -2   0   4  556.53   19.60 
  -2   0   5  348.46   16.15 
  -2   0   5  351.50   16.39 
  -2   0   5  350.93   12.41 
  -2   0   6   40.03    6.22 
  -2   0   6   29.44    4.24 
  -2   0   6   36.37    6.17 
  -2   0   7   12.63    4.28 
  -2   0   7    6.38    3.77 
  -2   0   7    1.87    3.32 
  -2   0   8   71.38    7.39 
  -2   0   8   93.96   10.17 
  -2   0   8   88.23   10.19 
  -2   0   9    4.38    4.87 
  -2   0   9    0.63    3.97 
  -2   0   9    5.37    4.60 
  -2   0  10   39.59    8.77 
  -2   0  10   16.42    7.00 
  -2   1 -10  151.23   14.47 
  -2   1 -10  138.94   13.51 
  -2   1  -9  199.89   15.18 
  -2   1  -9  210.97   16.66 
  -2   1  -8  937.25   32.14 
  -2   1  -8  910.62   29.47 
  -2   1  -7  812.74   27.86 
  -2   1  -7  806.77   25.97 
  -2   1  -6  164.88   11.28 
  -2   1  -6  144.93   11.33 
  -2   1  -5  213.27   12.62 
  -2   1  -5  217.60   11.94 
  -2   1  -4   34.89    4.65 
  -2   1  -4   38.26    5.12 
  -2   1  -3 1018.47   13.38 
  -2   1  -3 1078.21   25.12 
  -2   1  -3 1040.11   22.82 
  -2   1  -2 1661.06   28.70 
  -2   1  -2 1697.50   27.55 
  -2   1  -2 1758.29   16.45 
  -2   1  -2 1732.28   20.76 
  -2   1  -1  526.91   12.98 
  -2   1  -1  512.33   14.91 
  -2   1  -1  497.78   15.00 
  -2   1  -1  527.94   11.08 
  -2   1   0  769.39   16.97 
  -2   1   0  836.84   19.75 
  -2   1   0  762.00   18.36 
  -2   1   0  792.24   15.72 
  -2   1   1 4253.18   43.50 
  -2   1   1 4243.01   27.70 
  -2   1   1 4230.86   43.85 
  -2   1   1 4283.52   41.04 
  -2   1   2 3067.72   39.27 
  -2   1   2 3060.53   39.22 
  -2   1   2 2978.04   38.13 
  -2   1   2 3005.26   21.47 
  -2   1   3   50.18    5.56 
  -2   1   3   53.61    3.13 
  -2   1   3   44.45    5.16 
  -2   1   4    4.72    2.39 
  -2   1   4    5.09    1.71 
  -2   1   4    4.17    2.69 
  -2   1   5  108.13    9.24 
  -2   1   5  104.11    6.06 
  -2   1   5  118.06    9.74 
  -2   1   6   12.45    4.46 
  -2   1   6    0.08    2.76 
  -2   1   6    6.62    2.63 
  -2   1   7   97.64    9.98 
  -2   1   7   77.00    6.54 
  -2   1   7   97.66    9.91 
  -2   1   8  225.32   15.70 
  -2   1   8  205.46   11.61 
  -2   1   8  213.35   15.70 
  -2   1   9  145.90   13.56 
  -2   1   9  168.70   14.79 
  -2   1  10    2.39    5.05 
  -2   1  10    6.05    6.60 
  -2   2 -10    4.03    5.57 
  -2   2 -10   10.98    6.07 
  -2   2  -9  137.62   13.67 
  -2   2  -9  132.63   13.50 
  -2   2  -8  294.86   18.49 
  -2   2  -8  305.28   18.46 
  -2   2  -7  364.64   19.45 
  -2   2  -7  347.59   18.67 
  -2   2  -6  144.43   11.68 
  -2   2  -6  127.81   10.83 
  -2   2  -5  371.07   17.12 
  -2   2  -5  367.76   17.43 
  -2   2  -4  356.48   15.88 
  -2   2  -4  394.85   16.98 
  -2   2  -3  154.90    9.80 
  -2   2  -3  166.63   10.30 
  -2   2  -3  161.94    6.80 
  -2   2  -2 1159.29   19.59 
  -2   2  -2 1141.26   25.63 
  -2   2  -2 1150.32   25.30 
  -2   2  -1  537.26   16.82 
  -2   2  -1  542.44   14.60 
  -2   2  -1  519.53   17.02 
  -2   2  -1  534.72   11.19 
  -2   2   0 1126.99   22.27 
  -2   2   0 1110.80   24.12 
  -2   2   0 1164.06   25.33 
  -2   2   0 1143.09   19.22 
  -2   2   1 1193.89   24.42 
  -2   2   1 1181.59   22.26 
  -2   2   1 1178.27   25.06 
  -2   2   2 1862.96   32.53 
  -2   2   2 1889.07   32.53 
  -2   2   2 1939.05   31.11 
  -2   2   3 2967.31   43.17 
  -2   2   3 2898.96   41.53 
  -2   2   3 3003.60   42.19 
  -2   2   4  399.53   17.13 
  -2   2   4  405.54   16.81 
  -2   2   5    3.41    2.51 
  -2   2   5    5.93    3.51 
  -2   2   6    2.38    3.56 
  -2   2   6    1.55    2.93 
  -2   2   7  409.77   20.55 
  -2   2   7  404.74   19.72 
  -2   2   8  176.15   14.14 
  -2   2   8  177.16   14.89 
  -2   2   9   16.80    5.91 
  -2   2   9   25.06    6.83 
  -2   2  10  285.90   20.43 
  -2   2  10  250.70   18.64 
  -2   3  -9   26.21    7.64 
  -2   3  -9   22.32    6.63 
  -2   3  -8  109.82   12.05 
  -2   3  -8  110.18   11.91 
  -2   3  -7   30.32    6.76 
  -2   3  -7   26.03    6.45 
  -2   3  -6    0.31    2.94 
  -2   3  -6   -0.93    3.34 
  -2   3  -5   67.24    7.88 
  -2   3  -5   61.11    7.58 
  -2   3  -4  344.54   11.01 
  -2   3  -4  371.53   17.52 
  -2   3  -4  384.97   18.00 
  -2   3  -3  927.97   26.29 
  -2   3  -3  882.91   18.90 
  -2   3  -3  931.36   25.91 
  -2   3  -2  733.94   22.20 
  -2   3  -2  696.16   17.99 
  -2   3  -2  710.39   21.92 
  -2   3  -1 1171.79   27.18 
  -2   3  -1 1222.38   28.27 
  -2   3  -1 1189.00   23.83 
  -2   3  -1 1135.62   17.45 
  -2   3   0 1427.30   30.62 
  -2   3   0 1409.15   29.31 
  -2   3   0 1430.39   22.98 
  -2   3   0 1434.43   27.38 
  -2   3   1  148.71    9.65 
  -2   3   1  145.97    9.49 
  -2   3   1  132.62    8.01 
  -2   3   2  150.23   10.14 
  -2   3   2  155.57    9.80 
  -2   3   2  168.00   10.41 
  -2   3   3 1082.27   27.28 
  -2   3   3 1001.07   25.59 
  -2   3   3 1002.40   26.12 
  -2   3   4 1216.54   30.52 
  -2   3   4 1171.90   28.89 
  -2   3   4 1180.70   29.96 
  -2   3   5   22.49    4.95 
  -2   3   5   28.78    5.78 
  -2   3   6  254.12   15.98 
  -2   3   6  259.94   15.60 
  -2   3   7  887.23   30.01 
  -2   3   7  875.24   30.53 
  -2   3   8  668.76   28.44 
  -2   3   8  630.26   26.57 
  -2   3   9   45.50    8.59 
  -2   3   9   56.31    9.30 
  -2   3  10   80.01   11.77 
  -2   3  10   73.28   10.82 
  -2   4  -8   16.72    5.86 
  -2   4  -8   30.06    8.10 
  -2   4  -7   98.49   11.77 
  -2   4  -7  141.28   13.95 
  -2   4  -6  218.18   15.30 
  -2   4  -6  202.99   15.76 
  -2   4  -5    3.22    3.15 
  -2   4  -5    1.45    2.94 
  -2   4  -4   18.07    3.54 
  -2   4  -4   23.47    5.59 
  -2   4  -4   18.56    4.77 
  -2   4  -3  225.32   13.85 
  -2   4  -3  209.74   13.67 
  -2   4  -3  197.76   10.62 
  -2   4  -2  170.61   11.57 
  -2   4  -2  170.24   11.83 
  -2   4  -2  165.21   10.01 
  -2   4  -1  475.80   19.69 
  -2   4  -1  476.04   18.98 
  -2   4  -1  438.79   12.14 
  -2   4  -1  436.02   16.24 
  -2   4   0  342.08   15.78 
  -2   4   0  348.35   12.39 
  -2   4   0  364.67   16.59 
  -2   4   0  331.88   14.85 
  -2   4   1   15.44    3.90 
  -2   4   1   20.18    4.33 
  -2   4   1   21.73    4.01 
  -2   4   2   41.58    5.96 
  -2   4   2   51.04    6.35 
  -2   4   2   50.89    5.87 
  -2   4   3   66.74    7.95 
  -2   4   3   85.99    8.46 
  -2   4   3   78.55    7.95 
  -2   4   4  221.56   13.91 
  -2   4   4  218.37   13.17 
  -2   4   4  215.27   13.19 
  -2   4   5   53.08    6.96 
  -2   4   5   59.88    8.00 
  -2   4   5   47.62    6.52 
  -2   4   6  186.03   14.09 
  -2   4   6  190.28   14.06 
  -2   4   7  278.22   17.40 
  -2   4   7  294.32   18.41 
  -2   4   8  300.71   18.91 
  -2   4   8  314.29   19.85 
  -2   4   9  418.63   23.46 
  -2   4   9  416.96   24.32 
  -2   4  10   57.21   10.05 
  -2   4  10   44.06    9.31 
  -2   5  -7   20.50    6.96 
  -2   5  -7   16.23    5.99 
  -2   5  -6  146.46   13.86 
  -2   5  -6  131.46   13.62 
  -2   5  -5  720.92   29.65 
  -2   5  -5  737.12   28.43 
  -2   5  -4  158.07   13.40 
  -2   5  -4  179.49   13.48 
  -2   5  -4  135.26    9.70 
  -2   5  -3   10.50    4.11 
  -2   5  -3    2.22    2.38 
  -2   5  -2  264.78   16.01 
  -2   5  -2  283.73   15.94 
  -2   5  -2  263.03   13.85 
  -2   5  -1  376.42   18.41 
  -2   5  -1  389.45   18.92 
  -2   5  -1  323.21   11.45 
  -2   5  -1  370.45   16.57 
  -2   5   0    4.90    2.59 
  -2   5   0    9.16    3.54 
  -2   5   0    8.82    3.06 
  -2   5   1  188.62   12.57 
  -2   5   1  182.84   12.33 
  -2   5   1  173.02   10.41 
  -2   5   2   68.92    7.62 
  -2   5   2   60.73    7.27 
  -2   5   2   66.31    7.01 
  -2   5   3  190.27   12.67 
  -2   5   3  185.07   12.32 
  -2   5   3  184.66   12.84 
  -2   5   4   75.27    8.19 
  -2   5   4   64.91    7.68 
  -2   5   4   77.88    8.96 
  -2   5   5  288.38   17.78 
  -2   5   5  275.23   16.60 
  -2   5   5  299.62   16.50 
  -2   5   6   91.18   10.63 
  -2   5   6   92.10    9.50 
  -2   5   6  110.38   11.11 
  -2   5   7   67.45    9.45 
  -2   5   7   63.95    8.93 
  -2   5   8   45.31    8.57 
  -2   5   8   34.16    7.85 
  -2   5   9   89.35   12.07 
  -2   5   9  101.69   13.00 
  -2   6  -6  106.47   12.47 
  -2   6  -6   94.96   12.62 
  -2   6  -5  418.59   22.61 
  -2   6  -5  423.58   24.42 
  -2   6  -4  513.11   23.82 
  -2   6  -4  481.30   24.78 
  -2   6  -3    7.32    5.28 
  -2   6  -3    4.94    3.36 
  -2   6  -3    1.60    3.39 
  -2   6  -2  134.18   11.21 
  -2   6  -2  116.83   11.85 
  -2   6  -1  412.23   20.19 
  -2   6  -1  384.98   20.17 
  -2   6  -1  405.01   19.10 
  -2   6   0   93.66    9.72 
  -2   6   0   82.44    7.31 
  -2   6   0   89.82    9.39 
  -2   6   1   38.07    6.16 
  -2   6   1   30.07    5.17 
  -2   6   1   34.78    6.37 
  -2   6   2   45.24    7.25 
  -2   6   2   53.25    7.69 
  -2   6   2   41.69    6.14 
  -2   6   3  183.11   12.83 
  -2   6   3  199.13   13.74 
  -2   6   3  183.66   13.97 
  -2   6   4  204.45   14.28 
  -2   6   4  163.87   12.94 
  -2   6   4  173.77   13.86 
  -2   6   5  360.21   20.33 
  -2   6   5  371.98   19.14 
  -2   6   5  369.41   20.02 
  -2   6   6  103.68   11.59 
  -2   6   6   88.31    9.78 
  -2   6   6  112.66   12.10 
  -2   6   7    6.90    4.62 
  -2   6   7    2.06    4.89 
  -2   6   8    2.86    5.04 
  -2   6   8    4.34    4.94 
  -2   6   9   12.06    6.38 
  -2   6   9    4.45    5.42 
  -2   7  -5  205.65   18.12 
  -2   7  -5  227.99   17.77 
  -2   7  -4  134.10   13.64 
  -2   7  -4  139.58   14.86 
  -2   7  -3  138.03   14.00 
  -2   7  -3  109.26   11.36 
  -2   7  -2  115.30   11.76 
  -2   7  -2  132.47   13.44 
  -2   7  -2  118.30   11.55 
  -2   7  -1  181.58   14.97 
  -2   7  -1  183.74   14.32 
  -2   7   0  133.68   12.40 
  -2   7   0  108.46   11.71 
  -2   7   1  332.29   19.24 
  -2   7   1  299.97   15.35 
  -2   7   1  360.89   19.77 
  -2   7   2  169.79   13.65 
  -2   7   2  171.22   14.28 
  -2   7   2  146.82   11.46 
  -2   7   3   66.77    9.38 
  -2   7   3   97.55    9.93 
  -2   7   3   78.36   10.49 
  -2   7   4  265.05   16.89 
  -2   7   4  256.85   16.64 
  -2   7   4  267.70   18.16 
  -2   7   5  210.46   16.03 
  -2   7   5  218.17   15.62 
  -2   7   5  212.60   15.81 
  -2   7   6  364.73   22.53 
  -2   7   6  347.84   19.85 
  -2   7   6  369.30   21.74 
  -2   7   7   80.91   11.61 
  -2   7   7   88.91   12.10 
  -2   7   7   88.16   10.74 
  -2   7   8   -2.52    5.18 
  -2   7   8   -0.33    5.42 
  -2   8  -3   22.90    6.57 
  -2   8  -3   31.06    7.52 
  -2   8  -3   30.62    7.14 
  -2   8  -2    6.53    4.52 
  -2   8  -2   14.45    6.55 
  -2   8  -1    9.60    5.21 
  -2   8  -1   20.45    6.73 
  -2   8   0  315.60   20.48 
  -2   8   0  332.68   20.74 
  -2   8   1  494.65   24.99 
  -2   8   1  480.16   24.96 
  -2   8   2  335.81   18.19 
  -2   8   2  373.91   22.20 
  -2   8   3  144.65   13.61 
  -2   8   3  128.18   13.21 
  -2   8   3  131.62   12.44 
  -2   8   4  132.13   12.90 
  -2   8   4  152.65   13.93 
  -2   8   4  134.82   14.27 
  -2   8   5   45.02    9.36 
  -2   8   5   32.10    6.96 
  -2   8   5   30.10    6.91 
  -2   8   6   36.68    8.67 
  -2   8   6   34.36    8.09 
  -2   8   6   31.39    8.84 
  -2   8   7  127.82   13.37 
  -2   8   7  106.41   13.24 
  -2   9  -1   11.69    6.65 
  -2   9   0   29.07    7.92 
  -2   9   0   28.19    7.69 
  -2   9   1  148.64   15.07 
  -2   9   1  157.53   15.70 
  -2   9   2  108.32   12.74 
  -2   9   2  131.83   15.16 
  -2   9   3   61.67   10.52 
  -2   9   3   63.51    9.41 
  -2   9   3   67.59   11.27 
  -2   9   4   45.33    9.94 
  -2   9   4   27.71    7.31 
  -2   9   4   41.50    8.71 
  -1 -10  -7   -4.66    5.42 
  -1 -10  -5  176.83   14.13 
  -1 -10  -4   55.92    8.97 
  -1 -10  -3   51.99    8.57 
  -1 -10  -2  252.41   17.31 
  -1 -10  -1  187.28   15.31 
  -1 -10   0   66.21    9.61 
  -1 -10   1  269.18   19.51 
  -1 -10   2  148.47   15.77 
  -1  -9  -8   42.82    8.23 
  -1  -9  -7    1.56    4.38 
  -1  -9  -6    5.93    5.05 
  -1  -9  -6    3.50    3.73 
  -1  -9  -5   17.66    4.49 
  -1  -9  -5   32.07    6.13 
  -1  -9  -4  146.70   11.76 
  -1  -9  -4  150.91   12.30 
  -1  -9  -3  397.75   19.48 
  -1  -9  -2  100.42   10.21 
  -1  -9  -1  319.89   18.41 
  -1  -9   0  448.27   22.23 
  -1  -9   1  183.73   15.17 
  -1  -9   2   23.94    7.15 
  -1  -9   3   29.98    8.20 
  -1  -9   4   65.50   10.92 
  -1  -8  -9    7.96    5.43 
  -1  -8  -8    1.65    4.04 
  -1  -8  -7  179.19   12.61 
  -1  -8  -7  182.01   14.11 
  -1  -8  -6   26.34    5.70 
  -1  -8  -6   39.63    6.17 
  -1  -8  -5   -0.25    3.05 
  -1  -8  -5    9.94    3.92 
  -1  -8  -4  133.01   10.48 
  -1  -8  -4  108.85    9.71 
  -1  -8  -3  533.51   19.09 
  -1  -8  -3  563.96   21.60 
  -1  -8  -2   27.57    5.60 
  -1  -8  -2   22.36    3.96 
  -1  -8  -1   33.39    5.95 
  -1  -8   0  159.20   12.78 
  -1  -8   1  394.00   20.20 
  -1  -8   2  277.03   17.72 
  -1  -8   3   16.74    5.62 
  -1  -8   4   55.71   10.17 
  -1  -8   5  143.05   14.89 
  -1  -7 -10   83.20   11.40 
  -1  -7  -9   59.43    9.11 
  -1  -7  -8    6.76    4.88 
  -1  -7  -7   52.69    7.61 
  -1  -7  -6   72.32    8.39 
  -1  -7  -6   49.23    6.39 
  -1  -7  -5   90.72    8.58 
  -1  -7  -5   72.76    7.36 
  -1  -7  -4  445.28   17.27 
  -1  -7  -4  418.18   17.37 
  -1  -7  -3  493.48   16.58 
  -1  -7  -3  484.37   18.58 
  -1  -7  -2  592.76   17.09 
  -1  -7  -2  642.85   21.40 
  -1  -7  -1    1.41    2.19 
  -1  -7  -1   -1.28    2.77 
  -1  -7   0  233.70   14.14 
  -1  -7   1    4.95    3.84 
  -1  -7   2  104.62   10.39 
  -1  -7   3   82.44   10.03 
  -1  -7   4   17.33    5.96 
  -1  -7   5  384.41   22.86 
  -1  -7   6  228.36   18.98 
  -1  -6 -11  124.93   14.39 
  -1  -6 -10    6.07    5.85 
  -1  -6  -9  137.79   13.30 
  -1  -6  -8 1231.87   36.23 
  -1  -6  -7  487.93   21.37 
  -1  -6  -6  208.48   13.02 
  -1  -6  -6  207.49   11.98 
  -1  -6  -5  180.55   11.42 
  -1  -6  -5  172.26   10.43 
  -1  -6  -4  343.16   14.42 
  -1  -6  -4  331.10   14.08 
  -1  -6  -3  127.83    8.14 
  -1  -6  -3  137.58    9.53 
  -1  -6  -2  242.29   10.12 
  -1  -6  -2  254.30   12.44 
  -1  -6  -1  425.12   16.53 
  -1  -6   0   20.26    2.83 
  -1  -6   0   27.96    4.91 
  -1  -6   1  170.80    7.53 
  -1  -6   1  210.98   12.75 
  -1  -6   2  183.22   12.44 
  -1  -6   3  101.60   10.26 
  -1  -6   4  144.79   12.47 
  -1  -6   5    2.32    4.23 
  -1  -6   6   33.61    7.36 
  -1  -6   7   60.85   10.29 
  -1  -5 -11  136.54   14.86 
  -1  -5 -10    4.74    5.30 
  -1  -5  -9   13.97    4.99 
  -1  -5  -8  540.82   23.51 
  -1  -5  -7 1280.41   33.70 
  -1  -5  -6  822.30   24.80 
  -1  -5  -5  744.09   20.60 
  -1  -5  -5  770.62   22.02 
  -1  -5  -4  556.42   17.04 
  -1  -5  -4  564.06   17.31 
  -1  -5  -3 1135.64   22.52 
  -1  -5  -3 1087.80   23.66 
  -1  -5  -2  121.32    8.07 
  -1  -5  -2  120.70    6.76 
  -1  -5  -1    3.37    1.39 
  -1  -5  -1    6.03    2.65 
  -1  -5   0  384.59    9.49 
  -1  -5   0  436.24   15.66 
  -1  -5   1  445.87   16.79 
  -1  -5   2  762.45   23.22 
  -1  -5   3  831.51   25.34 
  -1  -5   4 1040.21   30.07 
  -1  -5   5   57.89    8.17 
  -1  -5   6    4.67    3.61 
  -1  -5   6    6.12    3.79 
  -1  -5   7   30.64    5.72 
  -1  -5   7   43.74    7.78 
  -1  -5   8   25.56    7.87 
  -1  -4 -11   80.88   11.62 
  -1  -4 -10  138.52   13.54 
  -1  -4  -9  227.57   16.15 
  -1  -4  -8   54.55    7.58 
  -1  -4  -7  530.83   21.12 
  -1  -4  -7  512.83   13.81 
  -1  -4  -6  478.11   18.65 
  -1  -4  -6  473.03   11.49 
  -1  -4  -5  116.97    8.38 
  -1  -4  -5  118.29    8.14 
  -1  -4  -5  104.47    4.66 
  -1  -4  -4    1.56    1.98 
  -1  -4  -4    4.20    1.82 
  -1  -4  -4    3.55    1.05 
  -1  -4  -3  542.98   14.37 
  -1  -4  -3  529.24   15.15 
  -1  -4  -2 2095.88   24.76 
  -1  -4  -2 2164.49   30.53 
  -1  -4  -1 1097.77   14.66 
  -1  -4  -1 1152.83   22.04 
  -1  -4   0 2077.85   17.67 
  -1  -4   0 2635.20   34.63 
  -1  -4   1  660.61   18.74 
  -1  -4   2  336.19   14.02 
  -1  -4   3 1909.44   34.61 
  -1  -4   3 2028.55   33.56 
  -1  -4   4 1021.18   27.21 
  -1  -4   4  975.81   23.79 
  -1  -4   5  133.88   10.99 
  -1  -4   5  126.33    9.63 
  -1  -4   6    8.74    3.28 
  -1  -4   6    4.82    3.84 
  -1  -4   7  285.08   18.12 
  -1  -4   7  240.10   14.95 
  -1  -4   8  132.39   13.43 
  -1  -4   8  100.26   10.27 
  -1  -4   9   33.36    7.99 
  -1  -3 -11   22.44    6.97 
  -1  -3 -10   28.20    6.55 
  -1  -3  -9  227.74   15.90 
  -1  -3  -9  213.62   11.94 
  -1  -3  -8  109.99   10.38 
  -1  -3  -8  120.56    8.10 
  -1  -3  -7   82.21    6.02 
  -1  -3  -7   88.97    8.89 
  -1  -3  -6  286.01   14.32 
  -1  -3  -6  287.27    9.65 
  -1  -3  -5    5.61    2.40 
  -1  -3  -5   11.94    1.92 
  -1  -3  -4   40.74    4.66 
  -1  -3  -4   52.93    5.02 
  -1  -3  -4   38.35    2.35 
  -1  -3  -3  190.10    8.14 
  -1  -3  -3  186.80    8.42 
  -1  -3  -2    2.65    1.57 
  -1  -3  -2    1.05    0.97 
  -1  -3  -1 3078.19   20.65 
  -1  -3  -1 3127.15   32.22 
  -1  -3   0 2717.61   31.28 
  -1  -3   1  821.46   18.72 
  -1  -3   2   64.93    5.62 
  -1  -3   2   65.69    5.55 
  -1  -3   3 1004.94   23.16 
  -1  -3   3 1082.32   22.87 
  -1  -3   4  842.92   23.42 
  -1  -3   4  855.42   21.62 
  -1  -3   5  216.07   12.85 
  -1  -3   5  204.90   11.37 
  -1  -3   6  173.68   13.01 
  -1  -3   6  171.95   11.29 
  -1  -3   7   85.42    9.90 
  -1  -3   7   69.65    8.21 
  -1  -3   8  405.71   21.77 
  -1  -3   8  401.86   19.30 
  -1  -3   9  257.03   18.27 
  -1  -3   9  208.71   15.12 
  -1  -2 -11  210.04   17.78 
  -1  -2 -10  259.39   18.30 
  -1  -2 -10  265.69   15.61 
  -1  -2  -9   68.98    9.41 
  -1  -2  -9   63.27    7.08 
  -1  -2  -8  186.06   13.48 
  -1  -2  -8  187.20   10.78 
  -1  -2  -7    9.49    3.74 
  -1  -2  -7   10.37    2.74 
  -1  -2  -6   20.75    4.25 
  -1  -2  -6   18.24    2.66 
  -1  -2  -5  241.39   11.55 
  -1  -2  -5  247.17    8.37 
  -1  -2  -4   12.54    1.80 
  -1  -2  -4   11.79    2.49 
  -1  -2  -3    1.16    1.30 
  -1  -2  -3    0.61    0.54 
  -1  -2  -3    1.75    1.52 
  -1  -2  -2   -1.14    1.10 
  -1  -2  -2    0.25    1.26 
  -1  -2  -1 5353.00   25.13 
  -1  -2  -1 6186.61   40.76 
  -1  -2   0 1194.30   17.86 
  -1  -2   1    4.94    1.99 
  -1  -2   1    5.86    1.87 
  -1  -2   2  292.79   10.14 
  -1  -2   2  315.90   10.96 
  -1  -2   3   43.53    4.87 
  -1  -2   3   46.73    4.85 
  -1  -2   4    9.06    2.43 
  -1  -2   4    9.73    3.24 
  -1  -2   5  117.19    9.07 
  -1  -2   5   88.81    7.45 
  -1  -2   6  565.44   21.12 
  -1  -2   6  532.74   19.03 
  -1  -2   7   74.30    8.60 
  -1  -2   7   57.43    7.26 
  -1  -2   8  126.66   11.87 
  -1  -2   8  119.14   11.06 
  -1  -2   9  792.84   30.83 
  -1  -2   9  718.62   26.83 
  -1  -2  10  282.99   19.65 
  -1  -2  10  262.10   17.42 
  -1  -1 -11  182.22   16.91 
  -1  -1 -11  182.47   14.73 
  -1  -1 -10  352.47   18.84 
  -1  -1 -10  321.27   20.56 
  -1  -1  -9  254.10   16.86 
  -1  -1  -9  247.37   14.57 
  -1  -1  -8  126.82   11.13 
  -1  -1  -8  122.40    9.34 
  -1  -1  -7   21.76    4.69 
  -1  -1  -7   14.59    3.47 
  -1  -1  -6   28.07    3.87 
  -1  -1  -6   21.14    4.39 
  -1  -1  -5 3009.09   41.20 
  -1  -1  -5 2970.89   32.92 
  -1  -1  -4 1773.83   28.33 
  -1  -1  -4 1763.91   21.94 
  -1  -1  -3   77.45    5.26 
  -1  -1  -3   74.79    3.63 
  -1  -1  -2  702.84   14.11 
  -1  -1  -2  675.66   12.74 
  -1  -1  -2  669.44    8.20 
  -1  -1  -1 1715.30   15.63 
  -1  -1  -1 1669.30   12.09 
  -1  -1  -1 1688.74   18.72 
  -1  -1   0  328.70    5.53 
  -1  -1   0  330.27    8.12 
  -1  -1   0  309.04    7.64 
  -1  -1   0  327.31    8.35 
  -1  -1   1  564.48   12.14 
  -1  -1   1  568.99   11.03 
  -1  -1   1  548.93   12.21 
  -1  -1   2  524.38   11.65 
  -1  -1   2  554.14   13.86 
  -1  -1   2  569.48   13.91 
  -1  -1   3   54.20    4.42 
  -1  -1   3   46.38    4.76 
  -1  -1   3   45.19    4.50 
  -1  -1   4    4.10    2.40 
  -1  -1   4    5.93    2.81 
  -1  -1   4    3.05    1.80 
  -1  -1   5  254.83   12.12 
  -1  -1   5  230.30   11.25 
  -1  -1   5  254.70   12.05 
  -1  -1   6  288.20   14.02 
  -1  -1   6  273.38   12.98 
  -1  -1   6  240.33   13.15 
  -1  -1   7  183.86   12.39 
  -1  -1   7  177.02   11.59 
  -1  -1   7  183.35   12.21 
  -1  -1   8    5.65    4.00 
  -1  -1   8   -0.81    2.79 
  -1  -1   8    2.60    3.25 
  -1  -1   9   15.14    5.01 
  -1  -1   9   10.19    3.90 
  -1  -1  10  300.29   19.39 
  -1  -1  10  257.90   17.85 
  -1   0 -11  160.40   15.99 
  -1   0 -11  136.21   13.43 
  -1   0 -10  135.53   13.59 
  -1   0 -10  147.91   13.10 
  -1   0  -9  592.74   26.13 
  -1   0  -9  573.88   23.41 
  -1   0  -8  182.62   13.50 
  -1   0  -8  181.53   12.25 
  -1   0  -7   14.93    3.54 
  -1   0  -7   15.60    4.33 
  -1   0  -6  235.07   13.08 
  -1   0  -6  227.69   11.47 
  -1   0  -5  941.12   23.76 
  -1   0  -5  938.26   21.19 
  -1   0  -4 3874.37   43.34 
  -1   0  -4 3760.67   38.15 
  -1   0  -3 2217.90   29.07 
  -1   0  -3 2259.80   25.17 
  -1   0  -2 4597.23   35.34 
  -1   0  -2 4566.67   30.96 
  -1   0  -1 1033.58   10.55 
  -1   0  -1 1030.38   14.58 
  -1   0  -1 1035.39   13.00 
  -1   0  -1 1079.67   10.82 
  -1   0   0 1418.90   15.43 
  -1   0   0 1425.27   15.72 
  -1   0   0 1420.70   15.65 
  -1   0   0 1431.30   14.98 
  -1   0   0 1375.72   13.38 
  -1   0   1 1463.83   18.58 
  -1   0   1 1463.25   13.21 
  -1   0   1 1461.05   18.19 
  -1   0   1 1458.02   18.45 
  -1   0   2 1130.26   18.54 
  -1   0   2 1021.95   12.99 
  -1   0   2 1080.25   18.58 
  -1   0   3   56.43    4.03 
  -1   0   3   52.96    4.72 
  -1   0   3   49.66    4.75 
  -1   0   4  254.23    9.65 
  -1   0   4  243.10   10.89 
  -1   0   4  256.82   11.47 
  -1   0   5 1160.54   23.22 
  -1   0   5 1202.36   24.82 
  -1   0   5 1147.45   26.28 
  -1   0   6  693.08   19.97 
  -1   0   6  655.02   20.09 
  -1   0   6  675.05   21.48 
  -1   0   7  537.57   19.21 
  -1   0   7  507.53   19.08 
  -1   0   7  537.49   20.61 
  -1   0   8  198.72   12.83 
  -1   0   8  172.09   12.03 
  -1   0   8  181.66   12.91 
  -1   0   9   30.42    6.89 
  -1   0   9   25.55    5.69 
  -1   0   9   20.78    5.03 
  -1   0  10    4.60    4.13 
  -1   0  10   10.09    5.57 
  -1   0  10    8.75    4.89 
  -1   1 -10   33.37    7.23 
  -1   1 -10   28.23    6.97 
  -1   1  -9  169.12   14.43 
  -1   1  -9  181.87   14.51 
  -1   1  -8  132.13   11.84 
  -1   1  -8  129.67   11.25 
  -1   1  -7  133.03   11.00 
  -1   1  -7  122.90   10.30 
  -1   1  -6 1552.13   34.03 
  -1   1  -6 1637.99   33.49 
  -1   1  -5  860.54   23.24 
  -1   1  -5  878.42   22.74 
  -1   1  -4  410.54   14.56 
  -1   1  -4  403.25   13.99 
  -1   1  -4  361.12    6.38 
  -1   1  -3 2362.76   31.27 
  -1   1  -3 2347.90   30.44 
  -1   1  -2  704.30   15.24 
  -1   1  -2  697.02   15.10 
  -1   1  -2  695.67    9.25 
  -1   1  -1    1.62    0.59 
  -1   1  -1    3.38    1.40 
  -1   1  -1    1.07    0.91 
  -1   1  -1    5.14    1.72 
  -1   1   0   74.45    4.24 
  -1   1   0   70.95    4.42 
  -1   1   0   65.26    4.15 
  -1   1   0   74.35    3.70 
  -1   1   1 8187.09   47.21 
  -1   1   1 8170.65   45.16 
  -1   1   2 5078.87   40.89 
  -1   1   2 4990.09   40.81 
  -1   1   2 5097.38   39.44 
  -1   1   3  385.15    8.08 
  -1   1   3  386.82   12.38 
  -1   1   3  389.39   13.02 
  -1   1   4  409.37   10.66 
  -1   1   4  400.42   14.10 
  -1   1   4  425.98   14.92 
  -1   1   5  788.88   20.71 
  -1   1   5  791.26   21.98 
  -1   1   5  771.99   16.85 
  -1   1   6 1057.10   27.25 
  -1   1   6 1027.74   22.07 
  -1   1   7  134.72    9.12 
  -1   1   7  138.76   10.70 
  -1   1   7  125.04    9.59 
  -1   1   8   48.81    6.85 
  -1   1   8   62.32    8.17 
  -1   1   8   59.26    6.97 
  -1   1   9  188.84   13.02 
  -1   1   9  187.53   13.00 
  -1   1   9  186.04   14.21 
  -1   1  10   90.47   10.37 
  -1   1  10   78.14    9.42 
  -1   1  10   87.62   11.12 
  -1   1  11   22.06    6.39 
  -1   2 -10   32.92    7.68 
  -1   2 -10   31.25    8.11 
  -1   2  -9   60.99    9.15 
  -1   2  -9   55.11    8.52 
  -1   2  -8    8.73    4.04 
  -1   2  -8   18.38    5.17 
  -1   2  -7   12.21    3.64 
  -1   2  -7   16.83    5.02 
  -1   2  -6  149.98   10.97 
  -1   2  -6  136.86   10.89 
  -1   2  -5  847.21   14.23 
  -1   2  -5  917.04   24.84 
  -1   2  -5  923.92   25.24 
  -1   2  -4  478.80   16.38 
  -1   2  -4  450.40   16.45 
  -1   2  -4  460.31   10.26 
  -1   2  -3 1090.91   22.77 
  -1   2  -3 1098.30   23.64 
  -1   2  -3 1066.23   15.49 
  -1   2  -2  411.33   12.96 
  -1   2  -2  384.78    9.71 
  -1   2  -2  402.63   13.38 
  -1   2  -1    4.16    2.02 
  -1   2  -1    5.57    1.71 
  -1   2  -1    3.88    1.10 
  -1   2  -1    3.10    0.98 
  -1   2   0   83.41    5.43 
  -1   2   0   97.42    6.15 
  -1   2   0   78.27    4.20 
  -1   2   0   75.20    5.01 
  -1   2   1   58.78    5.16 
  -1   2   2 7189.88   50.66 
  -1   2   2 7007.16   51.96 
  -1   2   3 3241.39   39.21 
  -1   2   3 3371.91   36.80 
  -1   2   3 3264.51   38.91 
  -1   2   4  633.66   18.36 
  -1   2   4  647.17   10.98 
  -1   2   4  633.59   18.89 
  -1   2   5 1038.24   25.06 
  -1   2   5 1061.17   17.60 
  -1   2   5 1065.59   26.37 
  -1   2   6 1615.01   32.27 
  -1   2   6 1557.77   24.98 
  -1   2   6 1617.76   35.07 
  -1   2   7  350.98   16.20 
  -1   2   7  359.21   17.53 
  -1   2   7  366.69   13.79 
  -1   2   8   13.81    4.77 
  -1   2   8   16.78    4.20 
  -1   2   8   12.23    3.62 
  -1   2   9  129.22   10.46 
  -1   2   9  119.88   11.21 
  -1   2   9  124.89   11.99 
  -1   2  10   64.84    8.64 
  -1   2  10   77.69    9.15 
  -1   2  10   71.19    9.51 
  -1   2  11   50.63    9.23 
  -1   3  -9   91.18   11.18 
  -1   3  -9  126.73   13.49 
  -1   3  -8  316.56   19.00 
  -1   3  -8  318.81   19.53 
  -1   3  -7  461.08   21.70 
  -1   3  -7  680.90   26.80 
  -1   3  -6    4.71    3.10 
  -1   3  -6   11.83    4.43 
  -1   3  -5   48.05    5.98 
  -1   3  -5   50.08    6.59 
  -1   3  -5   44.23    4.26 
  -1   3  -4  100.41    8.18 
  -1   3  -4   85.97    7.94 
  -1   3  -4   94.62    5.98 
  -1   3  -3   27.37    3.34 
  -1   3  -3   26.82    4.63 
  -1   3  -3   28.56    3.94 
  -1   3  -2   69.44    3.40 
  -1   3  -2   83.39    7.21 
  -1   3  -2   81.31    6.42 
  -1   3  -2   78.72    5.58 
  -1   3  -1   69.76    5.86 
  -1   3  -1   59.42    5.43 
  -1   3  -1   64.00    3.76 
  -1   3  -1   53.72    4.86 
  -1   3   0  486.85   14.72 
  -1   3   0  487.01   11.85 
  -1   3   0  516.28   15.25 
  -1   3   0  514.42   14.48 
  -1   3   1  430.72   13.55 
  -1   3   1  440.31   12.73 
  -1   3   1  431.15   14.01 
  -1   3   2 1161.08   22.77 
  -1   3   2 1238.54   23.32 
  -1   3   2 1256.85   24.46 
  -1   3   3 1097.28   22.64 
  -1   3   3 1044.52   23.08 
  -1   3   3 1063.64   24.02 
  -1   3   4   32.38    4.41 
  -1   3   4   33.49    4.33 
  -1   3   4   37.66    4.88 
  -1   3   5  242.08   12.63 
  -1   3   5  235.61    7.19 
  -1   3   5  256.19   13.51 
  -1   3   6  151.59   10.34 
  -1   3   6  151.96   11.08 
  -1   3   6  149.43    7.11 
  -1   3   7  210.32   13.14 
  -1   3   7  202.79    9.43 
  -1   3   7  201.34   13.63 
  -1   3   8  346.83   17.67 
  -1   3   8  385.10   20.31 
  -1   3   8  364.88   14.10 
  -1   3   9  202.01   14.40 
  -1   3   9  183.74   14.72 
  -1   3  10   57.07    8.75 
  -1   3  10   41.59    8.20 
  -1   3  11   44.77    8.55 
  -1   3  11   33.17    7.92 
  -1   4  -9    3.39    4.37 
  -1   4  -9    5.33    6.67 
  -1   4  -8  160.43   14.38 
  -1   4  -8  166.23   15.63 
  -1   4  -7  680.60   28.68 
  -1   4  -7  678.98   26.88 
  -1   4  -6  496.03   23.25 
  -1   4  -6  504.50   21.87 
  -1   4  -5    5.33    2.91 
  -1   4  -5    2.23    3.13 
  -1   4  -5    5.54    2.84 
  -1   4  -4   24.31    5.11 
  -1   4  -4   25.60    4.90 
  -1   4  -4   27.64    3.78 
  -1   4  -3  187.27   10.77 
  -1   4  -3  178.60   11.99 
  -1   4  -3  168.09    9.25 
  -1   4  -2  164.07    6.52 
  -1   4  -2  173.38   10.96 
  -1   4  -2  191.30   10.53 
  -1   4  -2  180.64    9.61 
  -1   4  -1   21.18    4.02 
  -1   4  -1   14.17    3.24 
  -1   4  -1   16.91    3.31 
  -1   4  -1   20.18    2.73 
  -1   4   0    2.18    1.54 
  -1   4   0   -0.52    2.26 
  -1   4   0    4.92    2.55 
  -1   4   0    2.82    2.09 
  -1   4   1 1099.94   23.97 
  -1   4   1 1092.53   21.97 
  -1   4   1 1082.80   24.37 
  -1   4   2  670.69   18.84 
  -1   4   2  634.13   18.27 
  -1   4   2  674.94   20.18 
  -1   4   3   96.70    7.24 
  -1   4   3   99.81    8.20 
  -1   4   3   88.99    7.33 
  -1   4   4  126.94    8.65 
  -1   4   4  116.61    8.88 
  -1   4   4  133.04    9.64 
  -1   4   5    5.52    2.32 
  -1   4   5    9.43    3.18 
  -1   4   5    6.83    2.27 
  -1   4   6   13.71    3.89 
  -1   4   6   13.32    3.88 
  -1   4   7   -0.19    2.93 
  -1   4   7    1.42    3.09 
  -1   4   8  452.81   21.03 
  -1   4   8  433.28   22.03 
  -1   4   9  117.70   11.54 
  -1   4   9  148.36   13.85 
  -1   4  10   32.01    7.72 
  -1   4  10   32.16    7.43 
  -1   5  -8  198.38   17.99 
  -1   5  -8  210.15   16.55 
  -1   5  -7  104.95   11.28 
  -1   5  -7   93.06   11.97 
  -1   5  -6  264.22   18.40 
  -1   5  -6  271.11   16.72 
  -1   5  -5  188.35   13.05 
  -1   5  -5  199.33   15.19 
  -1   5  -5  149.99    9.86 
  -1   5  -4    6.58    3.89 
  -1   5  -4    4.04    2.71 
  -1   5  -4    3.26    3.44 
  -1   5  -3  437.72   17.76 
  -1   5  -3  417.02   19.79 
  -1   5  -3  420.83   16.39 
  -1   5  -2  928.54   18.17 
  -1   5  -2  996.84   28.49 
  -1   5  -2  984.83   25.08 
  -1   5  -1  844.73   24.92 
  -1   5  -1  810.29   18.33 
  -1   5  -1  824.88   23.32 
  -1   5   0  259.19   11.12 
  -1   5   0  272.58   13.61 
  -1   5   0  260.08   13.39 
  -1   5   1  406.08   16.12 
  -1   5   1  402.31   14.92 
  -1   5   1  416.96   16.91 
  -1   5   2  286.64   13.50 
  -1   5   2  264.77   12.87 
  -1   5   2  276.89   14.27 
  -1   5   3   41.08    6.20 
  -1   5   3   41.41    5.19 
  -1   5   3   38.30    5.56 
  -1   5   4  470.08   17.77 
  -1   5   4  462.61   18.94 
  -1   5   4  446.96   18.99 
  -1   5   5   -1.64    2.48 
  -1   5   5    1.50    2.07 
  -1   5   5    3.97    3.29 
  -1   5   6   97.77    9.46 
  -1   5   6   90.07    9.29 
  -1   5   7   60.73    7.92 
  -1   5   7   60.98    8.13 
  -1   5   8  343.68   19.23 
  -1   5   8  340.47   20.42 
  -1   5   9  145.71   13.25 
  -1   5   9  168.10   15.21 
  -1   5  10    2.55    4.55 
  -1   5  10   12.23    6.08 
  -1   6  -7  121.05   14.44 
  -1   6  -7  127.07   12.85 
  -1   6  -6   33.94    8.15 
  -1   6  -6   52.37    8.41 
  -1   6  -5  195.34   16.12 
  -1   6  -5  191.65   13.88 
  -1   6  -5  162.35   11.56 
  -1   6  -4  162.86   12.49 
  -1   6  -4  169.29   14.45 
  -1   6  -4  143.38   11.03 
  -1   6  -3  381.29   20.35 
  -1   6  -3  384.23   17.74 
  -1   6  -3  358.52   16.84 
  -1   6  -2  676.33   25.54 
  -1   6  -2  633.08   22.60 
  -1   6  -1  634.53   22.04 
  -1   6  -1  571.48   17.03 
  -1   6  -1  581.64   22.63 
  -1   6  -1  605.71   22.16 
  -1   6   0  929.98   23.28 
  -1   6   0  959.52   28.24 
  -1   6   0  966.89   28.06 
  -1   6   1  172.10   11.65 
  -1   6   1  167.47   10.54 
  -1   6   1  174.67   12.11 
  -1   6   2    5.27    2.75 
  -1   6   2   10.74    3.35 
  -1   6   2    9.79    3.22 
  -1   6   3  181.08   12.12 
  -1   6   3  172.93   11.43 
  -1   6   3  181.22   13.02 
  -1   6   4  567.92   20.42 
  -1   6   4  590.44   22.81 
  -1   6   4  557.53   22.74 
  -1   6   5  447.04   20.97 
  -1   6   5  448.29   18.51 
  -1   6   5  450.97   21.00 
  -1   6   6   37.35    7.09 
  -1   6   6   41.64    6.04 
  -1   6   6   35.78    6.83 
  -1   6   7  145.63   12.98 
  -1   6   7  147.81   13.07 
  -1   6   8  169.19   14.76 
  -1   6   8  144.78   14.00 
  -1   6   9  137.69   13.42 
  -1   6   9  142.93   14.77 
  -1   6  10   40.82    8.72 
  -1   6  10   27.18    7.57 
  -1   7  -6   53.73   10.63 
  -1   7  -6   57.28    9.47 
  -1   7  -5   18.91    6.27 
  -1   7  -5   14.31    5.57 
  -1   7  -4  148.27   14.43 
  -1   7  -4  154.94   13.16 
  -1   7  -4  140.31   12.25 
  -1   7  -3   78.42   10.36 
  -1   7  -3   69.58    8.98 
  -1   7  -3   80.52    9.26 
  -1   7  -2  232.72   14.87 
  -1   7  -2  201.33   15.20 
  -1   7  -2  203.05   14.34 
  -1   7  -1  541.36   18.28 
  -1   7  -1  575.49   24.37 
  -1   7  -1  558.30   23.29 
  -1   7   0  693.49   21.81 
  -1   7   0  762.41   26.98 
  -1   7   0  706.42   26.58 
  -1   7   1  143.48   11.32 
  -1   7   1  147.07   10.88 
  -1   7   1  140.46   11.98 
  -1   7   2   -3.61    3.87 
  -1   7   2   -1.65    3.29 
  -1   7   2    5.20    2.68 
  -1   7   3  301.00   16.19 
  -1   7   3  306.99   16.90 
  -1   7   3  291.65   17.48 
  -1   7   4  117.39    9.98 
  -1   7   4  124.67   11.55 
  -1   7   4  112.98   11.25 
  -1   7   5  153.71   11.62 
  -1   7   5  143.31   12.26 
  -1   7   5  159.32   13.35 
  -1   7   6  532.33   21.51 
  -1   7   6  527.49   24.74 
  -1   7   6  526.47   24.77 
  -1   7   7  340.75   20.66 
  -1   7   7  378.16   21.57 
  -1   7   8  204.00   16.93 
  -1   7   8  205.83   17.12 
  -1   7   9  196.77   16.83 
  -1   7   9  184.63   16.95 
  -1   8  -5  128.17   13.86 
  -1   8  -4  245.60   19.90 
  -1   8  -4  294.54   19.33 
  -1   8  -4  235.66   17.23 
  -1   8  -3   14.92    5.75 
  -1   8  -3   28.78    7.43 
  -1   8  -3   27.04    7.45 
  -1   8  -2   37.31    7.41 
  -1   8  -2   43.02    8.27 
  -1   8  -1   86.28   10.11 
  -1   8  -1   88.31   10.70 
  -1   8   0  108.34   11.60 
  -1   8   0  111.37   11.33 
  -1   8   0   94.92    9.14 
  -1   8   1    0.97    3.86 
  -1   8   1   -0.96    3.76 
  -1   8   1   -0.04    3.20 
  -1   8   2   18.67    4.35 
  -1   8   2   26.77    6.26 
  -1   8   2   33.98    6.83 
  -1   8   3  403.06   19.93 
  -1   8   3  370.84   19.84 
  -1   8   3  373.04   21.41 
  -1   8   4  503.88   22.05 
  -1   8   4  508.71   24.10 
  -1   8   4  479.38   24.62 
  -1   8   5  104.92   10.67 
  -1   8   5   90.70   10.99 
  -1   8   5   83.09   10.84 
  -1   8   6  164.98   14.99 
  -1   8   6  156.88   12.75 
  -1   8   6  177.36   15.61 
  -1   8   7   84.64   11.30 
  -1   8   7   87.85    9.34 
  -1   8   7   77.37   10.79 
  -1   8   8   26.34    6.21 
  -1   8   8   44.49    8.97 
  -1   9  -3   89.47   12.18 
  -1   9  -2   17.07    6.86 
  -1   9  -2   13.37    5.49 
  -1   9  -1   10.01    5.31 
  -1   9  -1   12.48    5.02 
  -1   9   0   35.52    7.35 
  -1   9   0   46.01    8.55 
  -1   9   1    0.53    4.43 
  -1   9   1    5.73    4.23 
  -1   9   1    0.14    4.03 
  -1   9   2    1.34    4.44 
  -1   9   2    8.08    4.56 
  -1   9   2    6.12    4.59 
  -1   9   3    6.07    3.80 
  -1   9   3   15.15    5.88 
  -1   9   4   95.40   11.62 
  -1   9   4   91.44   10.51 
  -1   9   4  126.39   13.82 
  -1   9   5  400.68   20.98 
  -1   9   5  395.41   23.00 
  -1   9   5  413.90   24.88 
  -1   9   6  103.37   13.05 
  -1   9   6  106.87   11.40 
  -1   9   6   99.66   12.25 
  -1   9   7   68.52   11.73 
  -1  10   1  174.42   16.43 
  -1  10   1  192.32   18.12 
  -1  10   2  268.62   18.83 
  -1  10   2  267.71   18.50 
  -1  10   2  296.96   21.73 
  -1  10   3   28.93    8.46 
  -1  10   3   30.41    6.83 
  -1  10   3   23.64    5.19 
  -1  10   4   10.51    5.74 
  -1  10   4   21.43    6.63 
   0 -10  -6   76.08   11.48 
   0 -10  -5  189.12   15.76 
   0 -10  -4   93.54   11.57 
   0 -10  -2   92.09   10.52 
   0 -10  -1  126.87   12.71 
   0 -10   0  115.14   12.29 
   0 -10   1   22.38    7.47 
   0  -9  -8  188.20   17.09 
   0  -9  -7   58.97   10.17 
   0  -9  -6   18.09    5.82 
   0  -9  -5   71.02    9.45 
   0  -9  -4  169.66   13.73 
   0  -9  -3  101.00   10.61 
   0  -9  -3   92.82    9.64 
   0  -9  -2   32.14    6.30 
   0  -9  -2   23.73    5.95 
   0  -9  -1  328.51   17.39 
   0  -9  -1  347.50   18.00 
   0  -9   0  394.42   20.24 
   0  -9   1  146.32   13.11 
   0  -9   2   81.32   10.81 
   0  -9   3  212.29   17.67 
   0  -8  -9   23.57    7.88 
   0  -8  -8  148.49   14.24 
   0  -8  -7   39.20    7.92 
   0  -8  -6   26.75    6.36 
   0  -8  -5  128.26   11.74 
   0  -8  -5  130.59    9.76 
   0  -8  -4  243.92   14.93 
   0  -8  -4  195.77   11.74 
   0  -8  -3   83.46    8.81 
   0  -8  -3   74.65    7.86 
   0  -8  -2    9.95    4.04 
   0  -8  -2   10.84    3.90 
   0  -8  -1    8.89    3.86 
   0  -8  -1    4.65    3.07 
   0  -8   0   34.53    5.68 
   0  -8   0   35.20    5.70 
   0  -8   1  159.09   11.62 
   0  -8   1  170.97   13.25 
   0  -8   2   98.70    9.30 
   0  -8   2  156.92   13.73 
   0  -8   3   17.87    5.94 
   0  -8   4  121.43   13.10 
   0  -8   5   35.20    8.22 
   0  -7 -10  437.74   26.17 
   0  -7  -9  757.77   32.37 
   0  -7  -8  167.77   14.64 
   0  -7  -7   13.54    5.23 
   0  -7  -6   12.61    3.68 
   0  -7  -6   29.37    6.11 
   0  -7  -5  164.18   12.44 
   0  -7  -5  140.62    8.93 
   0  -7  -4    4.49    3.48 
   0  -7  -4    0.62    2.81 
   0  -7  -3  352.65   16.12 
   0  -7  -3  315.07   13.36 
   0  -7  -2  999.17   26.89 
   0  -7  -2 1023.75   25.01 
   0  -7  -1  244.30   12.71 
   0  -7  -1  238.16   12.70 
   0  -7   0  181.55   11.04 
   0  -7   0  185.39   11.87 
   0  -7   1  212.23   12.12 
   0  -7   1  215.27   13.50 
   0  -7   2  160.35   12.24 
   0  -7   3   25.24    6.24 
   0  -7   4   41.48    7.79 
   0  -7   5   38.89    7.44 
   0  -7   6   94.03   12.10 
   0  -6 -10    0.97    4.28 
   0  -6  -9  541.37   26.75 
   0  -6  -8  248.71   17.09 
   0  -6  -8  233.53   12.74 
   0  -6  -7  108.46   11.45 
   0  -6  -7   86.20    7.46 
   0  -6  -6  286.67   16.50 
   0  -6  -5  541.30   15.62 
   0  -6  -5  534.68   21.24 
   0  -6  -4  502.87   14.81 
   0  -6  -4  527.53   19.62 
   0  -6  -3  358.87   15.81 
   0  -6  -3  400.63   13.72 
   0  -6  -2  989.87   24.61 
   0  -6  -2  966.95   21.85 
   0  -6  -1  329.07   13.62 
   0  -6  -1  328.93   13.44 
   0  -6   0  297.17   12.88 
   0  -6   0  241.73   12.70 
   0  -6   1  636.45   21.04 
   0  -6   2  359.49   16.65 
   0  -6   3  267.86   15.28 
   0  -6   4   -1.76    3.37 
   0  -6   5   22.77    6.07 
   0  -6   6  137.75   13.49 
   0  -6   7  138.56   14.17 
   0  -5 -11   92.70   12.00 
   0  -5 -10   49.50    8.76 
   0  -5  -9    5.60    4.59 
   0  -5  -9   -3.92    3.19 
   0  -5  -8   36.09    6.72 
   0  -5  -8   25.43    4.34 
   0  -5  -7   86.22    9.48 
   0  -5  -7   76.75    6.90 
   0  -5  -6  217.73   13.70 
   0  -5  -6  198.77   10.35 
   0  -5  -5   47.50    4.69 
   0  -5  -5   42.65    6.21 
   0  -5  -4 1276.66   28.64 
   0  -5  -4 1204.47   21.21 
   0  -5  -3 2836.26   39.53 
   0  -5  -3 2796.61   32.06 
   0  -5  -2 1238.57   24.73 
   0  -5  -2 1183.67   21.53 
   0  -5  -1  605.48   17.13 
   0  -5  -1  611.96   16.43 
   0  -5   0   40.56    5.01 
   0  -5   0   28.45    3.97 
   0  -5   1  200.30   10.74 
   0  -5   2  710.01   21.07 
   0  -5   3  479.12   19.27 
   0  -5   4  203.42   13.62 
   0  -5   5  187.78   13.94 
   0  -5   6  812.65   30.75 
   0  -5   7  157.97   14.76 
   0  -5   8   85.11   11.78 
   0  -4 -11   -1.97    5.95 
   0  -4 -10  163.71   14.67 
   0  -4 -10  133.32   10.92 
   0  -4  -9   11.54    4.66 
   0  -4  -9   12.16    4.11 
   0  -4  -8   11.72    4.77 
   0  -4  -8    5.93    2.69 
   0  -4  -7  391.63   19.02 
   0  -4  -7  420.89   15.38 
   0  -4  -6  276.26   14.99 
   0  -4  -6  293.08   12.08 
   0  -4  -5   54.15    6.28 
   0  -4  -5   56.44    5.14 
   0  -4  -4   39.92    3.79 
   0  -4  -4   51.28    5.87 
   0  -4  -3 1267.78   24.50 
   0  -4  -3 1251.65   19.08 
   0  -4  -2  576.74   15.34 
   0  -4  -2  573.99   13.09 
   0  -4  -1  323.55   11.06 
   0  -4  -1  309.71   10.35 
   0  -4   0    5.56    1.91 
   0  -4   0    3.11    1.64 
   0  -4   1   24.18    3.63 
   0  -4   2 1146.11   25.10 
   0  -4   3 1134.36   27.44 
   0  -4   4  814.98   25.16 
   0  -4   5  469.57   20.75 
   0  -4   6  399.53   20.43 
   0  -4   6  313.28   12.91 
   0  -4   7  409.33   22.27 
   0  -4   8  105.99   12.48 
   0  -4   9  133.40   14.64 
   0  -3 -11   73.66   11.09 
   0  -3 -11   73.44    9.70 
   0  -3 -10   24.07    6.55 
   0  -3 -10   20.45    5.01 
   0  -3  -9    7.68    4.25 
   0  -3  -9   17.95    4.95 
   0  -3  -8   62.99    8.41 
   0  -3  -8   61.40    6.59 
   0  -3  -7  821.21   26.71 
   0  -3  -7  809.75   21.35 
   0  -3  -6  349.46   16.00 
   0  -3  -6  325.30   12.55 
   0  -3  -5  109.05    8.48 
   0  -3  -5  109.37    6.72 
   0  -3  -4   55.64    5.51 
   0  -3  -4   54.11    4.65 
   0  -3  -3   11.10    2.38 
   0  -3  -3   10.22    1.70 
   0  -3  -2  513.09   13.50 
   0  -3  -2  526.34   10.86 
   0  -3  -1   17.73    2.46 
   0  -3  -1   18.18    2.25 
   0  -3   0    1.91    1.26 
   0  -3   1   18.94    3.14 
   0  -3   2   15.31    3.31 
   0  -3   3  269.33   12.52 
   0  -3   4  741.57   22.23 
   0  -3   4  740.71   16.28 
   0  -3   5  955.74   27.11 
   0  -3   5  971.28   19.86 
   0  -3   6    5.40    2.72 
   0  -3   6    1.05    3.34 
   0  -3   7  122.28   11.90 
   0  -3   7   76.77    7.06 
   0  -3   8  675.72   28.48 
   0  -3   9  116.13   13.39 
   0  -3  10   13.72    6.96 
   0  -2 -11  305.80   19.12 
   0  -2 -11  295.44   20.95 
   0  -2 -10   35.14    7.44 
   0  -2 -10   49.47    7.65 
   0  -2  -9   93.48   10.42 
   0  -2  -9  107.23    9.72 
   0  -2  -8  333.39   17.83 
   0  -2  -8  336.07   15.55 
   0  -2  -7  841.69   26.55 
   0  -2  -7  869.29   22.91 
   0  -2  -6 2416.51   41.05 
   0  -2  -6 2390.76   34.31 
   0  -2  -5  512.10   17.22 
   0  -2  -5  496.34   14.19 
   0  -2  -4    2.08    1.58 
   0  -2  -4    1.64    1.33 
   0  -2  -3   81.13    5.56 
   0  -2  -3   87.64    4.69 
   0  -2  -2  323.10    9.52 
   0  -2  -2  309.83    7.03 
   0  -2  -1    4.80    1.64 
   0  -2  -1    7.23    1.47 
   0  -2   0   54.33    3.32 
   0  -2   1 4928.19   36.31 
   0  -2   2  532.79   13.72 
   0  -2   2  508.85   10.21 
   0  -2   3  354.18   12.88 
   0  -2   3  352.47    9.54 
   0  -2   4  774.49   15.83 
   0  -2   4  777.97   20.72 
   0  -2   5  285.41   10.59 
   0  -2   5  275.13   13.68 
   0  -2   6   43.90    4.99 
   0  -2   6   50.93    6.77 
   0  -2   7  230.69   14.81 
   0  -2   7  198.50   11.03 
   0  -2   8  162.88   13.74 
   0  -2   8  106.92    8.88 
   0  -2   9  260.29   18.08 
   0  -2  10  151.46   15.09 
   0  -1 -11  222.71   18.50 
   0  -1 -11  232.70   17.43 
   0  -1 -10  327.16   20.53 
   0  -1 -10  343.78   19.09 
   0  -1  -9  254.70   15.45 
   0  -1  -9  258.94   16.99 
   0  -1  -8  355.41   18.32 
   0  -1  -8  377.16   17.21 
   0  -1  -7  177.63   12.06 
   0  -1  -7  180.63   10.91 
   0  -1  -6  778.80   22.88 
   0  -1  -6  797.09   20.80 
   0  -1  -5 1332.32   27.35 
   0  -1  -5 1337.12   24.22 
   0  -1  -4  356.49   12.47 
   0  -1  -4  321.64   10.42 
   0  -1  -3 1409.55   21.37 
   0  -1  -3 1368.25   18.21 
   0  -1  -2  641.14   12.17 
   0  -1  -2  638.67   10.03 
   0  -1  -1 4460.52   24.42 
   0  -1  -1 3253.00   15.81 
   0  -1   0  943.51    9.05 
   0  -1   1  116.19    4.49 
   0  -1   1  111.44    3.40 
   0  -1   2   53.35    4.20 
   0  -1   3  749.53   13.17 
   0  -1   3  719.82   16.27 
   0  -1   4 2207.70   26.29 
   0  -1   4 2221.25   32.30 
   0  -1   5   77.06    5.67 
   0  -1   5   85.08    7.39 
   0  -1   6   84.62    7.94 
   0  -1   6   82.32    6.66 
   0  -1   7   63.45    6.72 
   0  -1   7   81.52    8.79 
   0  -1   8   12.44    3.86 
   0  -1   8   13.43    5.22 
   0  -1   9   17.83    4.71 
   0  -1   9   17.98    5.48 
   0  -1  10   96.26   12.25 
   0   0 -11   56.20    9.11 
   0   0 -11   70.99   11.05 
   0   0 -10  265.01   18.51 
   0   0 -10  263.56   17.56 
   0   0  -9  275.44   16.60 
   0   0  -9  247.20   16.59 
   0   0  -8  339.07   17.98 
   0   0  -8  343.35   17.29 
   0   0  -7  806.63   25.61 
   0   0  -7  834.00   24.75 
   0   0  -6   27.68    4.36 
   0   0  -6   34.16    5.23 
   0   0  -5   40.47    4.69 
   0   0  -5   36.73    4.51 
   0   0  -4  819.18   18.71 
   0   0  -4  830.25   18.08 
   0   0  -3  714.73   14.94 
   0   0  -3  690.39   14.34 
   0   0  -2    5.86    1.57 
   0   0  -2    5.64    1.54 
   0   0  -1    0.11    0.43 
   0   0  -1   -0.71    0.52 
   0   0   1   -0.31    0.50 
   0   0   2    4.92    1.14 
   0   0   2    5.92    1.65 
   0   0   2    6.02    1.45 
   0   0   3  689.71   11.66 
   0   0   3  706.82   13.55 
   0   0   3  704.07   14.36 
   0   0   4  817.60   14.46 
   0   0   4  827.58   16.75 
   0   0   4  813.35   17.85 
   0   0   5   38.91    3.98 
   0   0   5   34.47    4.51 
   0   0   5   37.55    4.22 
   0   0   6   33.47    4.94 
   0   0   6   30.03    3.83 
   0   0   6   28.01    3.81 
   0   0   7  775.14   19.44 
   0   0   7  812.91   22.54 
   0   0   7  858.15   25.24 
   0   0   8  298.86   12.62 
   0   0   8  314.83   15.56 
   0   0   8  346.43   17.75 
   0   0   9  267.13   14.98 
   0   0   9  272.79   17.10 
   0   0  10  211.25   14.80 
   0   0  10  247.05   17.25 
   0   0  11   80.25   11.76 
   0   1 -10   97.35   11.95 
   0   1 -10   95.38   11.47 
   0   1  -9   31.42    6.76 
   0   1  -9   24.19    6.02 
   0   1  -8   20.53    5.18 
   0   1  -8   19.68    5.50 
   0   1  -7   73.77    8.13 
   0   1  -7   68.02    7.85 
   0   1  -7   70.17    5.68 
   0   1  -6   83.90    7.51 
   0   1  -6   86.70    7.85 
   0   1  -6   91.32    5.94 
   0   1  -5   79.58    6.58 
   0   1  -5   79.51    6.92 
   0   1  -5   83.81    5.29 
   0   1  -4 2223.84   31.07 
   0   1  -4 2229.34   32.45 
   0   1  -4 2242.57   24.39 
   0   1  -3  737.11   15.55 
   0   1  -3  722.00   16.35 
   0   1  -3  757.47   12.59 
   0   1  -2   58.34    3.91 
   0   1  -2   61.24    4.48 
   0   1  -2   52.79    3.06 
   0   1  -1  116.32    3.91 
   0   1  -1  116.20    4.62 
   0   1  -1  108.96    3.67 
   0   1   0  553.77    7.03 
   0   1   1 3603.87   17.83 
   0   1   1 3784.23   22.64 
   0   1   2  633.52   11.94 
   0   1   2  620.69    9.65 
   0   1   2  652.84   10.67 
   0   1   3 1373.29   17.87 
   0   1   3 1444.39   20.53 
   0   1   3 1370.68   17.89 
   0   1   4  338.37    9.89 
   0   1   4  344.56   11.48 
   0   1   4  330.67   10.64 
   0   1   5 1400.51   22.39 
   0   1   5 1396.00   25.65 
   0   1   5 1377.97   24.45 
   0   1   6  783.90   18.46 
   0   1   6  812.34   21.73 
   0   1   6  800.26   20.81 
   0   1   7  179.47    9.76 
   0   1   7  183.38   11.09 
   0   1   7  188.01   11.34 
   0   1   8  367.88   14.61 
   0   1   8  359.32   16.65 
   0   1   8  366.47   17.19 
   0   1   9  223.98   12.40 
   0   1   9  247.79   14.83 
   0   1  10  326.14   17.99 
   0   1  10  323.99   18.87 
   0   1  11  222.77   17.53 
   0   1  11  214.83   15.86 
   0   2 -10  120.81   13.17 
   0   2 -10  153.83   15.26 
   0   2  -9  257.69   17.13 
   0   2  -9  257.27   18.16 
   0   2  -8  130.71   11.67 
   0   2  -8  137.26   12.23 
   0   2  -7  238.68   14.84 
   0   2  -7  223.31   10.26 
   0   2  -6   55.47    6.88 
   0   2  -6   56.80    6.58 
   0   2  -6   50.30    4.84 
   0   2  -5  308.52   14.47 
   0   2  -5  284.79   12.93 
   0   2  -5  290.42   10.39 
   0   2  -4  773.53   19.13 
   0   2  -4  781.63   21.09 
   0   2  -4  790.66   16.10 
   0   2  -3  360.92   11.47 
   0   2  -3  359.81   13.00 
   0   2  -3  384.15   10.59 
   0   2  -2  522.45   11.70 
   0   2  -2  528.48   14.08 
   0   2  -2  522.51   11.47 
   0   2  -1 4983.86   31.08 
   0   2  -1 5113.97   28.42 
   0   2  -1 4929.94   34.23 
   0   2  -1 5099.66   37.87 
   0   2   0   62.25    3.32 
   0   2   0   62.87    3.73 
   0   2   0   62.52    3.45 
   0   2   0   63.88    4.09 
   0   2   1    5.27    1.46 
   0   2   1    3.95    1.81 
   0   2   1    6.78    1.89 
   0   2   2  300.64    7.32 
   0   2   2  318.29    9.82 
   0   2   2  308.29    9.22 
   0   2   3   89.36    4.61 
   0   2   3   92.28    5.85 
   0   2   3   91.71    5.64 
   0   2   4    6.59    2.08 
   0   2   4    5.67    2.18 
   0   2   4    2.32    1.66 
   0   2   5  526.67   14.74 
   0   2   5  507.11   16.30 
   0   2   5  524.06   14.30 
   0   2   6 2440.93   34.11 
   0   2   6 2514.42   39.35 
   0   2   6 2422.24   34.80 
   0   2   7  814.70   21.35 
   0   2   7  843.39   24.73 
   0   2   7  884.14   22.93 
   0   2   8  319.83   14.38 
   0   2   8  339.94   16.89 
   0   2   8  332.47   15.74 
   0   2   9   85.59    8.61 
   0   2   9   84.96    9.28 
   0   2   9  105.53   10.05 
   0   2  10   57.97    8.17 
   0   2  10   44.94    7.34 
   0   2  11  296.50   19.04 
   0   2  11  310.27   19.17 
   0   3 -10    0.28    4.58 
   0   3 -10   -2.70    5.92 
   0   3  -9  109.32   11.42 
   0   3  -9  106.90   12.63 
   0   3  -8  611.63   24.84 
   0   3  -8  662.15   28.47 
   0   3  -7   85.66    7.10 
   0   3  -7   88.30    8.78 
   0   3  -7  111.20   11.25 
   0   3  -6    2.64    2.68 
   0   3  -6    0.98    2.14 
   0   3  -6   -2.64    3.05 
   0   3  -5  938.36   23.91 
   0   3  -5  943.33   27.55 
   0   3  -5  978.10   21.14 
   0   3  -4  793.07   20.07 
   0   3  -4  753.65   22.91 
   0   3  -4  789.86   18.18 
   0   3  -3  302.62   11.04 
   0   3  -3  287.63   13.09 
   0   3  -3  292.14   10.75 
   0   3  -2   17.74    3.21 
   0   3  -2   15.65    2.52 
   0   3  -2   14.39    2.05 
   0   3  -2   15.56    2.84 
   0   3  -1   21.97    2.82 
   0   3  -1   22.50    3.21 
   0   3  -1   19.83    2.44 
   0   3  -1   22.56    2.58 
   0   3   0    2.77    1.56 
   0   3   0    1.54    1.10 
   0   3   0    1.93    1.51 
   0   3   0    1.65    1.12 
   0   3   1   19.13    2.89 
   0   3   1   16.36    2.24 
   0   3   1   17.45    2.55 
   0   3   2  515.10   11.50 
   0   3   2  528.40   14.27 
   0   3   2  534.19   14.21 
   0   3   3   11.13    2.04 
   0   3   3   16.11    3.02 
   0   3   3    8.25    2.12 
   0   3   4   50.96    4.13 
   0   3   4   56.54    5.64 
   0   3   4   49.76    5.22 
   0   3   5  114.34    7.75 
   0   3   5  114.05    6.53 
   0   3   5  117.15    8.70 
   0   3   6  337.00   13.76 
   0   3   6  341.22   15.28 
   0   3   6  340.72   12.51 
   0   3   7  842.09   22.89 
   0   3   7  790.47   24.77 
   0   3   7  826.04   21.62 
   0   3   8   54.24    6.65 
   0   3   8   52.66    6.31 
   0   3   8   53.20    7.48 
   0   3   9   15.15    4.53 
   0   3   9    9.74    3.92 
   0   3   9    0.58    4.06 
   0   3  10   16.98    4.56 
   0   3  10   17.93    4.57 
   0   3  10   24.62    6.15 
   0   3  11   80.91   10.75 
   0   3  11   74.74   10.80 
   0   4  -9  117.86   12.92 
   0   4  -9  127.19   14.60 
   0   4  -8   89.71    9.93 
   0   4  -8   96.83   11.77 
   0   4  -7  397.30   19.23 
   0   4  -7  407.42   22.23 
   0   4  -6  374.57   17.03 
   0   4  -6  374.06   15.10 
   0   4  -6  382.65   20.25 
   0   4  -5  445.65   17.13 
   0   4  -5  438.58   20.18 
   0   4  -5  473.93   16.75 
   0   4  -4  850.20   21.80 
   0   4  -4  851.39   17.78 
   0   4  -4  865.62   21.95 
   0   4  -4  804.46   25.50 
   0   4  -3 1202.07   23.83 
   0   4  -3 1125.88   27.98 
   0   4  -3 1146.77   19.57 
   0   4  -3 1163.34   24.60 
   0   4  -2 1170.80   21.46 
   0   4  -2 1140.54   26.00 
   0   4  -2 1169.75   19.60 
   0   4  -2 1151.06   24.04 
   0   4  -1   21.64    3.55 
   0   4  -1   24.29    3.17 
   0   4  -1   27.34    3.90 
   0   4  -1   22.26    3.01 
   0   4   0    8.09    2.95 
   0   4   0    5.35    1.92 
   0   4   0    8.46    2.39 
   0   4   1  311.90   11.34 
   0   4   1  333.85   11.17 
   0   4   1  317.91   12.64 
   0   4   2  588.18   14.25 
   0   4   2  573.22   16.56 
   0   4   2  602.10   17.29 
   0   4   3 1333.38   21.51 
   0   4   3 1264.90   26.40 
   0   4   3 1232.32   25.46 
   0   4   4   40.52    4.00 
   0   4   4   43.59    5.37 
   0   4   4   43.49    5.31 
   0   4   5   61.87    5.04 
   0   4   5   65.21    6.89 
   0   4   5   58.69    5.96 
   0   4   6  305.72   11.64 
   0   4   6  294.76   15.44 
   0   4   6  281.65   13.61 
   0   4   7  423.80   17.44 
   0   4   7  420.26   19.03 
   0   4   7  462.23   15.50 
   0   4   8   13.93    4.49 
   0   4   8   19.28    4.59 
   0   4   8   11.75    3.65 
   0   4   9    9.30    3.96 
   0   4   9    5.50    3.36 
   0   4   9    7.28    4.29 
   0   4  10  117.51   11.15 
   0   4  10  139.35   13.31 
   0   4  10  134.14   11.25 
   0   4  11   13.50    5.94 
   0   5  -8   85.84   10.39 
   0   5  -8   71.83   11.43 
   0   5  -7  150.21   12.08 
   0   5  -7  153.90   14.73 
   0   5  -6  819.61   26.66 
   0   5  -6  783.31   30.60 
   0   5  -6  802.78   24.60 
   0   5  -5  180.61   11.65 
   0   5  -5  168.81   13.78 
   0   5  -5  196.45   11.96 
   0   5  -4  215.81   11.72 
   0   5  -4  221.96    9.74 
   0   5  -4  217.44   14.49 
   0   5  -4  226.12   12.56 
   0   5  -3  505.44   20.60 
   0   5  -3  503.95   16.41 
   0   5  -3  512.87   14.72 
   0   5  -3  508.87   18.37 
   0   5  -2  731.27   19.03 
   0   5  -2  731.27   17.77 
   0   5  -2  780.60   22.53 
   0   5  -2  767.33   23.57 
   0   5  -1  240.94   10.61 
   0   5  -1  218.22   12.01 
   0   5  -1  222.35   10.06 
   0   5  -1  228.17   12.03 
   0   5   0   34.68    4.42 
   0   5   0   41.25    4.53 
   0   5   0   42.00    5.39 
   0   5   1  638.71   18.22 
   0   5   1  659.90   17.89 
   0   5   1  624.91   19.86 
   0   5   2 1233.35   23.73 
   0   5   2 1236.41   26.71 
   0   5   2 1161.56   27.37 
   0   5   3 2826.68   34.94 
   0   5   3 2823.02   43.33 
   0   5   3 2757.35   42.29 
   0   5   4 1237.82   23.32 
   0   5   4 1253.74   29.89 
   0   5   4 1241.99   29.77 
   0   5   5   43.05    4.87 
   0   5   5   45.49    6.04 
   0   5   5   47.06    6.31 
   0   5   6  208.40    9.79 
   0   5   6  194.84   13.28 
   0   5   6  185.40   11.81 
   0   5   7   81.30    6.70 
   0   5   7   76.45    8.83 
   0   5   7   84.09    8.59 
   0   5   8   41.40    6.34 
   0   5   8   24.58    4.63 
   0   5   8   40.42    7.21 
   0   5   9    1.19    4.21 
   0   5   9    3.70    3.65 
   0   5  10   42.76    8.20 
   0   5  10   31.04    6.79 
   0   5  11  111.53   13.22 
   0   6  -7  120.20   11.67 
   0   6  -7  140.02   15.19 
   0   6  -6  126.45   11.33 
   0   6  -6  133.51   13.70 
   0   6  -6  125.53   11.12 
   0   6  -5   37.86    6.55 
   0   6  -5   31.98    7.05 
   0   6  -5   22.93    5.04 
   0   6  -4   -3.92    4.16 
   0   6  -4   -1.52    2.96 
   0   6  -4    0.57    2.86 
   0   6  -3  294.67   17.08 
   0   6  -3  301.70   13.87 
   0   6  -3  315.50   12.90 
   0   6  -3  320.07   16.25 
   0   6  -2  416.15   16.09 
   0   6  -2  383.74   14.41 
   0   6  -2  365.23   17.93 
   0   6  -2  371.06   17.38 
   0   6  -1  637.56   19.00 
   0   6  -1  640.16   22.36 
   0   6  -1  633.83   18.75 
   0   6  -1  657.10   22.73 
   0   6   0  335.09   13.99 
   0   6   0  318.66   15.63 
   0   6   0  325.40   14.98 
   0   6   1  350.22   14.69 
   0   6   1  338.62   14.82 
   0   6   1  355.82   16.37 
   0   6   2 1033.13   24.14 
   0   6   2 1023.71   26.54 
   0   6   2 1009.89   27.82 
   0   6   3  420.25   18.28 
   0   6   3  411.82   14.95 
   0   6   3  403.03   18.02 
   0   6   4  508.12   16.40 
   0   6   4  526.35   20.94 
   0   6   4  488.72   20.18 
   0   6   5  524.26   16.83 
   0   6   5  519.15   21.71 
   0   6   5  517.70   21.27 
   0   6   6  272.35   11.46 
   0   6   6  301.55   17.32 
   0   6   6  302.52   16.53 
   0   6   7  104.01   10.90 
   0   6   7   83.03    9.26 
   0   6   8  261.79   17.89 
   0   6   8  254.52   16.15 
   0   6   9  566.90   25.01 
   0   6   9  507.31   25.33 
   0   6  10   -2.27    4.12 
   0   6  10    3.98    5.04 
   0   7  -6   78.86   11.92 
   0   7  -5   48.58    7.86 
   0   7  -5   51.62    9.28 
   0   7  -5   36.12    6.49 
   0   7  -4   22.18    5.91 
   0   7  -4   32.52    6.72 
   0   7  -4   25.11    5.37 
   0   7  -3   24.71    6.13 
   0   7  -3   11.71    4.26 
   0   7  -3   18.95    4.70 
   0   7  -3   20.73    4.27 
   0   7  -2  178.52   11.14 
   0   7  -2  180.67   13.90 
   0   7  -2  149.22   10.15 
   0   7  -2  158.67   12.59 
   0   7  -1  219.82   14.39 
   0   7  -1  221.52   12.38 
   0   7  -1  240.65   15.34 
   0   7   0  209.70   13.47 
   0   7   0  189.68   11.77 
   0   7   0  189.47   13.44 
   0   7   1  239.22   13.44 
   0   7   1  249.89   13.69 
   0   7   1  267.46   15.49 
   0   7   2 1064.55   27.29 
   0   7   2 1103.35   30.28 
   0   7   2 1066.68   31.25 
   0   7   3  363.81   18.14 
   0   7   3  346.20   15.09 
   0   7   3  336.43   18.09 
   0   7   4    7.59    4.08 
   0   7   4    2.03    2.30 
   0   7   4   12.04    5.09 
   0   7   5  164.14   10.20 
   0   7   5  165.87   13.23 
   0   7   5  165.45   13.28 
   0   7   6    5.92    3.02 
   0   7   6   11.92    3.43 
   0   7   7    5.23    4.29 
   0   7   7    6.10    5.25 
   0   7   8  176.49   15.77 
   0   7   8  184.88   14.79 
   0   7   9  749.62   30.22 
   0   7   9  711.29   31.36 
   0   7  10  415.44   23.18 
   0   7  10  436.12   25.75 
   0   8  -5   38.44    8.10 
   0   8  -5   29.76    8.06 
   0   8  -4  108.52   13.00 
   0   8  -4  130.88   13.32 
   0   8  -3   13.60    5.30 
   0   8  -3   25.94    7.25 
   0   8  -3   26.28    5.78 
   0   8  -2  154.47   13.65 
   0   8  -2  122.88    9.90 
   0   8  -2  135.23   12.89 
   0   8  -1  152.28   13.44 
   0   8  -1  196.78   12.69 
   0   8  -1  194.82   14.85 
   0   8   0   33.97    6.59 
   0   8   0   55.75    7.70 
   0   8   0   43.16    6.44 
   0   8   1    3.83    2.97 
   0   8   1   13.99    5.50 
   0   8   1   10.00    3.92 
   0   8   2   11.68    3.90 
   0   8   2   10.45    3.30 
   0   8   2   18.50    5.31 
   0   8   3   85.49    8.34 
   0   8   3   78.64    9.12 
   0   8   3   86.73   10.84 
   0   8   4  234.63   13.50 
   0   8   4  225.56   15.73 
   0   8   4  233.34   16.53 
   0   8   5  127.87    9.82 
   0   8   5  132.52   12.64 
   0   8   5  130.14   12.46 
   0   8   6   14.65    3.85 
   0   8   6   16.03    3.89 
   0   8   6   19.16    6.01 
   0   8   7   36.06    7.00 
   0   8   7   37.54    7.77 
   0   8   8  143.62   14.87 
   0   8   8  144.25   13.71 
   0   8   9   18.62    7.40 
   0   8   9    8.12    5.52 
   0   9  -3  209.66   18.01 
   0   9  -3  234.86   18.09 
   0   9  -2   96.14   11.89 
   0   9  -2   95.75   12.10 
   0   9  -1  140.95   13.23 
   0   9  -1  114.90   10.70 
   0   9  -1  137.39   13.67 
   0   9   0  399.41   21.42 
   0   9   0  406.23   20.03 
   0   9   0  430.29   23.60 
   0   9   1  373.39   19.84 
   0   9   1  378.92   20.11 
   0   9   1  400.84   22.88 
   0   9   2   43.85    7.81 
   0   9   2   32.95    6.59 
   0   9   2   39.08    7.43 
   0   9   3  104.29   10.14 
   0   9   3   89.32   10.73 
   0   9   3  106.87   12.13 
   0   9   4  146.85   13.66 
   0   9   4  154.29   11.92 
   0   9   4  168.72   15.14 
   0   9   5   70.35    9.96 
   0   9   5   71.78    8.47 
   0   9   5   72.62   10.72 
   0   9   6   11.02    5.23 
   0   9   6   18.84    5.73 
   0   9   7   58.18    9.76 
   0   9   7   61.58   10.39 
   0   9   8  200.43   18.40 
   0   9   8  233.76   19.49 
   0  10  -1   25.56    8.41 
   0  10  -1   22.71    7.14 
   0  10   0  114.51   12.80 
   0  10   0  107.58   13.50 
   0  10   1  121.55   12.60 
   0  10   1  149.15   13.89 
   0  10   1  148.34   15.39 
   0  10   2   98.21   11.24 
   0  10   2  103.99   12.31 
   0  10   2  114.85   14.02 
   0  10   3   12.62    6.87 
   0  10   3    6.54    4.25 
   0  10   3   18.42    5.78 
   0  10   4   88.52    9.96 
   0  10   4  109.73   13.91 
   0  10   4   76.08   10.89 
   0  10   5  187.95   16.74 
   0  10   5  228.71   19.44 
   0  10   6   89.77   12.77 
   0  10   6  120.19   14.27 
   1 -10  -4    8.49    6.45 
   1 -10  -3   26.62    7.48 
   1 -10  -2  262.57   19.22 
   1 -10  -1  150.50   15.00 
   1  -9  -7   53.42   10.28 
   1  -9  -6  111.92   13.15 
   1  -9  -5  407.41   23.13 
   1  -9  -4  101.23   11.94 
   1  -9  -3    4.29    4.65 
   1  -9  -2    5.89    5.25 
   1  -9  -1    8.11    5.16 
   1  -9  -1    1.04    3.85 
   1  -9   0   22.59    7.27 
   1  -9   0   28.63    6.25 
   1  -9   1    3.52    3.98 
   1  -9   1   16.42    6.25 
   1  -9   2    6.62    5.61 
   1  -9   2   15.51    6.61 
   1  -9   3   76.52   10.75 
   1  -8  -8   44.32   10.40 
   1  -8  -7   97.20   12.73 
   1  -8  -6  155.04   14.97 
   1  -8  -5   77.37   10.10 
   1  -8  -4  476.28   23.14 
   1  -8  -3  332.22   19.43 
   1  -8  -2   20.56    5.53 
   1  -8  -2   24.07    5.06 
   1  -8  -1    5.18    3.66 
   1  -8  -1   -1.08    2.89 
   1  -8   0   99.24   10.93 
   1  -8   0   86.64    8.85 
   1  -8   1   73.45    9.89 
   1  -8   1  105.03   10.15 
   1  -8   2   46.96    7.69 
   1  -8   3   29.54    6.98 
   1  -8   4  224.75   17.00 
   1  -7  -9  190.86   17.78 
   1  -7  -8  226.24   18.28 
   1  -7  -8  203.91   14.89 
   1  -7  -7  364.17   21.93 
   1  -7  -6  539.06   25.34 
   1  -7  -5  151.42   13.27 
   1  -7  -4  112.16   11.13 
   1  -7  -3  283.47   17.16 
   1  -7  -2    2.42    2.97 
   1  -7  -2   -0.78    2.38 
   1  -7  -1  144.99   11.69 
   1  -7  -1  140.51    9.28 
   1  -7   0  703.51   25.50 
   1  -7   0  732.89   22.35 
   1  -7   1  573.30   23.41 
   1  -7   1  534.77   20.49 
   1  -7   2  197.60   13.54 
   1  -7   3   70.38    8.56 
   1  -7   4  179.51   14.65 
   1  -7   5   16.52    6.94 
   1  -7   6   47.62    9.52 
   1  -6 -10   21.35    8.07 
   1  -6  -9  128.65   14.05 
   1  -6  -9  115.40   11.28 
   1  -6  -8  157.92   14.96 
   1  -6  -8  151.01   12.09 
   1  -6  -7  168.22   14.82 
   1  -6  -7  143.01   11.75 
   1  -6  -6   36.11    6.94 
   1  -6  -5  457.17   21.51 
   1  -6  -4  544.45   22.35 
   1  -6  -3  149.96   11.60 
   1  -6  -3  162.56    7.39 
   1  -6  -2    5.55    2.60 
   1  -6  -2    4.49    2.16 
   1  -6  -1  162.92   11.90 
   1  -6  -1  163.89    8.93 
   1  -6   0  943.17   27.91 
   1  -6   0  948.51   22.85 
   1  -6   1  553.91   18.35 
   1  -6   2  644.93   22.39 
   1  -6   3  336.03   17.58 
   1  -6   4  176.03   13.88 
   1  -6   5  180.09   15.04 
   1  -6   6   48.65    9.80 
   1  -6   7  121.21   14.03 
   1  -5 -10    6.62    4.81 
   1  -5 -10   16.65    5.92 
   1  -5  -9  152.83   14.60 
   1  -5  -9  136.99   11.76 
   1  -5  -8  342.55   20.74 
   1  -5  -8  339.25   17.54 
   1  -5  -7   61.00    7.35 
   1  -5  -7   56.15    8.17 
   1  -5  -6   90.84   10.14 
   1  -5  -5    1.48    3.51 
   1  -5  -4  433.12   19.04 
   1  -5  -3   40.82    6.35 
   1  -5  -3   39.93    3.25 
   1  -5  -2  255.45   13.59 
   1  -5  -2  266.75    8.67 
   1  -5  -1  403.83   16.69 
   1  -5  -1  404.00   12.21 
   1  -5   0  247.87   13.35 
   1  -5   0  244.86   10.38 
   1  -5   1  845.70   21.49 
   1  -5   2  997.52   25.77 
   1  -5   3  436.87   18.86 
   1  -5   4    9.10    4.94 
   1  -5   5  200.30   14.74 
   1  -5   6  283.93   18.48 
   1  -5   7   97.86   12.42 
   1  -5   8  182.83   17.60 
   1  -4 -10   46.78    9.17 
   1  -4 -10   36.72    7.42 
   1  -4  -9  140.34   13.67 
   1  -4  -9  120.22   11.24 
   1  -4  -8  435.15   22.46 
   1  -4  -8  453.08   19.76 
   1  -4  -7    3.19    3.44 
   1  -4  -7    3.73    3.61 
   1  -4  -6   12.99    4.69 
   1  -4  -6   12.72    3.92 
   1  -4  -5    7.82    3.63 
   1  -4  -4  109.43    9.26 
   1  -4  -3   84.74    7.89 
   1  -4  -3   85.01    3.39 
   1  -4  -2  659.37   19.96 
   1  -4  -2  646.38   10.92 
   1  -4  -1 1124.95   25.35 
   1  -4  -1 1067.25   16.74 
   1  -4   0    3.81    1.93 
   1  -4   1   20.12    3.55 
   1  -4   2  183.97   10.28 
   1  -4   3  169.01   11.04 
   1  -4   4   30.10    5.86 
   1  -4   5    5.02    3.72 
   1  -4   6  507.49   23.43 
   1  -4   7  668.98   28.60 
   1  -4   8  157.30   15.26 
   1  -4   9    8.00    5.40 
   1  -3 -11   57.57   10.16 
   1  -3 -11   65.89    9.95 
   1  -3 -10   70.30   10.31 
   1  -3 -10   66.80    8.87 
   1  -3  -9  190.66   15.43 
   1  -3  -9  198.95   13.84 
   1  -3  -8  383.58   20.16 
   1  -3  -8  383.95   18.17 
   1  -3  -7  214.22   14.18 
   1  -3  -7  220.99   13.04 
   1  -3  -6  148.29   11.41 
   1  -3  -6  156.02   10.48 
   1  -3  -5  207.99   12.60 
   1  -3  -5  247.69   12.41 
   1  -3  -4   37.07    5.16 
   1  -3  -3 1041.20   24.08 
   1  -3  -2 1207.52   24.86 
   1  -3  -2 1099.18   10.03 
   1  -3  -1  446.35   14.61 
   1  -3  -1  405.76    8.12 
   1  -3   0  474.56   11.41 
   1  -3   1   65.38    5.16 
   1  -3   2   88.74    6.74 
   1  -3   3   22.86    4.12 
   1  -3   4   91.57    8.05 
   1  -3   5   43.73    6.44 
   1  -3   6    6.37    3.92 
   1  -3   7  656.20   26.76 
   1  -3   8  337.56   20.69 
   1  -3   9  110.19   13.29 
   1  -2 -11   76.31   11.19 
   1  -2 -11   70.98   10.59 
   1  -2 -10   60.00    9.93 
   1  -2 -10   71.63    9.21 
   1  -2  -9  123.15   12.59 
   1  -2  -9  137.35   11.83 
   1  -2  -8   10.76    4.60 
   1  -2  -8   11.31    4.01 
   1  -2  -7  367.77   18.17 
   1  -2  -7  370.91   16.83 
   1  -2  -6 1524.62   34.70 
   1  -2  -6 1552.63   32.05 
   1  -2  -5 1090.18   26.94 
   1  -2  -5 1103.93   25.26 
   1  -2  -4  664.30   19.35 
   1  -2  -4  649.60   18.18 
   1  -2  -3 3345.91   40.05 
   1  -2  -2 6016.83   50.18 
   1  -2  -1   65.34    5.26 
   1  -2  -1   56.79    2.18 
   1  -2   0   79.31    3.94 
   1  -2   1    2.83    1.40 
   1  -2   2  386.44   12.07 
   1  -2   3 1090.08   22.85 
   1  -2   4  469.82   16.70 
   1  -2   5  930.26   25.95 
   1  -2   6  141.89   11.08 
   1  -2   7   11.80    4.48 
   1  -2   8    7.81    4.26 
   1  -2   9   56.16    8.82 
   1  -2  10   25.54    7.62 
   1  -1 -11   30.44    8.37 
   1  -1 -11   49.99    9.10 
   1  -1 -10   83.68   10.84 
   1  -1 -10   87.46   10.85 
   1  -1  -9  175.66   14.33 
   1  -1  -9  213.24   14.93 
   1  -1  -8   74.76    8.55 
   1  -1  -8   62.71    7.95 
   1  -1  -7  136.47   11.02 
   1  -1  -7  144.21   10.69 
   1  -1  -6 1061.08   27.71 
   1  -1  -6 1039.56   26.46 
   1  -1  -5  752.38   21.58 
   1  -1  -5  794.17   21.35 
   1  -1  -4  448.15   15.02 
   1  -1  -4  418.90   14.44 
   1  -1  -3  393.63   12.72 
   1  -1  -3  381.49   12.63 
   1  -1  -2 5238.33   40.95 
   1  -1  -1 9999.00   54.23 
   1  -1   0   58.76    2.82 
   1  -1   1    2.58    1.54 
   1  -1   2  685.97   14.80 
   1  -1   3 2369.91   31.59 
   1  -1   4  386.83    7.75 
   1  -1   4  414.66   14.71 
   1  -1   5  884.32   14.43 
   1  -1   5  886.76   23.58 
   1  -1   6 1561.94   22.45 
   1  -1   6 1519.72   33.90 
   1  -1   7  136.40    7.55 
   1  -1   7  111.74   10.52 
   1  -1   8  106.56    7.61 
   1  -1   8  124.71   11.55 
   1  -1   9  189.03   15.55 
   1  -1  10   38.65    8.38 
   1   0 -10    2.52    5.32 
   1   0 -10    4.34    3.96 
   1   0  -9   42.74    7.30 
   1   0  -9   26.37    5.99 
   1   0  -8  199.14   14.03 
   1   0  -8  195.18   13.98 
   1   0  -7  522.76   20.70 
   1   0  -7  523.16   21.19 
   1   0  -6  661.64   21.59 
   1   0  -6  674.84   21.81 
   1   0  -5 1118.24   25.25 
   1   0  -5 1169.72   26.34 
   1   0  -4  275.78   11.20 
   1   0  -4  250.86   11.32 
   1   0  -3   52.57    4.60 
   1   0  -3   50.55    4.70 
   1   0  -2 1104.26   17.07 
   1   0  -2 1108.47   18.67 
   1   0  -1 1517.55   17.26 
   1   0   1 1033.05   14.15 
   1   0   2 4059.17   20.47 
   1   0   2 4642.86   35.59 
   1   0   3 2285.73   18.93 
   1   0   3 2285.20   28.76 
   1   0   4 4036.18   29.81 
   1   0   4 3921.47   42.70 
   1   0   5  982.43   17.21 
   1   0   5  952.53   23.48 
   1   0   6  243.14    9.93 
   1   0   6  224.09   12.50 
   1   0   7   20.54    4.85 
   1   0   7   22.06    3.66 
   1   0   8  172.35    9.94 
   1   0   8  168.89   12.72 
   1   0   9  520.71   18.59 
   1   0   9  551.67   24.50 
   1   0  10  154.24   14.13 
   1   0  11  162.95   15.82 
   1   1 -10  297.14   19.43 
   1   1 -10  330.40   21.23 
   1   1  -9   10.61    4.70 
   1   1  -9   10.01    5.46 
   1   1  -8    4.51    2.82 
   1   1  -8   -0.30    3.77 
   1   1  -7  200.53   13.05 
   1   1  -7  192.07   13.43 
   1   1  -6  278.23   13.76 
   1   1  -6  305.30   15.47 
   1   1  -5  247.95   11.61 
   1   1  -5  245.47   12.67 
   1   1  -4    3.30    2.03 
   1   1  -4    3.56    2.07 
   1   1  -3   50.81    4.20 
   1   1  -3   56.31    5.17 
   1   1  -2  595.40   11.60 
   1   1  -2  573.73   13.74 
   1   1  -1  560.75    8.59 
   1   1  -1  565.12   11.67 
   1   1   0  301.95    6.86 
   1   1   1 1652.90   17.33 
   1   1   1 1697.96   15.72 
   1   1   2  658.40   11.41 
   1   1   2  664.68    8.90 
   1   1   3   64.82    4.89 
   1   1   3   77.60    4.43 
   1   1   3   74.86    2.91 
   1   1   4 1783.17   15.38 
   1   1   4 1849.29   28.12 
   1   1   4 1857.06   23.78 
   1   1   5 2882.71   22.00 
   1   1   5 3016.79   39.68 
   1   1   6   26.95    4.57 
   1   1   6   18.50    2.12 
   1   1   6   26.63    3.54 
   1   1   7   17.67    4.16 
   1   1   7   18.21    3.51 
   1   1   8  106.01    8.24 
   1   1   8  112.17   10.36 
   1   1   9  239.51   13.80 
   1   1   9  259.23   16.34 
   1   1  10  330.92   16.48 
   1   1  10  344.03   20.29 
   1   1  11  211.03   17.55 
   1   2 -10  251.70   17.94 
   1   2 -10  287.14   21.14 
   1   2  -9  753.95   28.89 
   1   2  -9  822.04   32.61 
   1   2  -9  758.42   25.05 
   1   2  -8  130.83   11.29 
   1   2  -8  133.19   12.61 
   1   2  -8  149.16   10.80 
   1   2  -7   68.57    7.62 
   1   2  -7   74.17    8.62 
   1   2  -7   73.27    7.24 
   1   2  -6  551.33   19.11 
   1   2  -6  551.01   21.88 
   1   2  -6  580.34   18.81 
   1   2  -5  108.53    7.68 
   1   2  -5  120.58    9.80 
   1   2  -5  122.33    8.23 
   1   2  -4    7.14    2.16 
   1   2  -4    7.92    2.24 
   1   2  -4   10.58    3.23 
   1   2  -3   43.22    3.76 
   1   2  -3   46.80    4.93 
   1   2  -3   36.12    4.10 
   1   2  -2  337.99    7.98 
   1   2  -2  326.55   11.04 
   1   2  -2  327.09   11.46 
   1   2  -1    6.12    1.90 
   1   2  -1    5.91    0.83 
   1   2  -1    7.09    1.74 
   1   2   0 1170.34   15.15 
   1   2   0 1179.37   18.02 
   1   2   0 1191.71   18.05 
   1   2   1 6411.05   40.29 
   1   2   1 6231.55   38.66 
   1   2   2    1.97    1.35 
   1   2   2    2.28    1.37 
   1   2   3    3.39    1.33 
   1   2   3    0.26    1.31 
   1   2   4   14.06    3.05 
   1   2   4   14.21    2.07 
   1   2   4   13.00    2.60 
   1   2   5  233.89   11.02 
   1   2   5  250.81   10.79 
   1   2   5  259.26    8.42 
   1   2   6   18.98    3.76 
   1   2   6   15.52    2.33 
   1   2   6   21.19    3.67 
   1   2   7   10.12    2.35 
   1   2   7   13.77    3.82 
   1   2   7   12.26    3.72 
   1   2   8  166.35    8.38 
   1   2   8  195.55   11.80 
   1   2   8  184.02   12.77 
   1   2   9   62.93    8.00 
   1   2   9   54.89    7.01 
   1   2  10  275.23   16.12 
   1   2  10  292.53   17.97 
   1   2  11  194.47   14.52 
   1   2  11  206.58   16.18 
   1   3  -9  229.92   16.22 
   1   3  -9  263.84   19.61 
   1   3  -8  429.14   20.38 
   1   3  -8  416.34   22.87 
   1   3  -8  430.04   18.65 
   1   3  -7   65.34    7.75 
   1   3  -7   83.52    9.94 
   1   3  -7   89.89    8.44 
   1   3  -6  175.22   11.04 
   1   3  -6  174.40   13.13 
   1   3  -6  189.52   11.09 
   1   3  -5  211.68   10.73 
   1   3  -5  226.57   13.64 
   1   3  -5  222.21   11.52 
   1   3  -4  868.29   19.17 
   1   3  -4  842.20   24.30 
   1   3  -4  860.11   21.70 
   1   3  -3 1069.49   18.10 
   1   3  -3 1061.21   24.84 
   1   3  -3 1080.09   23.15 
   1   3  -2   73.08    3.83 
   1   3  -2   68.33    6.08 
   1   3  -2   75.47    5.93 
   1   3  -1  832.70   17.68 
   1   3  -1  851.60    9.37 
   1   3  -1  853.61   17.87 
   1   3  -1  815.64   18.17 
   1   3   0 2640.89   30.20 
   1   3   0 2710.87   31.72 
   1   3   0 2699.73   27.22 
   1   3   1 3014.16   32.82 
   1   3   1 3082.36   33.29 
   1   3   2   -0.21    1.56 
   1   3   2    3.81    0.80 
   1   3   2    3.64    1.79 
   1   3   3  178.30    8.72 
   1   3   3  170.28    8.01 
   1   3   4   46.23    4.14 
   1   3   4   38.50    4.46 
   1   3   5   11.87    2.81 
   1   3   5   12.03    2.56 
   1   3   5    8.62    2.57 
   1   3   6  295.81   13.19 
   1   3   6  296.41   13.79 
   1   3   6  279.07   10.97 
   1   3   7   75.52    6.17 
   1   3   7   77.86    7.34 
   1   3   7   83.43    7.88 
   1   3   8  105.93    7.49 
   1   3   8  105.97    9.20 
   1   3   8  115.27    9.76 
   1   3   9  221.86   14.25 
   1   3   9  229.94   14.88 
   1   3  10   27.58    6.36 
   1   3  10   32.75    6.94 
   1   3  11   30.33    7.16 
   1   3  11   17.31    5.88 
   1   4  -9   31.64    7.29 
   1   4  -9   26.09    7.51 
   1   4  -8  123.88   11.15 
   1   4  -8  141.03   15.02 
   1   4  -8  122.21   10.43 
   1   4  -7  274.24   15.17 
   1   4  -7  294.99   19.16 
   1   4  -7  300.43   15.56 
   1   4  -6   11.50    4.34 
   1   4  -6   10.43    3.87 
   1   4  -6   -1.27    3.61 
   1   4  -5  150.69    9.15 
   1   4  -5  148.55   11.77 
   1   4  -5  144.30    9.69 
   1   4  -4 1021.25   20.91 
   1   4  -4 1006.41   28.34 
   1   4  -4 1038.67   25.66 
   1   4  -3 2069.60   26.04 
   1   4  -3 1983.78   37.07 
   1   4  -3 2061.64   34.82 
   1   4  -2  308.35   13.39 
   1   4  -2  344.22   12.79 
   1   4  -2  337.10    8.96 
   1   4  -2  340.70   13.66 
   1   4  -1  738.19   11.25 
   1   4  -1  686.18   18.16 
   1   4  -1  703.75   17.73 
   1   4  -1  683.02   18.77 
   1   4   0 2641.12   31.65 
   1   4   0 2580.68   33.35 
   1   4   0 2537.33   36.08 
   1   4   1 1159.36   18.20 
   1   4   1 1119.65   22.61 
   1   4   1 1106.33   23.36 
   1   4   2 2139.16   32.44 
   1   4   2 2205.12   21.26 
   1   4   2 2253.09   32.85 
   1   4   3  523.76    9.19 
   1   4   3  512.41   16.41 
   1   4   3  546.12   16.28 
   1   4   4    2.73    1.76 
   1   4   4    5.98    2.75 
   1   4   5  138.10    9.79 
   1   4   5  119.25    7.78 
   1   4   6  493.61   17.19 
   1   4   6  485.95   18.93 
   1   4   6  477.56   16.07 
   1   4   7  537.60   18.96 
   1   4   7  528.88   20.81 
   1   4   7  520.49   17.36 
   1   4   8   59.14    7.20 
   1   4   8   43.78    5.57 
   1   4   8   39.67    6.27 
   1   4   9  215.93   12.20 
   1   4   9  259.61   16.11 
   1   4   9  252.16   15.26 
   1   4  10  146.60   12.97 
   1   4  10  138.18   12.65 
   1   4  11   56.01    8.34 
   1   4  11   64.51   10.35 
   1   5  -8   16.39    6.77 
   1   5  -7   49.89    7.59 
   1   5  -7   50.06    9.27 
   1   5  -7   60.36    7.66 
   1   5  -6    9.25    3.35 
   1   5  -6    6.79    4.12 
   1   5  -6    5.79    3.19 
   1   5  -5   69.21    6.49 
   1   5  -5   76.18    9.31 
   1   5  -5   73.01    8.00 
   1   5  -4 1145.44   32.83 
   1   5  -4 1208.42   27.42 
   1   5  -4 1138.72   23.75 
   1   5  -4 1180.75   29.87 
   1   5  -3  869.46   17.97 
   1   5  -3  840.77   26.29 
   1   5  -3  901.40   23.06 
   1   5  -3  881.43   25.04 
   1   5  -2  769.44   14.99 
   1   5  -2  778.88   23.47 
   1   5  -2  759.23   20.25 
   1   5  -2  762.18   23.05 
   1   5  -1  443.98   16.18 
   1   5  -1  444.61   15.29 
   1   5  -1  470.23   17.49 
   1   5   0  443.28   14.69 
   1   5   0  447.70   15.62 
   1   5   0  442.30   16.86 
   1   5   1    4.94    2.46 
   1   5   1    6.06    2.02 
   1   5   1    7.48    3.05 
   1   5   2  134.46    6.58 
   1   5   2  133.54    8.75 
   1   5   2  127.05    8.97 
   1   5   3 1141.11   17.21 
   1   5   3 1114.43   26.49 
   1   5   3 1093.14   25.96 
   1   5   4  536.36   11.21 
   1   5   4  556.21   19.53 
   1   5   4  562.92   18.69 
   1   5   5  773.55   24.62 
   1   5   5  747.01   21.98 
   1   5   6  882.42   27.27 
   1   5   6  834.61   23.64 
   1   5   7 1339.21   30.34 
   1   5   7 1288.91   34.30 
   1   5   7 1299.60   30.21 
   1   5   8  541.74   20.51 
   1   5   8  536.29   23.56 
   1   5   8  533.68   20.03 
   1   5   9   13.46    5.03 
   1   5   9   17.20    4.99 
   1   5   9    9.83    4.96 
   1   5  10    4.79    5.15 
   1   5  10   -0.51    5.27 
   1   5  11  117.25   12.93 
   1   5  11  130.38   12.79 
   1   6  -7   84.64   10.84 
   1   6  -7   50.70    9.07 
   1   6  -6   41.29    7.68 
   1   6  -6   22.63    6.75 
   1   6  -5    1.28    3.57 
   1   6  -5    2.65    4.07 
   1   6  -5    1.28    2.80 
   1   6  -5    3.66    3.40 
   1   6  -4  136.05   12.41 
   1   6  -4  150.04   10.11 
   1   6  -4  140.14    8.88 
   1   6  -4  152.31   11.99 
   1   6  -3  115.18   10.61 
   1   6  -3  103.00    6.75 
   1   6  -3  120.50   10.68 
   1   6  -3  117.38    8.95 
   1   6  -2  192.73    8.61 
   1   6  -2  177.08   12.20 
   1   6  -2  205.37   11.56 
   1   6  -2  204.58   13.02 
   1   6  -1  212.95   12.42 
   1   6  -1  207.94   11.75 
   1   6  -1  206.32   12.77 
   1   6   0   21.85    3.74 
   1   6   0   26.44    4.72 
   1   6   0   25.42    4.31 
   1   6   1  436.99   15.17 
   1   6   1  448.90   17.59 
   1   6   1  439.19   18.65 
   1   6   2  257.31   10.57 
   1   6   2  247.29   13.38 
   1   6   2  247.01   13.85 
   1   6   3  139.32    7.24 
   1   6   3  139.59   10.30 
   1   6   3  135.58   10.40 
   1   6   4  349.92   10.80 
   1   6   4  358.09   16.82 
   1   6   4  354.68   16.30 
   1   6   5  162.49    7.09 
   1   6   5  182.19   12.83 
   1   6   5  190.72   12.22 
   1   6   6  253.72   15.71 
   1   6   6  247.99   14.22 
   1   6   7  537.81   19.66 
   1   6   7  512.99   22.95 
   1   6   7  503.14   20.84 
   1   6   8 1220.32   31.00 
   1   6   8 1227.86   37.49 
   1   6   8 1187.34   32.38 
   1   6   9  137.73   11.39 
   1   6   9  135.04   13.42 
   1   6   9  136.29   11.59 
   1   6  10    4.99    5.60 
   1   6  10   -0.38    4.75 
   1   6  10    1.43    4.77 
   1   6  11  123.50   14.10 
   1   7  -6  218.21   18.43 
   1   7  -6  234.90   17.18 
   1   7  -5  397.44   23.62 
   1   7  -5  418.03   21.56 
   1   7  -4   24.98    6.60 
   1   7  -4   18.95    4.71 
   1   7  -4   16.07    5.56 
   1   7  -3   70.04    9.13 
   1   7  -3   87.75    8.51 
   1   7  -3   90.29   10.28 
   1   7  -2  106.47   10.39 
   1   7  -2  108.26    9.51 
   1   7  -2  112.36   10.91 
   1   7  -1    4.58    3.71 
   1   7  -1    2.51    3.42 
   1   7  -1    3.59    3.00 
   1   7   0  262.45   14.24 
   1   7   0  259.63   14.40 
   1   7   0  253.84   16.01 
   1   7   1    7.71    3.72 
   1   7   1   -0.46    2.21 
   1   7   1   -0.55    3.09 
   1   7   2  640.79   18.89 
   1   7   2  646.85   23.19 
   1   7   2  637.45   24.34 
   1   7   3  490.41   15.46 
   1   7   3  502.81   20.82 
   1   7   3  495.99   21.46 
   1   7   4  435.09   13.83 
   1   7   4  455.47   20.55 
   1   7   4  444.46   20.21 
   1   7   5   89.03    9.85 
   1   7   5   83.37    8.91 
   1   7   6   73.14    8.63 
   1   7   6   50.23    7.54 
   1   7   7   48.99    7.41 
   1   7   7   56.81    8.57 
   1   7   8    5.42    4.80 
   1   7   8    6.43    4.91 
   1   7   8    3.95    4.60 
   1   7   9   52.97    8.09 
   1   7   9   56.44    9.47 
   1   7  10   77.66    9.84 
   1   7  10   97.19   12.64 
   1   8  -5  160.06   16.61 
   1   8  -5  174.07   15.95 
   1   8  -4   62.68    9.59 
   1   8  -4   51.97    9.37 
   1   8  -3   26.02    7.02 
   1   8  -3   29.16    7.60 
   1   8  -3   22.02    6.57 
   1   8  -2  268.91   17.63 
   1   8  -2  287.92   15.98 
   1   8  -2  273.96   18.20 
   1   8  -1  396.32   20.05 
   1   8  -1  400.70   18.99 
   1   8  -1  402.07   21.58 
   1   8   0  196.40   13.68 
   1   8   0  217.34   14.21 
   1   8   0  214.61   15.81 
   1   8   1   32.56    5.34 
   1   8   1   36.30    7.19 
   1   8   1   32.18    5.46 
   1   8   2   25.31    5.56 
   1   8   2   32.17    5.41 
   1   8   2   26.45    6.56 
   1   8   3  547.74   18.39 
   1   8   3  554.04   23.67 
   1   8   3  538.10   24.24 
   1   8   4  122.92    8.42 
   1   8   4  122.86   12.19 
   1   8   4  129.82   12.00 
   1   8   5    6.60    3.68 
   1   8   5    4.44    4.22 
   1   8   6   46.83    8.09 
   1   8   6   38.39    7.42 
   1   8   7  195.71   15.95 
   1   8   7  207.50   15.84 
   1   8   8   -4.49    5.74 
   1   8   8    0.79    4.40 
   1   8   9   -0.90    5.65 
   1   8   9    4.29    6.42 
   1   9  -4   60.32   10.55 
   1   9  -3   30.35    8.64 
   1   9  -3   16.61    6.81 
   1   9  -2   19.49    6.75 
   1   9  -2   14.86    5.80 
   1   9  -2   29.75    6.49 
   1   9  -1  183.48   14.92 
   1   9  -1  195.47   14.30 
   1   9  -1  202.78   16.69 
   1   9   0  460.97   21.99 
   1   9   0  490.55   22.67 
   1   9   0  487.82   25.31 
   1   9   1  334.38   17.63 
   1   9   1  352.22   19.37 
   1   9   1  349.56   20.94 
   1   9   2  115.76   10.18 
   1   9   2  119.01   11.84 
   1   9   2  122.60   12.64 
   1   9   3  402.73   17.57 
   1   9   3  422.68   22.28 
   1   9   3  400.22   22.44 
   1   9   4  168.52   14.98 
   1   9   4  165.99   15.01 
   1   9   5   28.27    6.78 
   1   9   5   27.66    7.13 
   1   9   6   22.81    6.78 
   1   9   6    6.64    5.29 
   1   9   7    2.58    5.00 
   1   9   7    2.28    4.93 
   1   9   8   35.50    8.36 
   1   9   8   50.39   10.17 
   1  10  -2  150.15   15.47 
   1  10  -1  244.62   18.32 
   1  10  -1  242.64   17.22 
   1  10  -1  276.89   20.56 
   1  10   0   85.87   11.81 
   1  10   0   90.36   11.52 
   1  10   0   91.01   11.28 
   1  10   1  197.16   14.60 
   1  10   1  209.47   16.18 
   1  10   1  227.76   18.80 
   1  10   2  293.52   17.27 
   1  10   2  319.59   20.17 
   1  10   2  321.22   21.61 
   1  10   3   46.46    8.59 
   1  10   3   60.64    9.99 
   1  10   4  109.92   13.32 
   1  10   4   98.79   12.49 
   1  10   5  206.97   17.74 
   1  10   5  199.36   17.87 
   1  10   6  129.33   14.31 
   1  10   6  163.09   16.23 
   1  10   7    1.58    6.19 
   2  -9  -4   24.98    7.63 
   2  -9  -3   59.78   10.30 
   2  -9  -2  108.15   13.23 
   2  -9  -1  141.40   14.85 
   2  -9   0   15.34    6.74 
   2  -9   1   -5.93    4.91 
   2  -8  -7  140.76   16.23 
   2  -8  -6   30.71    8.36 
   2  -8  -5   39.79    8.79 
   2  -8  -4  129.57   13.88 
   2  -8  -3  107.88   12.84 
   2  -8  -2  356.66   21.93 
   2  -8  -1  449.94   24.31 
   2  -8   0  319.89   20.99 
   2  -8   1   24.85    6.12 
   2  -8   1   19.89    6.77 
   2  -8   2   11.66    5.34 
   2  -8   2    6.75    5.62 
   2  -8   3   34.57    7.71 
   2  -7  -8   12.51    7.92 
   2  -7  -8   -5.74    5.83 
   2  -7  -7   78.66   11.68 
   2  -7  -6  328.62   21.59 
   2  -7  -5  227.44   17.63 
   2  -7  -4  279.94   18.85 
   2  -7  -3   75.08   10.09 
   2  -7  -2  149.02   13.70 
   2  -7  -1  326.17   19.91 
   2  -7   0  106.12   11.80 
   2  -7   0  100.45    8.65 
   2  -7   1  173.06   14.54 
   2  -7   1  180.33   12.15 
   2  -7   2  108.17   10.27 
   2  -7   3  138.09   12.25 
   2  -7   4  125.62   12.79 
   2  -7   5  231.57   18.60 
   2  -6  -9    6.48    6.90 
   2  -6  -9    3.07    5.42 
   2  -6  -8   13.38    6.42 
   2  -6  -8   -0.40    4.50 
   2  -6  -7    3.63    5.08 
   2  -6  -7   -4.89    4.20 
   2  -6  -6   89.62   10.95 
   2  -6  -5  371.41   20.88 
   2  -6  -4  188.10   14.94 
   2  -6  -3  181.21   14.81 
   2  -6  -2   33.08    6.64 
   2  -6  -1   26.91    6.71 
   2  -6  -1   20.85    3.75 
   2  -6   0   80.68   10.09 
   2  -6   0   92.98    7.14 
   2  -6   1  401.75   16.30 
   2  -6   2  154.47   11.24 
   2  -6   3    5.91    4.01 
   2  -6   4  498.91   23.21 
   2  -6   5  439.71   23.27 
   2  -6   6  104.74   13.20 
   2  -5  -9   98.27   11.69 
   2  -5  -9   98.03   12.99 
   2  -5  -8   48.02    9.15 
   2  -5  -8   44.79    8.15 
   2  -5  -7   83.08   10.19 
   2  -5  -7   69.70    9.81 
   2  -5  -6  103.18   10.88 
   2  -5  -5  284.88   17.51 
   2  -5  -4   62.86    8.53 
   2  -5  -3  189.36   14.01 
   2  -5  -2   57.44    8.03 
   2  -5  -1  173.32   13.08 
   2  -5  -1  180.83    7.75 
   2  -5   0    4.82    2.54 
   2  -5   0   -0.42    2.68 
   2  -5   1  368.54   14.63 
   2  -5   2  271.70   13.70 
   2  -5   3    5.17    2.97 
   2  -5   4  182.98   13.42 
   2  -5   5  804.19   29.35 
   2  -5   6  116.90   12.38 
   2  -5   7   13.82    6.53 
   2  -4 -10   57.56   10.97 
   2  -4 -10   63.66    9.62 
   2  -4  -9  406.18   24.25 
   2  -4  -9  445.15   23.14 
   2  -4  -8  315.04   20.40 
   2  -4  -8  330.09   19.32 
   2  -4  -7  277.81   18.36 
   2  -4  -7  285.86   17.41 
   2  -4  -6  198.41   14.73 
   2  -4  -6  199.64   13.91 
   2  -4  -5   38.21    6.64 
   2  -4  -4  187.23   13.37 
   2  -4  -3   61.51    7.87 
   2  -4  -2   36.86    6.26 
   2  -4  -1   16.33    2.26 
   2  -4  -1    9.12    3.39 
   2  -4   0  343.31   11.27 
   2  -4   1  454.01   14.72 
   2  -4   2  171.47   10.21 
   2  -4   3  217.23   12.87 
   2  -4   4   12.14    4.22 
   2  -4   5   -3.08    3.70 
   2  -4   6  216.04   15.81 
   2  -4   7  163.46   14.96 
   2  -4   8   32.77    8.45 
   2  -3 -10   68.59   11.15 
   2  -3 -10   80.58   10.62 
   2  -3  -9   45.68    8.50 
   2  -3  -9   48.53    7.76 
   2  -3  -8  606.91   27.04 
   2  -3  -8  653.14   26.61 
   2  -3  -7  873.67   31.03 
   2  -3  -7  936.96   30.25 
   2  -3  -6  264.39   16.22 
   2  -3  -6  262.44   15.37 
   2  -3  -5   22.59    5.16 
   2  -3  -5   27.06    5.49 
   2  -3  -4 1133.17   30.16 
   2  -3  -3  986.74   27.45 
   2  -3  -2  128.81    9.79 
   2  -3  -1  134.60   10.08 
   2  -3  -1  144.30    5.16 
   2  -3   0 1370.29   20.27 
   2  -3   1 1139.59   21.49 
   2  -3   2  731.02   19.32 
   2  -3   3  965.97   24.48 
   2  -3   4  369.20   16.92 
   2  -3   5   63.98    7.78 
   2  -3   6   -1.89    3.84 
   2  -3   7   28.76    6.44 
   2  -3   8  124.93   13.63 
   2  -3   9   33.72    8.20 
   2  -2 -10  262.33   19.78 
   2  -2 -10  289.59   19.72 
   2  -2  -9   27.75    7.48 
   2  -2  -9   33.77    7.66 
   2  -2  -8  157.08   13.76 
   2  -2  -8  184.16   14.09 
   2  -2  -7  401.44   20.32 
   2  -2  -7  434.38   20.39 
   2  -2  -6    3.67    3.45 
   2  -2  -6    2.08    3.14 
   2  -2  -5    3.73    2.83 
   2  -2  -5    5.39    3.05 
   2  -2  -4  401.64   17.06 
   2  -2  -3 2941.71   43.44 
   2  -2  -2 1920.75   33.85 
   2  -2  -1 1179.88   26.19 
   2  -2  -1 1155.86   13.19 
   2  -2   0 1111.83   16.79 
   2  -2   1  533.62   13.72 
   2  -2   2 1154.23   22.86 
   2  -2   3  155.86    9.43 
   2  -2   4  368.56   15.75 
   2  -2   5  364.53   16.90 
   2  -2   6  143.08   11.73 
   2  -2   7  341.53   19.13 
   2  -2   8  324.65   20.06 
   2  -2   9  144.22   14.82 
   2  -2  10   10.77    6.39 
   2  -1 -10   -5.46    4.59 
   2  -1 -10    3.87    4.64 
   2  -1  -9  165.99   15.15 
   2  -1  -9  169.81   14.49 
   2  -1  -8  235.25   15.97 
   2  -1  -8  260.14   16.84 
   2  -1  -7   99.55    9.90 
   2  -1  -7   97.23    9.90 
   2  -1  -6    7.24    3.23 
   2  -1  -6    2.80    2.61 
   2  -1  -5  113.61    9.29 
   2  -1  -5  104.93    9.08 
   2  -1  -4    4.37    1.86 
   2  -1  -4    2.07    2.24 
   2  -1  -3   48.23    5.18 
   2  -1  -2 3045.87   38.93 
   2  -1  -1 4347.66   45.62 
   2  -1   0  730.78   13.45 
   2  -1   1  503.36   12.70 
   2  -1   2 1680.39   26.06 
   2  -1   3 1083.87   23.37 
   2  -1   4   38.11    5.17 
   2  -1   5  220.49   12.82 
   2  -1   6  160.45   11.72 
   2  -1   7  825.12   28.29 
   2  -1   8  955.95   32.46 
   2  -1   9  234.18   17.58 
   2  -1  10  171.21   16.51 
   2   0 -10   42.02    8.21 
   2   0 -10   49.82    9.66 
   2   0  -9    1.37    3.60 
   2   0  -9    3.09    3.82 
   2   0  -8  106.25   10.70 
   2   0  -8   83.62    9.87 
   2   0  -7    4.60    3.35 
   2   0  -7    1.03    3.31 
   2   0  -6   43.50    6.28 
   2   0  -6   34.96    5.67 
   2   0  -5  383.48   16.10 
   2   0  -5  346.70   16.46 
   2   0  -4  591.91   18.23 
   2   0  -4  613.48   20.22 
   2   0  -3   73.06    6.25 
   2   0  -3   84.20    7.23 
   2   0  -2  321.63   11.46 
   2   0  -2  311.11   12.43 
   2   0  -1 1298.37   22.14 
   2   0   2  196.00    6.57 
   2   0   2  212.11    9.24 
   2   0   3 1523.50   17.01 
   2   0   3 1588.06   27.52 
   2   0   4 1312.26   16.27 
   2   0   4 1300.61   27.32 
   2   0   5  122.73    5.57 
   2   0   5  140.40    9.92 
   2   0   6  283.63    9.10 
   2   0   6  303.92   15.67 
   2   0   7  475.39   20.96 
   2   0   8  534.35   23.50 
   2   0   9  118.91   12.54 
   2   0  10  161.29   15.14 
   2   0  11   98.88   13.61 
   2   1 -10  199.10   16.29 
   2   1 -10  193.89   17.23 
   2   1  -9   20.85    5.75 
   2   1  -9   19.36    7.12 
   2   1  -8   30.92    5.63 
   2   1  -8   39.46    7.03 
   2   1  -7  119.95   10.31 
   2   1  -7  123.37   11.49 
   2   1  -6  373.07   16.46 
   2   1  -6  369.64   18.23 
   2   1  -5  301.46   13.52 
   2   1  -5  275.35   14.61 
   2   1  -4  117.44    7.96 
   2   1  -4  108.18    8.71 
   2   1  -3  766.64   17.83 
   2   1  -3  744.52   20.75 
   2   1  -2  391.43   11.35 
   2   1  -2  388.74   13.81 
   2   1  -1  563.53   12.62 
   2   1  -1  523.88   14.88 
   2   1   2  133.63    6.43 
   2   1   2  129.90    5.53 
   2   1   3  113.29    7.35 
   2   1   3  108.70    5.74 
   2   1   3  118.30    4.51 
   2   1   4 1222.86   26.03 
   2   1   4 1210.10   19.21 
   2   1   5  106.63    8.56 
   2   1   5  113.50    6.41 
   2   1   6  374.54   12.31 
   2   1   6  372.60   16.76 
   2   1   7  254.39   10.96 
   2   1   7  275.14   15.52 
   2   1   8   -3.97    3.72 
   2   1   8    7.10    2.85 
   2   1   9  134.11   12.75 
   2   1  10  177.24   15.53 
   2   1  11   53.82    9.84 
   2   2  -9  230.20   15.85 
   2   2  -9  247.95   19.08 
   2   2  -9  251.69   16.37 
   2   2  -8   12.39    5.56 
   2   2  -8    4.65    3.51 
   2   2  -8    3.98    4.25 
   2   2  -7  334.75   16.53 
   2   2  -7  364.35   20.10 
   2   2  -6 1013.62   26.31 
   2   2  -6 1022.18   31.47 
   2   2  -5 1278.29   26.71 
   2   2  -5 1273.33   32.71 
   2   2  -4  428.86   13.85 
   2   2  -4  415.16   17.11 
   2   2  -3  144.35    7.16 
   2   2  -3  135.35    9.00 
   2   2  -2  418.45   10.54 
   2   2  -2  409.61   14.48 
   2   2  -1  459.59    9.30 
   2   2  -1  431.36   13.36 
   2   2   0  974.62   17.51 
   2   2   0  935.80   19.48 
   2   2   1  238.62    7.61 
   2   2   1  219.39    9.39 
   2   2   1  222.48    9.06 
   2   2   2   52.68    4.37 
   2   2   2   57.76    4.17 
   2   2   3  870.91   18.06 
   2   2   3  966.82   15.93 
   2   2   4  491.77   14.12 
   2   2   4  493.05   10.76 
   2   2   5  708.92   21.31 
   2   2   5  677.79   17.42 
   2   2   5  689.26   11.68 
   2   2   6  197.58   11.96 
   2   2   6  211.86   10.55 
   2   2   7   96.08    8.97 
   2   2   7   78.26    6.99 
   2   2   8    5.12    3.06 
   2   2   8    7.13    3.03 
   2   2   9    8.04    4.33 
   2   2   9    7.81    3.57 
   2   2  10   56.29    8.85 
   2   2  10   51.54    7.15 
   2   2  11    3.91    5.19 
   2   3  -9  180.28   14.44 
   2   3  -9  195.82   18.07 
   2   3  -9  205.15   15.29 
   2   3  -8  105.48   10.17 
   2   3  -8  115.18   12.77 
   2   3  -8  126.69   11.69 
   2   3  -7  173.34   11.90 
   2   3  -7  195.40   15.55 
   2   3  -7  206.29   13.72 
   2   3  -6  597.49   19.84 
   2   3  -6  610.80   25.27 
   2   3  -6  631.27   23.28 
   2   3  -5  885.68   21.59 
   2   3  -5  852.40   28.07 
   2   3  -5  925.62   26.91 
   2   3  -4  826.15   18.12 
   2   3  -4  815.68   25.28 
   2   3  -4  813.85   24.09 
   2   3  -3    9.69    2.64 
   2   3  -3   12.84    2.11 
   2   3  -3   15.62    3.90 
   2   3  -2  171.36    5.59 
   2   3  -2  166.57    9.69 
   2   3  -2  168.36   10.04 
   2   3  -1  774.66   18.67 
   2   3  -1  827.35   20.78 
   2   3   0 1441.96   21.94 
   2   3   0 1409.10   25.99 
   2   3   1 3144.75   27.21 
   2   3   1 3069.29   37.52 
   2   3   2 1567.74   26.40 
   2   3   2 1609.23   25.08 
   2   3   3  655.57   17.75 
   2   3   3  710.16   16.35 
   2   3   4  241.59   10.96 
   2   3   4  258.81    9.57 
   2   3   5 1191.06   25.51 
   2   3   5 1193.23   20.18 
   2   3   6  282.03   14.54 
   2   3   6  287.33   13.48 
   2   3   6  259.82    9.54 
   2   3   7   35.14    5.83 
   2   3   7   31.86    5.06 
   2   3   7   33.43    3.74 
   2   3   8  100.92   10.04 
   2   3   8  105.94    9.12 
   2   3   9  225.88   13.93 
   2   3   9  229.51   15.75 
   2   3  10  149.63   12.23 
   2   3  10  143.94   13.50 
   2   3  11   26.58    7.40 
   2   3  11   25.31    5.79 
   2   4  -8   97.41   12.85 
   2   4  -8  115.76   11.74 
   2   4  -7    8.12    4.22 
   2   4  -7    8.13    4.04 
   2   4  -7    9.19    5.02 
   2   4  -6  171.09   10.52 
   2   4  -6  179.53   14.74 
   2   4  -6  187.53   13.29 
   2   4  -5  433.94   14.70 
   2   4  -5  419.42   20.67 
   2   4  -5  415.64   18.82 
   2   4  -4  273.92   10.16 
   2   4  -4  251.15   14.82 
   2   4  -4  262.87   14.32 
   2   4  -3  120.38    5.47 
   2   4  -3  122.36    9.87 
   2   4  -3  125.69    9.56 
   2   4  -2   98.18    8.32 
   2   4  -2   99.06    8.21 
   2   4  -1  382.78   13.97 
   2   4  -1  393.66   15.74 
   2   4   0   48.72    4.79 
   2   4   0   50.83    5.77 
   2   4   0   49.46    5.43 
   2   4   1 1615.80   21.75 
   2   4   1 1550.04   28.98 
   2   4   1 1561.43   29.08 
   2   4   2 3239.38   24.04 
   2   4   2 3199.60   42.13 
   2   4   2 3228.90   40.58 
   2   4   3  670.24   19.69 
   2   4   3  692.13   18.38 
   2   4   4  643.86   19.71 
   2   4   4  511.90   16.12 
   2   4   5 1110.75   26.71 
   2   4   5 1165.87   23.47 
   2   4   6 1094.97   28.83 
   2   4   6 1098.80   28.26 
   2   4   6 1132.51   23.25 
   2   4   7    1.20    3.13 
   2   4   7    3.21    2.19 
   2   4   7    4.29    3.12 
   2   4   8    5.98    4.31 
   2   4   8   11.82    3.84 
   2   4   8    5.84    3.93 
   2   4   9  210.68   14.96 
   2   4   9  223.82   14.84 
   2   4  10  340.29   18.94 
   2   4  10  343.40   19.81 
   2   4  11  290.06   18.04 
   2   4  11  304.20   20.18 
   2   5  -8  128.52   15.17 
   2   5  -8  126.74   12.36 
   2   5  -7   12.35    5.46 
   2   5  -7   10.48    5.99 
   2   5  -6    3.13    3.63 
   2   5  -6   20.59    6.65 
   2   5  -5   29.65    6.01 
   2   5  -5   28.14    6.26 
   2   5  -4    4.94    4.10 
   2   5  -4    1.46    2.80 
   2   5  -3  101.88    9.40 
   2   5  -3  115.47   10.07 
   2   5  -2  157.04   10.76 
   2   5  -2  172.05   10.97 
   2   5  -2  174.22   11.82 
   2   5  -1  321.30   13.93 
   2   5  -1  352.47   15.42 
   2   5  -1  331.53   15.45 
   2   5   0 1046.40   22.65 
   2   5   0 1010.94   25.28 
   2   5   0 1027.17   26.42 
   2   5   1  889.75   18.50 
   2   5   1  837.97   22.94 
   2   5   1  843.96   23.61 
   2   5   2  402.21   10.23 
   2   5   2  408.97   16.42 
   2   5   2  410.95   16.18 
   2   5   3    9.51    3.21 
   2   5   3   11.95    4.03 
   2   5   4   25.36    4.87 
   2   5   4   30.08    4.67 
   2   5   5   93.72    8.64 
   2   5   5   91.03    7.49 
   2   5   6  437.87   19.00 
   2   5   6  424.58   16.26 
   2   5   7 1324.40   33.59 
   2   5   7 1338.21   34.96 
   2   5   7 1263.14   28.25 
   2   5   8  245.39   15.10 
   2   5   8  236.63   15.46 
   2   5   8  231.24   12.20 
   2   5   9  119.75   11.32 
   2   5   9  111.99   11.19 
   2   5  10  231.56   16.57 
   2   5  10  260.91   17.56 
   2   5  11  229.27   16.87 
   2   5  11  245.18   17.97 
   2   6  -7  201.52   18.59 
   2   6  -7  216.35   16.49 
   2   6  -6   87.12   11.61 
   2   6  -6   93.56   10.88 
   2   6  -5   -2.65    3.91 
   2   6  -5   -3.91    4.70 
   2   6  -5    1.63    3.25 
   2   6  -4   77.03    8.91 
   2   6  -4   62.21    8.20 
   2   6  -4   77.75    8.80 
   2   6  -3  236.10   15.42 
   2   6  -3  249.19   14.47 
   2   6  -3  282.09   16.35 
   2   6  -2   52.75    7.27 
   2   6  -2   51.84    6.95 
   2   6  -2   48.46    6.37 
   2   6  -1  148.69   10.46 
   2   6  -1  136.66   10.44 
   2   6  -1  134.32   10.84 
   2   6   0  367.98   14.87 
   2   6   0  373.02   16.86 
   2   6   0  387.96   17.95 
   2   6   1 1212.28   24.07 
   2   6   1 1191.97   29.85 
   2   6   1 1190.81   31.13 
   2   6   2  135.18    7.11 
   2   6   2  119.22    9.71 
   2   6   2  139.90   10.83 
   2   6   3   47.96    6.00 
   2   6   3   43.33    6.11 
   2   6   4   24.90    5.01 
   2   6   4   28.92    5.65 
   2   6   5   24.66    4.98 
   2   6   5   21.48    5.44 
   2   6   6   -0.34    2.94 
   2   6   6    3.48    4.15 
   2   6   7  136.51   12.28 
   2   6   7  130.93   10.20 
   2   6   8  444.47   20.61 
   2   6   8  423.75   21.61 
   2   6   8  418.42   18.36 
   2   6   9  174.19   13.92 
   2   6   9  154.70   13.90 
   2   6   9  158.64   11.60 
   2   6  10  196.56   15.27 
   2   6  10  158.29   14.10 
   2   7  -6  118.75   14.00 
   2   7  -6  121.18   12.07 
   2   7  -6  149.78   14.49 
   2   7  -5   -1.46    5.34 
   2   7  -5    6.65    5.89 
   2   7  -5    4.91    4.40 
   2   7  -4  197.27   16.20 
   2   7  -4  202.74   14.02 
   2   7  -4  211.40   15.88 
   2   7  -3  992.42   30.04 
   2   7  -3 1050.65   34.27 
   2   7  -2  699.72   25.84 
   2   7  -2  711.47   24.99 
   2   7  -2  695.01   27.47 
   2   7  -1   98.37    9.29 
   2   7  -1   91.21    8.85 
   2   7  -1   81.59    9.58 
   2   7   0    3.92    3.33 
   2   7   0   -1.40    2.68 
   2   7   0    0.53    4.36 
   2   7   1  105.73    8.22 
   2   7   1  132.76   10.88 
   2   7   1  108.29   10.09 
   2   7   2   51.69    7.76 
   2   7   2   47.01    5.10 
   2   7   2   51.57    7.08 
   2   7   3   22.03    5.54 
   2   7   3   16.59    3.08 
   2   7   3   21.17    4.92 
   2   7   4   12.26    3.99 
   2   7   4    6.56    3.74 
   2   7   5   94.15    9.65 
   2   7   5   86.68    9.11 
   2   7   6  375.40   20.18 
   2   7   6  383.36   18.73 
   2   7   7   53.33    7.58 
   2   7   7   65.07    9.20 
   2   7   8  114.01   11.12 
   2   7   8  131.86   13.12 
   2   7   8   99.79   10.71 
   2   7   9   61.19    8.12 
   2   7   9   65.96    8.43 
   2   7   9   68.06    9.97 
   2   7  10   -1.42    4.72 
   2   7  10    1.16    5.88 
   2   8  -5  104.17   13.55 
   2   8  -5  111.04   13.47 
   2   8  -4  130.86   13.96 
   2   8  -4  169.27   13.60 
   2   8  -4  163.84   15.42 
   2   8  -3  241.06   17.48 
   2   8  -3  256.62   16.42 
   2   8  -3  242.26   17.95 
   2   8  -2  210.81   15.46 
   2   8  -2  214.41   15.29 
   2   8  -2  239.07   17.67 
   2   8  -1  664.71   25.34 
   2   8  -1  685.69   26.35 
   2   8  -1  725.61   29.31 
   2   8   0  229.61   14.23 
   2   8   0  254.08   16.43 
   2   8   0  252.11   17.12 
   2   8   1    1.65    2.39 
   2   8   1    9.04    4.05 
   2   8   2  263.05   12.73 
   2   8   2  296.10   17.40 
   2   8   2  269.21   17.89 
   2   8   3  254.33   16.52 
   2   8   3  233.26   16.22 
   2   8   4  130.37   12.19 
   2   8   4  105.81   10.84 
   2   8   5   40.19    7.10 
   2   8   5   44.28    7.72 
   2   8   6  134.49   13.09 
   2   8   6  123.21   11.66 
   2   8   7  238.23   17.89 
   2   8   7  221.85   15.92 
   2   8   8  172.90   16.26 
   2   8   8  171.58   14.13 
   2   8   9   83.06   10.34 
   2   8   9  128.98   12.92 
   2   8   9  115.41   14.05 
   2   9  -3  144.74   15.28 
   2   9  -3  153.78   13.74 
   2   9  -3  176.17   16.65 
   2   9  -2   85.43   11.06 
   2   9  -2   93.69   11.35 
   2   9  -2   99.39   13.16 
   2   9  -1   79.56   10.87 
   2   9  -1   70.09    9.41 
   2   9  -1   99.97   11.34 
   2   9   0  167.93   13.09 
   2   9   0  199.74   15.26 
   2   9   0  199.11   16.20 
   2   9   1   31.93    7.23 
   2   9   1   41.60    6.68 
   2   9   2   91.27    8.55 
   2   9   2  116.31   12.18 
   2   9   2  108.99   12.40 
   2   9   3  388.33   21.74 
   2   9   3  417.04   23.33 
   2   9   4  468.92   24.28 
   2   9   4  517.05   25.62 
   2   9   5  355.16   21.80 
   2   9   5  354.61   21.16 
   2   9   6   24.00    6.23 
   2   9   6   42.25    8.55 
   2   9   7  180.26   16.97 
   2   9   7  173.38   15.23 
   2   9   8  264.08   20.57 
   2   9   8  269.46   19.24 
   2  10  -1   42.39    9.48 
   2  10  -1   35.11    8.57 
   2  10  -1   36.24    9.07 
   2  10   0   21.37    7.66 
   2  10   0   10.49    5.11 
   2  10   0   15.12    5.64 
   2  10   1   92.51   10.15 
   2  10   1  131.58   13.66 
   2  10   1  117.34   14.48 
   2  10   2   56.56    9.54 
   2  10   2   58.94    9.62 
   2  10   3  286.07   19.95 
   2  10   3  292.13   21.12 
   2  10   4  439.71   25.25 
   2  10   4  403.68   24.17 
   2  10   5  118.94   13.92 
   2  10   5  126.27   13.91 
   2  10   6   14.47    6.61 
   2  10   6   18.97    8.02 
   2  10   7   47.19   10.69 
   3  -8  -4    8.39    4.88 
   3  -8  -3    3.62    5.23 
   3  -8  -2   64.15   11.37 
   3  -8  -1  200.34   18.97 
   3  -8   0  196.46   18.62 
   3  -8   1   67.75   12.03 
   3  -7  -6    6.48    5.46 
   3  -7  -5   72.35   12.06 
   3  -7  -4    7.94    5.86 
   3  -7  -3   -9.01    4.51 
   3  -7  -2  128.35   14.03 
   3  -7  -1  235.66   19.22 
   3  -7   0  247.34   19.33 
   3  -7   1   27.77    7.62 
   3  -7   2   40.31    7.32 
   3  -7   3  236.34   16.62 
   3  -6  -7    5.89    5.27 
   3  -6  -7    7.72    5.00 
   3  -6  -6   63.85   10.00 
   3  -6  -5   26.92    7.51 
   3  -6  -4   43.40    8.85 
   3  -6  -3   19.30    5.40 
   3  -6  -2    8.66    5.18 
   3  -6  -1  128.40   13.67 
   3  -6   0  205.36   16.98 
   3  -6   1   61.88    7.31 
   3  -6   2   20.41    5.38 
   3  -6   3  107.51   11.03 
   3  -6   4  234.87   16.78 
   3  -6   5   19.95    7.58 
   3  -5  -8   -2.29    6.37 
   3  -5  -8    8.73    6.10 
   3  -5  -7    3.42    5.20 
   3  -5  -7    0.83    4.36 
   3  -5  -6   91.60   12.37 
   3  -5  -5  126.77   13.07 
   3  -5  -4   62.52    9.32 
   3  -5  -3  361.44   21.12 
   3  -5  -2  201.23   15.74 
   3  -5  -1  221.85   16.24 
   3  -5   0   90.51   11.10 
   3  -5   0   91.64    7.05 
   3  -5   1   12.27    3.98 
   3  -5   2   -1.02    3.06 
   3  -5   3   59.27    8.43 
   3  -5   4   16.51    5.68 
   3  -5   5  241.46   16.92 
   3  -5   6  370.85   22.19 
   3  -4  -8   68.84   10.61 
   3  -4  -8   68.45   10.44 
   3  -4  -7   98.93   12.06 
   3  -4  -7  109.08   12.48 
   3  -4  -6  205.01   16.29 
   3  -4  -6  192.99   15.84 
   3  -4  -5  910.36   32.51 
   3  -4  -4  336.18   19.52 
   3  -4  -3   25.72    5.88 
   3  -4  -2  197.93   14.89 
   3  -4  -1  388.35   20.70 
   3  -4   0  204.13    9.19 
   3  -4   1  108.38    7.89 
   3  -4   2  641.54   20.90 
   3  -4   3  158.55   11.34 
   3  -4   4   31.93    6.04 
   3  -4   5  139.68   12.65 
   3  -4   6  188.02   15.45 
   3  -4   7   58.02    9.68 
   3  -3  -9    7.53    5.07 
   3  -3  -9    7.81    5.72 
   3  -3  -8   80.96   11.02 
   3  -3  -8   60.15    9.30 
   3  -3  -7   51.99    8.61 
   3  -3  -7   44.23    8.22 
   3  -3  -6   55.21    8.84 
   3  -3  -6   65.09    9.53 
   3  -3  -5  654.61   26.53 
   3  -3  -5  644.71   26.37 
   3  -3  -4 1846.32   42.31 
   3  -3  -3  444.48   20.93 
   3  -3  -2  127.75   11.39 
   3  -3  -1   90.41    9.81 
   3  -3   0   40.77    4.05 
   3  -3   1  305.27   12.22 
   3  -3   2  422.29   15.97 
   3  -3   3  678.65   22.22 
   3  -3   4  476.52   19.87 
   3  -3   5  581.78   23.78 
   3  -3   6  350.30   19.98 
   3  -3   7   68.69   10.59 
   3  -3   8    7.09    5.38 
   3  -2  -9   65.71   10.86 
   3  -2  -9   55.18    9.59 
   3  -2  -8  169.25   15.39 
   3  -2  -8  173.47   15.23 
   3  -2  -7  122.85   12.37 
   3  -2  -7  121.69   12.04 
   3  -2  -6  201.02   14.96 
   3  -2  -6  182.75   14.41 
   3  -2  -5    2.16    3.24 
   3  -2  -5    1.64    3.21 
   3  -2  -4    8.41    3.59 
   3  -2  -3  793.50   26.33 
   3  -2  -2  431.12   18.96 
   3  -2  -1   16.13    4.67 
   3  -2  -1   22.39    2.85 
   3  -2   0  128.56    6.88 
   3  -2   1 1918.72   29.62 
   3  -2   2  834.34   21.66 
   3  -2   3   68.89    7.24 
   3  -2   4  464.02   18.92 
   3  -2   5  339.35   17.43 
   3  -2   6  407.16   20.48 
   3  -2   7  238.97   16.83 
   3  -2   8  182.88   16.02 
   3  -2   9   59.15   10.94 
   3  -1  -9  124.38   13.20 
   3  -1  -9  120.01   13.36 
   3  -1  -8   47.82    9.01 
   3  -1  -8   62.97    9.60 
   3  -1  -7  182.32   14.57 
   3  -1  -7  198.28   15.37 
   3  -1  -6  370.68   19.50 
   3  -1  -6  441.53   21.94 
   3  -1  -5  116.50   10.46 
   3  -1  -5  112.33   10.72 
   3  -1  -4  109.58    9.79 
   3  -1  -4  120.57   10.62 
   3  -1  -3   81.42    8.17 
   3  -1  -2  157.70   10.75 
   3  -1  -1  188.27   11.85 
   3  -1   0   32.87    3.98 
   3  -1   1  828.39   19.19 
   3  -1   2 1767.65   30.71 
   3  -1   3  448.77   10.19 
   3  -1   3  501.86   17.64 
   3  -1   4  208.69   12.52 
   3  -1   5   60.09    7.52 
   3  -1   6   31.64    5.91 
   3  -1   7  219.44   16.02 
   3  -1   8  102.53   11.84 
   3  -1   9  228.18   18.20 
   3  -1  10  100.39   13.16 
   3   0  -9  180.88   15.67 
   3   0  -9  180.46   16.27 
   3   0  -8  132.50   12.43 
   3   0  -8  124.34   12.84 
   3   0  -7  273.84   16.71 
   3   0  -7  305.01   19.06 
   3   0  -6   37.93    6.83 
   3   0  -6   38.19    7.10 
   3   0  -5    2.97    3.55 
   3   0  -5    8.57    3.22 
   3   0  -4  118.55    9.51 
   3   0  -4  128.26   10.83 
   3   0  -3  234.20   12.33 
   3   0  -3  257.68   14.51 
   3   0  -2  340.68   14.58 
   3   0  -1   67.94    6.56 
   3   0   2  107.36    7.63 
   3   0   3  529.28   12.83 
   3   0   3  554.95   18.44 
   3   0   4    3.06    2.68 
   3   0   4    2.26    1.38 
   3   0   5   23.42    5.03 
   3   0   6    1.91    3.21 
   3   0   7   43.24    7.15 
   3   0   8  265.22   18.03 
   3   0   9  286.64   19.85 
   3   0  10   74.74   11.45 
   3   1  -9   26.84    8.00 
   3   1  -9   20.09    6.90 
   3   1  -8  262.73   17.02 
   3   1  -8  286.86   19.90 
   3   1  -7  582.94   23.41 
   3   1  -7  583.53   26.34 
   3   1  -6  171.18   12.06 
   3   1  -6  191.90   14.55 
   3   1  -5    0.83    2.60 
   3   1  -5    5.18    4.41 
   3   1  -4  226.28   12.40 
   3   1  -4  232.76   14.11 
   3   1  -3  612.44   18.33 
   3   1  -3  597.91   21.48 
   3   1  -2  588.91   17.39 
   3   1  -2  583.91   19.83 
   3   1  -1 1504.97   27.60 
   3   1  -1 1661.71   31.33 
   3   1   3  220.69   11.79 
   3   1   3  199.21    8.19 
   3   1   3  202.42    8.82 
   3   1   4   59.58    6.86 
   3   1   4   65.60    5.13 
   3   1   4   57.13    3.78 
   3   1   5   38.23    6.11 
   3   1   5   24.36    3.32 
   3   1   6   74.11    5.92 
   3   1   6   71.52    8.25 
   3   1   7   14.54    4.87 
   3   1   8  246.86   16.94 
   3   1   9  154.19   14.38 
   3   1  10   17.46    6.82 
   3   2  -9    1.28    4.63 
   3   2  -9    8.87    6.57 
   3   2  -8   98.67   10.58 
   3   2  -8  107.43   12.86 
   3   2  -7  180.66   12.69 
   3   2  -7  188.52   15.39 
   3   2  -6  111.83    9.45 
   3   2  -6  129.12   12.25 
   3   2  -5  244.45   12.54 
   3   2  -5  226.47   15.15 
   3   2  -4  198.42   10.71 
   3   2  -4  203.69   13.40 
   3   2  -3  592.10   16.75 
   3   2  -3  583.48   21.07 
   3   2  -2  951.16   19.61 
   3   2  -2  940.72   24.97 
   3   2  -1 2730.18   31.89 
   3   2  -1 2621.59   38.94 
   3   2   0 1863.25   30.71 
   3   2   2   88.34    6.81 
   3   2   2   96.11    6.63 
   3   2   3   58.10    5.26 
   3   2   3   47.12    4.45 
   3   2   4  902.06   20.60 
   3   2   4  870.42   16.61 
   3   2   5  129.62   10.41 
   3   2   5  120.02    7.78 
   3   2   5  119.68    5.51 
   3   2   6   53.83    7.62 
   3   2   6   54.23    5.79 
   3   2   7  535.89   22.98 
   3   2   7  537.53   17.72 
   3   2   8  659.93   20.44 
   3   2   8  688.96   27.46 
   3   2   9  153.80   14.15 
   3   2  10   -4.06    5.66 
   3   3  -8   -0.76    4.68 
   3   3  -8    9.54    6.28 
   3   3  -7   65.31   10.08 
   3   3  -7   44.03    6.75 
   3   3  -7   52.98    9.68 
   3   3  -6   97.14    8.32 
   3   3  -6  105.33   11.65 
   3   3  -6  116.46   11.48 
   3   3  -5  495.39   16.85 
   3   3  -5  519.15   23.20 
   3   3  -5  538.39   23.03 
   3   3  -4  374.43   13.20 
   3   3  -4  355.75   18.17 
   3   3  -4  374.44   18.42 
   3   3  -3  220.61    9.33 
   3   3  -3  223.91   13.49 
   3   3  -3  245.34   14.55 
   3   3  -2  449.04   11.84 
   3   3  -2  466.11   17.73 
   3   3  -2  427.25   18.30 
   3   3  -1  177.93    6.86 
   3   3  -1  182.53   10.43 
   3   3  -1  166.26   10.81 
   3   3   0  978.83   16.25 
   3   3   0  900.12   23.91 
   3   3   1  726.42   16.99 
   3   3   1  748.34   21.47 
   3   3   1  703.39   20.26 
   3   3   2   85.14    5.52 
   3   3   2   95.79    7.53 
   3   3   2   97.96    7.17 
   3   3   3  427.01   10.40 
   3   3   3  408.80   15.28 
   3   3   3  423.72   14.22 
   3   3   4 2279.61   36.09 
   3   3   4 2150.22   30.17 
   3   3   5 1438.77   29.22 
   3   3   5 1404.56   23.07 
   3   3   6   10.05    4.34 
   3   3   6   -0.09    2.23 
   3   3   7  233.28   15.26 
   3   3   7  244.44   13.26 
   3   3   8  457.54   22.26 
   3   3   8  464.03   18.72 
   3   3   9  164.73   11.79 
   3   3   9  181.20   14.93 
   3   3  10  116.05   13.03 
   3   3  11   90.69   12.35 
   3   4  -8    7.26    6.45 
   3   4  -8    1.61    5.17 
   3   4  -7   31.18    7.12 
   3   4  -7   18.17    6.53 
   3   4  -6  112.22   12.74 
   3   4  -6   89.88   10.26 
   3   4  -5  206.17   15.37 
   3   4  -5  210.07   14.71 
   3   4  -4  227.35   15.12 
   3   4  -4  241.76   15.52 
   3   4  -3   88.22    9.29 
   3   4  -3   92.65    9.24 
   3   4  -2  399.82   17.29 
   3   4  -2  404.68   18.65 
   3   4  -1  260.14   12.95 
   3   4  -1  250.45   14.06 
   3   4   0   27.26    4.86 
   3   4   0   26.84    4.08 
   3   4   0   35.70    5.32 
   3   4   1   32.95    4.93 
   3   4   1   37.67    4.08 
   3   4   1   38.39    5.45 
   3   4   2   15.99    3.65 
   3   4   2   17.19    2.49 
   3   4   2   14.34    3.80 
   3   4   3  191.94   11.59 
   3   4   3  202.06   10.82 
   3   4   4  604.89   20.53 
   3   4   4  610.93   18.32 
   3   4   5 1225.01   29.42 
   3   4   5 1262.56   25.45 
   3   4   6 1311.88   31.21 
   3   4   6 1358.19   25.22 
   3   4   7  268.47   16.30 
   3   4   7  253.60   14.28 
   3   4   8   53.44    8.10 
   3   4   8   47.88    7.47 
   3   4   9   27.81    6.33 
   3   4   9   36.31    6.20 
   3   4  10  210.41   14.87 
   3   4  10  254.48   18.83 
   3   4  11   22.77    8.21 
   3   5  -7   32.58    7.66 
   3   5  -7   21.60    6.48 
   3   5  -6  155.77   15.02 
   3   5  -6  132.04   13.11 
   3   5  -5  298.12   19.38 
   3   5  -5  315.86   19.08 
   3   5  -4  124.58   12.16 
   3   5  -4  140.22   12.36 
   3   5  -3    4.09    3.34 
   3   5  -3    7.77    3.78 
   3   5  -2  132.67   10.86 
   3   5  -2  144.74   12.01 
   3   5  -1  249.26   13.02 
   3   5  -1  255.04   15.13 
   3   5  -1  249.63   14.90 
   3   5   0  384.17   14.96 
   3   5   0  401.02   18.24 
   3   5   0  409.67   18.41 
   3   5   1   76.75    6.12 
   3   5   1   72.98    7.44 
   3   5   1   77.69    7.86 
   3   5   2  134.01    6.67 
   3   5   2  136.82   10.28 
   3   5   2  143.63   10.46 
   3   5   3  424.42   18.27 
   3   5   3  430.49   17.30 
   3   5   4  113.09   10.21 
   3   5   4  129.94    9.47 
   3   5   5    0.25    2.78 
   3   5   5    2.79    3.06 
   3   5   6  403.56   18.67 
   3   5   6  412.01   15.92 
   3   5   7  267.49   16.94 
   3   5   7  238.56   14.86 
   3   5   7  249.54   12.42 
   3   5   8   -1.10    4.44 
   3   5   8    5.91    4.53 
   3   5   9   76.88   10.60 
   3   5   9   55.30    8.63 
   3   5  10  306.97   20.43 
   3   5  10  247.46   16.82 
   3   6  -6   71.12   10.68 
   3   6  -6   60.38   11.04 
   3   6  -5  310.92   20.57 
   3   6  -5  357.89   21.53 
   3   6  -4  546.54   25.20 
   3   6  -4  639.65   27.43 
   3   6  -3  252.84   16.34 
   3   6  -3  278.54   17.06 
   3   6  -3  254.28   17.15 
   3   6  -2   25.47    6.40 
   3   6  -2   17.07    4.84 
   3   6  -2   18.29    4.17 
   3   6  -1    5.48    3.24 
   3   6  -1   -0.75    2.67 
   3   6  -1    3.70    3.98 
   3   6   0  251.64   12.85 
   3   6   0  243.09   14.54 
   3   6   0  255.30   15.47 
   3   6   1   96.80    7.18 
   3   6   1  105.27    9.64 
   3   6   1  107.76    9.97 
   3   6   2  319.07   11.04 
   3   6   2  323.66   16.66 
   3   6   2  321.49   16.66 
   3   6   3  243.17   14.66 
   3   6   3  254.43   14.66 
   3   6   4  148.87   11.98 
   3   6   4  151.75   11.25 
   3   6   5  151.28   12.34 
   3   6   5  152.50   11.12 
   3   6   6   36.15    5.83 
   3   6   6   43.73    6.90 
   3   6   7   17.26    4.62 
   3   6   7   13.77    5.29 
   3   6   8    8.89    3.69 
   3   6   8   13.18    4.73 
   3   6   9   11.15    5.53 
   3   6   9   -7.39    5.11 
   3   6  10   42.87    8.57 
   3   6  10   45.37    8.78 
   3   7  -5   50.66    9.53 
   3   7  -5   52.44   10.54 
   3   7  -5   65.34   10.53 
   3   7  -4   64.85   10.10 
   3   7  -4   50.99    8.48 
   3   7  -4   65.84    9.09 
   3   7  -3  116.52   11.54 
   3   7  -3  131.72   12.25 
   3   7  -3  134.70   13.52 
   3   7  -2  604.82   24.81 
   3   7  -2  622.32   26.23 
   3   7  -2  635.40   27.34 
   3   7  -1  199.05   13.57 
   3   7  -1  193.07   14.04 
   3   7  -1  182.28   14.85 
   3   7   0  134.12   10.24 
   3   7   0  141.08   11.99 
   3   7   0  144.27   12.43 
   3   7   1  701.94   20.49 
   3   7   1  720.81   26.72 
   3   7   1  720.17   27.53 
   3   7   2  834.53   19.46 
   3   7   2  818.73   28.49 
   3   7   2  856.69   29.42 
   3   7   3  130.29   12.29 
   3   7   3  118.73   10.98 
   3   7   4    0.75    3.41 
   3   7   4    5.01    3.69 
   3   7   5  189.30   14.56 
   3   7   5  179.48   13.04 
   3   7   6  165.95   13.74 
   3   7   6  155.70   12.40 
   3   7   7   46.06    7.02 
   3   7   7   48.19    8.41 
   3   7   8   44.66    7.30 
   3   7   8   76.80   10.61 
   3   7   9    4.45    4.92 
   3   7   9    8.60    5.82 
   3   7  10   92.20   11.87 
   3   7  10   71.78   11.02 
   3   8  -4   27.71    7.88 
   3   8  -4   27.21    7.96 
   3   8  -4   39.47    7.91 
   3   8  -3   28.04    7.14 
   3   8  -3   35.83    7.80 
   3   8  -3   32.68    7.09 
   3   8  -2  275.71   17.89 
   3   8  -2  291.42   18.74 
   3   8  -2  331.51   21.43 
   3   8  -1  343.40   18.42 
   3   8  -1  383.28   21.20 
   3   8  -1  380.11   22.77 
   3   8   0   59.27    9.51 
   3   8   0   45.06    6.80 
   3   8   0   42.40    7.79 
   3   8   1  445.60   17.77 
   3   8   1  482.05   23.48 
   3   8   1  450.25   23.74 
   3   8   2  657.51   27.47 
   3   8   2  684.21   28.32 
   3   8   3  216.36   16.04 
   3   8   3  199.08   15.12 
   3   8   4   57.63    8.65 
   3   8   4   55.93    8.20 
   3   8   5   58.32    8.75 
   3   8   5   38.11    7.09 
   3   8   6  243.86   17.75 
   3   8   6  221.70   15.54 
   3   8   7  185.57   15.99 
   3   8   7  191.02   14.69 
   3   8   8  239.24   18.62 
   3   8   8  206.47   15.37 
   3   8   9   84.77   11.34 
   3   8   9   89.08   12.48 
   3   9  -3  159.00   15.37 
   3   9  -3  178.37   15.77 
   3   9  -2  119.57   12.91 
   3   9  -2  138.16   14.15 
   3   9  -2  147.37   15.79 
   3   9  -1   67.23   10.94 
   3   9  -1   68.61    9.44 
   3   9  -1   83.70   11.17 
   3   9   0   77.17    9.05 
   3   9   0  105.63   11.92 
   3   9   0  123.59   13.75 
   3   9   1  162.20   15.38 
   3   9   1  160.26   15.56 
   3   9   2  234.53   17.50 
   3   9   2  234.37   17.94 
   3   9   3   59.81    9.55 
   3   9   3   63.80    9.73 
   3   9   4   83.74   10.87 
   3   9   4   79.33   11.08 
   3   9   5   15.65    5.78 
   3   9   5   27.21    6.86 
   3   9   6  102.97   12.04 
   3   9   6  103.87   12.47 
   3   9   7  271.32   20.53 
   3   9   7  264.16   18.52 
   3   9   8  226.89   19.46 
   3   9   8  188.66   16.06 
   3  10   0    8.33    5.80 
   3  10   0    1.95    4.95 
   3  10   1  -10.38    5.82 
   3  10   1    0.97    4.94 
   3  10   2   16.04    6.40 
   3  10   2   16.50    7.10 
   3  10   3  165.14   15.77 
   3  10   3  141.52   14.89 
   3  10   4   71.57   11.25 
   3  10   4   74.99   11.64 
   3  10   5   75.22   11.16 
   3  10   5   75.06   11.42 
   3  10   6   64.92   10.89 
   3  10   6   77.31   12.48 
   4  -6  -5    0.23    5.89 
   4  -6  -4  158.63   17.09 
   4  -6  -3   21.29    7.88 
   4  -6  -2    3.39    4.82 
   4  -6  -1   15.20    7.00 
   4  -6   0   87.80   13.90 
   4  -6   1   -1.24    5.25 
   4  -5  -6  136.96   15.69 
   4  -5  -6  153.40   16.59 
   4  -5  -5    8.01    5.31 
   4  -5  -4    2.02    4.99 
   4  -5  -3   30.77    8.02 
   4  -5  -2   93.82   13.12 
   4  -5  -1  278.70   20.88 
   4  -5   0  308.93   22.23 
   4  -5   2   23.03    5.58 
   4  -5   3    8.43    5.15 
   4  -5   4   40.58    8.22 
   4  -5   5   63.80    9.90 
   4  -4  -7    1.46    5.64 
   4  -4  -7    1.84    5.11 
   4  -4  -6  130.24   14.51 
   4  -4  -6  136.08   15.01 
   4  -4  -5  592.81   28.95 
   4  -4  -4   60.83   10.17 
   4  -4  -3   23.79    6.99 
   4  -4  -2  133.33   14.07 
   4  -4  -1  354.12   21.77 
   4  -4   0  214.99   17.33 
   4  -4   1  317.10   14.11 
   4  -4   2  379.30   16.79 
   4  -4   3   97.33    9.44 
   4  -4   4  237.91   15.83 
   4  -4   5   73.88   10.27 
   4  -4   6   25.70    8.54 
   4  -3  -7    8.17    5.26 
   4  -3  -7   30.41    8.93 
   4  -3  -6   90.93   12.13 
   4  -3  -6   75.16   10.69 
   4  -3  -5  126.26   13.24 
   4  -3  -5  122.78   13.42 
   4  -3  -4  329.79   20.36 
   4  -3  -3  160.48   14.35 
   4  -3  -2  228.86   16.54 
   4  -3  -1  399.99   22.03 
   4  -3   0  812.81   31.54 
   4  -3   0  828.71   19.61 
   4  -3   1   46.49    5.85 
   4  -3   2    3.50    3.30 
   4  -3   3  103.34    9.42 
   4  -3   4  191.13   13.76 
   4  -3   5  239.23   16.46 
   4  -3   6  289.33   18.96 
   4  -3   7  527.79   27.51 
   4  -2  -8   10.97    4.97 
   4  -2  -8   18.79    6.76 
   4  -2  -7   58.12    9.65 
   4  -2  -7   59.13   10.58 
   4  -2  -6   33.05    8.18 
   4  -2  -6   42.59    8.39 
   4  -2  -5    3.25    3.97 
   4  -2  -5    4.65    4.53 
   4  -2  -4  220.07   15.86 
   4  -2  -4  219.05   16.75 
   4  -2  -3  117.18   11.47 
   4  -2  -2    6.56    4.45 
   4  -2  -1   29.32    6.44 
   4  -2   0  343.60   12.87 
   4  -2   1  292.90   12.97 
   4  -2   2    9.85    3.21 
   4  -2   3  169.48   11.60 
   4  -2   4   30.04    6.12 
   4  -2   5   97.44   10.37 
   4  -2   6  478.73   23.71 
   4  -2   7  300.24   19.98 
   4  -2   8  106.31   13.08 
   4  -1  -8   10.55    6.25 
   4  -1  -8   21.25    7.54 
   4  -1  -7    7.75    5.12 
   4  -1  -7    9.52    5.06 
   4  -1  -6  119.66   11.99 
   4  -1  -6  134.20   14.19 
   4  -1  -5  234.44   15.83 
   4  -1  -5  250.64   18.05 
   4  -1  -4  352.73   19.07 
   4  -1  -4  355.57   20.28 
   4  -1  -3  346.50   18.34 
   4  -1  -2   11.74    4.12 
   4  -1  -1   32.15    4.28 
   4  -1  -1   33.87    6.57 
   4  -1   0   25.10    4.36 
   4  -1   1   -3.39    3.13 
   4  -1   2  228.33   12.35 
   4  -1   3  109.82    6.81 
   4  -1   3  129.22   10.09 
   4  -1   4   58.62    7.39 
   4  -1   5   37.28    6.90 
   4  -1   6  403.31   21.19 
   4  -1   7  191.43   16.15 
   4  -1   8   23.02    7.23 
   4   0  -8  235.15   17.29 
   4   0  -8  296.95   21.72 
   4   0  -7  131.56   12.92 
   4   0  -7  135.20   14.10 
   4   0  -6   50.56    8.61 
   4   0  -6   57.35    9.53 
   4   0  -5  510.17   22.45 
   4   0  -5  526.02   25.23 
   4   0  -4  325.54   17.18 
   4   0  -4  332.09   19.52 
   4   0  -3  235.54   14.48 
   4   0  -3  223.91   15.48 
   4   0  -2  284.25   15.51 
   4   0  -2  293.74   16.73 
   4   0  -1   68.51    8.25 
   4   0   2  950.74   25.41 
   4   0   3  206.21   10.18 
   4   0   3  229.08   13.38 
   4   0   4   79.70    5.79 
   4   0   4  101.30    9.50 
   4   0   5  200.48   13.86 
   4   0   6   44.76    7.57 
   4   0   7   41.01    7.92 
   4   0   8   -0.03    4.78 
   4   0   9    6.97    5.51 
   4   1  -8  182.78   15.71 
   4   1  -8  185.77   17.39 
   4   1  -7  208.03   15.15 
   4   1  -7  241.24   18.86 
   4   1  -6  208.24   14.72 
   4   1  -6  207.81   16.82 
   4   1  -5  231.19   14.91 
   4   1  -5  231.25   16.76 
   4   1  -4  145.20   10.94 
   4   1  -4  142.37   12.62 
   4   1  -3  129.07   10.13 
   4   1  -3  126.37   11.32 
   4   1  -2 1125.38   28.72 
   4   1  -2 1135.38   32.30 
   4   1  -1  342.27   15.82 
   4   1  -1  333.69   16.74 
   4   1   0    6.36    3.06 
   4   1   3  743.28   23.86 
   4   1   3  713.10   19.80 
   4   1   4   40.31    4.20 
   4   1   4   44.24    5.15 
   4   1   5  244.51   10.76 
   4   1   5  255.00   15.53 
   4   1   6  230.09   15.71 
   4   1   7  111.59   11.75 
   4   1   8   35.90    8.20 
   4   1   9   13.31    6.27 
   4   2  -7   89.62    9.80 
   4   2  -7  120.63   13.44 
   4   2  -6  358.67   18.03 
   4   2  -6  368.70   22.16 
   4   2  -5   37.18    5.69 
   4   2  -5   36.40    7.70 
   4   2  -4    0.94    3.22 
   4   2  -4    4.33    4.45 
   4   2  -3   27.57    4.58 
   4   2  -3   29.81    5.81 
   4   2  -2  172.70   10.21 
   4   2  -2  180.68   12.71 
   4   2  -1  647.13   19.40 
   4   2  -1  650.50   22.56 
   4   2   0  449.75   16.68 
   4   2   0  398.03   17.28 
   4   2   2  904.08   24.63 
   4   2   2  906.07   23.88 
   4   2   3 1416.32   29.55 
   4   2   3 1400.44   27.83 
   4   2   4  431.02   15.83 
   4   2   4  442.23   14.41 
   4   2   5   23.82    5.51 
   4   2   5   19.13    3.92 
   4   2   6   75.15    9.54 
   4   2   6   59.31    6.28 
   4   2   7  186.42   15.05 
   4   2   8  271.29   18.68 
   4   2   9  196.31   16.89 
   4   2  10  323.66   22.50 
   4   3  -7   56.42    9.32 
   4   3  -7   43.96    9.00 
   4   3  -6   96.36   12.09 
   4   3  -6  107.53   12.40 
   4   3  -5    5.77    4.78 
   4   3  -4   -1.53    2.80 
   4   3  -4   -4.69    3.90 
   4   3  -3  429.15   15.14 
   4   3  -3  443.59   20.64 
   4   3  -2  122.94    7.91 
   4   3  -2  119.04   10.53 
   4   3  -1   43.95    4.87 
   4   3  -1   44.58    6.58 
   4   3  -1   48.12    6.44 
   4   3   0  288.90   11.86 
   4   3   0  294.05   14.12 
   4   3   0  273.55   15.02 
   4   3   1   88.15    7.47 
   4   3   1  109.88    9.22 
   4   3   2   89.48    7.12 
   4   3   2   96.82    9.45 
   4   3   2   97.75    8.92 
   4   3   3  225.77   10.35 
   4   3   3  238.94   12.99 
   4   3   3  240.47   12.34 
   4   3   4  924.94   25.54 
   4   3   4  928.43   22.39 
   4   3   5  301.24   14.72 
   4   3   5  304.72   12.03 
   4   3   6   32.16    6.30 
   4   3   6   38.72    5.43 
   4   3   7   78.22   10.15 
   4   3   7   63.16    7.25 
   4   3   8  195.34   15.85 
   4   3   8  187.31   12.60 
   4   3   9  460.07   25.26 
   4   3  10   72.05   11.61 
   4   4  -7  121.77   14.53 
   4   4  -6   65.60    9.55 
   4   4  -6   72.63   10.81 
   4   4  -5    3.89    4.72 
   4   4  -5    1.98    4.13 
   4   4  -4   34.94    7.24 
   4   4  -4   36.89    7.31 
   4   4  -3   38.56    7.14 
   4   4  -3   32.55    6.05 
   4   4  -2  570.56   22.60 
   4   4  -2  622.81   25.36 
   4   4  -1  370.98   17.00 
   4   4  -1  358.55   18.80 
   4   4   0  337.41   14.98 
   4   4   0  351.64   17.70 
   4   4   1   91.09    7.71 
   4   4   1  101.48    9.78 
   4   4   1   99.29    8.86 
   4   4   2   32.55    5.29 
   4   4   2   28.79    4.27 
   4   4   2   29.13    5.22 
   4   4   3   27.10    3.64 
   4   4   3   39.23    6.29 
   4   4   3   34.46    5.47 
   4   4   4   46.77    6.06 
   4   4   4   40.76    6.27 
   4   4   5  401.12   18.06 
   4   4   5  405.96   15.70 
   4   4   6  141.83   11.06 
   4   4   6  145.64    9.08 
   4   4   7   42.97    8.15 
   4   4   7   27.40    5.55 
   4   4   8  288.94   19.37 
   4   4   8  275.15   16.24 
   4   4   9  680.39   30.65 
   4   4   9  676.01   25.61 
   4   4  10  127.47   14.45 
   4   5  -6  147.06   15.94 
   4   5  -6  178.48   16.20 
   4   5  -5  346.44   21.93 
   4   5  -5  377.58   22.80 
   4   5  -4  299.35   19.72 
   4   5  -4  397.25   22.36 
   4   5  -3    4.26    3.98 
   4   5  -3    5.14    4.91 
   4   5  -2   55.31    7.74 
   4   5  -2   68.24    9.56 
   4   5  -1  386.33   17.94 
   4   5  -1  404.99   20.55 
   4   5   0  125.10    9.54 
   4   5   0  138.69   11.71 
   4   5   0  116.17   10.80 
   4   5   1   53.09    5.96 
   4   5   1   65.72    8.34 
   4   5   1   60.51    7.89 
   4   5   2   29.92    5.51 
   4   5   2   21.05    3.62 
   4   5   2   34.03    5.91 
   4   5   3   75.56    8.61 
   4   5   3   71.47    7.73 
   4   5   4   46.19    6.66 
   4   5   4   58.10    7.72 
   4   5   5  159.45   12.46 
   4   5   5  155.16   10.95 
   4   5   6   77.85    7.85 
   4   5   6   66.70    8.13 
   4   5   7    9.14    6.21 
   4   5   7    1.25    3.34 
   4   5   8  126.50   13.41 
   4   5   8  116.05   11.51 
   4   5   9   86.23   11.91 
   4   5   9   84.43   10.27 
   4   5  10   62.61    9.55 
   4   6  -5  157.63   15.78 
   4   6  -5  188.70   17.47 
   4   6  -4  599.94   28.21 
   4   6  -4  647.79   30.18 
   4   6  -3  547.51   25.44 
   4   6  -3  631.50   28.51 
   4   6  -2   76.66    9.19 
   4   6  -2   89.18   11.08 
   4   6  -2   76.62   10.27 
   4   6  -1  240.97   14.83 
   4   6  -1  274.22   18.10 
   4   6  -1  246.44   17.22 
   4   6   0  346.41   16.28 
   4   6   0  375.78   20.65 
   4   6   0  365.45   20.18 
   4   6   1  222.33   11.96 
   4   6   1  209.74   14.78 
   4   6   1  206.89   14.90 
   4   6   2   -2.57    3.20 
   4   6   2   -2.08    3.72 
   4   6   3   -0.76    3.04 
   4   6   3    4.99    3.35 
   4   6   4  607.66   25.18 
   4   6   4  601.96   23.71 
   4   6   5  431.25   21.23 
   4   6   5  411.14   19.01 
   4   6   6  127.99   11.86 
   4   6   6  147.06   11.44 
   4   6   7  100.97   11.31 
   4   6   7  108.03    9.75 
   4   6   8   73.00   10.56 
   4   6   8   69.06    9.59 
   4   6   9   10.84    5.46 
   4   6   9    5.67    5.57 
   4   7  -4   66.05   10.49 
   4   7  -4   68.06   10.78 
   4   7  -4   86.42   11.64 
   4   7  -3  235.27   17.29 
   4   7  -3  280.14   19.59 
   4   7  -3  275.11   20.39 
   4   7  -2  102.27   10.89 
   4   7  -2  122.69   12.91 
   4   7  -2  116.29   13.26 
   4   7  -1    6.62    4.36 
   4   7  -1    6.86    4.73 
   4   7  -1    8.06    4.85 
   4   7   0  329.29   16.48 
   4   7   0  322.52   19.63 
   4   7   0  333.44   19.93 
   4   7   1  396.68   16.29 
   4   7   1  396.31   21.34 
   4   7   1  357.32   20.39 
   4   7   2  168.07   13.82 
   4   7   2  190.20   14.84 
   4   7   3   95.51   10.96 
   4   7   3   92.37   10.68 
   4   7   4  507.14   24.25 
   4   7   4  494.59   22.76 
   4   7   5  436.98   22.92 
   4   7   5  442.22   21.54 
   4   7   6  188.37   15.19 
   4   7   6  177.83   13.53 
   4   7   7  314.93   20.15 
   4   7   7  301.44   17.08 
   4   7   8   11.35    5.90 
   4   7   9    9.75    6.75 
   4   7   9    0.64    5.45 
   4   8  -3   12.15    6.86 
   4   8  -3    0.22    5.00 
   4   8  -3   10.04    7.18 
   4   8  -2   20.43    6.98 
   4   8  -2   15.45    5.78 
   4   8  -2   22.64    7.27 
   4   8  -1   15.91    5.81 
   4   8  -1   16.77    6.27 
   4   8   0  129.85   11.35 
   4   8   0  166.71   15.28 
   4   8   0  171.46   15.94 
   4   8   1  207.10   16.44 
   4   8   1  210.11   17.32 
   4   8   2   90.43   11.49 
   4   8   2   81.28   10.75 
   4   8   3  310.76   20.51 
   4   8   3  318.06   20.29 
   4   8   4  124.19   12.95 
   4   8   4  130.14   12.86 
   4   8   5   89.40   10.93 
   4   8   5  106.77   12.22 
   4   8   6  181.47   16.23 
   4   8   6  178.38   14.50 
   4   8   7  281.40   19.94 
   4   8   7  290.25   18.69 
   4   8   8  163.53   16.07 
   4   9  -1    8.97    6.07 
   4   9  -1   12.86    5.21 
   4   9  -1    3.69    6.18 
   4   9   0    6.17    5.62 
   4   9   0    6.86    6.12 
   4   9   1   83.72   12.50 
   4   9   1   83.15   11.84 
   4   9   2  245.00   19.22 
   4   9   2  252.12   19.53 
   4   9   3  282.96   20.71 
   4   9   3  279.64   20.11 
   4   9   4   56.74   10.12 
   4   9   4   52.56    9.37 
   4   9   5   15.57    7.31 
   4   9   5   11.74    6.99 
   4   9   6   71.99   10.65 
   4   9   6   91.38   12.28 
   4   9   7    1.29    5.13 
   4  10   3   39.71    9.92 
   5  -5  -1   -1.37    6.17 
   5  -5   0   60.56   12.08 
   5  -4  -4   -5.55    7.54 
   5  -4  -3   64.21   11.40 
   5  -4  -2  125.75   15.22 
   5  -4  -1   50.51   10.31 
   5  -4   0   -4.74    5.11 
   5  -4   1   70.49   12.54 
   5  -3  -5    6.92    5.80 
   5  -3  -5    7.37    6.03 
   5  -3  -4   -3.67    5.88 
   5  -3  -3   -2.27    4.84 
   5  -3  -2   -2.02    4.59 
   5  -3  -1  189.29   17.70 
   5  -3   0  268.01   21.30 
   5  -3   3   11.30    4.75 
   5  -3   4   75.28    9.43 
   5  -3   5  113.07   12.48 
   5  -2  -5   24.74    7.77 
   5  -2  -5   15.27    6.64 
   5  -2  -4  104.38   12.92 
   5  -2  -4   81.79   11.14 
   5  -2  -3   -1.78    4.50 
   5  -2  -2   -0.93    3.72 
   5  -2  -1   12.02    5.63 
   5  -2   0  226.72   18.10 
   5  -2   1  148.51   10.38 
   5  -2   2   71.07    8.32 
   5  -2   3    2.11    4.28 
   5  -2   4   -3.31    3.97 
   5  -2   5  146.56   13.64 
   5  -2   6    2.19    4.75 
   5  -1  -6   39.54    8.38 
   5  -1  -6   39.18    9.55 
   5  -1  -5   56.31    8.82 
   5  -1  -5   50.05    9.91 
   5  -1  -4  231.02   17.33 
   5  -1  -4  278.16   20.59 
   5  -1  -3  116.13   12.72 
   5  -1  -3  107.61   12.63 
   5  -1  -2  116.64   11.86 
   5  -1  -1  127.84   13.08 
   5  -1   0  222.28   16.75 
   5  -1   0  221.13   12.12 
   5  -1   1  464.73   18.58 
   5  -1   2    5.77    4.30 
   5  -1   3    4.26    4.42 
   5  -1   4   28.20    5.94 
   5  -1   5   25.81    6.64 
   5  -1   6   14.55    6.37 
   5  -1   7   59.27    9.96 
   5   0  -6   31.51    7.96 
   5   0  -6   13.97    6.70 
   5   0  -5  105.91   13.08 
   5   0  -5   82.02   10.82 
   5   0  -4  274.60   17.53 
   5   0  -4  285.14   20.21 
   5   0  -3  776.12   29.15 
   5   0  -3  804.34   32.20 
   5   0  -2  218.05   15.52 
   5   0  -2  255.82   17.69 
   5   0  -1   67.18    9.17 
   5   0   0  260.86   17.26 
   5   0   1  483.33   19.54 
   5   0   2   21.34    5.48 
   5   0   3    3.04    3.67 
   5   0   3    2.06    3.06 
   5   0   4  459.54   21.87 
   5   0   5  191.59   14.93 
   5   0   6  146.58   13.93 
   5   0   7  195.48   16.46 
   5   1  -6    1.19    4.63 
   5   1  -6    8.65    6.09 
   5   1  -5   48.26    8.31 
   5   1  -5   67.42   10.57 
   5   1  -4   60.94    8.46 
   5   1  -4   67.93   10.57 
   5   1  -3  347.42   18.34 
   5   1  -3  358.56   21.13 
   5   1  -2  320.93   17.67 
   5   1  -2  317.71   19.39 
   5   1  -1  107.38   10.69 
   5   1  -1  125.83   12.34 
   5   1   0  344.81   18.57 
   5   1   3  122.94    9.54 
   5   1   3  121.47   11.04 
   5   1   4   28.80    6.30 
   5   1   4   22.15    4.58 
   5   1   5  141.99   12.92 
   5   1   6  403.24   22.53 
   5   1   7  571.51   27.96 
   5   1   8  120.94   14.25 
   5   2  -6   18.23    6.31 
   5   2  -5   99.88   12.84 
   5   2  -4  432.81   19.69 
   5   2  -4  446.82   24.54 
   5   2  -3   25.12    5.68 
   5   2  -3   26.85    7.01 
   5   2  -2    1.50    2.85 
   5   2  -2    4.13    5.32 
   5   2  -1   21.64    5.31 
   5   2  -1   32.93    6.98 
   5   2   0    6.12    3.44 
   5   2   0   18.00    5.86 
   5   2   1    3.86    3.41 
   5   2   2  235.93   14.42 
   5   2   2  258.03   14.85 
   5   2   3 1557.05   35.76 
   5   2   3 1622.77   34.79 
   5   2   4  221.83   15.31 
   5   2   4  192.57   12.06 
   5   2   4  194.00   11.31 
   5   2   5   42.50    7.40 
   5   2   5   44.69    6.10 
   5   2   6  228.60   16.91 
   5   2   7  295.50   20.37 
   5   2   8   29.72    7.35 
   5   3  -5   -3.24    4.95 
   5   3  -5   10.02    5.73 
   5   3  -4  181.04   15.79 
   5   3  -3  156.78   14.37 
   5   3  -2   24.72    5.66 
   5   3  -1  151.34   10.56 
   5   3  -1  154.53   12.81 
   5   3  -1  140.52   12.85 
   5   3   0    5.11    3.88 
   5   3   0   -0.62    2.87 
   5   3   0    6.01    3.79 
   5   3   1    5.23    3.68 
   5   3   1   -1.20    2.56 
   5   3   2    5.63    5.75 
   5   3   2    2.05    2.99 
   5   3   2    3.49    5.99 
   5   3   3  183.77   11.53 
   5   3   3  164.45   12.27 
   5   3   3  178.98   12.18 
   5   3   4  315.88   16.26 
   5   3   4  308.07   14.89 
   5   3   5   72.64    9.73 
   5   3   5   52.70    7.03 
   5   3   6  104.06   12.02 
   5   3   6   76.73    8.52 
   5   3   7   98.36   11.56 
   5   3   8  228.63   18.79 
   5   4  -5  165.80   16.48 
   5   4  -5  197.95   17.64 
   5   4  -4   27.89    7.69 
   5   4  -4   22.77    7.47 
   5   4  -3    9.10    5.15 
   5   4  -3   16.51    6.64 
   5   4  -2  131.49   12.39 
   5   4  -2  155.93   14.32 
   5   4  -1  114.12   10.75 
   5   4  -1  126.08   12.30 
   5   4   0   32.14    6.14 
   5   4   0   29.52    5.78 
   5   4   1  176.78   11.91 
   5   4   1  189.96   14.51 
   5   4   1  163.15   12.97 
   5   4   2  608.94   20.41 
   5   4   2  645.34   25.99 
   5   4   2  599.21   23.80 
   5   4   3   73.18    8.86 
   5   4   3   95.15   10.09 
   5   4   4   63.92    7.57 
   5   4   4   66.86    8.08 
   5   4   5    5.87    3.67 
   5   4   5   16.88    5.53 
   5   4   6    5.70    4.32 
   5   4   6    3.86    4.10 
   5   4   7    0.72    4.77 
   5   4   7   -4.41    4.62 
   5   4   8   32.31    8.40 
   5   5  -4   38.72    8.53 
   5   5  -4   42.55    9.39 
   5   5  -3   14.53    7.22 
   5   5  -3    0.12    4.07 
   5   5  -2  401.16   21.43 
   5   5  -2  431.87   24.16 
   5   5  -1  276.11   16.87 
   5   5  -1  312.79   20.07 
   5   5   0  110.19   10.20 
   5   5   0  131.76   12.93 
   5   5   0  131.18   12.88 
   5   5   1   82.15    8.16 
   5   5   1   78.36    9.74 
   5   5   1   70.01    9.87 
   5   5   2  236.33   12.28 
   5   5   2  242.87   16.61 
   5   5   2  246.81   16.36 
   5   5   3  362.87   19.63 
   5   5   3  360.34   18.86 
   5   5   4  116.25   11.17 
   5   5   4  131.82   11.66 
   5   5   5   62.05    7.94 
   5   5   5   86.10   10.17 
   5   5   6    4.23    5.07 
   5   5   7   25.22    7.69 
   5   5   7   21.66    6.11 
   5   5   8   20.41    7.18 
   5   5   8   29.38    7.82 
   5   6  -3   43.37    8.95 
   5   6  -3   54.18    9.10 
   5   6  -2  140.22   13.73 
   5   6  -2  177.87   16.46 
   5   6  -2  176.18   16.44 
   5   6  -1  379.91   20.25 
   5   6  -1  413.29   24.19 
   5   6  -1  428.26   24.20 
   5   6   0  439.82   19.79 
   5   6   0  453.88   24.70 
   5   6   0  464.13   24.63 
   5   6   1  326.35   15.87 
   5   6   1  365.13   21.52 
   5   6   1  339.14   20.29 
   5   6   2   55.44    8.41 
   5   6   2   59.44    9.05 
   5   6   3  210.16   16.17 
   5   6   3  199.27   14.98 
   5   6   4  125.57   12.30 
   5   6   4  138.04   12.39 
   5   6   5  114.93   12.62 
   5   6   5  117.75   11.31 
   5   6   6  183.55   15.24 
   5   6   6  174.92   13.39 
   5   6   7   29.01    7.62 
   5   6   8   66.51   11.61 
   5   6   8   57.07    9.50 
   5   7  -2   44.54    9.38 
   5   7  -2   56.50    9.13 
   5   7  -2   46.43    9.84 
   5   7  -1  164.13   13.91 
   5   7  -1  190.99   17.07 
   5   7  -1  186.16   17.31 
   5   7   0  186.91   13.70 
   5   7   0  212.69   17.69 
   5   7   0  202.39   17.44 
   5   7   1  110.15   12.98 
   5   7   1  105.95   12.28 
   5   7   2   51.65    8.77 
   5   7   2   44.38    8.05 
   5   7   3   12.51    5.93 
   5   7   3    5.44    4.89 
   5   7   4   57.86    9.36 
   5   7   4   63.55    9.69 
   5   7   5  173.72   15.71 
   5   7   5  174.68   14.50 
   5   7   6  485.53   25.58 
   5   7   6  469.50   23.00 
   5   7   7  165.51   15.33 
   5   8   0   97.67   13.21 
   5   8   0  109.41   13.42 
   5   8   1   77.44   12.04 
   5   8   1   54.33   10.22 
   5   8   2   93.39   12.82 
   5   8   2   69.85   10.84 
   5   8   3    0.03    4.79 
   5   8   3   -2.93    5.50 
   5   8   4   10.44    5.56 
   5   8   4   19.51    6.45 
   5   8   5  147.40   14.97 
   5   8   5  125.40   13.61 
   5   8   6   27.52    8.68 
   6  -2  -1   51.59   10.25 
   6  -2   0   16.50    8.10 
   6  -2   1   20.19    8.25 
   6  -1  -2   43.99    8.90 
   6  -1  -2   49.36    9.86 
   6  -1  -1   26.71    7.16 
   6  -1   0  190.95   17.59 
   6  -1   1   66.07   11.45 
   6  -1   3  386.15   20.75 
   6   0  -3   86.61   11.62 
   6   0  -3   82.66   12.76 
   6   0  -2   45.32    8.58 
   6   0  -2   58.21   10.74 
   6   0  -1   99.73   12.50 
   6   0  -1  115.21   14.00 
   6   0   0  380.92   23.14 
   6   0   1  454.59   25.84 
   6   0   1  489.81   21.38 
   6   0   2   44.08    7.18 
   6   0   3   31.90    7.28 
   6   0   4   51.35    8.72 
   6   1  -3    5.03    5.12 
   6   1  -3   18.35    7.61 
   6   1  -2    6.65    5.22 
   6   1  -2    9.46    5.65 
   6   1  -1   27.33    7.00 
   6   1  -1   39.02    8.46 
   6   1   0   23.44    6.92 
   6   1   0   41.29    8.66 
   6   1   1  513.44   25.74 
   6   1   1  572.68   24.01 
   6   1   2  683.14   26.50 
   6   1   2  759.35   28.58 
   6   1   3    0.46    4.72 
   6   1   4   -2.84    4.65 
   6   1   5   88.82   11.55 
   6   2  -3   89.63   12.17 
   6   2  -2  149.93   14.85 
   6   2  -1   36.71    7.42 
   6   2  -1   41.49    8.68 
   6   2   0    5.30    5.05 
   6   2   0   -4.24    5.81 
   6   2   1    7.95    4.38 
   6   2   1    5.99    5.99 
   6   2   1    6.82    5.35 
   6   2   2   98.24   10.92 
   6   2   2  102.70   10.87 
   6   2   2   84.17    9.96 
   6   2   3    7.19    4.86 
   6   2   3   17.69    6.22 
   6   2   3   10.68    6.09 
   6   2   4    0.18    4.77 
   6   2   5  110.60   12.92 
   6   2   6  129.03   14.27 
   6   3  -3  171.75   16.94 
   6   3  -2  146.88   14.38 
   6   3  -2  181.74   16.51 
   6   3  -1   32.23    8.00 
   6   3  -1   28.95    7.43 
   6   3   0  169.59   14.36 
   6   3   0  176.35   15.40 
   6   3   1  178.48   14.64 
   6   3   1  210.81   16.37 
   6   3   1  194.60   15.87 
   6   3   2   -0.42    3.54 
   6   3   2   10.25    5.12 
   6   3   2    0.22    4.61 
   6   3   3    8.08    5.69 
   6   3   3    4.19    4.23 
   6   3   4   13.88    5.67 
   6   3   4    6.37    4.65 
   6   3   5    9.22    5.93 
   6   3   5    7.00    4.94 
   6   3   6   16.57    6.55 
   6   4  -2  152.52   14.34 
   6   4  -2  148.25   15.63 
   6   4  -1    1.02    4.34 
   6   4  -1   11.70    5.83 
   6   4   0   13.94    6.99 
   6   4   0   22.86    6.42 
   6   4   1  153.33   13.17 
   6   4   1  201.40   16.71 
   6   4   1  174.13   15.35 
   6   4   2   51.26    8.71 
   6   4   2   47.69    8.94 
   6   4   3  117.63   12.12 
   6   4   3  126.27   12.13 
   6   4   4  285.37   18.33 
   6   4   4  283.06   17.22 
   6   4   5   32.79    7.17 
   6   4   6   59.79   10.84 
   6   4   6   34.88    7.09 
   6   5  -1  136.33   13.66 
   6   5  -1  123.57   14.71 
   6   5  -1  153.30   15.90 
   6   5   0  104.90   11.36 
   6   5   0  108.66   13.23 
   6   5   0  120.44   14.28 
   6   5   1    3.84    4.61 
   6   5   1   -6.28    5.99 
   6   5   2  168.97   15.93 
   6   5   2  152.71   14.52 
   6   5   3  339.49   21.02 
   6   5   3  350.35   20.71 
   6   5   4  365.93   22.00 
   6   5   4  377.49   20.15 
   6   5   5   78.47    9.91 
   6   6   0   96.95   12.74 
   6   6   1   -4.20    5.43 
   6   6   1   -1.24    5.28 
   6   6   2   60.13   10.19 
   6   6   2   86.03   11.73 
   6   6   3  342.48   21.81 
   6   6   3  338.15   21.40 
   6   6   4  199.13   17.54 
   6   6   4  189.62   15.63 
   6   6   5  283.71   20.25 
   0   0   0    0.00    0.00 
  
  
TITL mini-16080-abs in P1 
REM P1 (#1 in standard setting) 
CELL 0.71073   5.276533   8.757167   9.329703  75.8033  82.0967  76.7520 
ZERR    2.00   0.000477   0.000743   0.000776   0.0072   0.0072   0.0075 
LATT -1 
SFAC C H N O 
UNIT 22.00 20.00 2.00 2.00 
TREF 
HKLF 4 
END 
_computing_structure_solution     'SHELXT 2014/5 (Sheldrick, 2014)' 
;
_shelx_hkl_checksum              6078
loop_
_space_group_symop_operation_xyz
'x, y, z'
'-x, -y, -z'
loop_
_atom_site_label
_atom_site_type_symbol
_atom_site_fract_x
_atom_site_fract_y
_atom_site_fract_z
_atom_site_U_iso_or_equiv
_atom_site_adp_type
_atom_site_occupancy
_atom_site_site_symmetry_order
_atom_site_calc_flag
_atom_site_refinement_flags_posn
_atom_site_refinement_flags_adp
_atom_site_refinement_flags_occupancy
Fe1 Fe 0.5000 0.5000 0.5000 0.01326(11) Uani 1 2 d S . P
O11 O 0.3156(2) 0.31069(13) 0.52999(12) 0.0146(2) Uani 1 1 d . . .
O21 O 0.6483(2) 0.39396(13) 0.69902(12) 0.0149(2) Uani 1 1 d . . .
C11 C 0.2117(3) 0.0532(2) 0.6144(2) 0.0193(4) Uani 1 1 d . . .
H11A H 0.0223 0.0888 0.6323 0.029 Uiso 1 1 calc R U .
H11B H 0.2711 -0.0465 0.6868 0.029 Uiso 1 1 calc R U .
H11C H 0.2533 0.0338 0.5139 0.029 Uiso 1 1 calc R U .
C21 C 0.3471(3) 0.18110(19) 0.62988(18) 0.0147(3) Uani 1 1 d . . .
C31 C 0.4928(3) 0.1521(2) 0.75063(18) 0.0159(3) Uani 1 1 d . . .
H31 H 0.5001 0.0511 0.8187 0.019 Uiso 1 1 calc R U .
C41 C 0.6299(3) 0.2583(2) 0.78082(18) 0.0145(3) Uani 1 1 d . . .
C51 C 0.7707(3) 0.2093(2) 0.91978(19) 0.0204(4) Uani 1 1 d . . .
H51A H 0.9586 0.2026 0.8932 0.031 Uiso 1 1 calc R U .
H51B H 0.7397 0.1041 0.9762 0.031 Uiso 1 1 calc R U .
H51C H 0.7056 0.2893 0.9805 0.031 Uiso 1 1 calc R U .
O10 O 0.8543(2) 0.36802(14) 0.39391(13) 0.0151(3) Uani 1 1 d D . .
H10 H 0.994(4) 0.355(3) 0.433(2) 0.034(6) Uiso 1 1 d D . .
C10 C 0.9086(3) 0.4114(2) 0.23652(18) 0.0179(4) Uani 1 1 d . . .
H10A H 0.9278 0.5250 0.2074 0.021 Uiso 1 1 calc R U .
H10B H 0.7593 0.4021 0.1878 0.021 Uiso 1 1 calc R U .
C20 C 1.1537(3) 0.3064(2) 0.1831(2) 0.0219(4) Uani 1 1 d . . .
H20A H 1.1823 0.3389 0.0749 0.033 Uiso 1 1 calc R U .
H20B H 1.1353 0.1938 0.2114 0.033 Uiso 1 1 calc R U .
H20C H 1.3031 0.3182 0.2284 0.033 Uiso 1 1 calc R U .
loop_
_atom_site_aniso_label
_atom_site_aniso_U_11
_atom_site_aniso_U_22
_atom_site_aniso_U_33
_atom_site_aniso_U_23
_atom_site_aniso_U_13
_atom_site_aniso_U_12
Fe1 0.01310(18) 0.01405(18) 0.01303(18) -0.00217(13) -0.00197(12) -0.00396(13)
O11 0.0129(6) 0.0160(6) 0.0155(6) -0.0029(5) -0.0023(4) -0.0041(5)
O21 0.0137(6) 0.0164(6) 0.0152(6) -0.0034(5) -0.0029(4) -0.0033(5)
C11 0.0154(8) 0.0177(8) 0.0257(9) -0.0059(7) -0.0014(7) -0.0045(7)
C21 0.0095(8) 0.0154(8) 0.0186(8) -0.0063(7) 0.0032(6) -0.0012(6)
C31 0.0137(8) 0.0154(8) 0.0167(8) -0.0009(6) -0.0002(6) -0.0028(6)
C41 0.0095(7) 0.0178(8) 0.0137(8) -0.0040(6) 0.0015(6) 0.0008(6)
C51 0.0179(9) 0.0259(9) 0.0166(8) -0.0014(7) -0.0032(7) -0.0053(7)
O10 0.0111(6) 0.0197(6) 0.0148(6) -0.0048(5) -0.0025(5) -0.0022(5)
C10 0.0161(8) 0.0226(9) 0.0153(8) -0.0051(7) -0.0026(7) -0.0031(7)
C20 0.0168(9) 0.0288(10) 0.0214(9) -0.0111(8) 0.0011(7) -0.0033(7)
loop_
_atom_type_symbol
_atom_type_description
_atom_type_scat_dispersion_real
_atom_type_scat_dispersion_imag
_atom_type_scat_source
C C 0.0033 0.0016 'International Tables Vol C Tables 4.2.6.8 and 6.1.1.4'
H H 0.0000 0.0000 'International Tables Vol C Tables 4.2.6.8 and 6.1.1.4'
Fe Fe 0.3463 0.8444 'International Tables Vol C Tables 4.2.6.8 and 6.1.1.4'
O O 0.0106 0.0060 'International Tables Vol C Tables 4.2.6.8 and 6.1.1.4'
loop_
_geom_angle_atom_site_label_1
_geom_angle_atom_site_label_2
_geom_angle_atom_site_label_3
_geom_angle
_geom_angle_site_symmetry_1
_geom_angle_site_symmetry_3
O21 Fe1 O21 180.0 . 2_666
O21 Fe1 O11 92.35(4) . 2_666
O21 Fe1 O11 87.65(4) 2_666 2_666
O21 Fe1 O11 87.66(4) . .
O21 Fe1 O11 92.34(4) 2_666 .
O11 Fe1 O11 180.0 2_666 .
O21 Fe1 O10 92.08(4) . 2_666
O21 Fe1 O10 87.92(4) 2_666 2_666
O11 Fe1 O10 91.33(4) 2_666 2_666
O11 Fe1 O10 88.67(4) . 2_666
O21 Fe1 O10 87.92(4) . .
O21 Fe1 O10 92.08(4) 2_666 .
O11 Fe1 O10 88.67(4) 2_666 .
O11 Fe1 O10 91.33(4) . .
O10 Fe1 O10 180.00(4) 2_666 .
C21 O11 Fe1 127.64(11) . .
C41 O21 Fe1 128.39(11) . .
C21 C11 H11A 109.5 . .
C21 C11 H11B 109.5 . .
H11A C11 H11B 109.5 . .
C21 C11 H11C 109.5 . .
H11A C11 H11C 109.5 . .
H11B C11 H11C 109.5 . .
O11 C21 C31 124.74(15) . .
O11 C21 C11 116.38(15) . .
C31 C21 C11 118.88(15) . .
C21 C31 C41 125.85(15) . .
C21 C31 H31 117.1 . .
C41 C31 H31 117.1 . .
O21 C41 C31 125.03(15) . .
O21 C41 C51 116.16(15) . .
C31 C41 C51 118.80(15) . .
C41 C51 H51A 109.5 . .
C41 C51 H51B 109.5 . .
H51A C51 H51B 109.5 . .
C41 C51 H51C 109.5 . .
H51A C51 H51C 109.5 . .
H51B C51 H51C 109.5 . .
C10 O10 Fe1 119.31(10) . .
C10 O10 H10 108.1(16) . .
Fe1 O10 H10 116.4(16) . .
O10 C10 C20 112.07(14) . .
O10 C10 H10A 109.2 . .
C20 C10 H10A 109.2 . .
O10 C10 H10B 109.2 . .
C20 C10 H10B 109.2 . .
H10A C10 H10B 107.9 . .
C10 C20 H20A 109.5 . .
C10 C20 H20B 109.5 . .
H20A C20 H20B 109.5 . .
C10 C20 H20C 109.5 . .
H20A C20 H20C 109.5 . .
H20B C20 H20C 109.5 . .
loop_
_geom_bond_atom_site_label_1
_geom_bond_atom_site_label_2
_geom_bond_distance
_geom_bond_site_symmetry_2
Fe1 O21 2.0353(11) .
Fe1 O21 2.0354(11) 2_666
Fe1 O11 2.0518(11) 2_666
Fe1 O11 2.0518(11) .
Fe1 O10 2.2075(11) 2_666
Fe1 O10 2.2075(11) .
O11 C21 1.273(2) .
O21 C41 1.261(2) .
C11 C21 1.504(2) .
C11 H11A 0.9800 .
C11 H11B 0.9800 .
C11 H11C 0.9800 .
C21 C31 1.391(2) .
C31 C41 1.400(2) .
C31 H31 0.9500 .
C41 C51 1.504(2) .
C51 H51A 0.9800 .
C51 H51B 0.9800 .
C51 H51C 0.9800 .
O10 C10 1.429(2) .
O10 H10 0.837(16) .
C10 C20 1.506(2) .
C10 H10A 0.9900 .
C10 H10B 0.9900 .
C20 H20A 0.9800 .
C20 H20B 0.9800 .
C20 H20C 0.9800 .
loop_
_geom_hbond_atom_site_label_D
_geom_hbond_atom_site_label_H
_geom_hbond_atom_site_label_A
_geom_hbond_distance_DH
_geom_hbond_distance_HA
_geom_hbond_distance_DA
_geom_hbond_angle_DHA
_geom_hbond_site_symmetry_A
O10 H10 O11 0.837(16) 1.951(16) 2.7866(16) 177(2) 1_655
loop_
_geom_torsion_atom_site_label_1
_geom_torsion_atom_site_label_2
_geom_torsion_atom_site_label_3
_geom_torsion_atom_site_label_4
_geom_torsion
Fe1 O11 C21 C31 8.4(2)
Fe1 O11 C21 C11 -172.43(10)
O11 C21 C31 C41 -0.9(3)
C11 C21 C31 C41 180.00(15)
Fe1 O21 C41 C31 -1.7(2)
Fe1 O21 C41 C51 177.53(10)
C21 C31 C41 O21 -2.8(3)
C21 C31 C41 C51 178.00(15)
Fe1 O10 C10 C20 -178.59(10)
