#------------------------------------------------------------------------------
#$Date: 2017-03-04 06:28:15 +0200 (Sat, 04 Mar 2017) $
#$Revision: 193031 $
#$URL: file:///home/coder/svn-repositories/cod/cif/4/12/56/4125634.cif $
#------------------------------------------------------------------------------
#
# This file is available in the Crystallography Open Database (COD),
# http://www.crystallography.net/
#
# All data on this site have been placed in the public domain by the
# contributors.
#
data_4125634
loop_
_publ_author_name
'Bai, Linyi'
'Bose, Purnandhu'
'Gao, Qiang'
'Li, Yongxin'
'Ganguly, Rakesh'
'Zhao, Yanli'
_publ_section_title
;
 Halogen-Assisted Piezochromic Supramolecular Assemblies for Versatile
 Haptic Memory.
;
_journal_issue                   1
_journal_name_full               'Journal of the American Chemical Society'
_journal_page_first              436
_journal_page_last               441
_journal_paper_doi               10.1021/jacs.6b11057
_journal_volume                  139
_journal_year                    2017
_chemical_formula_sum            'C34 H20 F4 I2 N2'
_chemical_formula_weight         786.32
_space_group_crystal_system      triclinic
_space_group_IT_number           2
_space_group_name_Hall           '-P 1'
_space_group_name_H-M_alt        'P -1'
_symmetry_space_group_name_Hall  '-P 1'
_symmetry_space_group_name_H-M   'P -1'
_atom_sites_solution_hydrogens   geom
_cell_angle_alpha                116.789(5)
_cell_angle_beta                 105.997(5)
_cell_angle_gamma                92.452(6)
_cell_formula_units_Z            1
_cell_length_a                   8.111(4)
_cell_length_b                   10.142(5)
_cell_length_c                   10.582(5)
_cell_measurement_reflns_used    3616
_cell_measurement_temperature    103.(2)
_cell_measurement_theta_max      23.5728
_cell_measurement_theta_min      2.2846
_cell_volume                     732.7(6)
_computing_cell_refinement       'SAINT V8.35A (Bruker AXS Inc., 2015)'
_computing_data_collection       'APEX3 (Bruker AXS Inc., 2015)'
_computing_data_reduction        'SAINT V8.35A (Bruker AXS Inc., 2015)'
_computing_molecular_graphics    'XP (Bruker AXS Inc., 2015)'
_computing_publication_material  'APEX3 (Bruker AXS Inc., 2015)'
_computing_structure_refinement  'SHELXL-2014/7 (Sheldrick, 2014)'
_computing_structure_solution    'XT, VERSION 2014/4'
_diffrn_ambient_temperature      103.(2)
_diffrn_detector_area_resol_mean 8.3333
_diffrn_measured_fraction_theta_full 0.996
_diffrn_measured_fraction_theta_max 0.996
_diffrn_measurement_device_type  'CCD area detector'
_diffrn_measurement_method       'phi and omega scans'
_diffrn_radiation_monochromator  graphite
_diffrn_radiation_type           MoK\a
_diffrn_radiation_wavelength     0.71073
_diffrn_reflns_av_unetI/netI     0.0569
_diffrn_reflns_limit_h_max       9
_diffrn_reflns_limit_h_min       -10
_diffrn_reflns_limit_k_max       11
_diffrn_reflns_limit_k_min       -13
_diffrn_reflns_limit_l_max       13
_diffrn_reflns_limit_l_min       0
_diffrn_reflns_number            3348
_diffrn_reflns_theta_full        27.46
_diffrn_reflns_theta_max         27.46
_diffrn_reflns_theta_min         2.29
_diffrn_source                   'fine-focus sealed tube'
_diffrn_source_type              'Bruker KappaCCD'
_exptl_absorpt_coefficient_mu    2.199
_exptl_absorpt_correction_T_max  0.84
_exptl_absorpt_correction_T_min  0.58
_exptl_absorpt_correction_type   multi-scan
_exptl_absorpt_process_details
'TWINABS - Bruker AXS scaling for twinned crystals - Version 2012/1'
_exptl_crystal_colour            yellow
_exptl_crystal_density_diffrn    1.782
_exptl_crystal_density_method    'not measured'
_exptl_crystal_description       plate
_exptl_crystal_F_000             380
_exptl_crystal_size_max          0.420
_exptl_crystal_size_mid          0.200
_exptl_crystal_size_min          0.080
_refine_diff_density_max         1.413
_refine_diff_density_min         -1.064
_refine_ls_extinction_method     none
_refine_ls_goodness_of_fit_ref   1.043
_refine_ls_hydrogen_treatment    constr
_refine_ls_matrix_type           full
_refine_ls_number_parameters     371
_refine_ls_number_reflns         3348
_refine_ls_number_restraints     814
_refine_ls_restrained_S_all      0.934
_refine_ls_R_factor_all          0.0464
_refine_ls_R_factor_gt           0.0373
_refine_ls_shift/su_max          0.000
_refine_ls_shift/su_mean         0.000
_refine_ls_structure_factor_coef Fsqd
_refine_ls_weighting_details
'w=1/[\s^2^(Fo^2^)+(0.0435P)^2^+0.6895P] where P=(Fo^2^+2Fc^2^)/3'
_refine_ls_weighting_scheme      calc
_refine_ls_wR_factor_gt          0.0861
_refine_ls_wR_factor_ref         0.0911
_reflns_number_gt                2917
_reflns_number_total             3348
_reflns_threshold_expression     'I > 2\s(I)'
_cod_data_source_file            ja6b11057_si_003.cif
_cod_data_source_block           zhao53s_0m_5
_cod_depositor_comments
;
The following automatic conversions were performed:

'_exptl_absorpt_correction_type' value 'Multi-Scan' changed to
'multi-scan' according to
/home/data/users/saulius/crontab/automatic-downloads/current/ACS/lib/dictionaries/cif_core.dic
dictionary named 'cif_core.dic' version 2.4.2 from 2011-04-26.

Automatic conversion script
Id: cif_fix_values 4973 2017-02-22 13:04:09Z antanas 
;
_cod_database_code               4125634
_shelx_res_file
;


    zhao53s_0m_5.res created by SHELXL-2014/7


TITL zhao53s_0m_5 in P-1
CELL  0.71073   8.1109  10.1421  10.5816  116.789  105.997   92.452
ZERR    1.000   0.0041   0.0051   0.0053    0.005    0.005    0.006
LATT 1
SFAC C  H  N  F  I
UNIT 34  20  2  4  2
L.S. 8
BOND
acta
merg 0
rigu
simu 0.01
sadi i1 c15 i1 c15a
flat c15 > C17 F1 f2 I1
FMAP 2
PLAN 10
SIZE 0.08 0.20 0.42
TEMP -170
WGHT    0.043500    0.689500
BASF   0.54302
FVAR       0.50985
part 1 10.5
C1    1    0.949940    0.785212   -0.055781    10.50000    0.01923    0.01754 =
         0.01852    0.00675    0.00431    0.00128
AFIX  43
H1    2    0.919021    0.807056   -0.136698    10.50000   -1.20000
AFIX   0
C2    1    0.849843    0.825450    0.037208    10.50000    0.01739    0.01808 =
         0.01566    0.00721    0.00194    0.00105
AFIX  43
H2    2    0.751351    0.869705    0.018480    10.50000   -1.20000
AFIX   0
C3    1    0.898531    0.798710    0.161428    10.50000    0.01756    0.01642 =
         0.01601    0.00445    0.00576    0.00039
C4    1    1.043817    0.735135    0.182023    10.50000    0.02103    0.01681 =
         0.01471    0.00455    0.00099    0.00174
AFIX  43
H4    2    1.082077    0.717471    0.265367    10.50000   -1.20000
AFIX   0
C5    1    1.134054    0.697011    0.079730    10.50000    0.01953    0.01812 =
         0.01754    0.00361    0.00336    0.00290
AFIX  43
H5    2    1.234254    0.653799    0.095646    10.50000   -1.20000
AFIX   0
C6    1    0.796672    0.832556    0.265892    10.50000    0.01971    0.02108 =
         0.00946    0.00317    0.00225   -0.00238
AFIX  43
H6    2    0.851098    0.814873    0.347125    10.50000   -1.20000
AFIX   0
C7    1    0.670734    0.874045    0.272958    10.50000    0.01871    0.02030 =
         0.00550   -0.00112    0.00130   -0.00011
AFIX  43
H7    2    0.602884    0.867439    0.180679    10.50000   -1.20000
AFIX   0
C8    1    0.581510    0.936911    0.389027    10.50000    0.01752    0.01889 =
         0.00871    0.00202    0.00319    0.00267
C9    1    0.447082    1.015499    0.368435    10.50000    0.01610    0.01581 =
         0.01170    0.00437    0.00187   -0.00037
C10   1    0.390421    1.034199    0.236210    10.50000    0.01837    0.01897 =
         0.01378    0.00744    0.00306    0.00337
AFIX  43
H10   2    0.446835    0.994825    0.162909    10.50000   -1.20000
AFIX   0
C11   1    0.256706    1.107856    0.215721    10.50000    0.02107    0.02003 =
         0.02300    0.01231   -0.00098    0.00078
AFIX  43
H11   2    0.218634    1.116150    0.126731    10.50000   -1.20000
AFIX   0
C12   1    0.174102    1.172043    0.325608    10.50000    0.01488    0.02009 =
         0.02488    0.00994    0.00016    0.00083
AFIX  43
H12   2    0.083688    1.225567    0.311262    10.50000   -1.20000
AFIX   0
C13   1    0.223796    1.157267    0.451300    10.50000    0.01780    0.02013 =
         0.02381    0.00837    0.00312    0.00221
AFIX  43
H13   2    0.166421    1.199887    0.523495    10.50000   -1.20000
AFIX   0
C14   1    0.361115    1.078649    0.477359    10.50000    0.01389    0.01878 =
         0.01502    0.00751    0.00151    0.00107
C15   1    0.465102    0.534472    0.386811    10.50000    0.01489    0.01986 =
         0.01520    0.00796   -0.00060   -0.00267
C16   1    0.592102    0.445580    0.395797    10.50000    0.01145    0.02046 =
         0.01653    0.00713    0.00335   -0.00069
C17   1    0.621712    0.412544    0.512606    10.50000    0.01554    0.01897 =
         0.01546    0.00451    0.00104    0.00145
F1    4    0.426687    0.570375    0.273128    10.50000    0.02369    0.02579 =
         0.01542    0.00924    0.00206    0.00183
F2    4    0.742936    0.330207    0.527992    10.50000    0.02422    0.03106 =
         0.02150    0.00979    0.00460    0.01036

N1    3    1.084993    0.718940   -0.041692    10.50000    0.01727    0.01638 =
         0.01673    0.00452    0.00255    0.00202
part 2 10.5
same c1 > N1
C1A   1    1.159369    0.875129    0.088960    10.50000    0.01910    0.01741 =
         0.01906    0.00546    0.00302   -0.00089
AFIX  43
H1A   2    1.267524    0.930699    0.105422    10.50000   -1.20000
AFIX   0
C2A   1    1.082201    0.932760    0.197467    10.50000    0.02227    0.01653 =
         0.01735    0.00237    0.00296   -0.00243
AFIX  43
H2A   2    1.137313    1.024920    0.286865    10.50000   -1.20000
AFIX   0
C3A   1    0.920322    0.854276    0.175504    10.50000    0.01848    0.02047 =
         0.01450    0.00455    0.00251   -0.00034
C4A   1    0.845897    0.717261    0.041102    10.50000    0.01668    0.02032 =
         0.01670    0.00397    0.00182   -0.00149
AFIX  43
H4A   2    0.737163    0.659714    0.020703    10.50000   -1.20000
AFIX   0
C5A   1    0.937392    0.668938   -0.061088    10.50000    0.01582    0.02025 =
         0.01429    0.00544    0.00272    0.00355
AFIX  43
H5A   2    0.887907    0.576726   -0.151696    10.50000   -1.20000
AFIX   0

C6A   1    0.834083    0.913382    0.290560    10.50000    0.02144    0.01724 =
         0.00938    0.00319    0.00131   -0.00053
AFIX  43
H6A   2    0.912761    0.939691    0.387107    10.50000   -1.20000
AFIX   0

C7A   1    0.701848    0.935595    0.295147    10.50000    0.01798    0.02011 =
         0.01025    0.00351    0.00301    0.00094
AFIX  43
H7A   2    0.634792    0.935769    0.206117    10.50000   -1.20000
AFIX   0
C8A   1    0.597006    0.965422    0.399400    10.50000    0.01478    0.01779 =
         0.01004    0.00598    0.00355    0.00062
C9A   1    0.461981    0.856009    0.374729    10.50000    0.01388    0.01950 =
         0.01313    0.00805    0.00127    0.00267
C10A  1    0.413936    0.708438    0.244768    10.50000    0.01773    0.02326 =
         0.01570    0.00668    0.00230    0.00213
AFIX  43
H10A  2    0.476474    0.683837    0.175824    10.50000   -1.20000
AFIX   0
C11A  1    0.279600    0.603259    0.219220    10.50000    0.01882    0.02360 =
         0.01756    0.00708    0.00061    0.00175
AFIX  43
H11A  2    0.249412    0.507009    0.132578    10.50000   -1.20000
AFIX   0
C12A  1    0.185243    0.637030    0.321208    10.50000    0.01704    0.02393 =
         0.02111    0.00915    0.00109    0.00040
AFIX  43
H12A  2    0.092755    0.563253    0.303054    10.50000   -1.20000
AFIX   0
C13A  1    0.227217    0.775430    0.445400    10.50000    0.01332    0.02204 =
         0.01950    0.01160    0.00149    0.00636
AFIX  43
H13A  2    0.163538    0.796539    0.513196    10.50000   -1.20000
AFIX   0
C14A  1    0.364979    0.889327    0.475650    10.50000    0.01421    0.01955 =
         0.01332    0.00673    0.00098    0.00263
C15A  1    0.633333    0.595868    0.510526    10.50000    0.01379    0.01985 =
         0.01398    0.00616    0.00102   -0.00327
C16A  1    0.584516    0.447039    0.389674    10.50000    0.01214    0.01920 =
         0.01634    0.00832    0.00132    0.00025
C17A  1    0.453135    0.352496    0.386178    10.50000    0.01467    0.01519 =
         0.01479    0.00269    0.00106    0.00063
F1A   4    0.763785    0.694303    0.522819    10.50000    0.01921    0.01860 =
         0.02073    0.00502    0.00394   -0.00223
F2A   4    0.408995    0.206265    0.280350    10.50000    0.02559    0.01602 =
         0.01515    0.00107    0.00568    0.00042
N1A   3    1.091923    0.745951   -0.038155    10.50000    0.01535    0.01704 =
         0.01531    0.00535    0.00569    0.00053
part 0
I1    5    0.724994    0.367778    0.238289    11.00000    0.01789    0.02268 =
         0.01648    0.00653    0.00677    0.00319
HKLF 5

REM  zhao53s_0m_5 in P-1
REM R1 =  0.0373 for    2917 Fo > 4sig(Fo)  and  0.0464 for all    3348 data
REM    371 parameters refined using    814 restraints

END

WGHT      0.0435      0.6895

REM Highest difference peak  1.413,  deepest hole -1.064,  1-sigma level  0.153
Q1    1   0.6342  0.3854  0.2756  11.00000  0.05    1.41
Q2    1   0.6627  0.2791  0.2005  11.00000  0.05    1.29
Q3    1   0.7539  0.4569  0.2358  11.00000  0.05    1.12
Q4    1   0.8166  0.3507  0.1992  11.00000  0.05    1.05
Q5    1   0.7827  0.3403  0.2974  11.00000  0.05    0.96
Q6    1   0.6527  0.3748  0.1689  11.00000  0.05    0.87
Q7    1   1.1347  0.7115 -0.1276  11.00000  0.05    0.74
Q8    1   0.5253  0.4260  0.4138  11.00000  0.05    0.66
Q9    1   0.9239  0.4378  0.3189  11.00000  0.05    0.58
Q10   1   0.7258  0.4669  0.3780  11.00000  0.05    0.57
;
_shelx_res_checksum              93681
_shelx_hkl_file
;
   1   0   0 269.601 10.5385  -1
   1   0   0 269.601 10.5385   2
   2   0   0 2068.45 76.8257  -1
   2   0   0 2068.45 76.8257   2
   3   0   0 111.611 6.23592  -1
   3   0   0 111.611 6.23592   2
   4   0   0 317.973 25.5515  -1
   4   0   0 317.973 25.5515   2
   5   0   0 121.064 4.59338   2
   6   0   0 361.032 10.6647   2
   7   0   0 215.293 9.31135   2
   8   0   0 5.01359 2.95573   2
   9   0   0 141.352 12.3596   2
 -10   1   0 36.3434 7.06850   2
  -9   1   0 38.2759 5.99557   2
  -8   1   0 167.605 10.0741   2
  -7   1   0 14.6701 2.62182   2
  -6   1   0 549.729 14.2165   2
  -5   1   0 9.84619 1.43123   2
  -4   1   0 939.305 21.9131   2
  -3   1   0 125.267 6.61459  -1
  -3  -1   1 125.267 6.61459   2
  -2   1   0 1401.41 46.3713  -1
  -2  -1   1 1401.41 46.3713   2
  -1   1   0 387.908 15.2302  -1
  -1  -1   1 387.908 15.2302   2
   0   1   0 519.551 20.7430  -1
   0  -1   1 519.551 20.7430   2
   1   1   0 1596.86 60.9520  -1
   1  -1   1 1596.86 60.9520   2
   2   1   0 271.268 10.1802  -1
   2  -1   1 271.268 10.1802   2
   3   1   0 1288.73 44.0045  -1
   3  -1   1 1288.73 44.0045   2
   4   1   0 41.9020 5.10987  -1
   4  -1   1 41.9020 5.10987   2
   5   1   0 504.518 13.6072   2
   6   1   0 14.2298 2.17485   2
   7   1   0 285.163 10.3126   2
   8   1   0 39.2656 5.51979   2
   9   1   0 67.7949 8.40479   2
 -10   2   0 60.1643 7.60308   2
  -9   2   0 2.15974 2.68262   2
  -8   2   0 214.601 12.8019   2
  -7   2   0 80.1504 5.24633   2
  -6   2   0 174.619 6.55771   2
  -5   2   0 419.383 10.9449   2
  -4   2   0 61.6497 2.85802   2
  -3   2   0 617.066 24.5664  -1
  -3  -2   2 617.066 24.5664   2
  -2   2   0 56.2282 3.78230  -1
  -2  -2   2 56.2282 3.78230   2
  -1   2   0 2226.14 55.4630  -1
  -1  -2   2 2226.14 55.4630   2
   0   2   0 259.935 7.65473  -1
   0  -2   2 259.935 7.65473   2
   1   2   0 9999.99 295.572  -1
   1  -2   2 9999.99 295.572   2
   2   2   0 738.930 26.0983  -1
   2  -2   2 738.930 26.0983   2
   3   2   0 1154.40 39.7216  -1
   3  -2   2 1154.40 39.7216   2
   4   2   0 348.842 16.3284  -1
   4  -2   2 348.842 16.3284   2
   5   2   0 158.996 6.74041   2
   5   2   0 225.318 22.4545  -1
   5  -2   2 225.318 22.4545   2
   6   2   0 237.496 8.11002   2
   7   2   0 87.8502 6.81984   2
   8   2   0 214.622 13.5093   2
   9   2   0 0.83763 3.87520   2
 -10   3   0 28.6830 5.08773   2
  -9   3   0 111.968 9.87789   2
  -8   3   0 31.6302 4.58651   2
  -7   3   0 282.518 10.9235   2
  -6   3   0 4.99364 1.77667   2
  -5   3   0 569.562 15.1215   2
  -4   3   0 191.037 5.94690   2
  -3   3   0 1128.99 54.5220  -1
  -3  -3   3 1128.99 54.5220   2
  -2   3   0 354.161 12.3175  -1
  -2  -3   3 354.161 12.3175   2
  -1   3   0 871.638 21.1318  -1
  -1  -3   3 871.638 21.1318   2
   0   3   0 1081.70 27.9349  -1
   0  -3   3 1081.70 27.9349   2
   1   3   0 325.920 10.8643  -1
   1  -3   3 325.920 10.8643   2
   2   3   0 1524.02 39.0340  -1
   2  -3   3 1524.02 39.0340   2
   3   3   0 20.2560 2.80055  -1
   3  -3   3 20.2560 2.80055   2
   4   3   0 752.603 28.0964  -1
   4  -3   3 752.603 28.0964   2
   5   3   0 11.4686 2.09764   2
   6   3   0 328.819 12.2464   2
   7   3   0 53.9832 5.22437   2
   8   3   0 117.799 8.39475   2
   9   3   0 56.2813 7.04773   2
  -9   4   0 120.446 10.0757   2
  -8   4   0 31.4446 3.93136   2
  -7   4   0 129.277 7.32597   2
  -6   4   0 86.6782 5.50949   2
  -5   4   0 190.087 7.46075   2
  -4   4   0 717.092 16.5102   2
  -3   4   0 100.916 6.23683  -1
  -3  -4   4 100.916 6.23683   2
  -2   4   0 845.310 22.4558  -1
  -2  -4   4 845.310 22.4558   2
  -1   4   0 26.1911 1.83332  -1
  -1  -4   4 26.1911 1.83332   2
   0   4   0 1820.62 46.6810  -1
   0  -4   4 1820.62 46.6810   2
   1   4   0 168.843 6.05201  -1
   1  -4   4 168.843 6.05201   2
   2   4   0 2806.51 96.1315  -1
   2  -4   4 2806.51 96.1315   2
   3   4   0 414.908 15.1098  -1
   3  -4   4 414.908 15.1098   2
   4   4   0 226.313 11.0735  -1
   4  -4   4 226.313 11.0735   2
   6   4   0 16.3583 3.15172   2
   7   4   0 137.665 9.26294   2
   8   4   0 6.32181 3.31147   2
  -9   5   0 2.12185 3.21065   2
  -8   5   0 195.969 10.7313   2
  -7   5   0 2.36048 2.00189   2
  -6   5   0 328.521 10.5510   2
  -5   5   0 13.6960 2.08765   2
  -4   5   0 266.066 7.70266   2
  -3   5   0 394.926 24.4493  -1
  -3  -5   5 394.926 24.4493   2
  -3   5   0 220.748 7.79465   2
  -2   5   0 532.853 15.1681  -1
  -2  -5   5 532.853 15.1681   2
  -1   5   0 243.973 7.37944  -1
  -1  -5   5 243.973 7.37944   2
   0   5   0 247.338 8.10182  -1
   0  -5   5 247.338 8.10182   2
   1   5   0 882.243 25.8525  -1
   1  -5   5 882.243 25.8525   2
   2   5   0 3.11494 1.87417  -1
   2  -5   5 3.11494 1.87417   2
   3   5   0 928.908 34.7090  -1
   3  -5   5 928.908 34.7090   2
   4   5   0 6.79957 5.52908  -1
   4  -5   5 6.79957 5.52908   2
   5   5   0 195.402 17.6492  -1
   5  -5   5 195.402 17.6492   2
   7   5   0 95.2070 7.74284   2
   8   5   0 74.5895 8.11359   2
  -9   6   0 19.9436 4.59597   2
  -8   6   0 66.0647 6.50367   2
  -7   6   0 76.3043 6.13157   2
  -6   6   0 87.0913 6.09923   2
  -5   6   0 207.779 10.2844   2
  -4   6   0 30.8124 3.55928   2
  -3   6   0 1026.46 56.8554  -1
  -3  -6   6 1026.46 56.8554   2
  -2   6   0 35.6738 3.65596  -1
  -2  -6   6 35.6738 3.65596   2
  -1   6   0 549.245 14.9183  -1
  -1  -6   6 549.245 14.9183   2
   0   6   0 23.2395 2.60756  -1
   0  -6   6 23.2395 2.60756   2
   1   6   0 613.998 17.6138  -1
   1  -6   6 613.998 17.6138   2
   2   6   0 81.4729 5.38955  -1
   2  -6   6 81.4729 5.38955   2
   3   6   0 1349.52 49.5510  -1
   3  -6   6 1349.52 49.5510   2
   4   6   0 685.231 27.6785  -1
   4  -6   6 685.231 27.6785   2
   5   6   0 75.5646 12.7235  -1
   5  -6   6 75.5646 12.7235   2
  -9   7   0 63.4295 7.65250   2
  -8   7   0 3.41456 3.25498   2
  -7   7   0 137.327 8.63851   2
  -6   7   0 21.7923 4.31952   2
  -5   7   0 230.591 13.7485   2
  -4   7   0 91.0916 7.59410   2
  -3   7   0 266.908 16.4355  -1
  -3  -7   7 266.908 16.4355   2
  -2   7   0 311.313 14.9932  -1
  -2  -7   7 311.313 14.9932   2
  -1   7   0 269.392 8.80593  -1
  -1  -7   7 269.392 8.80593   2
   0   7   0 321.023 10.6330  -1
   0  -7   7 321.023 10.6330   2
   1   7   0 151.722 7.36312  -1
   1  -7   7 151.722 7.36312   2
   2   7   0 355.674 14.3038  -1
   2  -7   7 355.674 14.3038   2
   3   7   0 -1.2031 3.97286  -1
   3  -7   7 -1.2031 3.97286   2
   4   7   0 376.916 18.0250  -1
   4  -7   7 376.916 18.0250   2
   5   7   0 8.23594 6.69611  -1
   5  -7   7 8.23594 6.69611   2
  -8   8   0 31.1035 7.00984   2
  -7   8   0 18.4736 5.20740   2
  -6   8   0 41.5622 6.22913   2
  -5   8   0 82.1917 8.12111   2
  -4   8   0 153.796 10.9843   2
  -3   8   0 0.87842 2.19917   2
  -3   8   0 -2.9170 6.06839  -1
  -3  -8   8 -2.9170 6.06839   2
  -2   8   0 352.574 14.9299  -1
  -2  -8   8 352.574 14.9299   2
  -1   8   0 43.8427 4.02900  -1
  -1  -8   8 43.8427 4.02900   2
   0   8   0 191.057 9.06622  -1
   0  -8   8 191.057 9.06622   2
   1   8   0 68.3464 5.55182  -1
   1  -8   8 68.3464 5.55182   2
   2   8   0 247.474 11.0582  -1
   2  -8   8 247.474 11.0582   2
   3   8   0 229.244 10.8259  -1
   3  -8   8 229.244 10.8259   2
   4   8   0 173.129 11.6071  -1
   4  -8   8 173.129 11.6071   2
   5   8   0 207.108 15.3746  -1
   5  -8   8 207.108 15.3746   2
  -7   9   0 2.77486 3.70422   2
  -6   9   0 59.3536 7.53974   2
  -5   9   0 11.2750 3.83910   2
  -4   9   0 66.9883 7.31732   2
  -3   9   0 122.796 15.2209  -1
  -3  -9   9 122.796 15.2209   2
  -2   9   0 101.739 7.80114  -1
  -2  -9   9 101.739 7.80114   2
  -1   9   0 295.828 12.0614  -1
  -1  -9   9 295.828 12.0614   2
   0   9   0 55.2798 6.36288  -1
   0  -9   9 55.2798 6.36288   2
   1   9   0 216.268 10.4423  -1
   1  -9   9 216.268 10.4423   2
   2   9   0 25.9807 4.62878  -1
   2  -9   9 25.9807 4.62878   2
   3   9   0 206.147 10.4568  -1
   3  -9   9 206.147 10.4568   2
   4   9   0 3.17900 6.12012  -1
   4  -9   9 3.17900 6.12012   2
  -6  10   0 11.4556 4.78288   2
  -5  10   0 117.818 11.9330   2
  -4  10   0 12.8831 4.45605   2
  -2  10   0 7.61570 6.82033  -1
  -2 -10  10 7.61570 6.82033   2
  -1  10   0 147.385 10.5963  -1
  -1 -10  10 147.385 10.5963   2
   0  10   0 32.9006 6.42435  -1
   0 -10  10 32.9006 6.42435   2
   1  10   0 105.941 8.78756  -1
   1 -10  10 105.941 8.78756   2
   2  10   0 21.8230 5.19954  -1
   2 -10  10 21.8230 5.19954   2
   3  10   0 87.3542 7.53925  -1
   3 -10  10 87.3542 7.53925   2
  -5  11   0 28.2779 5.82068   2
  -4  11   0 19.7015 5.37660   2
  -3  11   0 32.4171 7.38820   2
  -2  11   0 93.6472 11.1874  -1
  -2 -11  11 93.6472 11.1874   2
  -1  11   0 38.1492 7.65379  -1
  -1 -11  11 38.1492 7.65379   2
   0  11   0 111.938 9.76695  -1
   0 -11  11 111.938 9.76695   2
   1  11   0 12.9103 6.53697  -1
   1 -11  11 12.9103 6.53697   2
   1 -12   1 54.7655 8.37681   2
   2 -12   1 2.94427 3.89978   2
   3 -12   1 39.5911 11.5051   2
  -2 -11   1 -0.7368 4.36005  -1
   2 -11  10 -0.7368 4.36005   2
  -1 -11   1 123.835 8.84186  -1
   1 -11  10 123.835 8.84186   2
   0 -11   1 56.4776 6.79721  -1
   0 -11  10 56.4776 6.79721   2
   1 -11   1 119.598 8.63821  -1
  -1 -11  10 119.598 8.63821   2
   2 -11   1 92.2381 11.4640  -1
  -2 -11  10 92.2381 11.4640   2
   3 -11   1 81.4394 22.7505  -1
  -3 -11  10 81.4394 22.7505   2
   4 -11   1 76.3372 9.38302   2
   5 -11   1 14.4922 5.72028   2
  -4 -10   1 67.6236 8.58159  -1
   4 -10   9 67.6236 8.58159   2
  -3 -10   1 136.015 8.85187  -1
   3 -10   9 136.015 8.85187   2
  -2 -10   1 140.739 8.69981  -1
   2 -10   9 140.739 8.69981   2
  -1 -10   1 27.8980 5.34507  -1
   1 -10   9 27.8980 5.34507   2
   0 -10   1 168.997 8.48528  -1
   0 -10   9 168.997 8.48528   2
   1 -10   1 9.24557 4.39898  -1
  -1 -10   9 9.24557 4.39898   2
   2 -10   1 336.168 15.5216  -1
  -2 -10   9 336.168 15.5216   2
   3 -10   1 17.1360 8.11690  -1
  -3 -10   9 17.1360 8.11690   2
   4 -10   1 65.8809 6.62196   2
   5 -10   1 36.1900 5.94077   2
   6 -10   1 61.2148 8.90275   2
   7 -10   1 10.5704 6.63798   2
  -5  -9   1 0.25315 7.98180  -1
   5  -9   8 0.25315 7.98180   2
  -4  -9   1 191.782 13.5057  -1
   4  -9   8 191.782 13.5057   2
  -3  -9   1 -3.5931 4.08762  -1
   3  -9   8 -3.5931 4.08762   2
  -2  -9   1 204.857 9.80647  -1
   2  -9   8 204.857 9.80647   2
  -1  -9   1 42.0948 4.83615  -1
   1  -9   8 42.0948 4.83615   2
   0  -9   1 206.014 10.4752  -1
   0  -9   8 206.014 10.4752   2
   1  -9   1 159.891 7.79715  -1
  -1  -9   8 159.891 7.79715   2
   2  -9   1 148.186 7.56985  -1
  -2  -9   8 148.186 7.56985   2
   3  -9   1 212.965 19.3595  -1
  -3  -9   8 212.965 19.3595   2
   4  -9   1 39.1463 5.68505   2
   5  -9   1 143.069 11.1380   2
   6  -9   1 -1.5661 3.15848   2
   7  -9   1 101.919 11.3263   2
  -6  -8   1 156.115 29.3165  -1
   6  -8   7 156.115 29.3165   2
  -5  -8   1 10.6476 9.86727  -1
   5  -8   7 10.6476 9.86727   2
  -4  -8   1 149.066 12.0391  -1
   4  -8   7 149.066 12.0391   2
  -3  -8   1 148.902 9.10028  -1
   3  -8   7 148.902 9.10028   2
  -2  -8   1 60.9549 5.04972  -1
   2  -8   7 60.9549 5.04972   2
  -1  -8   1 220.264 9.48972  -1
   1  -8   7 220.264 9.48972   2
   0  -8   1 16.2390 3.50599  -1
   0  -8   7 16.2390 3.50599   2
   1  -8   1 334.154 10.6420  -1
  -1  -8   7 334.154 10.6420   2
   2  -8   1 49.5406 4.19029  -1
  -2  -8   7 49.5406 4.19029   2
   3  -8   1 349.787 19.4378  -1
  -3  -8   7 349.787 19.4378   2
   4  -8   1 25.5891 4.98937   2
   5  -8   1 91.3076 8.47731   2
   6  -8   1 73.5849 7.74621   2
   7  -8   1 49.4617 7.69442   2
   8  -8   1 75.6719 9.19584   2
  -6  -7   1 -16.652 15.3420  -1
   6  -7   6 -16.652 15.3420   2
  -5  -7   1 418.464 30.1936  -1
   5  -7   6 418.464 30.1936   2
  -4  -7   1 21.5626 5.21608  -1
   4  -7   6 21.5626 5.21608   2
  -3  -7   1 729.700 28.8688  -1
   3  -7   6 729.700 28.8688   2
  -2  -7   1 3.05708 3.20738  -1
   2  -7   6 3.05708 3.20738   2
  -1  -7   1 453.998 15.4965  -1
   1  -7   6 453.998 15.4965   2
   0  -7   1 103.553 5.00749  -1
   0  -7   6 103.553 5.00749   2
   1  -7   1 255.957 7.89628  -1
  -1  -7   6 255.957 7.89628   2
   2  -7   1 524.319 14.8401  -1
  -2  -7   6 524.319 14.8401   2
   3  -7   1 133.948 8.49847  -1
  -3  -7   6 133.948 8.49847   2
   4  -7   1 215.329 10.4002   2
   5  -7   1 10.1564 2.91124   2
   6  -7   1 263.120 12.7127   2
   7  -7   1 1.33600 2.43022   2
   8  -7   1 129.427 9.43748   2
   9  -7   1 3.24970 4.00788   2
  -7  -6   1 130.204 10.2963   2
  -5  -6   1 185.405 25.7337  -1
   5  -6   5 185.405 25.7337   2
  -4  -6   1 0.60114 4.76653  -1
   4  -6   5 0.60114 4.76653   2
  -3  -6   1 393.638 16.9138  -1
   3  -6   5 393.638 16.9138   2
  -2  -6   1 710.936 24.6785  -1
   2  -6   5 710.936 24.6785   2
  -1  -6   1 254.803 9.28819  -1
   1  -6   5 254.803 9.28819   2
   0  -6   1 1072.25 28.7195  -1
   0  -6   5 1072.25 28.7195   2
   1  -6   1 73.3338 3.58350  -1
  -1  -6   5 73.3338 3.58350   2
   2  -6   1 166.016 6.46142  -1
  -2  -6   5 166.016 6.46142   2
   3  -6   1 72.7106 4.94663  -1
  -3  -6   5 72.7106 4.94663   2
   4  -6   1 228.818 7.84554   2
   4  -6   1 420.745 26.7882  -1
  -4  -6   5 420.745 26.7882   2
   5  -6   1 28.0687 2.87073   2
   6  -6   1 56.2283 4.38680   2
   7  -6   1 73.3801 5.61652   2
   8  -6   1 18.0164 3.55551   2
   9  -6   1 109.192 9.72146   2
  -8  -5   1 46.6754 6.23396   2
  -7  -5   1 49.5245 6.06010   2
  -6  -5   1 187.482 11.5457   2
  -5  -5   1 -9.5946 10.2800  -1
   5  -5   4 -9.5946 10.2800   2
  -4  -5   1 518.745 25.0886  -1
   4  -5   4 518.745 25.0886   2
  -3  -5   1 137.593 6.80229  -1
   3  -5   4 137.593 6.80229   2
  -2  -5   1 662.903 24.7960  -1
   2  -5   4 662.903 24.7960   2
  -1  -5   1 141.860 5.62973  -1
   1  -5   4 141.860 5.62973   2
   0  -5   1 860.364 23.0532  -1
   0  -5   4 860.364 23.0532   2
   1  -5   1 313.561 8.41825  -1
  -1  -5   4 313.561 8.41825   2
   2  -5   1 215.485 7.68469  -1
  -2  -5   4 215.485 7.68469   2
   3  -5   1 873.162 23.5420  -1
  -3  -5   4 873.162 23.5420   2
   4  -5   1 58.3388 3.38951   2
   5  -5   1 310.410 9.82117   2
   6  -5   1 -1.6348 1.61990   2
   7  -5   1 235.751 10.9012   2
   8  -5   1 19.1449 3.64560   2
   9  -5   1 112.049 9.22429   2
  -9  -4   1 3.52873 5.68517   2
  -8  -4   1 134.271 8.96341   2
  -7  -4   1 68.3411 6.60192   2
  -6  -4   1 186.050 9.03404   2
  -5  -4   1 120.121 6.49147   2
  -5  -4   1 174.825 21.3377  -1
   5  -4   3 174.825 21.3377   2
  -4  -4   1 265.252 14.7307  -1
   4  -4   3 265.252 14.7307   2
  -3  -4   1 177.415 8.62350  -1
   3  -4   3 177.415 8.62350   2
  -2  -4   1 191.686 6.91460  -1
   2  -4   3 191.686 6.91460   2
  -1  -4   1 1996.50 51.1309  -1
   1  -4   3 1996.50 51.1309   2
   0  -4   1 39.5214 2.16329  -1
   0  -4   3 39.5214 2.16329   2
   1  -4   1 1948.18 43.8424  -1
  -1  -4   3 1948.18 43.8424   2
   2  -4   1 203.451 6.62591  -1
  -2  -4   3 203.451 6.62591   2
   3  -4   1 344.332 13.8148  -1
  -3  -4   3 344.332 13.8148   2
   5  -4   1 387.672 12.1094   2
   6  -4   1 162.243 8.36957   2
   7  -4   1 34.5628 4.08590   2
   8  -4   1 103.397 8.03390   2
   9  -4   1 0.06490 3.48695   2
  -9  -3   1 57.5207 6.73705   2
  -8  -3   1 24.6943 4.31306   2
  -7  -3   1 173.092 10.1505   2
  -6  -3   1 29.2235 3.37148   2
  -5  -3   1 441.355 13.0941   2
  -4  -3   1 21.9366 7.47684  -1
   4  -3   2 21.9366 7.47684   2
  -3  -3   1 1099.75 44.2944  -1
   3  -3   2 1099.75 44.2944   2
  -2  -3   1 125.308 5.38261  -1
   2  -3   2 125.308 5.38261   2
  -1  -3   1 875.226 24.7196  -1
   1  -3   2 875.226 24.7196   2
   0  -3   1 322.367 9.86543  -1
   0  -3   2 322.367 9.86543   2
   1  -3   1 627.533 15.6700  -1
  -1  -3   2 627.533 15.6700   2
   2  -3   1 1045.68 29.3358  -1
  -2  -3   2 1045.68 29.3358   2
   3  -3   1 114.248 6.92789  -1
  -3  -3   2 114.248 6.92789   2
   4  -3   1 787.336 58.6538  -1
  -4  -3   2 787.336 58.6538   2
   5  -3   1 17.8078 1.87828   2
   6  -3   1 303.124 10.9803   2
   7  -3   1 -0.3016 1.59954   2
   8  -3   1 183.663 12.1758   2
   9  -3   1 23.6423 4.93350   2
  -9  -2   1 98.1191 9.05206   2
  -8  -2   1 6.63118 2.63408   2
  -7  -2   1 181.028 10.2797   2
  -6  -2   1 90.9573 5.39856   2
  -5  -2   1 373.840 11.2841   2
  -4  -2   1 143.552 15.7795  -1
   4  -2   1 143.552 15.7795   2
  -3  -2   1 348.668 15.7837  -1
   3  -2   1 348.668 15.7837   2
  -2  -2   1 494.761 20.4715  -1
   2  -2   1 494.761 20.4715   2
  -1  -2   1 7.99916 1.00316  -1
   1  -2   1 7.99916 1.00316   2
   0  -2   1 5350.63 126.990  -1
   0  -2   1 5350.63 126.990   2
   1  -2   1 8.56636 0.90362  -1
  -1  -2   1 8.56636 0.90362   2
   2  -2   1 488.950 17.4062  -1
  -2  -2   1 488.950 17.4062   2
   3  -2   1 345.524 15.0350  -1
  -3  -2   1 345.524 15.0350   2
   4  -2   1 158.659 16.2306  -1
  -4  -2   1 158.659 16.2306   2
   5  -2   1 374.273 9.96659   2
   6  -2   1 138.445 6.82561   2
   7  -2   1 158.735 10.5910   2
   8  -2   1 2.38060 2.82568   2
   9  -2   1 122.085 10.1903   2
  -9  -1   1 58.5689 7.00946   2
  -8  -1   1 151.219 9.53967   2
  -7  -1   1 7.27353 2.15923   2
  -6  -1   1 399.086 13.1784   2
  -5  -1   1 2.21504 1.30935   2
  -4  -1   1 698.618 18.5085   2
  -3  -1   1 142.495 11.6517  -1
  -3   1   0 142.495 11.6517   2
  -2  -1   1 1481.55 69.4900  -1
  -2   1   0 1481.55 69.4900   2
  -1  -1   1 391.062 27.8871  -1
  -1   1   0 391.062 27.8871   2
   0  -1   1 339.330 25.8133  -1
   0   1   0 339.330 25.8133   2
   1  -1   1 1595.59 72.2720  -1
   1   1   0 1595.59 72.2720   2
   2  -1   1 250.327 10.8211  -1
   2   1   0 250.327 10.8211   2
   3  -1   1 1290.44 49.9782  -1
   3   1   0 1290.44 49.9782   2
   4  -1   1 41.1639 3.87965  -1
   4   1   0 41.1639 3.87965   2
   5  -1   1 386.594 10.2000   2
   6  -1   1 2.12235 1.49357   2
   7  -1   1 283.538 13.6928   2
   8  -1   1 5.23680 3.46756   2
   9  -1   1 81.4374 8.59381   2
 -10   0   1 73.8906 9.47588   2
  -9   0   1 4.20458 3.58102   2
  -8   0   1 215.008 9.93324   2
  -7   0   1 99.6420 5.97229   2
  -6   0   1 284.002 9.28701   2
  -5   0   1 421.210 12.1209   2
  -4   0   1 588.356 15.8141   2
  -3   0   1 1799.50 84.6919  -1
  -3   0   1 1799.50 84.6919   2
  -2   0   1 242.608 12.7391  -1
  -2   0   1 242.608 12.7391   2
  -1   0   1 10.2324 1.86013  -1
  -1   0   1 10.2324 1.86013   2
   0   0   1 240.876 10.0159  -1
   0   0   1 240.876 10.0159   2
   1   0   1 6031.04 158.540  -1
   1   0   1 6031.04 158.540   2
   2   0   1 11.6229 1.56985  -1
   2   0   1 11.6229 1.56985   2
   3   0   1 1737.21 58.5777  -1
   3   0   1 1737.21 58.5777   2
   4   0   1 579.513 21.4222  -1
   4   0   1 579.513 21.4222   2
   5   0   1 0.59930 1.04463   2
   6   0   1 181.933 8.61716   2
   7   0   1 34.9426 3.96967   2
   8   0   1 95.2388 8.68372   2
   9   0   1 8.66435 4.42626   2
 -10   1   1 37.2553 6.71273   2
  -9   1   1 154.557 11.4712   2
  -8   1   1 32.2041 4.02348   2
  -7   1   1 296.060 10.1748   2
  -6   1   1 -0.0846 1.26290   2
  -5   1   1 505.952 13.4388   2
  -4   1   1 48.8588 2.52606   2
  -3   1   1 1639.13 77.3725  -1
  -3  -1   2 1639.13 77.3725   2
  -2   1   1 262.343 7.19643   2
  -2   1   1 455.238 18.7944  -1
  -2  -1   2 455.238 18.7944   2
  -1   1   1 1052.86 65.7562  -1
  -1  -1   2 1052.86 65.7562   2
   0   1   1 443.048 12.9439  -1
   0  -1   2 443.048 12.9439   2
   1   1   1 131.031 4.09324  -1
   1  -1   2 131.031 4.09324   2
   2   1   1 1469.48 48.6057  -1
   2  -1   2 1469.48 48.6057   2
   3   1   1 23.0054 2.70297  -1
   3  -1   2 23.0054 2.70297   2
   4   1   1 1086.16 38.2461  -1
   4  -1   2 1086.16 38.2461   2
   5   1   1 2.93736 1.25285   2
   5   1   1 6.88464 6.53105  -1
   5  -1   2 6.88464 6.53105   2
   6   1   1 240.085 8.70953   2
   7   1   1 25.1110 3.58884   2
   8   1   1 122.249 9.89980   2
   9   1   1 26.3478 6.21777   2
 -10   2   1 4.42652 3.96002   2
  -9   2   1 45.3227 6.36303   2
  -8   2   1 4.74863 2.76038   2
  -7   2   1 129.666 6.90795   2
  -6   2   1 246.022 7.94840   2
  -5   2   1 219.423 7.34250   2
  -4   2   1 1147.26 29.5491   2
  -3   2   1 131.406 11.8452  -1
  -3  -2   3 131.406 11.8452   2
  -2   2   1 2244.33 106.773  -1
  -2  -2   3 2244.33 106.773   2
  -1   2   1 25.2672 1.96732  -1
  -1  -2   3 25.2672 1.96732   2
   0   2   1 1022.69 26.6153  -1
   0  -2   3 1022.69 26.6153   2
   1   2   1 12.6148 1.15170  -1
   1  -2   3 12.6148 1.15170   2
   2   2   1 2344.85 59.5223  -1
   2  -2   3 2344.85 59.5223   2
   3   2   1 396.925 13.6029  -1
   3  -2   3 396.925 13.6029   2
   4   2   1 533.652 20.5794  -1
   4  -2   3 533.652 20.5794   2
   6   2   1 14.7244 2.41997   2
   7   2   1 135.184 8.49153   2
   8   2   1 32.2641 5.04233   2
   9   2   1 73.6140 8.71261   2
 -10   3   1 75.5033 8.51654   2
  -9   3   1 6.53025 3.20589   2
  -8   3   1 321.093 13.1033   2
  -7   3   1 12.4361 2.49760   2
  -6   3   1 411.462 11.8923   2
  -5   3   1 16.0017 1.98906   2
  -4   3   1 606.763 15.5988   2
  -3   3   1 377.435 32.1703  -1
  -3  -3   4 377.435 32.1703   2
  -2   3   1 1233.73 50.4029  -1
  -2  -3   4 1233.73 50.4029   2
  -1   3   1 608.863 16.4732  -1
  -1  -3   4 608.863 16.4732   2
   0   3   1 179.489 5.82598  -1
   0  -3   4 179.489 5.82598   2
   1   3   1 880.037 25.5877  -1
   1  -3   4 880.037 25.5877   2
   2   3   1 136.630 5.41860  -1
   2  -3   4 136.630 5.41860   2
   3   3   1 1250.62 39.1746  -1
   3  -3   4 1250.62 39.1746   2
   4   3   1 20.9982 4.79915  -1
   4  -3   4 20.9982 4.79915   2
   5   3   1 540.041 33.0117  -1
   5  -3   4 540.041 33.0117   2
   7   3   1 104.894 7.51516   2
   8   3   1 33.9506 5.62595   2
 -10   4   1 74.4802 8.54861   2
  -9   4   1 14.4714 3.49404   2
  -8   4   1 131.843 8.33801   2
  -7   4   1 88.1641 6.00580   2
  -6   4   1 79.5009 4.87963   2
  -5   4   1 301.162 8.61923   2
  -4   4   1 44.2503 2.57217   2
  -3   4   1 1133.68 88.4993  -1
  -3  -4   5 1133.68 88.4993   2
  -2   4   1 -3.7555 2.02186  -1
  -2  -4   5 -3.7555 2.02186   2
  -1   4   1 832.909 22.4473  -1
  -1  -4   5 832.909 22.4473   2
   0   4   1 5.61677 1.50535  -1
   0  -4   5 5.61677 1.50535   2
   1   4   1 630.582 17.5072  -1
   1  -4   5 630.582 17.5072   2
   2   4   1 190.088 6.80200  -1
   2  -4   5 190.088 6.80200   2
   3   4   1 761.328 23.5947  -1
   3  -4   5 761.328 23.5947   2
   4   4   1 696.238 31.0550  -1
   4  -4   5 696.238 31.0550   2
   5   4   1 51.0324 9.62665  -1
   5  -4   5 51.0324 9.62665   2
   8   4   1 74.1255 7.90425   2
  -9   5   1 104.663 8.99896   2
  -8   5   1 2.06323 2.75465   2
  -7   5   1 324.488 12.0792   2
  -6   5   1 7.80223 2.19324   2
  -5   5   1 365.317 12.1674   2
  -4   5   1 64.9209 3.88715   2
  -3   5   1 666.602 38.4861  -1
  -3  -5   6 666.602 38.4861   2
  -2   5   1 608.017 27.2454  -1
  -2  -5   6 608.017 27.2454   2
  -1   5   1 399.811 11.1547  -1
  -1  -5   6 399.811 11.1547   2
   0   5   1 548.391 16.7889  -1
   0  -5   6 548.391 16.7889   2
   1   5   1 67.8778 3.79685  -1
   1  -5   6 67.8778 3.79685   2
   2   5   1 543.105 17.6002  -1
   2  -5   6 543.105 17.6002   2
   3   5   1 9.21330 3.25216  -1
   3  -5   6 9.21330 3.25216   2
   4   5   1 1008.88 35.2092  -1
   4  -5   6 1008.88 35.2092   2
   5   5   1 41.6190 9.12400  -1
   5  -5   6 41.6190 9.12400   2
  -9   6   1 59.3885 7.00532   2
  -8   6   1 47.0038 5.65036   2
  -7   6   1 79.9033 6.79184   2
  -6   6   1 179.799 9.35943   2
  -5   6   1 41.9626 5.27408   2
  -4   6   1 380.734 15.9594   2
  -4   6   1 573.289 50.9534  -1
  -4  -6   7 573.289 50.9534   2
  -3   6   1 -4.5611 6.64415  -1
  -3  -6   7 -4.5611 6.64415   2
  -2   6   1 852.303 47.9237  -1
  -2  -6   7 852.303 47.9237   2
  -1   6   1 -2.6620 2.45475  -1
  -1  -6   7 -2.6620 2.45475   2
   0   6   1 858.212 23.9384  -1
   0  -6   7 858.212 23.9384   2
   1   6   1 116.303 5.67231  -1
   1  -6   7 116.303 5.67231   2
   2   6   1 176.516 8.82963  -1
   2  -6   7 176.516 8.82963   2
   3   6   1 45.3474 5.66327  -1
   3  -6   7 45.3474 5.66327   2
   4   6   1 194.096 11.6211  -1
   4  -6   7 194.096 11.6211   2
   5   6   1 262.269 16.6507  -1
   5  -6   7 262.269 16.6507   2
  -9   7   1 -1.9313 3.53632   2
  -8   7   1 170.031 12.4890   2
  -7   7   1 -3.7047 2.94508   2
  -6   7   1 247.014 14.9776   2
  -5   7   1 15.7497 4.10955   2
  -4   7   1 211.094 12.9926   2
  -4   7   1 258.260 29.3615  -1
  -4  -7   8 258.260 29.3615   2
  -3   7   1 176.053 16.6173  -1
  -3  -7   8 176.053 16.6173   2
  -2   7   1 233.181 18.9332  -1
  -2  -7   8 233.181 18.9332   2
  -1   7   1 463.304 13.3407  -1
  -1  -7   8 463.304 13.3407   2
   0   7   1 77.8535 4.95323  -1
   0  -7   8 77.8535 4.95323   2
   1   7   1 362.158 13.7987  -1
   1  -7   8 362.158 13.7987   2
   2   7   1 10.5846 3.38823  -1
   2  -7   8 10.5846 3.38823   2
   3   7   1 245.522 11.7903  -1
   3  -7   8 245.522 11.7903   2
   4   7   1 20.7569 6.09658  -1
   4  -7   8 20.7569 6.09658   2
   5   7   1 223.454 15.7305  -1
   5  -7   8 223.454 15.7305   2
   6   7   1 78.3960 25.0337  -1
   6  -7   8 78.3960 25.0337   2
  -8   8   1 38.1049 8.03809   2
  -7   8   1 117.096 11.7519   2
  -6   8   1 1.33724 3.18724   2
  -5   8   1 181.977 12.8530   2
  -4   8   1 14.5888 3.89469   2
  -3   8   1 334.392 24.5276  -1
  -3  -8   9 334.392 24.5276   2
  -2   8   1 1.69737 6.84339  -1
  -2  -8   9 1.69737 6.84339   2
  -1   8   1 541.887 18.5277  -1
  -1  -8   9 541.887 18.5277   2
   0   8   1 152.303 8.35263  -1
   0  -8   9 152.303 8.35263   2
   1   8   1 284.305 12.2032  -1
   1  -8   9 284.305 12.2032   2
   2   8   1 111.170 7.29487  -1
   2  -8   9 111.170 7.29487   2
   3   8   1 73.5939 6.62077  -1
   3  -8   9 73.5939 6.62077   2
   4   8   1 179.699 10.6184  -1
   4  -8   9 179.699 10.6184   2
   5   8   1 80.9904 11.3237  -1
   5  -8   9 80.9904 11.3237   2
  -7   9   1 118.557 12.5067   2
  -6   9   1 12.2031 5.06073   2
  -5   9   1 120.180 10.2063   2
  -4   9   1 55.8248 6.24579   2
  -3   9   1 71.9094 7.24065   2
  -3   9   1 101.272 14.9547  -1
  -3  -9  10 101.272 14.9547   2
  -2   9   1 142.764 14.2672  -1
  -2  -9  10 142.764 14.2672   2
  -1   9   1 101.494 8.63257  -1
  -1  -9  10 101.494 8.63257   2
   0   9   1 272.504 13.8366  -1
   0  -9  10 272.504 13.8366   2
   1   9   1 19.5179 5.21006  -1
   1  -9  10 19.5179 5.21006   2
   2   9   1 228.628 11.4427  -1
   2  -9  10 228.628 11.4427   2
   3   9   1 0.45212 4.15577  -1
   3  -9  10 0.45212 4.15577   2
   4   9   1 100.051 10.1944  -1
   4  -9  10 100.051 10.1944   2
  -6  10   1 26.7268 6.35117   2
  -5  10   1 1.46346 3.80099   2
  -4  10   1 136.691 11.6351   2
  -3  10   1 0.78312 3.21322   2
  -3  10   1 -1.4147 12.7166  -1
  -3 -10  11 -1.4147 12.7166   2
  -2  10   1 229.470 22.6611  -1
  -2 -10  11 229.470 22.6611   2
  -1  10   1 34.6562 7.29477  -1
  -1 -10  11 34.6562 7.29477   2
   0  10   1 126.605 10.1099  -1
   0 -10  11 126.605 10.1099   2
   1  10   1 116.448 9.77040  -1
   1 -10  11 116.448 9.77040   2
   2  10   1 44.4595 6.44244  -1
   2 -10  11 44.4595 6.44244   2
  -4  11   1 29.7200 8.29821   2
  -3  11   1 40.4467 7.60839   2
  -2  11   1 8.16419 4.46975   2
  -1  11   1 71.3506 7.44735   2
   0  11   1 -0.2521 9.32084   2
  -1 -12   2 8.11010 7.75524  -1
   1 -12  10 8.11010 7.75524   2
   0 -12   2 105.530 9.30958  -1
   0 -12  10 105.530 9.30958   2
   1 -12   2 0.43460 6.78111  -1
  -1 -12  10 0.43460 6.78111   2
   2 -12   2 144.473 13.1857  -1
  -2 -12  10 144.473 13.1857   2
   3 -12   2 4.03782 6.10498   2
   4 -12   2 27.8313 7.98555   2
  -3 -11   2 21.9881 8.03204  -1
   3 -11   9 21.9881 8.03204   2
  -2 -11   2 121.974 9.49841  -1
   2 -11   9 121.974 9.49841   2
  -1 -11   2 42.0821 5.95459  -1
   1 -11   9 42.0821 5.95459   2
   0 -11   2 157.155 9.14214  -1
   0 -11   9 157.155 9.14214   2
   1 -11   2 99.2141 8.54316  -1
  -1 -11   9 99.2141 8.54316   2
   2 -11   2 143.280 10.2336  -1
  -2 -11   9 143.280 10.2336   2
   3 -11   2 146.359 15.8636  -1
  -3 -11   9 146.359 15.8636   2
   5 -11   2 55.0052 7.99327   2
   6 -11   2 1.68186 6.08540   2
  -4 -10   2 59.5289 11.5758  -1
   4 -10   8 59.5289 11.5758   2
  -3 -10   2 151.516 8.13243  -1
   3 -10   8 151.516 8.13243   2
  -2 -10   2 93.8610 6.36923  -1
   2 -10   8 93.8610 6.36923   2
  -1 -10   2 320.785 13.1130  -1
   1 -10   8 320.785 13.1130   2
   0 -10   2 29.1310 4.21129  -1
   0 -10   8 29.1310 4.21129   2
   1 -10   2 251.911 11.0150  -1
  -1 -10   8 251.911 11.0150   2
   2 -10   2 0.76536 5.01215  -1
  -2 -10   8 0.76536 5.01215   2
   3 -10   2 336.796 15.7387  -1
  -3 -10   8 336.796 15.7387   2
   5 -10   2 63.7241 8.80815   2
   6 -10   2 38.9463 7.28766   2
   7 -10   2 15.8693 5.58006   2
  -6  -9   2 -0.0726 20.4127  -1
   6  -9   7 -0.0726 20.4127   2
  -5  -9   2 152.359 16.4076  -1
   5  -9   7 152.359 16.4076   2
  -4  -9   2 15.5988 6.58694  -1
   4  -9   7 15.5988 6.58694   2
  -3  -9   2 320.533 14.7604  -1
   3  -9   7 320.533 14.7604   2
  -2  -9   2 29.7317 3.81037  -1
   2  -9   7 29.7317 3.81037   2
  -1  -9   2 191.604 8.29348  -1
   1  -9   7 191.604 8.29348   2
   0  -9   2 155.562 7.96263  -1
   0  -9   7 155.562 7.96263   2
   1  -9   2 166.528 8.01921  -1
  -1  -9   7 166.528 8.01921   2
   2  -9   2 299.336 10.2548  -1
  -2  -9   7 299.336 10.2548   2
   3  -9   2 98.3595 6.34597  -1
  -3  -9   7 98.3595 6.34597   2
   5  -9   2 11.6921 4.21019   2
   6  -9   2 128.636 11.8551   2
   7  -9   2 3.90809 4.00463   2
  -6  -8   2 44.2431 19.8755  -1
   6  -8   6 44.2431 19.8755   2
  -5  -8   2 145.094 18.1784  -1
   5  -8   6 145.094 18.1784   2
  -4  -8   2 146.451 10.7765  -1
   4  -8   6 146.451 10.7765   2
  -3  -8   2 119.826 7.93258  -1
   3  -8   6 119.826 7.93258   2
  -2  -8   2 875.694 30.4302  -1
   2  -8   6 875.694 30.4302   2
  -1  -8   2 -1.1388 2.16611  -1
   1  -8   6 -1.1388 2.16611   2
   0  -8   2 684.982 20.3495  -1
   0  -8   6 684.982 20.3495   2
   1  -8   2 -0.4794 2.42712  -1
  -1  -8   6 -0.4794 2.42712   2
   2  -8   2 497.939 14.2506  -1
  -2  -8   6 497.939 14.2506   2
   3  -8   2 18.1910 3.96779  -1
  -3  -8   6 18.1910 3.96779   2
   5  -8   2 93.8438 7.82457   2
   6  -8   2 41.0628 5.63064   2
   7  -8   2 61.2320 7.19879   2
   8  -8   2 27.9379 5.19102   2
  -7  -7   2 20.3411 4.92294   2
  -5  -7   2 15.9633 10.7657  -1
   5  -7   5 15.9633 10.7657   2
  -4  -7   2 300.710 23.0208  -1
   4  -7   5 300.710 23.0208   2
  -3  -7   2 66.1427 5.63439  -1
   3  -7   5 66.1427 5.63439   2
  -2  -7   2 648.125 22.9802  -1
   2  -7   5 648.125 22.9802   2
  -1  -7   2 190.495 7.34316  -1
   1  -7   5 190.495 7.34316   2
   0  -7   2 387.977 10.6534  -1
   0  -7   5 387.977 10.6534   2
   1  -7   2 283.722 8.74730  -1
  -1  -7   5 283.722 8.74730   2
   2  -7   2 135.962 5.57598  -1
  -2  -7   5 135.962 5.57598   2
   3  -7   2 541.492 16.4798  -1
  -3  -7   5 541.492 16.4798   2
   4  -7   2 60.0633 13.2730  -1
  -4  -7   5 60.0633 13.2730   2
   6  -7   2 -3.1162 2.11067   2
   7  -7   2 152.683 9.87887   2
   8  -7   2 11.0102 4.14457   2
  -8  -6   2 94.3461 9.90909   2
  -7  -6   2 28.3370 5.07099   2
  -5  -6   2 156.619 22.7477  -1
   5  -6   4 156.619 22.7477   2
  -4  -6   2 164.798 9.67448  -1
   4  -6   4 164.798 9.67448   2
  -3  -6   2 332.520 12.2348  -1
   3  -6   4 332.520 12.2348   2
  -2  -6   2 10.1260 2.60161  -1
   2  -6   4 10.1260 2.60161   2
  -1  -6   2 964.977 23.0721  -1
   1  -6   4 964.977 23.0721   2
   0  -6   2 -0.0001 1.22679  -1
   0  -6   4 -0.0001 1.22679   2
   1  -6   2 1635.84 37.2018  -1
  -1  -6   4 1635.84 37.2018   2
   2  -6   2 82.9184 3.87337  -1
  -2  -6   4 82.9184 3.87337   2
   3  -6   2 631.390 16.9163  -1
  -3  -6   4 631.390 16.9163   2
   4  -6   2 305.613 16.4848  -1
  -4  -6   4 305.613 16.4848   2
   6  -6   2 215.345 10.1471   2
   7  -6   2 -1.4851 2.21355   2
   8  -6   2 75.9001 7.34282   2
   9  -6   2 13.1110 4.69671   2
  -8  -5   2 21.6998 4.50184   2
  -7  -5   2 178.931 9.36634   2
  -6  -5   2 2.30401 2.09822   2
  -5  -5   2 296.128 9.73851   2
  -5  -5   2 533.927 47.2562  -1
   5  -5   3 533.927 47.2562   2
  -4  -5   2 11.2374 4.88678  -1
   4  -5   3 11.2374 4.88678   2
  -3  -5   2 820.914 27.3993  -1
   3  -5   3 820.914 27.3993   2
  -2  -5   2 197.447 7.61633  -1
   2  -5   3 197.447 7.61633   2
  -1  -5   2 600.789 15.8219  -1
   1  -5   3 600.789 15.8219   2
   0  -5   2 848.809 20.1083  -1
   0  -5   3 848.809 20.1083   2
   1  -5   2 261.103 6.80728  -1
  -1  -5   3 261.103 6.80728   2
   2  -5   2 836.505 20.1377  -1
  -2  -5   3 836.505 20.1377   2
   3  -5   2 123.974 4.88642  -1
  -3  -5   3 123.974 4.88642   2
   4  -5   2 869.357 31.3732  -1
  -4  -5   3 869.357 31.3732   2
   6  -5   2 288.556 11.0883   2
   7  -5   2 4.77894 2.71814   2
   8  -5   2 116.262 8.64108   2
   9  -5   2 25.3406 5.17669   2
  -9  -4   2 81.9899 8.71430   2
  -8  -4   2 4.08606 3.11203   2
  -7  -4   2 237.427 11.6041   2
  -6  -4   2 177.425 9.06750   2
  -5  -4   2 211.677 8.60786   2
  -5  -4   2 384.553 35.7673  -1
   5  -4   2 384.553 35.7673   2
  -4  -4   2 463.205 39.8237  -1
   4  -4   2 463.205 39.8237   2
  -3  -4   2 162.074 9.37048  -1
   3  -4   2 162.074 9.37048   2
  -2  -4   2 1490.63 43.2357  -1
   2  -4   2 1490.63 43.2357   2
  -1  -4   2 4.64437 1.05592  -1
   1  -4   2 4.64437 1.05592   2
   0  -4   2 2260.29 52.2002  -1
   0  -4   2 2260.29 52.2002   2
   1  -4   2 5.09945 0.97797  -1
  -1  -4   2 5.09945 0.97797   2
   2  -4   2 1583.30 36.2409  -1
  -2  -4   2 1583.30 36.2409   2
   3  -4   2 177.542 6.63450  -1
  -3  -4   2 177.542 6.63450   2
   4  -4   2 496.140 22.5370  -1
  -4  -4   2 496.140 22.5370   2
   6  -4   2 127.524 7.27601   2
   7  -4   2 157.826 9.72256   2
   8  -4   2 2.13083 2.88286   2
   9  -4   2 132.165 10.9669   2
  -9  -3   2 64.5215 6.76661   2
  -8  -3   2 94.9391 7.63706   2
  -7  -3   2 10.2719 2.60124   2
  -6  -3   2 302.407 10.9807   2
  -5  -3   2 3.71664 1.42195   2
  -4  -3   2 820.371 63.2639  -1
   4  -3   1 820.371 63.2639   2
  -3  -3   2 128.524 14.4237  -1
   3  -3   1 128.524 14.4237   2
  -2  -3   2 1067.93 33.6571  -1
   2  -3   1 1067.93 33.6571   2
  -1  -3   2 594.324 14.7061  -1
   1  -3   1 594.324 14.7061   2
   0  -3   2 313.076 8.18640  -1
   0  -3   1 313.076 8.18640   2
   1  -3   2 901.815 22.1888  -1
  -1  -3   1 901.815 22.1888   2
   2  -3   2 111.367 3.84261  -1
  -2  -3   1 111.367 3.84261   2
   3  -3   2 1104.58 44.2981  -1
  -3  -3   1 1104.58 44.2981   2
   4  -3   2 13.8037 4.45963  -1
  -4  -3   1 13.8037 4.45963   2
   5  -3   2 486.696 14.4673   2
   6  -3   2 22.7391 3.14952   2
   7  -3   2 204.513 12.6514   2
   8  -3   2 16.1299 4.18626   2
   9  -3   2 52.0510 7.11990   2
  -9  -2   2 1.22476 2.85639   2
  -8  -2   2 201.567 11.4210   2
  -7  -2   2 76.6218 6.26118   2
  -6  -2   2 172.995 7.72713   2
  -5  -2   2 442.787 13.8322   2
  -4  -2   2 72.7980 3.62429   2
  -3  -2   2 656.429 43.4985  -1
  -3   2   0 656.429 43.4985   2
  -2  -2   2 60.6088 4.28466  -1
  -2   2   0 60.6088 4.28466   2
  -1  -2   2 2206.57 61.4582  -1
  -1   2   0 2206.57 61.4582   2
   0  -2   2 231.696 7.05244  -1
   0   2   0 231.696 7.05244   2
   1  -2   2 9455.46 252.789  -1
   1   2   0 9455.46 252.789   2
   2  -2   2 728.780 23.3498  -1
   2   2   0 728.780 23.3498   2
   3  -2   2 1205.01 56.8600  -1
   3   2   0 1205.01 56.8600   2
   4  -2   2 374.028 20.7022  -1
   4   2   0 374.028 20.7022   2
   6  -2   2 212.073 9.16660   2
   7  -2   2 99.7539 8.39452   2
   8  -2   2 166.009 11.6998   2
   9  -2   2 5.57776 4.03755   2
 -10  -1   2 22.3837 5.27757   2
  -9  -1   2 105.795 8.19788   2
  -8  -1   2 47.9096 5.19559   2
  -7  -1   2 226.570 9.66910   2
  -6  -1   2 -1.5722 1.54907   2
  -5  -1   2 580.659 16.0855   2
  -4  -1   2 122.247 4.81043   2
  -3  -1   2 1737.11 112.181  -1
  -3   1   1 1737.11 112.181   2
  -1  -1   2 1027.96 74.7926  -1
  -1   1   1 1027.96 74.7926   2
   0  -1   2 466.394 12.7999  -1
   0   1   1 466.394 12.7999   2
   1  -1   2 134.462 4.20071  -1
   1   1   1 134.462 4.20071   2
   2  -1   2 1451.49 40.4671  -1
   2   1   1 1451.49 40.4671   2
   3  -1   2 25.6549 3.29308  -1
   3   1   1 25.6549 3.29308   2
   4  -1   2 1079.46 43.3328  -1
   4   1   1 1079.46 43.3328   2
   6  -1   2 240.367 9.96537   2
   7  -1   2 39.0850 5.71418   2
   8  -1   2 104.625 9.12432   2
   9  -1   2 23.4060 5.37911   2
 -10   0   2 4.03679 4.19557   2
  -9   0   2 117.026 8.49447   2
  -8   0   2 6.57997 2.38509   2
  -7   0   2 359.724 12.6792   2
  -6   0   2 277.507 9.82935   2
  -5   0   2 133.254 5.39192   2
  -4   0   2 412.506 11.5513   2
  -3   0   2 171.884 13.9879  -1
  -3   0   2 171.884 13.9879   2
  -2   0   2 1347.02 84.1204  -1
  -2   0   2 1347.02 84.1204   2
  -1   0   2 50.4978 3.89903  -1
  -1   0   2 50.4978 3.89903   2
   0   0   2 2172.53 72.3136  -1
   0   0   2 2172.53 72.3136   2
   1   0   2 566.077 14.0610  -1
   1   0   2 566.077 14.0610   2
   2   0   2 1180.90 28.6003  -1
   2   0   2 1180.90 28.6003   2
   3   0   2 512.511 18.8484  -1
   3   0   2 512.511 18.8484   2
   4   0   2 692.983 25.3099  -1
   4   0   2 692.983 25.3099   2
   5   0   2 491.701 39.2862  -1
   5   0   2 491.701 39.2862   2
   6   0   2 28.4446 3.17714   2
   7   0   2 264.975 11.8552   2
   8   0   2 6.64594 3.49022   2
   9   0   2 124.748 11.1579   2
 -10   1   2 90.3127 10.2222   2
  -9   1   2 9.40229 3.34556   2
  -8   1   2 275.488 11.3625   2
  -7   1   2 50.3965 4.60400   2
  -6   1   2 324.537 10.4008   2
  -5   1   2 67.6727 4.06083   2
  -4   1   2 423.247 12.0300   2
  -3   1   2 422.347 10.9188   2
  -3   1   2 694.804 53.5305  -1
  -3  -1   3 694.804 53.5305   2
  -2   1   2 1170.25 74.1873  -1
  -2  -1   3 1170.25 74.1873   2
  -1   1   2 876.736 43.5655  -1
  -1  -1   3 876.736 43.5655   2
   0   1   2 362.976 10.8237  -1
   0  -1   3 362.976 10.8237   2
   1   1   2 1453.85 32.7930  -1
   1  -1   3 1453.85 32.7930   2
   2   1   2 70.7808 3.11044  -1
   2  -1   3 70.7808 3.11044   2
   3   1   2 943.234 29.0814  -1
   3  -1   3 943.234 29.0814   2
   4   1   2 6.61728 2.83955  -1
   4  -1   3 6.61728 2.83955   2
   5   1   2 562.935 31.8980  -1
   5  -1   3 562.935 31.8980   2
   7   1   2 162.367 8.44706   2
   8   1   2 59.5862 7.55587   2
 -10   2   2 131.735 11.0439   2
  -9   2   2 41.2920 5.30640   2
  -8   2   2 187.784 9.89549   2
  -7   2   2 21.5557 2.96642   2
  -6   2   2 224.312 7.89841   2
  -5   2   2 280.319 8.91957   2
  -4   2   2 190.118 5.85696   2
  -3   2   2 885.445 20.4837   2
  -3   2   2 1440.41 109.037  -1
  -3  -2   4 1440.41 109.037   2
  -1   2   2 1731.02 56.5952  -1
  -1  -2   4 1731.02 56.5952   2
   0   2   2 3.63024 1.13018  -1
   0  -2   4 3.63024 1.13018   2
   1   2   2 1754.30 49.9307  -1
   1  -2   4 1754.30 49.9307   2
   2   2   2 301.639 8.01019  -1
   2  -2   4 301.639 8.01019   2
   3   2   2 560.139 16.1116  -1
   3  -2   4 560.139 16.1116   2
   4   2   2 286.443 11.6893  -1
   4  -2   4 286.443 11.6893   2
   5   2   2 176.518 23.0989  -1
   5  -2   4 176.518 23.0989   2
   7   2   2 0.86639 2.14851   2
   8   2   2 96.8114 7.67469   2
 -10   3   2 36.6242 5.68966   2
  -9   3   2 105.289 7.62332   2
  -8   3   2 1.18482 2.15106   2
  -7   3   2 449.153 15.4204   2
  -6   3   2 7.02516 1.74655   2
  -5   3   2 441.562 12.2313   2
  -4   3   2 65.7402 3.37680   2
  -4   3   2 121.465 14.8160  -1
  -4  -3   5 121.465 14.8160   2
  -3   3   2 331.883 29.3681  -1
  -3  -3   5 331.883 29.3681   2
  -2   3   2 505.606 35.8322  -1
  -2  -3   5 505.606 35.8322   2
  -1   3   2 681.045 23.4650  -1
  -1  -3   5 681.045 23.4650   2
   0   3   2 645.205 17.8882  -1
   0  -3   5 645.205 17.8882   2
   1   3   2 57.5458 3.11382  -1
   1  -3   5 57.5458 3.11382   2
   2   3   2 944.681 28.3062  -1
   2  -3   5 944.681 28.3062   2
   3   3   2 16.9934 2.41976  -1
   3  -3   5 16.9934 2.41976   2
   4   3   2 531.129 17.7904  -1
   4  -3   5 531.129 17.7904   2
   5   3   2 7.74104 6.45553  -1
   5  -3   5 7.74104 6.45553   2
   6   3   2 63.3070 18.1159  -1
   6  -3   5 63.3070 18.1159   2
   7   3   2 42.5877 5.83538   2
   8   3   2 28.0541 6.20085   2
 -10   4   2 29.1723 6.12156   2
  -9   4   2 71.5835 6.42055   2
  -8   4   2 42.6464 4.55557   2
  -7   4   2 96.6344 5.99612   2
  -6   4   2 69.7805 4.72342   2
  -5   4   2 151.050 5.91915   2
  -4   4   2 511.617 14.0058   2
  -4   4   2 801.327 65.6108  -1
  -4  -4   6 801.327 65.6108   2
  -3   4   2 9.67892 1.32576   2
  -2   4   2 1205.46 90.7622  -1
  -2  -4   6 1205.46 90.7622   2
  -1   4   2 83.6229 4.84397  -1
  -1  -4   6 83.6229 4.84397   2
   0   4   2 788.887 21.8519  -1
   0  -4   6 788.887 21.8519   2
   1   4   2 70.7823 3.73707  -1
   1  -4   6 70.7823 3.73707   2
   2   4   2 536.557 17.4018  -1
   2  -4   6 536.557 17.4018   2
   3   4   2 131.778 6.44958  -1
   3  -4   6 131.778 6.44958   2
   4   4   2 396.550 16.4537  -1
   4  -4   6 396.550 16.4537   2
   5   4   2 503.061 22.7015  -1
   5  -4   6 503.061 22.7015   2
   6   4   2 26.1046 11.5756  -1
   6  -4   6 26.1046 11.5756   2
   7   4   2 43.3009 19.2426  -1
   7  -4   6 43.3009 19.2426   2
  -9   5   2 15.2107 4.34580   2
  -8   5   2 194.057 11.3567   2
  -7   5   2 0.02635 2.19622   2
  -6   5   2 368.826 13.7620   2
  -5   5   2 35.2361 3.81621   2
  -4   5   2 203.674 8.56979   2
  -4   5   2 297.588 30.1092  -1
  -4  -5   7 297.588 30.1092   2
  -3   5   2 224.582 7.10259   2
  -2   5   2 307.058 30.4352  -1
  -2  -5   7 307.058 30.4352   2
  -1   5   2 601.876 18.5046  -1
  -1  -5   7 601.876 18.5046   2
   0   5   2 309.449 10.9039  -1
   0  -5   7 309.449 10.9039   2
   1   5   2 768.084 23.1535  -1
   1  -5   7 768.084 23.1535   2
   2   5   2 25.2335 3.19872  -1
   2  -5   7 25.2335 3.19872   2
   3   5   2 357.568 16.4958  -1
   3  -5   7 357.568 16.4958   2
   4   5   2 9.54382 4.76868  -1
   4  -5   7 9.54382 4.76868   2
   5   5   2 300.376 15.7172  -1
   5  -5   7 300.376 15.7172   2
   6   5   2 16.0297 18.6206  -1
   6  -5   7 16.0297 18.6206   2
  -9   6   2 58.3625 7.10381   2
  -8   6   2 44.4630 5.65255   2
  -7   6   2 71.2624 7.35342   2
  -6   6   2 69.5738 8.00645   2
  -5   6   2 52.7367 6.09230   2
  -4   6   2 173.018 10.9882   2
  -4   6   2 347.114 35.5393  -1
  -4  -6   8 347.114 35.5393   2
  -3   6   2 379.150 11.9827   2
  -2   6   2 -1.8463 10.1757  -1
  -2  -6   8 -1.8463 10.1757   2
  -1   6   2 395.680 13.7428  -1
  -1  -6   8 395.680 13.7428   2
   0   6   2 60.7171 4.63768  -1
   0  -6   8 60.7171 4.63768   2
   1   6   2 302.119 13.0659  -1
   1  -6   8 302.119 13.0659   2
   2   6   2 124.238 7.58994  -1
   2  -6   8 124.238 7.58994   2
   3   6   2 142.725 8.40034  -1
   3  -6   8 142.725 8.40034   2
   4   6   2 195.019 12.0786  -1
   4  -6   8 195.019 12.0786   2
   5   6   2 41.7488 7.40926  -1
   5  -6   8 41.7488 7.40926   2
   6   6   2 120.721 14.8446  -1
   6  -6   8 120.721 14.8446   2
  -8   7   2 -1.6827 4.07308   2
  -7   7   2 110.723 11.0736   2
  -6   7   2 7.85573 3.23474   2
  -5   7   2 215.836 13.6639   2
  -4   7   2 29.6993 4.95123   2
  -3   7   2 75.8998 5.44266   2
  -3   7   2 147.827 23.1684  -1
  -3  -7   9 147.827 23.1684   2
  -2   7   2 297.365 33.3605  -1
  -2  -7   9 297.365 33.3605   2
  -1   7   2 61.1767 6.37860  -1
  -1  -7   9 61.1767 6.37860   2
   0   7   2 465.956 16.7878  -1
   0  -7   9 465.956 16.7878   2
   1   7   2 40.3869 5.40912  -1
   1  -7   9 40.3869 5.40912   2
   2   7   2 413.684 17.1250  -1
   2  -7   9 413.684 17.1250   2
   3   7   2 -1.9884 2.99727  -1
   3  -7   9 -1.9884 2.99727   2
   4   7   2 183.454 10.6799  -1
   4  -7   9 183.454 10.6799   2
   5   7   2 8.94094 7.01830  -1
   5  -7   9 8.94094 7.01830   2
  -8   8   2 51.2196 8.46919   2
  -7   8   2 36.4416 6.82604   2
  -6   8   2 107.141 11.3177   2
  -5   8   2 9.39026 4.11235   2
  -4   8   2 196.429 12.5409   2
  -3   8   2 20.3086 3.44700   2
  -3   8   2 35.4931 17.4964  -1
  -3  -8  10 35.4931 17.4964   2
  -2   8   2 393.570 43.8159  -1
  -2  -8  10 393.570 43.8159   2
  -1   8   2 -5.9921 5.11537  -1
  -1  -8  10 -5.9921 5.11537   2
   0   8   2 202.796 10.5239  -1
   0  -8  10 202.796 10.5239   2
   1   8   2 85.7570 6.99214  -1
   1  -8  10 85.7570 6.99214   2
   2   8   2 171.057 10.2545  -1
   2  -8  10 171.057 10.2545   2
   3   8   2 73.5613 6.75330  -1
   3  -8  10 73.5613 6.75330   2
   4   8   2 32.4553 6.38416  -1
   4  -8  10 32.4553 6.38416   2
  -7   9   2 5.36029 5.44098   2
  -6   9   2 52.1372 8.10744   2
  -5   9   2 19.9509 4.73626   2
  -4   9   2 99.4119 9.68608   2
  -3   9   2 70.4046 6.04420   2
  -3   9   2 75.9998 23.1732  -1
  -3  -9  11 75.9998 23.1732   2
  -2   9   2 23.0780 12.7465  -1
  -2  -9  11 23.0780 12.7465   2
  -1   9   2 175.441 12.6451  -1
  -1  -9  11 175.441 12.6451   2
   0   9   2 15.7148 6.25248  -1
   0  -9  11 15.7148 6.25248   2
   1   9   2 173.922 10.4609  -1
   1  -9  11 173.922 10.4609   2
   2   9   2 6.87215 5.45310  -1
   2  -9  11 6.87215 5.45310   2
   3   9   2 184.098 11.9201  -1
   3  -9  11 184.098 11.9201   2
  -5  10   2 50.2546 8.87842   2
  -4  10   2 2.01486 3.29678   2
  -3  10   2 63.0149 8.19626   2
  -2  10   2 -2.4770 3.03105   2
  -2  10   2 -4.9561 12.3771  -1
  -2 -10  12 -4.9561 12.3771   2
  -1  10   2 215.369 17.2526  -1
  -1 -10  12 215.369 17.2526   2
   0  10   2 34.1375 8.01509  -1
   0 -10  12 34.1375 8.01509   2
   1  10   2 81.0471 9.31667   2
  -2 -12   3 40.8582 8.17275  -1
   2 -12   9 40.8582 8.17275   2
  -1 -12   3 113.491 9.52478  -1
   1 -12   9 113.491 9.52478   2
   0 -12   3 5.47870 5.37266  -1
   0 -12   9 5.47870 5.37266   2
   1 -12   3 94.0779 8.72954  -1
  -1 -12   9 94.0779 8.72954   2
   2 -12   3 3.58796 6.57522  -1
  -2 -12   9 3.58796 6.57522   2
   3 -12   3 206.453 14.4132  -1
  -3 -12   9 206.453 14.4132   2
   4 -12   3 11.6349 5.89220   2
  -4 -11   3 8.00054 8.18206  -1
   4 -11   8 8.00054 8.18206   2
  -3 -11   3 188.575 15.9041  -1
   3 -11   8 188.575 15.9041   2
  -2 -11   3 19.9412 4.86942  -1
   2 -11   8 19.9412 4.86942   2
  -1 -11   3 143.953 9.66285  -1
   1 -11   8 143.953 9.66285   2
   0 -11   3 73.7059 7.00816  -1
   0 -11   8 73.7059 7.00816   2
   1 -11   3 85.2565 7.87894  -1
  -1 -11   8 85.2565 7.87894   2
   2 -11   3 97.4148 8.30777  -1
  -2 -11   8 97.4148 8.30777   2
   3 -11   3 62.5072 7.70173  -1
  -3 -11   8 62.5072 7.70173   2
   4 -11   3 164.542 23.7736  -1
  -4 -11   8 164.542 23.7736   2
   6 -11   3 63.3665 9.47346   2
  -5 -10   3 162.889 17.1818  -1
   5 -10   7 162.889 17.1818   2
  -4 -10   3 70.8158 10.9660  -1
   4 -10   7 70.8158 10.9660   2
  -3 -10   3 74.5007 9.01167  -1
   3 -10   7 74.5007 9.01167   2
  -2 -10   3 112.335 7.44238  -1
   2 -10   7 112.335 7.44238   2
  -1 -10   3 7.04694 4.22893  -1
   1 -10   7 7.04694 4.22893   2
   0 -10   3 147.213 8.78411  -1
   0 -10   7 147.213 8.78411   2
   1 -10   3 -0.4360 4.08200  -1
  -1 -10   7 -0.4360 4.08200   2
   2 -10   3 188.331 9.48477  -1
  -2 -10   7 188.331 9.48477   2
   3 -10   3 9.01655 4.93267  -1
  -3 -10   7 9.01655 4.93267   2
   4 -10   3 177.408 17.7052  -1
  -4 -10   7 177.408 17.7052   2
   6 -10   3 49.2052 7.88581   2
   7 -10   3 46.8120 8.07128   2
  -6  -9   3 155.913 31.1433  -1
   6  -9   6 155.913 31.1433   2
  -5  -9   3 -2.3727 11.6917  -1
   5  -9   6 -2.3727 11.6917   2
  -4  -9   3 241.685 18.1582  -1
   4  -9   6 241.685 18.1582   2
  -3  -9   3 49.4798 6.80518  -1
   3  -9   6 49.4798 6.80518   2
  -2  -9   3 487.889 17.3660  -1
   2  -9   6 487.889 17.3660   2
  -1  -9   3 45.1282 3.95251  -1
   1  -9   6 45.1282 3.95251   2
   0  -9   3 249.031 13.3306  -1
   0  -9   6 249.031 13.3306   2
   1  -9   3 172.316 8.24851  -1
  -1  -9   6 172.316 8.24851   2
   2  -9   3 97.6163 5.80235  -1
  -2  -9   6 97.6163 5.80235   2
   3  -9   3 321.909 13.0470  -1
  -3  -9   6 321.909 13.0470   2
   4  -9   3 33.4843 10.5558  -1
  -4  -9   6 33.4843 10.5558   2
   6  -9   3 -0.7869 2.96661   2
   7  -9   3 114.314 10.0852   2
  -7  -8   3 36.6135 8.02089   2
  -5  -8   3 120.606 22.9651  -1
   5  -8   5 120.606 22.9651   2
  -4  -8   3 198.459 15.3874  -1
   4  -8   5 198.459 15.3874   2
  -3  -8   3 98.4320 6.31526  -1
   3  -8   5 98.4320 6.31526   2
  -2  -8   3 232.234 9.84207  -1
   2  -8   5 232.234 9.84207   2
  -1  -8   3 587.313 17.8346  -1
   1  -8   5 587.313 17.8346   2
   0  -8   3 16.4327 2.58001  -1
   0  -8   5 16.4327 2.58001   2
   1  -8   3 630.798 18.4429  -1
  -1  -8   5 630.798 18.4429   2
   2  -8   3 37.8350 3.68927  -1
  -2  -8   5 37.8350 3.68927   2
   3  -8   3 160.615 8.17760  -1
  -3  -8   5 160.615 8.17760   2
   4  -8   3 11.7020 5.89541  -1
  -4  -8   5 11.7020 5.89541   2
   6  -8   3 33.8542 5.38834   2
   7  -8   3 22.7760 5.04484   2
   8  -8   3 35.6474 5.94144   2
  -8  -7   3 50.7901 7.50020   2
  -7  -7   3 77.9361 7.11487   2
  -5  -7   3 391.993 27.3688  -1
   5  -7   4 391.993 27.3688   2
  -4  -7   3 14.1108 6.47606  -1
   4  -7   4 14.1108 6.47606   2
  -3  -7   3 367.110 13.4142  -1
   3  -7   4 367.110 13.4142   2
  -2  -7   3 123.682 6.28197  -1
   2  -7   4 123.682 6.28197   2
  -1  -7   3 527.751 15.8921  -1
   1  -7   4 527.751 15.8921   2
   0  -7   3 277.886 8.00235  -1
   0  -7   4 277.886 8.00235   2
   1  -7   3 380.305 11.8152  -1
  -1  -7   4 380.305 11.8152   2
   2  -7   3 435.363 13.4089  -1
  -2  -7   4 435.363 13.4089   2
   3  -7   3 47.3757 3.85997  -1
  -3  -7   4 47.3757 3.85997   2
   4  -7   3 474.756 16.1952  -1
  -4  -7   4 474.756 16.1952   2
   5  -7   3 -2.5907 7.75130  -1
  -5  -7   4 -2.5907 7.75130   2
   7  -7   3 0.27628 2.60346   2
   8  -7   3 99.2054 8.17664   2
  -8  -6   3 11.5206 4.11977   2
  -7  -6   3 143.041 9.42482   2
  -6  -6   3 173.869 8.90366   2
  -5  -6   3 147.881 21.5096  -1
   5  -6   3 147.881 21.5096   2
  -4  -6   3 323.158 18.0253  -1
   4  -6   3 323.158 18.0253   2
  -3  -6   3 180.419 7.29439  -1
   3  -6   3 180.419 7.29439   2
  -2  -6   3 777.651 22.2212  -1
   2  -6   3 777.651 22.2212   2
  -1  -6   3 61.0548 3.49717  -1
   1  -6   3 61.0548 3.49717   2
   0  -6   3 1087.63 25.6976  -1
   0  -6   3 1087.63 25.6976   2
   1  -6   3 67.9175 2.93451  -1
  -1  -6   3 67.9175 2.93451   2
   2  -6   3 829.839 21.5752  -1
  -2  -6   3 829.839 21.5752   2
   3  -6   3 211.143 7.24752  -1
  -3  -6   3 211.143 7.24752   2
   4  -6   3 341.753 13.0480  -1
  -4  -6   3 341.753 13.0480   2
   5  -6   3 138.669 16.3762  -1
  -5  -6   3 138.669 16.3762   2
   6  -6   3 230.673 10.4026   2
   7  -6   3 139.628 9.54137   2
   8  -6   3 12.0719 3.89040   2
  -9  -5   3 34.8383 5.04765   2
  -8  -5   3 64.5650 6.50006   2
  -7  -5   3 33.3990 4.39378   2
  -6  -5   3 282.171 11.0752   2
  -5  -5   3 3.25518 1.81537   2
  -5  -5   3 7.74924 11.1116  -1
   5  -5   2 7.74924 11.1116   2
  -4  -5   3 886.593 70.1332  -1
   4  -5   2 886.593 70.1332   2
  -3  -5   3 145.493 7.04824  -1
   3  -5   2 145.493 7.04824   2
  -2  -5   3 788.549 19.0437  -1
   2  -5   2 788.549 19.0437   2
  -1  -5   3 243.371 7.75860  -1
   1  -5   2 243.371 7.75860   2
   0  -5   3 844.742 19.2236  -1
   0  -5   2 844.742 19.2236   2
   1  -5   3 651.285 16.5324  -1
  -1  -5   2 651.285 16.5324   2
   2  -5   3 211.094 6.70981  -1
  -2  -5   2 211.094 6.70981   2
   3  -5   3 852.645 22.0540  -1
  -3  -5   2 852.645 22.0540   2
   4  -5   3 5.26759 2.82293  -1
  -4  -5   2 5.26759 2.82293   2
   6  -5   3 -2.1863 1.68898   2
   7  -5   3 208.147 11.3826   2
   8  -5   3 13.2372 3.88120   2
   9  -5   3 67.7024 8.12806   2
  -9  -4   3 -6.9397 2.25520   2
  -8  -4   3 117.167 8.77149   2
  -7  -4   3 27.6515 4.05506   2
  -6  -4   3 199.795 9.79032   2
  -5  -4   3 339.995 11.0093   2
  -4  -4   3 189.137 6.73089   2
  -4  -4   3 197.579 21.2618  -1
   4  -4   1 197.579 21.2618   2
  -3  -4   3 351.144 17.1659  -1
   3  -4   1 351.144 17.1659   2
  -2  -4   3 195.906 8.22830  -1
   2  -4   1 195.906 8.22830   2
  -1  -4   3 1789.17 46.6013  -1
   1  -4   1 1789.17 46.6013   2
   0  -4   3 47.7326 2.74022  -1
   0  -4   1 47.7326 2.74022   2
   1  -4   3 2014.46 45.6435  -1
  -1  -4   1 2014.46 45.6435   2
   2  -4   3 210.384 6.40259  -1
  -2  -4   1 210.384 6.40259   2
   3  -4   3 173.089 6.05779  -1
  -3  -4   1 173.089 6.05779   2
   4  -4   3 280.132 16.1792  -1
  -4  -4   1 280.132 16.1792   2
   6  -4   3 228.657 10.6863   2
   7  -4   3 67.9067 6.98857   2
   8  -4   3 121.214 10.1080   2
   9  -4   3 -1.4568 3.76991   2
  -9  -3   3 143.415 9.85925   2
  -8  -3   3 30.4981 4.46618   2
  -7  -3   3 195.752 10.6446   2
  -6  -3   3 2.19098 1.80533   2
  -5  -3   3 488.448 15.1401   2
  -4  -3   3 155.556 5.20725   2
  -3  -3   3 1293.13 83.2138  -1
  -3   3   0 1293.13 83.2138   2
  -2  -3   3 375.904 14.2093  -1
  -2   3   0 375.904 14.2093   2
  -1  -3   3 858.591 23.5627  -1
  -1   3   0 858.591 23.5627   2
   0  -3   3 1074.32 29.6416  -1
   0   3   0 1074.32 29.6416   2
   1  -3   3 306.675 9.62078  -1
   1   3   0 306.675 9.62078   2
   2  -3   3 1465.32 40.6141  -1
   2   3   0 1465.32 40.6141   2
   3  -3   3 12.6065 2.04073  -1
   3   3   0 12.6065 2.04073   2
   4  -3   3 820.188 47.1026  -1
   4   3   0 820.188 47.1026   2
   5  -3   3 1.46795 1.40821   2
   6  -3   3 264.119 11.5140   2
   7  -3   3 19.5101 3.89958   2
   8  -3   3 153.391 11.4697   2
   9  -3   3 43.2429 6.83551   2
 -10  -2   3 12.7844 4.20333   2
  -9  -2   3 49.3536 5.71461   2
  -8  -2   3 17.1322 3.69541   2
  -7  -2   3 174.043 10.6851   2
  -6  -2   3 235.819 8.75085   2
  -5  -2   3 230.695 7.59807   2
  -4  -2   3 1279.60 30.9435   2
  -3  -2   3 139.659 11.4123  -1
  -3   2   1 139.659 11.4123   2
  -2  -2   3 2229.00 106.736  -1
  -2   2   1 2229.00 106.736   2
  -1  -2   3 28.7731 2.59500  -1
  -1   2   1 28.7731 2.59500   2
   0  -2   3 964.539 27.7089  -1
   0   2   1 964.539 27.7089   2
   1  -2   3 13.4010 0.89025  -1
   1   2   1 13.4010 0.89025   2
   2  -2   3 2406.64 57.1254  -1
   2   2   1 2406.64 57.1254   2
   3  -2   3 407.179 13.0234  -1
   3   2   1 407.179 13.0234   2
   4  -2   3 585.404 22.8224  -1
   4   2   1 585.404 22.8224   2
   5  -2   3 300.436 9.81793   2
   5  -2   3 534.663 43.7907  -1
   5   2   1 534.663 43.7907   2
   6  -2   3 8.46205 2.59128   2
   7  -2   3 129.452 10.0715   2
   8  -2   3 10.4436 4.19577   2
   9  -2   3 68.0548 8.29322   2
 -10  -1   3 103.551 9.49826   2
  -9  -1   3 12.2459 3.06032   2
  -8  -1   3 398.063 17.0302   2
  -7  -1   3 14.2850 2.79378   2
  -6  -1   3 334.736 11.3637   2
  -5  -1   3 23.3880 2.28952   2
  -4  -1   3 485.807 12.7048   2
  -2  -1   3 1159.49 72.5171  -1
  -2   1   2 1159.49 72.5171   2
  -1  -1   3 988.271 79.9215  -1
  -1   1   2 988.271 79.9215   2
   0  -1   3 349.546 12.6701  -1
   0   1   2 349.546 12.6701   2
   1  -1   3 1397.57 35.8966  -1
   1   1   2 1397.57 35.8966   2
   2  -1   3 65.7057 2.70041  -1
   2   1   2 65.7057 2.70041   2
   3  -1   3 993.563 26.5259  -1
   3   1   2 993.563 26.5259   2
   4  -1   3 8.38911 3.53730  -1
   4   1   2 8.38911 3.53730   2
   5  -1   3 623.046 25.2611  -1
   5   1   2 623.046 25.2611   2
   6  -1   3 26.2139 3.77704   2
   6  -1   3 59.5173 14.5748  -1
   6   1   2 59.5173 14.5748   2
   7  -1   3 148.953 10.6555   2
   8  -1   3 52.4793 6.69018   2
 -10   0   3 80.9736 8.34701   2
  -9   0   3 69.1834 5.91696   2
  -8   0   3 5.03148 2.59332   2
  -7   0   3 1.91689 2.00554   2
  -6   0   3 122.006 6.58566   2
  -5   0   3 414.413 12.0118   2
  -4   0   3 111.142 4.71382   2
  -3   0   3 4735.53 347.949  -1
  -3   0   3 4735.53 347.949   2
  -2   0   3 262.729 18.8523  -1
  -2   0   3 262.729 18.8523   2
  -1   0   3 2097.38 101.716  -1
  -1   0   3 2097.38 101.716   2
   0   0   3 74.8849 3.19655  -1
   0   0   3 74.8849 3.19655   2
   1   0   3 1916.72 45.8565  -1
   1   0   3 1916.72 45.8565   2
   2   0   3 420.934 11.1770  -1
   2   0   3 420.934 11.1770   2
   3   0   3 774.551 21.3337  -1
   3   0   3 774.551 21.3337   2
   4   0   3 742.760 28.1676  -1
   4   0   3 742.760 28.1676   2
   5   0   3 146.957 9.02890  -1
   5   0   3 146.957 9.02890   2
   6   0   3 458.861 28.8699  -1
   6   0   3 458.861 28.8699   2
   7   0   3 6.37705 3.04395   2
   8   0   3 118.809 9.34859   2
 -10   1   3 11.8216 4.14134   2
  -9   1   3 173.707 10.9392   2
  -8   1   3 23.2046 3.67935   2
  -7   1   3 712.610 20.4271   2
  -6   1   3 -1.2133 1.18896   2
  -5   1   3 512.676 14.6983   2
  -4   1   3 77.7140 3.19549   2
  -4   1   3 105.816 11.8490  -1
  -4  -1   4 105.816 11.8490   2
  -3   1   3 332.880 8.96307   2
  -2   1   3 1500.48 94.5526  -1
  -2  -1   4 1500.48 94.5526   2
  -1   1   3 610.800 31.4858  -1
  -1  -1   4 610.800 31.4858   2
   0   1   3 920.017 28.3945  -1
   0  -1   4 920.017 28.3945   2
   1   1   3 3.06942 1.05518  -1
   1  -1   4 3.06942 1.05518   2
   2   1   3 1572.48 38.1911  -1
   2  -1   4 1572.48 38.1911   2
   3   1   3 16.8975 2.22263  -1
   3  -1   4 16.8975 2.22263   2
   4   1   3 888.914 26.5976  -1
   4  -1   4 888.914 26.5976   2
   5   1   3 6.15179 8.37204  -1
   5  -1   4 6.15179 8.37204   2
   6   1   3 252.514 35.6303  -1
   6  -1   4 252.514 35.6303   2
   7   1   3 50.1958 4.90878   2
   8   1   3 37.9992 6.37855   2
 -10   2   3 4.42282 3.89809   2
  -9   2   3 102.235 8.22201   2
  -8   2   3 83.3630 7.02167   2
  -7   2   3 33.7473 3.53985   2
  -6   2   3 94.5267 5.51768   2
  -5   2   3 68.7906 3.82709   2
  -4   2   3 497.769 12.4660   2
  -4   2   3 864.407 68.1068  -1
  -4  -2   5 864.407 68.1068   2
  -3   2   3 11.5168 1.12962   2
  -2   2   3 1104.70 26.4930   2
  -2   2   3 1773.63 112.047  -1
  -2  -2   5 1773.63 112.047   2
  -1   2   3 237.132 11.2706  -1
  -1  -2   5 237.132 11.2706   2
   0   2   3 600.492 17.8367  -1
   0  -2   5 600.492 17.8367   2
   1   2   3 25.4226 2.05812  -1
   1  -2   5 25.4226 2.05812   2
   2   2   3 807.326 20.6792  -1
   2  -2   5 807.326 20.6792   2
   3   2   3 590.908 16.0169  -1
   3  -2   5 590.908 16.0169   2
   4   2   3 139.012 6.87350  -1
   4  -2   5 139.012 6.87350   2
   5   2   3 750.338 35.4145  -1
   5  -2   5 750.338 35.4145   2
   6   2   3 -5.9421 11.0357  -1
   6  -2   5 -5.9421 11.0357   2
   7   2   3 253.651 39.6302  -1
   7  -2   5 253.651 39.6302   2
   8   2   3 -0.6126 4.01558   2
 -10   3   3 66.5099 7.12551   2
  -9   3   3 16.3752 3.48936   2
  -8   3   3 206.464 10.7813   2
  -7   3   3 31.9666 3.62903   2
  -6   3   3 517.800 15.3860   2
  -5   3   3 34.5393 2.75929   2
  -4   3   3 433.944 11.7595   2
  -4   3   3 662.467 54.6750  -1
  -4  -3   6 662.467 54.6750   2
  -3   3   3 221.780 6.66959   2
  -1   3   3 1070.56 33.1570  -1
  -1  -3   6 1070.56 33.1570   2
   0   3   3 100.856 4.53112  -1
   0  -3   6 100.856 4.53112   2
   1   3   3 537.219 15.7398  -1
   1  -3   6 537.219 15.7398   2
   2   3   3 -0.8592 1.72797  -1
   2  -3   6 -0.8592 1.72797   2
   3   3   3 833.786 23.8526  -1
   3  -3   6 833.786 23.8526   2
   4   3   3 66.0891 4.64354  -1
   4  -3   6 66.0891 4.64354   2
   5   3   3 526.411 20.4423  -1
   5  -3   6 526.411 20.4423   2
   6   3   3 63.2741 14.4733  -1
   6  -3   6 63.2741 14.4733   2
   7   3   3 49.9572 22.1755  -1
   7  -3   6 49.9572 22.1755   2
 -10   4   3 118.292 10.2647   2
  -9   4   3 48.7693 6.40336   2
  -8   4   3 58.5355 5.82574   2
  -7   4   3 191.922 11.5070   2
  -6   4   3 5.26389 2.16288   2
  -5   4   3 175.408 7.29960   2
  -4   4   3 33.1029 3.32889   2
  -3   4   3 538.453 14.5341   2
  -1   4   3 1131.09 34.9046  -1
  -1  -4   7 1131.09 34.9046   2
   0   4   3 205.884 7.63655  -1
   0  -4   7 205.884 7.63655   2
   1   4   3 601.508 17.7522  -1
   1  -4   7 601.508 17.7522   2
   2   4   3 242.478 8.74738  -1
   2  -4   7 242.478 8.74738   2
   3   4   3 160.255 7.02408  -1
   3  -4   7 160.255 7.02408   2
   4   4   3 190.220 10.3657  -1
   4  -4   7 190.220 10.3657   2
   5   4   3 34.1563 6.49704  -1
   5  -4   7 34.1563 6.49704   2
   6   4   3 313.846 20.0359  -1
   6  -4   7 313.846 20.0359   2
  -9   5   3 99.4271 8.81542   2
  -8   5   3 2.46616 2.64298   2
  -7   5   3 211.487 11.9520   2
  -6   5   3 39.5124 5.21210   2
  -5   5   3 492.920 22.0664   2
  -4   5   3 42.7730 4.02238   2
  -3   5   3 235.518 7.92679   2
  -2   5   3 291.319 9.59844   2
  -2   5   3 393.640 37.8851  -1
  -2  -5   8 393.640 37.8851   2
  -1   5   3 20.8942 4.89634  -1
  -1  -5   8 20.8942 4.89634   2
   0   5   3 488.634 16.2493  -1
   0  -5   8 488.634 16.2493   2
   1   5   3 26.6293 3.77127  -1
   1  -5   8 26.6293 3.77127   2
   2   5   3 341.762 12.5693  -1
   2  -5   8 341.762 12.5693   2
   3   5   3 5.75557 3.45808  -1
   3  -5   8 5.75557 3.45808   2
   4   5   3 263.160 14.4652  -1
   4  -5   8 263.160 14.4652   2
   5   5   3 38.3666 8.07460  -1
   5  -5   8 38.3666 8.07460   2
   6   5   3 84.1021 12.1486  -1
   6  -5   8 84.1021 12.1486   2
  -9   6   3 104.357 9.96682   2
  -8   6   3 49.1708 6.52822   2
  -7   6   3 25.3265 5.85741   2
  -6   6   3 245.312 19.8800   2
  -5   6   3 63.5382 8.67823   2
  -4   6   3 128.891 9.14150   2
  -3   6   3 22.1147 2.84138   2
  -2   6   3 251.543 8.73002   2
  -2   6   3 437.157 43.3866  -1
  -2  -6   9 437.157 43.3866   2
  -1   6   3 22.4647 6.67305  -1
  -1  -6   9 22.4647 6.67305   2
   0   6   3 520.853 17.6670  -1
   0  -6   9 520.853 17.6670   2
   1   6   3 426.047 17.1819  -1
   1  -6   9 426.047 17.1819   2
   2   6   3 140.874 8.60129  -1
   2  -6   9 140.874 8.60129   2
   3   6   3 220.811 11.0180  -1
   3  -6   9 220.811 11.0180   2
   4   6   3 27.0846 5.48687  -1
   4  -6   9 27.0846 5.48687   2
   5   6   3 279.550 15.5207  -1
   5  -6   9 279.550 15.5207   2
  -8   7   3 80.6656 10.5589   2
  -7   7   3 16.3489 5.70260   2
  -6   7   3 112.829 11.3572   2
  -5   7   3 115.398 11.2512   2
  -4   7   3 169.472 11.6249   2
  -3   7   3 97.6005 6.13571   2
  -3   7   3 108.810 22.5945  -1
  -3  -7  10 108.810 22.5945   2
  -2   7   3 143.217 25.0862  -1
  -2  -7  10 143.217 25.0862   2
  -1   7   3 320.537 38.6624  -1
  -1  -7  10 320.537 38.6624   2
   0   7   3 15.9093 4.95077  -1
   0  -7  10 15.9093 4.95077   2
   1   7   3 301.592 13.9289  -1
   1  -7  10 301.592 13.9289   2
   2   7   3 12.3795 4.65855  -1
   2  -7  10 12.3795 4.65855   2
   3   7   3 216.070 12.2892  -1
   3  -7  10 216.070 12.2892   2
   4   7   3 8.60218 4.92309  -1
   4  -7  10 8.60218 4.92309   2
  -7   8   3 61.8529 9.75056   2
  -6   8   3 9.96714 4.86649   2
  -5   8   3 69.5858 8.33554   2
  -4   8   3 13.7872 4.27492   2
  -3   8   3 109.290 7.53188   2
  -2   8   3 -8.2481 17.0643  -1
  -2  -8  11 -8.2481 17.0643   2
  -1   8   3 299.707 40.2595  -1
  -1  -8  11 299.707 40.2595   2
   0   8   3 55.9700 7.22308  -1
   0  -8  11 55.9700 7.22308   2
   1   8   3 119.624 8.61386  -1
   1  -8  11 119.624 8.61386   2
   2   8   3 222.845 12.4802  -1
   2  -8  11 222.845 12.4802   2
   3   8   3 15.4436 5.41817  -1
   3  -8  11 15.4436 5.41817   2
  -6   9   3 16.7680 6.11226   2
  -5   9   3 29.7700 6.91538   2
  -4   9   3 81.5003 10.2745   2
  -3   9   3 68.3408 6.27661   2
  -2   9   3 98.8316 28.3458  -1
  -2  -9  12 98.8316 28.3458   2
  -1   9   3 58.6718 10.7911  -1
  -1  -9  12 58.6718 10.7911   2
   0   9   3 158.909 11.3867  -1
   0  -9  12 158.909 11.3867   2
   1   9   3 10.4474 6.14368  -1
   1  -9  12 10.4474 6.14368   2
  -4  10   3 67.7252 13.5058   2
  -3  10   3 6.98774 4.77632   2
  -2  10   3 49.8092 6.96655   2
  -1  10   3 3.62123 6.08146   2
  -2 -12   4 116.932 10.9200  -1
   2 -12   8 116.932 10.9200   2
  -1 -12   4 2.55957 5.31236  -1
   1 -12   8 2.55957 5.31236   2
   0 -12   4 143.247 11.4468  -1
   0 -12   8 143.247 11.4468   2
   1 -12   4 9.91109 5.53682  -1
  -1 -12   8 9.91109 5.53682   2
   2 -12   4 139.727 11.7642  -1
  -2 -12   8 139.727 11.7642   2
   3 -12   4 -2.4853 8.46103  -1
  -3 -12   8 -2.4853 8.46103   2
   4 -12   4 69.1126 10.4778   2
  -4 -11   4 99.4702 13.0892  -1
   4 -11   7 99.4702 13.0892   2
  -3 -11   4 53.1212 9.24230  -1
   3 -11   7 53.1212 9.24230   2
  -2 -11   4 182.352 12.6865  -1
   2 -11   7 182.352 12.6865   2
  -1 -11   4 32.9815 5.74733  -1
   1 -11   7 32.9815 5.74733   2
   0 -11   4 97.1014 7.69229  -1
   0 -11   7 97.1014 7.69229   2
   1 -11   4 136.919 10.0398  -1
  -1 -11   7 136.919 10.0398   2
   2 -11   4 43.2873 7.59556  -1
  -2 -11   7 43.2873 7.59556   2
   3 -11   4 198.170 13.3684  -1
  -3 -11   7 198.170 13.3684   2
   4 -11   4 19.3809 10.6887  -1
  -4 -11   7 19.3809 10.6887   2
   6 -11   4 10.1221 6.54831   2
  -5 -10   4 8.04489 17.3055  -1
   5 -10   6 8.04489 17.3055   2
  -4 -10   4 98.6688 12.5186  -1
   4 -10   6 98.6688 12.5186   2
  -3 -10   4 196.131 13.2208  -1
   3 -10   6 196.131 13.2208   2
  -2 -10   4 48.2703 7.03640  -1
   2 -10   6 48.2703 7.03640   2
  -1 -10   4 415.488 19.8689  -1
   1 -10   6 415.488 19.8689   2
   0 -10   4 20.0276 3.89343  -1
   0 -10   6 20.0276 3.89343   2
   1 -10   4 181.707 9.77793  -1
  -1 -10   6 181.707 9.77793   2
   2 -10   4 27.6268 4.74662  -1
  -2 -10   6 27.6268 4.74662   2
   3 -10   4 209.681 11.3302  -1
  -3 -10   6 209.681 11.3302   2
   4 -10   4 61.7618 12.8997  -1
  -4 -10   6 61.7618 12.8997   2
  -6  -9   4 0.23002 17.3614  -1
   6  -9   5 0.23002 17.3614   2
  -5  -9   4 232.031 32.0019  -1
   5  -9   5 232.031 32.0019   2
  -4  -9   4 6.43669 7.65854  -1
   4  -9   5 6.43669 7.65854   2
  -3  -9   4 177.568 11.6645  -1
   3  -9   5 177.568 11.6645   2
  -2  -9   4 137.234 9.75647  -1
   2  -9   5 137.234 9.75647   2
  -1  -9   4 366.700 17.3431  -1
   1  -9   5 366.700 17.3431   2
   0  -9   4 206.519 10.2439  -1
   0  -9   5 206.519 10.2439   2
   1  -9   4 166.925 7.96051  -1
  -1  -9   5 166.925 7.96051   2
   2  -9   4 182.219 8.82670  -1
  -2  -9   5 182.219 8.82670   2
   3  -9   4 36.9139 5.29142  -1
  -3  -9   5 36.9139 5.29142   2
   4  -9   4 320.513 14.6006  -1
  -4  -9   5 320.513 14.6006   2
   5  -9   4 0.48059 9.39153  -1
  -5  -9   5 0.48059 9.39153   2
   6  -9   4 174.461 21.8254  -1
  -6  -9   5 174.461 21.8254   2
   7  -9   4 1.95117 3.63756   2
  -7  -8   4 88.7405 8.47000   2
  -6  -8   4 90.3861 22.3868  -1
   6  -8   4 90.3861 22.3868   2
  -5  -8   4 178.676 17.7117  -1
   5  -8   4 178.676 17.7117   2
  -4  -8   4 159.335 11.4219  -1
   4  -8   4 159.335 11.4219   2
  -3  -8   4 136.455 9.99649  -1
   3  -8   4 136.455 9.99649   2
  -2  -8   4 386.788 18.2798  -1
   2  -8   4 386.788 18.2798   2
  -1  -8   4 7.43366 2.67969  -1
   1  -8   4 7.43366 2.67969   2
   0  -8   4 375.677 12.3556  -1
   0  -8   4 375.677 12.3556   2
   1  -8   4 12.3579 2.82883  -1
  -1  -8   4 12.3579 2.82883   2
   2  -8   4 412.481 14.7173  -1
  -2  -8   4 412.481 14.7173   2
   3  -8   4 154.836 8.56126  -1
  -3  -8   4 154.836 8.56126   2
   4  -8   4 170.563 9.53972  -1
  -4  -8   4 170.563 9.53972   2
   5  -8   4 194.104 21.5900  -1
  -5  -8   4 194.104 21.5900   2
   6  -8   4 39.7510 13.0789  -1
  -6  -8   4 39.7510 13.0789   2
   7  -8   4 74.3794 9.19688   2
   8  -8   4 8.76150 4.37647   2
  -8  -7   4 68.9894 7.36703   2
  -7  -7   4 9.15441 3.37934   2
  -6  -7   4 453.157 45.1933  -1
   6  -7   3 453.157 45.1933   2
  -6  -7   4 121.245 7.92541   2
  -5  -7   4 14.9344 12.4952  -1
   5  -7   3 14.9344 12.4952   2
  -4  -7   4 467.181 29.9949  -1
   4  -7   3 467.181 29.9949   2
  -3  -7   4 57.1021 4.05039  -1
   3  -7   3 57.1021 4.05039   2
  -2  -7   4 436.296 19.2693  -1
   2  -7   3 436.296 19.2693   2
  -1  -7   4 391.086 15.1380  -1
   1  -7   3 391.086 15.1380   2
   0  -7   4 268.271 9.21908  -1
   0  -7   3 268.271 9.21908   2
   1  -7   4 559.604 17.9066  -1
  -1  -7   3 559.604 17.9066   2
   2  -7   4 133.781 5.99899  -1
  -2  -7   3 133.781 5.99899   2
   3  -7   4 389.324 14.2433  -1
  -3  -7   3 389.324 14.2433   2
   4  -7   4 8.85559 4.17233  -1
  -4  -7   3 8.85559 4.17233   2
   5  -7   4 445.981 25.8918  -1
  -5  -7   3 445.981 25.8918   2
   6  -7   4 -0.0022 2.21100   2
   6  -7   4 8.57555 10.1341  -1
  -6  -7   3 8.57555 10.1341   2
   7  -7   4 125.190 8.92433   2
   8  -7   4 14.6100 4.29255   2
  -8  -6   4 99.2213 7.71438   2
  -7  -6   4 11.2395 3.19463   2
  -6  -6   4 229.447 9.97471   2
  -5  -6   4 244.821 9.67518   2
  -5  -6   4 390.394 38.3448  -1
   5  -6   2 390.394 38.3448   2
  -4  -6   4 350.724 33.9021  -1
   4  -6   2 350.724 33.9021   2
  -3  -6   4 622.041 22.6863  -1
   3  -6   2 622.041 22.6863   2
  -2  -6   4 70.3053 3.24990  -1
   2  -6   2 70.3053 3.24990   2
  -1  -6   4 1516.33 48.8882  -1
   1  -6   2 1516.33 48.8882   2
   0  -6   4 -1.3367 1.36765  -1
   0  -6   2 -1.3367 1.36765   2
   1  -6   4 941.753 24.4029  -1
  -1  -6   2 941.753 24.4029   2
   2  -6   4 12.3269 2.18754  -1
  -2  -6   2 12.3269 2.18754   2
   3  -6   4 355.183 12.9065  -1
  -3  -6   2 355.183 12.9065   2
   4  -6   4 186.263 9.27925  -1
  -4  -6   2 186.263 9.27925   2
   5  -6   4 131.266 13.1899  -1
  -5  -6   2 131.266 13.1899   2
   6  -6   4 116.162 8.06219   2
   6  -6   4 228.927 23.5185  -1
  -6  -6   2 228.927 23.5185   2
   7  -6   4 32.4970 4.63983   2
   8  -6   4 55.1004 7.00298   2
  -9  -5   4 94.0520 8.14166   2
  -8  -5   4 31.7960 4.78430   2
  -7  -5   4 171.198 9.57439   2
  -6  -5   4 4.54384 2.20282   2
  -5  -5   4 214.314 8.57970   2
  -4  -5   4 9.14797 1.69822   2
  -3  -5   4 784.802 35.5296  -1
   3  -5   1 784.802 35.5296   2
  -2  -5   4 231.859 6.77806  -1
   2  -5   1 231.859 6.77806   2
  -1  -5   4 288.739 8.99331  -1
   1  -5   1 288.739 8.99331   2
   0  -5   4 906.700 30.2237  -1
   0  -5   1 906.700 30.2237   2
   1  -5   4 139.571 4.86200  -1
  -1  -5   1 139.571 4.86200   2
   2  -5   4 625.325 16.5867  -1
  -2  -5   1 625.325 16.5867   2
   3  -5   4 142.238 6.12193  -1
  -3  -5   1 142.238 6.12193   2
   4  -5   4 506.760 16.4925  -1
  -4  -5   1 506.760 16.4925   2
   5  -5   4 2.70108 4.56960  -1
  -5  -5   1 2.70108 4.56960   2
   6  -5   4 179.349 10.3398   2
   7  -5   4 13.1439 3.41204   2
   8  -5   4 82.3997 8.33092   2
  -9  -4   4 115.357 9.02127   2
  -8  -4   4 30.8203 4.77300   2
  -7  -4   4 180.090 10.3451   2
  -6  -4   4 77.9592 5.89729   2
  -5  -4   4 200.077 7.77132   2
  -4  -4   4 515.706 13.8101   2
  -3  -4   4 110.961 9.07688  -1
  -3   4   0 110.961 9.07688   2
  -2  -4   4 919.914 29.3569  -1
  -2   4   0 919.914 29.3569   2
  -1  -4   4 24.6783 1.99010  -1
  -1   4   0 24.6783 1.99010   2
   0  -4   4 1694.72 54.2704  -1
   0   4   0 1694.72 54.2704   2
   1  -4   4 163.359 5.36283  -1
   1   4   0 163.359 5.36283   2
   2  -4   4 2628.15 73.1586  -1
   2   4   0 2628.15 73.1586   2
   3  -4   4 414.038 13.4222  -1
   3   4   0 414.038 13.4222   2
   4  -4   4 237.126 9.07957  -1
   4   4   0 237.126 9.07957   2
   5  -4   4 130.446 7.18582   2
   5  -4   4 244.907 12.9629  -1
   5   4   0 244.907 12.9629   2
   6  -4   4 35.1853 3.92662   2
   7  -4   4 111.753 9.10067   2
   8  -4   4 19.6277 4.97276   2
 -10  -3   4 46.8595 6.18283   2
  -9  -3   4 29.1771 4.83682   2
  -8  -3   4 263.061 13.8752   2
  -7  -3   4 12.9791 3.14306   2
  -6  -3   4 326.241 12.4725   2
  -5  -3   4 1.64861 1.19193   2
  -4  -3   4 461.202 12.3567   2
  -3  -3   4 494.451 33.9257  -1
  -3   3   1 494.451 33.9257   2
  -2  -3   4 1317.56 64.4573  -1
  -2   3   1 1317.56 64.4573   2
  -1  -3   4 661.861 25.4014  -1
  -1   3   1 661.861 25.4014   2
   0  -3   4 181.683 6.18519  -1
   0   3   1 181.683 6.18519   2
   1  -3   4 871.389 25.2968  -1
   1   3   1 871.389 25.2968   2
   2  -3   4 121.428 4.40905  -1
   2   3   1 121.428 4.40905   2
   3  -3   4 1236.68 35.1225  -1
   3   3   1 1236.68 35.1225   2
   4  -3   4 20.5474 2.80049  -1
   4   3   1 20.5474 2.80049   2
   5  -3   4 503.146 21.3171  -1
   5   3   1 503.146 21.3171   2
   6  -3   4 12.8579 3.23904   2
   6  -3   4 41.4125 14.0030  -1
   6   3   1 41.4125 14.0030   2
   7  -3   4 104.236 8.80127   2
   8  -3   4 14.9061 4.53063   2
 -10  -2   4 141.701 9.46067   2
  -9  -2   4 19.0264 4.06263   2
  -8  -2   4 172.443 11.2180   2
  -7  -2   4 40.9025 5.03087   2
  -6  -2   4 305.173 9.97102   2
  -5  -2   4 293.731 8.73242   2
  -4  -2   4 261.908 7.75445   2
  -2  -2   4 129.061 4.42822   2
  -2  -2   4 181.896 13.1411  -1
  -2   2   2 181.896 13.1411   2
  -1  -2   4 1946.20 97.5816  -1
  -1   2   2 1946.20 97.5816   2
   0  -2   4 1.75203 1.09493  -1
   0   2   2 1.75203 1.09493   2
   1  -2   4 1599.31 42.0809  -1
   1   2   2 1599.31 42.0809   2
   2  -2   4 282.142 8.05994  -1
   2   2   2 282.142 8.05994   2
   3  -2   4 535.312 15.4713  -1
   3   2   2 535.312 15.4713   2
   4  -2   4 268.439 9.98049  -1
   4   2   2 268.439 9.98049   2
   5  -2   4 192.983 11.0846  -1
   5   2   2 192.983 11.0846   2
   6  -2   4 301.663 30.5950  -1
   6   2   2 301.663 30.5950   2
   6  -2   4 181.901 9.99906   2
   7  -2   4 4.44347 3.04117   2
   8  -2   4 105.531 9.02110   2
 -10  -1   4 24.5753 4.74356   2
  -9  -1   4 96.5069 7.82109   2
  -8  -1   4 2.63906 1.98200   2
  -7  -1   4 533.985 18.6235   2
  -6  -1   4 8.77467 2.05873   2
  -5  -1   4 484.519 13.1193   2
  -3  -1   4 196.715 6.42216   2
  -2  -1   4 1527.87 94.9516  -1
  -2   1   3 1527.87 94.9516   2
  -1  -1   4 743.879 37.7277  -1
  -1   1   3 743.879 37.7277   2
   0  -1   4 978.052 26.0334  -1
   0   1   3 978.052 26.0334   2
   1  -1   4 2.06643 0.91465  -1
   1   1   3 2.06643 0.91465   2
   2  -1   4 1525.67 35.2169  -1
   2   1   3 1525.67 35.2169   2
   3  -1   4 15.9262 1.89989  -1
   3   1   3 15.9262 1.89989   2
   4  -1   4 890.063 29.6789  -1
   4   1   3 890.063 29.6789   2
   5  -1   4 2.61390 4.03735  -1
   5   1   3 2.61390 4.03735   2
   6  -1   4 215.513 17.5797  -1
   6   1   3 215.513 17.5797   2
   7  -1   4 66.6006 6.14313   2
   8  -1   4 68.0424 8.20972   2
 -10   0   4 5.10493 4.20893   2
  -9   0   4 215.857 11.2319   2
  -8   0   4 206.952 10.4977   2
  -7   0   4 137.306 7.11619   2
  -6   0   4 305.254 10.0355   2
  -5   0   4 102.444 4.91683   2
  -4   0   4 603.513 47.1564  -1
  -4   0   4 603.513 47.1564   2
  -3   0   4 427.102 12.1621   2
  -2   0   4 3185.89 196.001  -1
  -2   0   4 3185.89 196.001   2
  -1   0   4 5.02986 3.00856  -1
  -1   0   4 5.02986 3.00856   2
   0   0   4 2654.39 99.5327  -1
   0   0   4 2654.39 99.5327   2
   1   0   4 42.5268 2.33473  -1
   1   0   4 42.5268 2.33473   2
   2   0   4 1485.80 36.3130  -1
   2   0   4 1485.80 36.3130   2
   3   0   4 360.570 10.3442  -1
   3   0   4 360.570 10.3442   2
   4   0   4 315.161 11.5104  -1
   4   0   4 315.161 11.5104   2
   5   0   4 280.202 13.9666  -1
   5   0   4 280.202 13.9666   2
   6   0   4 44.9205 12.7227  -1
   6   0   4 44.9205 12.7227   2
   7   0   4 78.1777 7.35308   2
   8   0   4 0.26985 4.24214   2
 -10   1   4 88.6666 8.23387   2
  -9   1   4 34.6046 4.42841   2
  -8   1   4 178.317 9.50044   2
  -7   1   4 10.9612 2.40955   2
  -6   1   4 779.584 23.2152   2
  -5   1   4 47.1734 3.49149   2
  -4   1   4 625.534 16.2638   2
  -4   1   4 1108.77 85.3539  -1
  -4  -1   5 1108.77 85.3539   2
  -3   1   4 84.6379 3.24970   2
  -1   1   4 1338.55 66.8229  -1
  -1  -1   5 1338.55 66.8229   2
   0   1   4 367.771 13.8155  -1
   0  -1   5 367.771 13.8155   2
   1   1   4 773.285 21.3404  -1
   1  -1   5 773.285 21.3404   2
   2   1   4 16.7009 1.69906  -1
   2  -1   5 16.7009 1.69906   2
   3   1   4 881.297 22.7962  -1
   3  -1   5 881.297 22.7962   2
   4   1   4 39.4014 3.99698  -1
   4  -1   5 39.4014 3.99698   2
   5   1   4 504.034 21.5019  -1
   5  -1   5 504.034 21.5019   2
   6   1   4 16.1361 7.14030  -1
   6  -1   5 16.1361 7.14030   2
   7   1   4 121.841 31.0890  -1
   7  -1   5 121.841 31.0890   2
 -10   2   4 126.095 9.44704   2
  -9   2   4 30.9385 4.92553   2
  -8   2   4 172.674 8.72791   2
  -7   2   4 188.954 8.38480   2
  -6   2   4 44.8965 3.81529   2
  -5   2   4 376.233 11.5756   2
  -4   2   4 22.8053 1.87620   2
  -3   2   4 498.261 13.3431   2
  -1   2   4 1849.86 72.0270  -1
  -1  -2   6 1849.86 72.0270   2
   0   2   4 380.222 13.4675  -1
   0  -2   6 380.222 13.4675   2
   1   2   4 929.589 25.5805  -1
   1  -2   6 929.589 25.5805   2
   2   2   4 201.440 6.76680  -1
   2  -2   6 201.440 6.76680   2
   3   2   4 512.281 14.3455  -1
   3  -2   6 512.281 14.3455   2
   4   2   4 251.269 11.3140  -1
   4  -2   6 251.269 11.3140   2
   5   2   4 159.131 9.26914  -1
   5  -2   6 159.131 9.26914   2
   6   2   4 443.041 25.2871  -1
   6  -2   6 443.041 25.2871   2
   7   2   4 -23.364 17.4486  -1
   7  -2   6 -23.364 17.4486   2
 -10   3   4 18.1597 5.08868   2
  -9   3   4 146.089 11.7084   2
  -8   3   4 5.87806 2.54374   2
  -7   3   4 296.042 10.4731   2
  -6   3   4 52.9345 4.32055   2
  -5   3   4 490.473 16.1171   2
  -4   3   4 188.793 7.19933   2
  -3   3   4 227.465 7.98044   2
  -2   3   4 297.586 10.1118   2
  -1   3   4 162.231 8.48045  -1
  -1  -3   7 162.231 8.48045   2
   0   3   4 1289.00 40.4572  -1
   0  -3   7 1289.00 40.4572   2
   1   3   4 64.8955 3.97223  -1
   1  -3   7 64.8955 3.97223   2
   2   3   4 767.384 22.2472  -1
   2  -3   7 767.384 22.2472   2
   3   3   4 23.3012 3.14345  -1
   3  -3   7 23.3012 3.14345   2
   4   3   4 364.027 15.0786  -1
   4  -3   7 364.027 15.0786   2
   5   3   4 21.2256 6.10396  -1
   5  -3   7 21.2256 6.10396   2
   6   3   4 245.937 15.5684  -1
   6  -3   7 245.937 15.5684   2
  -9   4   4 113.624 10.4459   2
  -8   4   4 118.028 9.24828   2
  -7   4   4 75.7797 7.05520   2
  -6   4   4 276.508 11.4314   2
  -5   4   4 1.13038 2.57744   2
  -4   4   4 295.737 11.7313   2
  -3   4   4 58.9787 4.06043   2
  -2   4   4 327.658 10.4510   2
  -1   4   4 4.51527 6.16491  -1
  -1  -4   8 4.51527 6.16491   2
   0   4   4 584.810 18.9739  -1
   0  -4   8 584.810 18.9739   2
   1   4   4 239.634 8.94510  -1
   1  -4   8 239.634 8.94510   2
   2   4   4 305.445 10.9058  -1
   2  -4   8 305.445 10.9058   2
   3   4   4 202.093 8.46555  -1
   3  -4   8 202.093 8.46555   2
   4   4   4 126.331 7.85849  -1
   4  -4   8 126.331 7.85849   2
   5   4   4 247.123 16.6293  -1
   5  -4   8 247.123 16.6293   2
   6   4   4 9.81319 8.78069  -1
   6  -4   8 9.81319 8.78069   2
  -9   5   4 11.4808 4.61228   2
  -8   5   4 178.420 13.4459   2
  -7   5   4 -3.8278 2.95856   2
  -6   5   4 163.083 15.4974   2
  -5   5   4 103.180 9.08138   2
  -4   5   4 168.914 9.71573   2
  -3   5   4 118.552 5.78101   2
  -2   5   4 125.171 6.33739   2
  -2   5   4 207.454 26.0759  -1
  -2  -5   9 207.454 26.0759   2
  -1   5   4 397.837 40.1823  -1
  -1  -5   9 397.837 40.1823   2
   0   5   4 1.80779 4.07269  -1
   0  -5   9 1.80779 4.07269   2
   1   5   4 705.333 22.6018  -1
   1  -5   9 705.333 22.6018   2
   2   5   4 10.0087 4.50720  -1
   2  -5   9 10.0087 4.50720   2
   3   5   4 281.324 13.6861  -1
   3  -5   9 281.324 13.6861   2
   4   5   4 53.3912 6.05468  -1
   4  -5   9 53.3912 6.05468   2
   5   5   4 133.297 10.7633  -1
   5  -5   9 133.297 10.7633   2
  -9   6   4 43.2224 17.1121   2
  -8   6   4 48.5877 8.34022   2
  -7   6   4 108.674 13.4324   2
  -6   6   4 50.7468 8.68889   2
  -5   6   4 281.321 21.2685   2
  -4   6   4 27.8771 4.48230   2
  -3   6   4 354.680 12.0660   2
  -2   6   4 0.90772 13.0488  -1
  -2  -6  10 0.90772 13.0488   2
  -1   6   4 347.877 39.4443  -1
  -1  -6  10 347.877 39.4443   2
   0   6   4 5.26171 4.70483  -1
   0  -6  10 5.26171 4.70483   2
   1   6   4 288.474 13.7644  -1
   1  -6  10 288.474 13.7644   2
   2   6   4 240.767 12.4655  -1
   2  -6  10 240.767 12.4655   2
   3   6   4 120.050 8.87159  -1
   3  -6  10 120.050 8.87159   2
   4   6   4 116.305 9.07136  -1
   4  -6  10 116.305 9.07136   2
  -8   7   4 5.45315 3.95473   2
  -7   7   4 128.276 15.0795   2
  -6   7   4 11.0505 4.53051   2
  -5   7   4 114.600 12.3358   2
  -4   7   4 90.2928 8.33825   2
  -3   7   4 63.9508 5.16782   2
  -2   7   4 186.700 29.5737  -1
  -2  -7  11 186.700 29.5737   2
  -1   7   4 32.1661 19.9714  -1
  -1  -7  11 32.1661 19.9714   2
   0   7   4 238.179 13.7104  -1
   0  -7  11 238.179 13.7104   2
   1   7   4 -5.5263 5.10312  -1
   1  -7  11 -5.5263 5.10312   2
   2   7   4 204.940 12.2825  -1
   2  -7  11 204.940 12.2825   2
   3   7   4 18.6641 5.68539  -1
   3  -7  11 18.6641 5.68539   2
  -7   8   4 22.2628 6.90036   2
  -6   8   4 79.3136 9.73624   2
  -5   8   4 7.66918 4.58498   2
  -4   8   4 104.287 10.1534   2
  -3   8   4 19.2349 3.60737   2
  -2   8   4 159.472 30.7512  -1
  -2  -8  12 159.472 30.7512   2
  -1   8   4 35.0746 22.0213  -1
  -1  -8  12 35.0746 22.0213   2
   0   8   4 107.852 10.4162  -1
   0  -8  12 107.852 10.4162   2
   1   8   4 74.9255 9.09938  -1
   1  -8  12 74.9255 9.09938   2
   2   8   4 122.515 10.7110  -1
   2  -8  12 122.515 10.7110   2
  -5   9   4 28.4018 6.99173   2
  -4   9   4 21.5225 5.79526   2
  -3   9   4 141.505 10.0692   2
  -2   9   4 45.8898 27.0173  -1
  -2  -9  13 45.8898 27.0173   2
  -1   9   4 84.9023 8.37623   2
   0   9   4 4.55911 3.71781   2
   0 -13   5 56.1430 9.56326   2
   1 -13   5 14.5640 4.75369   2
  -3 -12   5 141.868 17.9450  -1
   3 -12   7 141.868 17.9450   2
  -2 -12   5 31.4650 9.23038  -1
   2 -12   7 31.4650 9.23038   2
  -1 -12   5 155.916 14.6120  -1
   1 -12   7 155.916 14.6120   2
   0 -12   5 1.29927 4.60635  -1
   0 -12   7 1.29927 4.60635   2
   1 -12   5 52.2347 7.63853  -1
  -1 -12   7 52.2347 7.63853   2
   2 -12   5 10.2572 6.59066  -1
  -2 -12   7 10.2572 6.59066   2
   3 -12   5 126.504 13.9037  -1
  -3 -12   7 126.504 13.9037   2
   4 -12   5 4.98119 5.10029   2
  -4 -11   5 5.45290 9.33893  -1
   4 -11   6 5.45290 9.33893   2
  -3 -11   5 131.534 16.8130  -1
   3 -11   6 131.534 16.8130   2
  -2 -11   5 74.4951 10.3663  -1
   2 -11   6 74.4951 10.3663   2
  -1 -11   5 258.425 18.6041  -1
   1 -11   6 258.425 18.6041   2
   0 -11   5 114.245 8.32125  -1
   0 -11   6 114.245 8.32125   2
   1 -11   5 88.6492 8.20998  -1
  -1 -11   6 88.6492 8.20998   2
   2 -11   5 73.6340 8.10475  -1
  -2 -11   6 73.6340 8.10475   2
   3 -11   5 15.4318 6.36041  -1
  -3 -11   6 15.4318 6.36041   2
   4 -11   5 213.463 14.9203  -1
  -4 -11   6 213.463 14.9203   2
   5 -11   5 7.31843 8.96293  -1
  -5 -11   6 7.31843 8.96293   2
  -6 -10   5 398.117 48.6641  -1
   6 -10   5 398.117 48.6641   2
  -5 -10   5 67.4586 21.0044  -1
   5 -10   5 67.4586 21.0044   2
  -4 -10   5 100.237 12.4661  -1
   4 -10   5 100.237 12.4661   2
  -3 -10   5 71.0001 8.56759  -1
   3 -10   5 71.0001 8.56759   2
  -2 -10   5 154.147 12.8817  -1
   2 -10   5 154.147 12.8817   2
  -1 -10   5 48.1163 7.80011  -1
   1 -10   5 48.1163 7.80011   2
   0 -10   5 506.906 22.7572  -1
   0 -10   5 506.906 22.7572   2
   1 -10   5 34.2351 4.94806  -1
  -1 -10   5 34.2351 4.94806   2
   2 -10   5 162.920 11.0066  -1
  -2 -10   5 162.920 11.0066   2
   3 -10   5 67.8395 8.13593  -1
  -3 -10   5 67.8395 8.13593   2
   4 -10   5 100.832 9.57948  -1
  -4 -10   5 100.832 9.57948   2
   5 -10   5 87.9421 16.4282  -1
  -5 -10   5 87.9421 16.4282   2
   6 -10   5 109.576 18.9219  -1
  -6 -10   5 109.576 18.9219   2
  -7  -9   5 17.1919 4.64339   2
  -6  -9   5 221.402 32.4783  -1
   6  -9   4 221.402 32.4783   2
  -5  -9   5 2.60399 11.0082  -1
   5  -9   4 2.60399 11.0082   2
  -4  -9   5 272.539 18.6122  -1
   4  -9   4 272.539 18.6122   2
  -3  -9   5 31.5743 6.39362  -1
   3  -9   4 31.5743 6.39362   2
  -2  -9   5 185.703 11.7521  -1
   2  -9   4 185.703 11.7521   2
  -1  -9   5 185.747 13.5453  -1
   1  -9   4 185.747 13.5453   2
   0  -9   5 195.122 9.63848  -1
   0  -9   4 195.122 9.63848   2
   1  -9   5 409.686 16.6236  -1
  -1  -9   4 409.686 16.6236   2
   2  -9   5 130.559 8.12407  -1
  -2  -9   4 130.559 8.12407   2
   3  -9   5 177.555 11.6511  -1
  -3  -9   4 177.555 11.6511   2
   4  -9   5 7.58115 6.18505  -1
  -4  -9   4 7.58115 6.18505   2
   5  -9   5 240.185 25.6436  -1
  -5  -9   4 240.185 25.6436   2
   6  -9   5 3.51500 11.7241  -1
  -6  -9   4 3.51500 11.7241   2
   7  -9   5 74.7215 11.6770   2
  -7  -8   5 21.7021 5.01738   2
  -6  -8   5 66.5907 6.39465   2
  -5  -8   5 232.557 29.7631  -1
   5  -8   3 232.557 29.7631   2
  -5  -8   5 148.482 9.22495   2
  -4  -8   5 -0.7214 6.51736  -1
   4  -8   3 -0.7214 6.51736   2
  -3  -8   5 150.443 9.16272  -1
   3  -8   3 150.443 9.16272   2
  -2  -8   5 34.0171 5.33136  -1
   2  -8   3 34.0171 5.33136   2
  -1  -8   5 650.099 23.4510  -1
   1  -8   3 650.099 23.4510   2
   0  -8   5 14.8630 3.66627  -1
   0  -8   3 14.8630 3.66627   2
   1  -8   5 595.623 21.8890  -1
  -1  -8   3 595.623 21.8890   2
   2  -8   5 254.615 11.7070  -1
  -2  -8   3 254.615 11.7070   2
   3  -8   5 114.319 8.98427  -1
  -3  -8   3 114.319 8.98427   2
   4  -8   5 228.575 17.2606  -1
  -4  -8   3 228.575 17.2606   2
   5  -8   5 94.4598 12.6816  -1
  -5  -8   3 94.4598 12.6816   2
   6  -8   5 235.247 25.6532  -1
  -6  -8   3 235.247 25.6532   2
   6  -8   5 100.048 10.1064   2
   7  -8   5 46.7888 7.63844   2
  -8  -7   5 14.8602 4.75156   2
  -7  -7   5 146.018 9.23411   2
  -6  -7   5 0.36309 1.99701   2
  -5  -7   5 248.008 10.0347   2
  -5  -7   5 384.576 39.1760  -1
   5  -7   2 384.576 39.1760   2
  -4  -7   5 38.5141 12.1927  -1
   4  -7   2 38.5141 12.1927   2
  -3  -7   5 472.320 18.6567  -1
   3  -7   2 472.320 18.6567   2
  -2  -7   5 130.767 7.56356  -1
   2  -7   2 130.767 7.56356   2
  -1  -7   5 269.947 11.3194  -1
   1  -7   2 269.947 11.3194   2
   0  -7   5 416.671 15.7843  -1
   0  -7   2 416.671 15.7843   2
   1  -7   5 177.972 7.93810  -1
  -1  -7   2 177.972 7.93810   2
   2  -7   5 721.409 23.6113  -1
  -2  -7   2 721.409 23.6113   2
   3  -7   5 68.5844 5.90560  -1
  -3  -7   2 68.5844 5.90560   2
   4  -7   5 261.012 12.0108  -1
  -4  -7   2 261.012 12.0108   2
   5  -7   5 15.0390 5.94594  -1
  -5  -7   2 15.0390 5.94594   2
   6  -7   5 127.473 10.0371   2
   6  -7   5 172.330 21.3152  -1
  -6  -7   2 172.330 21.3152   2
   7  -7   5 15.0289 3.97222   2
   8  -7   5 77.3912 9.86586   2
  -9  -6   5 104.006 8.89443   2
  -8  -6   5 21.0807 3.91664   2
  -7  -6   5 97.8906 7.15837   2
  -6  -6   5 61.2213 5.00050   2
  -5  -6   5 84.3561 5.85997   2
  -3  -6   5 57.8343 8.69545  -1
   3  -6   1 57.8343 8.69545   2
  -2  -6   5 152.496 5.96037  -1
   2  -6   1 152.496 5.96037   2
  -1  -6   5 57.6974 3.93256  -1
   1  -6   1 57.6974 3.93256   2
   0  -6   5 1079.25 29.8473  -1
   0  -6   1 1079.25 29.8473   2
   1  -6   5 249.985 8.22630  -1
  -1  -6   1 249.985 8.22630   2
   2  -6   5 717.776 20.9165  -1
  -2  -6   1 717.776 20.9165   2
   3  -6   5 441.447 16.5934  -1
  -3  -6   1 441.447 16.5934   2
   4  -6   5 4.07256 4.07929  -1
  -4  -6   1 4.07256 4.07929   2
   5  -6   5 163.608 9.57278  -1
  -5  -6   1 163.608 9.57278   2
   6  -6   5 19.1728 3.65904   2
   6  -6   5 27.1236 10.9114  -1
  -6  -6   1 27.1236 10.9114   2
   7  -6   5 162.512 10.5780   2
   8  -6   5 1.02900 3.73026   2
  -9  -5   5 9.84730 3.76335   2
  -8  -5   5 95.7478 7.72622   2
  -7  -5   5 3.82238 2.11809   2
  -6  -5   5 294.088 11.9141   2
  -5  -5   5 13.2194 2.20725   2
  -4  -5   5 269.975 9.01832   2
  -2  -5   5 577.917 19.6901  -1
  -2   5   0 577.917 19.6901   2
  -1  -5   5 234.588 8.29458  -1
  -1   5   0 234.588 8.29458   2
   0  -5   5 236.984 8.12514  -1
   0   5   0 236.984 8.12514   2
   1  -5   5 877.992 22.8631  -1
   1   5   0 877.992 22.8631   2
   2  -5   5 3.20257 1.69620  -1
   2   5   0 3.20257 1.69620   2
   3  -5   5 906.852 30.1448  -1
   3   5   0 906.852 30.1448   2
   4  -5   5 22.3757 4.13762  -1
   4   5   0 22.3757 4.13762   2
   5  -5   5 185.087 9.99760  -1
   5   5   0 185.087 9.99760   2
   6  -5   5 24.3722 6.93288  -1
   6   5   0 24.3722 6.93288   2
   6  -5   5 3.87074 2.47764   2
   7  -5   5 80.7168 8.09710   2
   8  -5   5 51.6400 7.01471   2
  -9  -4   5 0.67672 2.64257   2
  -8  -4   5 84.0783 7.65578   2
  -7  -4   5 90.7459 7.60738   2
  -6  -4   5 98.4049 6.79050   2
  -5  -4   5 323.073 9.85197   2
  -4  -4   5 59.2807 3.47314   2
  -3  -4   5 1218.12 79.7617  -1
  -3   4   1 1218.12 79.7617   2
  -2  -4   5 3.93937 3.45414  -1
  -2   4   1 3.93937 3.45414   2
  -1  -4   5 859.623 29.3925  -1
  -1   4   1 859.623 29.3925   2
   0  -4   5 5.23162 1.58572  -1
   0   4   1 5.23162 1.58572   2
   1  -4   5 592.108 15.8765  -1
   1   4   1 592.108 15.8765   2
   2  -4   5 213.515 7.17556  -1
   2   4   1 213.515 7.17556   2
   3  -4   5 718.486 24.3451  -1
   3   4   1 718.486 24.3451   2
   4  -4   5 688.952 23.9814  -1
   4   4   1 688.952 23.9814   2
   5  -4   5 31.7864 4.89608  -1
   5   4   1 31.7864 4.89608   2
   6  -4   5 250.947 15.0058  -1
   6   4   1 250.947 15.0058   2
   6  -4   5 165.200 12.4682   2
   7  -4   5 3.25085 14.0440  -1
   7   4   1 3.25085 14.0440   2
   7  -4   5 -2.9030 2.21958   2
   8  -4   5 93.8555 9.54318   2
 -10  -3   5 18.4994 4.37199   2
  -9  -3   5 101.905 8.93269   2
  -8  -3   5 11.1682 3.10408   2
  -7  -3   5 330.283 14.3854   2
  -6  -3   5 -2.5585 1.54879   2
  -5  -3   5 383.626 10.4845   2
  -3  -3   5 352.547 25.8942  -1
  -3   3   2 352.547 25.8942   2
  -2  -3   5 575.194 39.4228  -1
  -2   3   2 575.194 39.4228   2
  -1  -3   5 785.766 29.1952  -1
  -1   3   2 785.766 29.1952   2
   0  -3   5 634.705 17.2044  -1
   0   3   2 634.705 17.2044   2
   1  -3   5 65.4677 2.90573  -1
   1   3   2 65.4677 2.90573   2
   2  -3   5 857.439 21.6027  -1
   2   3   2 857.439 21.6027   2
   3  -3   5 15.5387 2.67107  -1
   3   3   2 15.5387 2.67107   2
   4  -3   5 519.688 17.1123  -1
   4   3   2 519.688 17.1123   2
   5  -3   5 9.45656 4.25740  -1
   5   3   2 9.45656 4.25740   2
   6  -3   5 158.813 11.9514  -1
   6   3   2 158.813 11.9514   2
   7  -3   5 32.9955 5.80573   2
   8  -3   5 55.2833 7.86587   2
 -10  -2   5 1.65538 3.51792   2
  -9  -2   5 100.940 8.85728   2
  -8  -2   5 62.2298 6.60429   2
  -7  -2   5 40.9743 4.62635   2
  -6  -2   5 52.1828 3.92669   2
  -5  -2   5 81.1939 4.17938   2
  -3  -2   5 9.81570 1.32791   2
  -1  -2   5 296.443 17.6968  -1
  -1   2   3 296.443 17.6968   2
   0  -2   5 636.812 23.0320  -1
   0   2   3 636.812 23.0320   2
   1  -2   5 25.2776 2.09861  -1
   1   2   3 25.2776 2.09861   2
   2  -2   5 744.145 19.0053  -1
   2   2   3 744.145 19.0053   2
   3  -2   5 553.964 17.6168  -1
   3   2   3 553.964 17.6168   2
   4  -2   5 121.140 6.57388  -1
   4   2   3 121.140 6.57388   2
   5  -2   5 735.689 26.0286  -1
   5   2   3 735.689 26.0286   2
   6  -2   5 -2.8574 5.64087  -1
   6   2   3 -2.8574 5.64087   2
   7  -2   5 177.533 23.8514  -1
   7   2   3 177.533 23.8514   2
   8  -2   5 0.27933 3.62000   2
 -10  -1   5 69.4426 7.15729   2
  -9  -1   5 8.57567 3.37339   2
  -8  -1   5 193.552 10.8623   2
  -7  -1   5 28.0306 3.47756   2
  -6  -1   5 522.495 16.5942   2
  -5  -1   5 33.0987 2.84363   2
  -3  -1   5 139.995 5.65864   2
  -2  -1   5 135.117 4.53612   2
  -2  -1   5 251.893 18.2899  -1
  -2   1   4 251.893 18.2899   2
  -1  -1   5 1354.22 44.7581  -1
  -1   1   4 1354.22 44.7581   2
   0  -1   5 439.049 15.8664  -1
   0   1   4 439.049 15.8664   2
   1  -1   5 790.735 19.8055  -1
   1   1   4 790.735 19.8055   2
   2  -1   5 23.3824 1.88873  -1
   2   1   4 23.3824 1.88873   2
   3  -1   5 870.022 24.0372  -1
   3   1   4 870.022 24.0372   2
   4  -1   5 39.9348 4.06428  -1
   4   1   4 39.9348 4.06428   2
   5  -1   5 477.847 16.9381  -1
   5   1   4 477.847 16.9381   2
   6  -1   5 1.13150 5.96189  -1
   6   1   4 1.13150 5.96189   2
   7  -1   5 80.9629 14.9781  -1
   7   1   4 80.9629 14.9781   2
 -10   0   5 179.849 11.4855   2
  -9   0   5 28.2881 4.39079   2
  -8   0   5 130.954 8.05597   2
  -7   0   5 78.8696 5.35332   2
  -6   0   5 111.511 6.13343   2
  -5   0   5 369.499 10.7019   2
  -4   0   5 12.1375 1.75858   2
  -3   0   5 648.626 16.0579   2
  -2   0   5 2.05759 4.39943  -1
  -2   0   5 2.05759 4.39943   2
  -1   0   5 998.271 50.8856  -1
  -1   0   5 998.271 50.8856   2
   0   0   5 89.2925 4.24577  -1
   0   0   5 89.2925 4.24577   2
   1   0   5 444.409 11.3188  -1
   1   0   5 444.409 11.3188   2
   2   0   5 4.98848 1.59805  -1
   2   0   5 4.98848 1.59805   2
   3   0   5 370.134 11.0951  -1
   3   0   5 370.134 11.0951   2
   4   0   5 451.619 15.6554  -1
   4   0   5 451.619 15.6554   2
   5   0   5 3.02391 3.98446  -1
   5   0   5 3.02391 3.98446   2
   6   0   5 631.153 26.7861  -1
   6   0   5 631.153 26.7861   2
   7   0   5 32.8768 12.0129  -1
   7   0   5 32.8768 12.0129   2
 -10   1   5 31.7848 5.35981   2
  -9   1   5 196.142 10.5825   2
  -8   1   5 2.22899 2.24326   2
  -7   1   5 271.794 10.2009   2
  -6   1   5 22.4369 2.81082   2
  -5   1   5 412.478 12.4853   2
  -4   1   5 164.549 5.98741   2
  -3   1   5 414.285 11.3707   2
  -1   1   5 131.176 10.0951  -1
  -1  -1   6 131.176 10.0951   2
   0   1   5 914.661 26.5664  -1
   0  -1   6 914.661 26.5664   2
   1   1   5 50.8193 3.58603  -1
   1  -1   6 50.8193 3.58603   2
   2   1   5 512.292 15.4240  -1
   2  -1   6 512.292 15.4240   2
   3   1   5 16.6225 2.47322  -1
   3  -1   6 16.6225 2.47322   2
   4   1   5 457.421 18.0544  -1
   4  -1   6 457.421 18.0544   2
   5   1   5 191.442 12.0948  -1
   5  -1   6 191.442 12.0948   2
   6   1   5 277.967 15.7315  -1
   6  -1   6 277.967 15.7315   2
   7   1   5 68.1636 14.1070  -1
   7  -1   6 68.1636 14.1070   2
 -10   2   5 35.5704 6.38207   2
  -9   2   5 128.112 9.25911   2
  -8   2   5 116.514 7.21969   2
  -7   2   5 60.9339 4.72303   2
  -6   2   5 230.562 8.86037   2
  -5   2   5 43.5115 3.32127   2
  -4   2   5 517.425 14.6782   2
  -3   2   5 -0.6565 1.06602   2
  -1   2   5 34.6040 4.71849  -1
  -1  -2   7 34.6040 4.71849   2
   0   2   5 775.915 25.4069  -1
   0  -2   7 775.915 25.4069   2
   1   2   5 175.774 6.96288  -1
   1  -2   7 175.774 6.96288   2
   2   2   5 416.488 13.4602  -1
   2  -2   7 416.488 13.4602   2
   3   2   5 175.189 7.48174  -1
   3  -2   7 175.189 7.48174   2
   4   2   5 85.7607 5.92607  -1
   4  -2   7 85.7607 5.92607   2
   5   2   5 154.921 11.3196  -1
   5  -2   7 154.921 11.3196   2
   6   2   5 18.6927 7.73549  -1
   6  -2   7 18.6927 7.73549   2
 -10   3   5 128.511 11.6109   2
  -9   3   5 2.93934 3.65125   2
  -8   3   5 232.836 12.9898   2
  -7   3   5 2.26489 2.54403   2
  -6   3   5 285.955 11.7329   2
  -5   3   5 60.0929 4.68250   2
  -4   3   5 420.146 16.1794   2
  -3   3   5 251.287 10.1159   2
  -2   3   5 194.728 7.88546   2
  -1   3   5 537.303 24.0671  -1
  -1  -3   8 537.303 24.0671   2
   0   3   5 18.5284 3.62817  -1
   0  -3   8 18.5284 3.62817   2
   1   3   5 492.579 15.4367  -1
   1  -3   8 492.579 15.4367   2
   2   3   5 21.0595 3.30410  -1
   2  -3   8 21.0595 3.30410   2
   3   3   5 388.135 13.4175  -1
   3  -3   8 388.135 13.4175   2
   4   3   5 37.7460 5.38519  -1
   4  -3   8 37.7460 5.38519   2
   5   3   5 158.902 10.3318  -1
   5  -3   8 158.902 10.3318   2
   6   3   5 86.4342 10.4569  -1
   6  -3   8 86.4342 10.4569   2
  -9   4   5 43.0879 6.03571   2
  -8   4   5 132.526 10.1807   2
  -7   4   5 162.225 11.8497   2
  -6   4   5 26.7529 5.10769   2
  -5   4   5 288.153 15.6778   2
  -4   4   5 37.2476 5.09335   2
  -3   4   5 287.777 10.4798   2
  -2   4   5 -1.3476 1.35237   2
  -1   4   5 388.644 38.7895  -1
  -1  -4   9 388.644 38.7895   2
   0   4   5 61.6598 5.93274  -1
   0  -4   9 61.6598 5.93274   2
   1   4   5 374.319 13.7164  -1
   1  -4   9 374.319 13.7164   2
   2   4   5 379.430 13.7986  -1
   2  -4   9 379.430 13.7986   2
   3   4   5 87.8407 7.25759  -1
   3  -4   9 87.8407 7.25759   2
   4   4   5 137.691 10.0185  -1
   4  -4   9 137.691 10.0185   2
   5   4   5 -2.4558 5.43899  -1
   5  -4   9 -2.4558 5.43899   2
  -9   5   5 97.4908 10.6256   2
  -8   5   5 3.98074 3.91444   2
  -7   5   5 166.948 17.0671   2
  -6   5   5 27.2793 7.04409   2
  -5   5   5 203.720 13.2195   2
  -4   5   5 169.615 11.2832   2
  -3   5   5 92.5943 6.43698   2
  -2   5   5 310.798 10.9429   2
  -1   5   5 52.8920 16.4848  -1
  -1  -5  10 52.8920 16.4848   2
   0   5   5 375.798 16.7465  -1
   0  -5  10 375.798 16.7465   2
   1   5   5 15.3005 4.68336  -1
   1  -5  10 15.3005 4.68336   2
   2   5   5 351.339 15.7823  -1
   2  -5  10 351.339 15.7823   2
   3   5   5 4.61205 4.72076  -1
   3  -5  10 4.61205 4.72076   2
   4   5   5 213.641 13.2856  -1
   4  -5  10 213.641 13.2856   2
  -8   6   5 86.1274 12.9908   2
  -7   6   5 47.1685 9.69338   2
  -6   6   5 216.087 19.4536   2
  -5   6   5 6.68557 5.11805   2
  -4   6   5 107.941 8.33864   2
  -3   6   5 6.47144 2.62985   2
  -2   6   5 226.291 10.7426   2
  -1   6   5 92.3687 21.7579  -1
  -1  -6  11 92.3687 21.7579   2
   0   6   5 208.502 11.1911  -1
   0  -6  11 208.502 11.1911   2
   1   6   5 103.107 9.24009  -1
   1  -6  11 103.107 9.24009   2
   2   6   5 90.5406 8.68520  -1
   2  -6  11 90.5406 8.68520   2
   3   6   5 195.345 11.9438  -1
   3  -6  11 195.345 11.9438   2
  -7   7   5 10.0203 6.31958   2
  -6   7   5 74.1576 10.0794   2
  -5   7   5 34.3131 8.33215   2
  -4   7   5 73.7745 9.63580   2
  -3   7   5 126.600 8.30968   2
  -2   7   5 71.8782 22.2052  -1
  -2  -7  12 71.8782 22.2052   2
  -1   7   5 359.158 44.6398  -1
  -1  -7  12 359.158 44.6398   2
   0   7   5 9.17379 7.15572  -1
   0  -7  12 9.17379 7.15572   2
   1   7   5 172.973 12.5937  -1
   1  -7  12 172.973 12.5937   2
   2   7   5 1.91661 6.18198  -1
   2  -7  12 1.91661 6.18198   2
  -6   8   5 -0.1538 5.78452   2
  -5   8   5 144.935 13.9529   2
  -4   8   5 -2.1972 3.23741   2
  -3   8   5 88.3652 7.75857   2
  -2   8   5 41.2592 23.5036  -1
  -2  -8  13 41.2592 23.5036   2
  -1   8   5 90.8487 8.24201   2
  -1   8   5 150.408 32.0422  -1
  -1  -8  13 150.408 32.0422   2
   0   8   5 36.6948 21.2935  -1
   0  -8  13 36.6948 21.2935   2
   0 -13   6 44.7338 7.16302  -1
   0 -13   7 44.7338 7.16302   2
   1 -13   6 54.6548 7.87207   2
  -3 -12   6 37.5052 11.7552  -1
   3 -12   6 37.5052 11.7552   2
  -2 -12   6 104.949 12.5721  -1
   2 -12   6 104.949 12.5721   2
  -1 -12   6 45.7676 9.57224  -1
   1 -12   6 45.7676 9.57224   2
   0 -12   6 359.335 18.2324  -1
   0 -12   6 359.335 18.2324   2
   1 -12   6 35.4713 7.06709  -1
  -1 -12   6 35.4713 7.06709   2
   2 -12   6 78.2745 10.8279  -1
  -2 -12   6 78.2745 10.8279   2
   3 -12   6 20.3355 7.95740  -1
  -3 -12   6 20.3355 7.95740   2
   4 -12   6 27.6907 7.44884   2
  -5 -11   6 4.18315 17.7819  -1
   5 -11   5 4.18315 17.7819   2
  -4 -11   6 170.817 15.9569  -1
   4 -11   5 170.817 15.9569   2
  -3 -11   6 9.13627 9.62932  -1
   3 -11   5 9.13627 9.62932   2
  -2 -11   6 69.8715 9.82803  -1
   2 -11   5 69.8715 9.82803   2
  -1 -11   6 137.603 13.2003  -1
   1 -11   5 137.603 13.2003   2
   0 -11   6 119.289 9.03887  -1
   0 -11   5 119.289 9.03887   2
   1 -11   6 298.603 16.3724  -1
  -1 -11   5 298.603 16.3724   2
   2 -11   6 91.5751 8.92430  -1
  -2 -11   5 91.5751 8.92430   2
   3 -11   6 150.872 11.7636  -1
  -3 -11   5 150.872 11.7636   2
   4 -11   6 7.45428 7.57820  -1
  -4 -11   5 7.45428 7.57820   2
   5 -11   6 58.7926 8.51236   2
  -6 -10   6 58.2604 6.64248   2
  -6 -10   6 75.2724 23.3921  -1
   6 -10   4 75.2724 23.3921   2
  -5 -10   6 77.1146 6.94486   2
  -5 -10   6 151.866 26.7912  -1
   5 -10   4 151.866 26.7912   2
  -4 -10   6 49.2715 9.87493  -1
   4 -10   4 49.2715 9.87493   2
  -3 -10   6 215.102 13.8025  -1
   3 -10   4 215.102 13.8025   2
  -2 -10   6 29.9173 7.48452  -1
   2 -10   4 29.9173 7.48452   2
  -1 -10   6 156.498 13.1673  -1
   1 -10   4 156.498 13.1673   2
   0 -10   6 28.0214 4.78240  -1
   0 -10   4 28.0214 4.78240   2
   1 -10   6 425.030 17.6158  -1
  -1 -10   4 425.030 17.6158   2
   2 -10   6 45.8771 6.06781  -1
  -2 -10   4 45.8771 6.06781   2
   3 -10   6 208.061 13.0201  -1
  -3 -10   4 208.061 13.0201   2
   4 -10   6 108.235 10.0045  -1
  -4 -10   4 108.235 10.0045   2
   5 -10   6 20.4734 8.52086  -1
  -5 -10   4 20.4734 8.52086   2
   6 -10   6 23.8334 6.35569   2
  -7  -9   6 74.6324 7.83752   2
  -6  -9   6 4.15983 3.04430   2
  -5  -9   6 148.593 9.35424   2
  -5  -9   6 258.878 32.3578  -1
   5  -9   3 258.878 32.3578   2
  -4  -9   6 28.0603 9.57580  -1
   4  -9   3 28.0603 9.57580   2
  -3  -9   6 311.744 16.4480  -1
   3  -9   3 311.744 16.4480   2
  -2  -9   6 99.5520 8.61656  -1
   2  -9   3 99.5520 8.61656   2
  -1  -9   6 159.062 12.4159  -1
   1  -9   3 159.062 12.4159   2
   0  -9   6 263.098 11.8602  -1
   0  -9   3 263.098 11.8602   2
   1  -9   6 43.5859 4.64683  -1
  -1  -9   3 43.5859 4.64683   2
   2  -9   6 592.601 25.4962  -1
  -2  -9   3 592.601 25.4962   2
   3  -9   6 41.5660 6.68516  -1
  -3  -9   3 41.5660 6.68516   2
   4  -9   6 232.170 15.8148  -1
  -4  -9   3 232.170 15.8148   2
   5  -9   6 2.87455 6.34022  -1
  -5  -9   3 2.87455 6.34022   2
   6  -9   6 124.280 20.0774  -1
  -6  -9   3 124.280 20.0774   2
  -8  -8   6 11.1504 11.0250   2
  -7  -8   6 96.2368 8.64288   2
  -6  -8   6 38.4877 4.78175   2
  -5  -8   6 114.067 7.00237   2
  -4  -8   6 313.958 11.4003   2
  -4  -8   6 566.098 51.3197  -1
   4  -8   2 566.098 51.3197   2
  -3  -8   6 24.5637 5.22376  -1
   3  -8   2 24.5637 5.22376   2
  -2  -8   6 513.691 20.1966  -1
   2  -8   2 513.691 20.1966   2
  -1  -8   6 0.07810 3.03584  -1
   1  -8   2 0.07810 3.03584   2
   0  -8   6 597.995 21.5800  -1
   0  -8   2 597.995 21.5800   2
   1  -8   6 -2.1846 2.14526  -1
  -1  -8   2 -2.1846 2.14526   2
   2  -8   6 829.649 30.0316  -1
  -2  -8   2 829.649 30.0316   2
   3  -8   6 126.166 8.45114  -1
  -3  -8   2 126.166 8.45114   2
   4  -8   6 146.704 10.6234  -1
  -4  -8   2 146.704 10.6234   2
   5  -8   6 145.201 11.4158  -1
  -5  -8   2 145.201 11.4158   2
   6  -8   6 23.1367 13.4075  -1
  -6  -8   2 23.1367 13.4075   2
   7  -8   6 49.5150 8.80963   2
  -8  -7   6 71.4821 7.14633   2
  -7  -7   6 2.85756 2.70225   2
  -6  -7   6 168.287 9.46497   2
  -5  -7   6 2.49231 1.75107   2
  -4  -7   6 279.096 9.82536   2
  -3  -7   6 127.909 11.9416  -1
   3  -7   1 127.909 11.9416   2
  -2  -7   6 466.747 16.2792  -1
   2  -7   1 466.747 16.2792   2
  -1  -7   6 269.541 11.5369  -1
   1  -7   1 269.541 11.5369   2
   0  -7   6 106.439 5.19611  -1
   0  -7   1 106.439 5.19611   2
   1  -7   6 492.444 17.0575  -1
  -1  -7   1 492.444 17.0575   2
   2  -7   6 0.37014 3.21592  -1
  -2  -7   1 0.37014 3.21592   2
   3  -7   6 728.561 29.6985  -1
  -3  -7   1 728.561 29.6985   2
   4  -7   6 39.0008 6.42408  -1
  -4  -7   1 39.0008 6.42408   2
   5  -7   6 309.233 16.7894  -1
  -5  -7   1 309.233 16.7894   2
   6  -7   6 7.62430 10.7948  -1
  -6  -7   1 7.62430 10.7948   2
   7  -7   6 60.7657 7.60895   2
   7  -7   6 101.190 18.4653  -1
  -7  -7   1 101.190 18.4653   2
  -9  -6   6 10.6044 4.09769   2
  -8  -6   6 116.544 8.98261   2
  -7  -6   6 64.3389 6.26042   2
  -6  -6   6 130.423 8.57288   2
  -5  -6   6 174.311 7.85848   2
  -4  -6   6 65.4422 4.62512   2
  -3  -6   6 1080.44 81.1268  -1
  -3   6   0 1080.44 81.1268   2
  -2  -6   6 47.8791 3.60856  -1
  -2   6   0 47.8791 3.60856   2
  -1  -6   6 530.592 16.5578  -1
  -1   6   0 530.592 16.5578   2
   0  -6   6 34.3069 2.79593  -1
   0   6   0 34.3069 2.79593   2
   1  -6   6 570.727 19.0047  -1
   1   6   0 570.727 19.0047   2
   2  -6   6 91.4052 6.20436  -1
   2   6   0 91.4052 6.20436   2
   3  -6   6 1313.04 49.2955  -1
   3   6   0 1313.04 49.2955   2
   4  -6   6 655.778 27.4375  -1
   4   6   0 655.778 27.4375   2
   5  -6   6 59.0526 8.06997  -1
   5   6   0 59.0526 8.06997   2
   6  -6   6 110.492 9.24537   2
   6  -6   6 164.985 14.1957  -1
   6   6   0 164.985 14.1957   2
   7  -6   6 6.92285 14.7585  -1
   7   6   0 6.92285 14.7585   2
   7  -6   6 6.05458 4.72963   2
  -9  -5   6 102.589 8.40926   2
  -8  -5   6 9.73718 3.19002   2
  -7  -5   6 187.398 11.7326   2
  -6  -5   6 3.14648 2.23226   2
  -5  -5   6 255.694 9.09701   2
  -4  -5   6 58.7402 4.58615   2
  -3  -5   6 667.106 45.4676  -1
  -3   5   1 667.106 45.4676   2
  -2  -5   6 773.958 32.2779  -1
  -2   5   1 773.958 32.2779   2
  -1  -5   6 404.824 14.2371  -1
  -1   5   1 404.824 14.2371   2
   0  -5   6 530.951 15.2163  -1
   0   5   1 530.951 15.2163   2
   1  -5   6 58.6343 3.36628  -1
   1   5   1 58.6343 3.36628   2
   2  -5   6 502.657 20.7563  -1
   2   5   1 502.657 20.7563   2
   3  -5   6 -1.4512 3.19158  -1
   3   5   1 -1.4512 3.19158   2
   4  -5   6 938.810 37.0972  -1
   4   5   1 938.810 37.0972   2
   5  -5   6 27.5903 4.82271  -1
   5   5   1 27.5903 4.82271   2
   6  -5   6 112.891 10.0645   2
   6  -5   6 245.345 11.6874  -1
   6   5   1 245.345 11.6874   2
   7  -5   6 29.6073 10.4679  -1
   7   5   1 29.6073 10.4679   2
   7  -5   6 11.9671 4.83198   2
  -9  -4   6 89.7727 8.66499   2
  -8  -4   6 42.5130 5.55025   2
  -7  -4   6 157.136 10.3920   2
  -6  -4   6 103.181 5.74133   2
  -5  -4   6 196.825 7.98656   2
  -3  -4   6 39.0521 2.94891   2
  -2  -4   6 1520.68 99.6454  -1
  -2   4   2 1520.68 99.6454   2
  -1  -4   6 96.5708 5.71148  -1
  -1   4   2 96.5708 5.71148   2
   0  -4   6 804.254 23.1758  -1
   0   4   2 804.254 23.1758   2
   1  -4   6 77.6945 4.77493  -1
   1   4   2 77.6945 4.77493   2
   2  -4   6 485.701 13.8689  -1
   2   4   2 485.701 13.8689   2
   3  -4   6 122.557 6.03286  -1
   3   4   2 122.557 6.03286   2
   4  -4   6 397.705 15.6442  -1
   4   4   2 397.705 15.6442   2
   5  -4   6 521.107 19.7546  -1
   5   4   2 521.107 19.7546   2
   6  -4   6 34.0079 5.98505  -1
   6   4   2 34.0079 5.98505   2
   7  -4   6 193.001 26.9692  -1
   7   4   2 193.001 26.9692   2
 -10  -3   6 72.5086 8.12944   2
  -9  -3   6 1.96220 3.17387   2
  -8  -3   6 175.607 11.3590   2
  -7  -3   6 2.78346 2.30463   2
  -6  -3   6 395.795 11.3084   2
  -5  -3   6 5.53169 1.64514   2
  -3  -3   6 225.042 7.38194   2
  -2  -3   6 130.807 5.40797   2
  -2  -3   6 262.768 13.3736  -1
  -2   3   3 262.768 13.3736   2
  -1  -3   6 1231.44 51.0000  -1
  -1   3   3 1231.44 51.0000   2
   0  -3   6 100.375 4.27104  -1
   0   3   3 100.375 4.27104   2
   1  -3   6 502.574 15.8355  -1
   1   3   3 502.574 15.8355   2
   2  -3   6 -0.1881 1.30019  -1
   2   3   3 -0.1881 1.30019   2
   3  -3   6 742.933 25.1656  -1
   3   3   3 742.933 25.1656   2
   4  -3   6 58.3946 4.99709  -1
   4   3   3 58.3946 4.99709   2
   5  -3   6 488.672 18.7797  -1
   5   3   3 488.672 18.7797   2
   6  -3   6 75.0657 7.11633  -1
   6   3   3 75.0657 7.11633   2
   7  -3   6 77.1166 13.3223  -1
   7   3   3 77.1166 13.3223   2
 -10  -2   6 95.3340 8.51660   2
  -9  -2   6 34.9762 5.57068   2
  -8  -2   6 117.032 9.08995   2
  -7  -2   6 249.656 10.4181   2
  -6  -2   6 47.5057 3.88399   2
  -5  -2   6 337.546 10.1739   2
  -4  -2   6 35.4034 2.92137   2
  -3  -2   6 481.606 13.7683   2
  -2  -2   6 38.5981 2.57841   2
  -2  -2   6 52.4562 4.98045  -1
  -2   2   4 52.4562 4.98045   2
  -1  -2   6 2136.03 70.6351  -1
  -1   2   4 2136.03 70.6351   2
   0  -2   6 408.371 12.4069  -1
   0   2   4 408.371 12.4069   2
   1  -2   6 909.507 25.0502  -1
   1   2   4 909.507 25.0502   2
   2  -2   6 188.348 7.40632  -1
   2   2   4 188.348 7.40632   2
   3  -2   6 495.830 15.8445  -1
   3   2   4 495.830 15.8445   2
   4  -2   6 242.188 10.7376  -1
   4   2   4 242.188 10.7376   2
   5  -2   6 171.871 8.70680  -1
   5   2   4 171.871 8.70680   2
   6  -2   6 484.515 19.6071  -1
   6   2   4 484.515 19.6071   2
   7  -2   6 25.1188 9.38329  -1
   7   2   4 25.1188 9.38329   2
 -10  -1   6 11.5966 3.91570   2
  -9  -1   6 132.966 9.38455   2
  -8  -1   6 2.09101 2.59266   2
  -7  -1   6 311.741 11.6587   2
  -6  -1   6 32.7448 3.51398   2
  -5  -1   6 430.162 12.3576   2
  -4  -1   6 186.424 6.97263   2
  -3  -1   6 332.120 9.62041   2
  -2  -1   6 294.630 9.55052   2
  -2  -1   6 575.879 38.6257  -1
  -2   1   5 575.879 38.6257   2
  -1  -1   6 134.617 7.82092  -1
  -1   1   5 134.617 7.82092   2
   0  -1   6 1019.26 35.5338  -1
   0   1   5 1019.26 35.5338   2
   1  -1   6 49.4541 2.66788  -1
   1   1   5 49.4541 2.66788   2
   2  -1   6 483.979 14.2284  -1
   2   1   5 483.979 14.2284   2
   3  -1   6 14.5382 2.41673  -1
   3   1   5 14.5382 2.41673   2
   4  -1   6 458.715 16.0267  -1
   4   1   5 458.715 16.0267   2
   5  -1   6 174.528 9.94315  -1
   5   1   5 174.528 9.94315   2
   6  -1   6 235.463 14.5475  -1
   6   1   5 235.463 14.5475   2
   7  -1   6 69.2194 13.5717  -1
   7   1   5 69.2194 13.5717   2
 -10   0   6 3.53499 3.66296   2
  -9   0   6 129.881 8.57074   2
  -8   0   6 86.5916 6.29065   2
  -7   0   6 69.2996 5.14540   2
  -6   0   6 236.736 9.26612   2
  -5   0   6 25.3882 2.55227   2
  -4   0   6 306.455 9.20409   2
  -3   0   6 1.70981 1.01077   2
  -2   0   6 500.415 13.9453   2
  -1   0   6 106.553 9.09178  -1
  -1   0   6 106.553 9.09178   2
   0   0   6 889.995 27.8898  -1
   0   0   6 889.995 27.8898   2
   1   0   6 782.730 22.1057  -1
   1   0   6 782.730 22.1057   2
   2   0   6 252.270 8.32685  -1
   2   0   6 252.270 8.32685   2
   3   0   6 265.232 10.2902  -1
   3   0   6 265.232 10.2902   2
   4   0   6 176.763 8.53047  -1
   4   0   6 176.763 8.53047   2
   5   0   6 152.051 11.0890  -1
   5   0   6 152.051 11.0890   2
   6   0   6 87.3538 9.52967  -1
   6   0   6 87.3538 9.52967   2
 -10   1   6 122.455 9.55442   2
  -9   1   6 1.11069 2.68567   2
  -8   1   6 231.513 10.2613   2
  -7   1   6 4.12981 2.02485   2
  -6   1   6 397.370 12.7174   2
  -5   1   6 93.4934 5.25490   2
  -4   1   6 215.451 7.44226   2
  -3   1   6 309.210 9.90336   2
  -2   1   6 82.9556 4.13709   2
  -1   1   6 811.674 43.4223  -1
  -1  -1   7 811.674 43.4223   2
   0   1   6 38.8145 4.00414  -1
   0  -1   7 38.8145 4.00414   2
   1   1   6 971.427 28.7493  -1
   1  -1   7 971.427 28.7493   2
   2   1   6 1.93792 2.45703  -1
   2  -1   7 1.93792 2.45703   2
   3   1   6 391.411 13.1060  -1
   3  -1   7 391.411 13.1060   2
   4   1   6 23.9480 4.25794  -1
   4  -1   7 23.9480 4.25794   2
   5   1   6 202.623 10.1533  -1
   5  -1   7 202.623 10.1533   2
   6   1   6 96.4124 10.3563  -1
   6  -1   7 96.4124 10.3563   2
 -10   2   6 35.4443 6.68812   2
  -9   2   6 53.8756 8.99421   2
  -8   2   6 146.030 9.10678   2
  -7   2   6 197.037 9.99290   2
  -6   2   6 10.4444 2.44318   2
  -5   2   6 305.443 12.7924   2
  -4   2   6 4.45759 1.98357   2
  -3   2   6 274.627 10.3513   2
  -2   2   6 35.1545 3.26358   2
  -1   2   6 539.951 24.2154  -1
  -1  -2   8 539.951 24.2154   2
   0   2   6 161.975 7.93059  -1
   0  -2   8 161.975 7.93059   2
   1   2   6 226.173 9.31486  -1
   1  -2   8 226.173 9.31486   2
   2   2   6 401.736 14.3107  -1
   2  -2   8 401.736 14.3107   2
   3   2   6 82.7455 5.75596  -1
   3  -2   8 82.7455 5.75596   2
   4   2   6 212.650 10.2713  -1
   4  -2   8 212.650 10.2713   2
   5   2   6 37.7772 6.69237  -1
   5  -2   8 37.7772 6.69237   2
  -9   3   6 164.615 12.2222   2
  -8   3   6 -0.0410 3.21531   2
  -7   3   6 274.070 14.5584   2
  -6   3   6 42.6837 6.19222   2
  -5   3   6 210.810 13.9396   2
  -4   3   6 93.1557 8.68098   2
  -3   3   6 70.1642 6.21325   2
  -2   3   6 189.306 9.21235   2
  -1   3   6 69.8410 15.8179  -1
  -1  -3   9 69.8410 15.8179   2
   0   3   6 577.999 20.7402  -1
   0  -3   9 577.999 20.7402   2
   1   3   6 5.02668 3.93426  -1
   1  -3   9 5.02668 3.93426   2
   2   3   6 426.697 15.4706  -1
   2  -3   9 426.697 15.4706   2
   3   3   6 63.9065 5.51584  -1
   3  -3   9 63.9065 5.51584   2
   4   3   6 126.779 9.10141  -1
   4  -3   9 126.779 9.10141   2
   5   3   6 18.2759 6.24202  -1
   5  -3   9 18.2759 6.24202   2
  -9   4   6 11.8339 7.31250   2
  -8   4   6 86.3191 12.1160   2
  -7   4   6 50.9604 8.69112   2
  -6   4   6 149.020 12.2514   2
  -5   4   6 10.2655 3.93459   2
  -4   4   6 265.043 15.6787   2
  -3   4   6 26.7656 4.19322   2
  -2   4   6 227.373 10.2363   2
  -1   4   6 31.6872 13.9843  -1
  -1  -4  10 31.6872 13.9843   2
   0   4   6 169.149 10.0199  -1
   0  -4  10 169.149 10.0199   2
   1   4   6 76.4064 6.62010  -1
   1  -4  10 76.4064 6.62010   2
   2   4   6 97.2211 7.43159  -1
   2  -4  10 97.2211 7.43159   2
   3   4   6 283.507 15.4621  -1
   3  -4  10 283.507 15.4621   2
   4   4   6 25.1418 5.50056  -1
   4  -4  10 25.1418 5.50056   2
  -8   5   6 167.816 18.0869   2
  -7   5   6 19.4535 6.00428   2
  -6   5   6 204.244 18.7132   2
  -5   5   6 53.8172 7.18894   2
  -4   5   6 119.269 9.97050   2
  -3   5   6 76.0145 6.44931   2
  -2   5   6 35.3710 4.02698   2
  -1   5   6 258.606 34.0296  -1
  -1  -5  11 258.606 34.0296   2
   0   5   6 2.28246 5.35414  -1
   0  -5  11 2.28246 5.35414   2
   1   5   6 291.402 13.5043  -1
   1  -5  11 291.402 13.5043   2
   2   5   6 6.88689 6.08012  -1
   2  -5  11 6.88689 6.08012   2
   3   5   6 152.666 11.8296  -1
   3  -5  11 152.666 11.8296   2
  -7   6   6 44.5544 9.77488   2
  -6   6   6 15.6897 5.92109   2
  -5   6   6 158.790 19.5400   2
  -4   6   6 -2.0003 2.88320   2
  -3   6   6 100.033 8.73201   2
  -2   6   6 10.1598 3.05588   2
  -1   6   6 143.755 27.8826  -1
  -1  -6  12 143.755 27.8826   2
   0   6   6 59.6551 9.67150  -1
   0  -6  12 59.6551 9.67150   2
   1   6   6 66.3522 8.91952  -1
   1  -6  12 66.3522 8.91952   2
   2   6   6 149.840 12.1004  -1
   2  -6  12 149.840 12.1004   2
  -6   7   6 36.3594 9.13545   2
  -5   7   6 60.9978 10.5494   2
  -4   7   6 57.6628 9.16778   2
  -3   7   6 19.9827 4.31837   2
  -2   7   6 119.198 9.85287   2
  -1   7   6 35.6952 22.6204  -1
  -1  -7  13 35.6952 22.6204   2
   0   7   6 232.535 23.7430  -1
   0  -7  13 232.535 23.7430   2
   0 -13   7 52.6557 7.87814  -1
   0 -13   6 52.6557 7.87814   2
   1 -13   7 57.7515 7.52988   2
  -3 -12   7 113.015 16.8278  -1
   3 -12   5 113.015 16.8278   2
  -2 -12   7 -2.7338 8.16554  -1
   2 -12   5 -2.7338 8.16554   2
  -1 -12   7 49.6840 7.28477  -1
   1 -12   5 49.6840 7.28477   2
   0 -12   7 0.25170 5.34170  -1
   0 -12   5 0.25170 5.34170   2
   1 -12   7 146.420 12.9998  -1
  -1 -12   5 146.420 12.9998   2
   2 -12   7 35.4384 7.70586  -1
  -2 -12   5 35.4384 7.70586   2
   3 -12   7 98.8410 10.6659  -1
  -3 -12   5 98.8410 10.6659   2
  -5 -11   7 66.4878 7.89460   2
  -5 -11   7 105.877 24.3854  -1
   5 -11   4 105.877 24.3854   2
  -4 -11   7 134.180 26.2077  -1
   4 -11   4 134.180 26.2077   2
  -3 -11   7 170.245 18.7786  -1
   3 -11   4 170.245 18.7786   2
  -2 -11   7 50.9336 9.94284  -1
   2 -11   4 50.9336 9.94284   2
  -1 -11   7 103.783 10.5437  -1
   1 -11   4 103.783 10.5437   2
   0 -11   7 105.237 8.90814  -1
   0 -11   4 105.237 8.90814   2
   1 -11   7 31.9547 5.69526  -1
  -1 -11   4 31.9547 5.69526   2
   2 -11   7 217.390 13.3387  -1
  -2 -11   4 217.390 13.3387   2
   3 -11   7 19.6904 7.00417  -1
  -3 -11   4 19.6904 7.00417   2
   4 -11   7 129.626 12.4632  -1
  -4 -11   4 129.626 12.4632   2
   5 -11   7 0.16203 4.85122   2
  -6 -10   7 22.8969 5.03389   2
  -5 -10   7 21.7427 4.32408   2
  -5 -10   7 19.1428 18.1586  -1
   5 -10   3 19.1428 18.1586   2
  -4 -10   7 182.986 19.2566  -1
   4 -10   3 182.986 19.2566   2
  -3 -10   7 10.0096 7.79864  -1
   3 -10   3 10.0096 7.79864   2
  -2 -10   7 202.637 15.4803  -1
   2 -10   3 202.637 15.4803   2
  -1 -10   7 -0.4552 5.63815  -1
   1 -10   3 -0.4552 5.63815   2
   0 -10   7 155.192 10.1214  -1
   0 -10   3 155.192 10.1214   2
   1 -10   7 9.72287 4.41908  -1
  -1 -10   3 9.72287 4.41908   2
   2 -10   7 96.5749 8.37794  -1
  -2 -10   3 96.5749 8.37794   2
   3 -10   7 97.7441 8.91865  -1
  -3 -10   3 97.7441 8.91865   2
   4 -10   7 67.7546 10.0819  -1
  -4 -10   3 67.7546 10.0819   2
   5 -10   7 192.359 16.1550  -1
  -5 -10   3 192.359 16.1550   2
  -7  -9   7 9.73732 3.80387   2
  -6  -9   7 102.821 8.69233   2
  -5  -9   7 6.22271 2.81767   2
  -4  -9   7 155.395 8.18045   2
  -4  -9   7 295.010 33.9669  -1
   4  -9   2 295.010 33.9669   2
  -3  -9   7 95.9350 8.71607  -1
   3  -9   2 95.9350 8.71607   2
  -2  -9   7 298.844 15.6271  -1
   2  -9   2 298.844 15.6271   2
  -1  -9   7 155.315 9.77890  -1
   1  -9   2 155.315 9.77890   2
   0  -9   7 143.770 8.36834  -1
   0  -9   2 143.770 8.36834   2
   1  -9   7 221.976 14.1964  -1
  -1  -9   2 221.976 14.1964   2
   2  -9   7 28.5602 5.25665  -1
  -2  -9   2 28.5602 5.25665   2
   3  -9   7 352.218 18.0916  -1
  -3  -9   2 352.218 18.0916   2
   4  -9   7 12.1079 7.04495  -1
  -4  -9   2 12.1079 7.04495   2
   5  -9   7 200.604 15.7886  -1
  -5  -9   2 200.604 15.7886   2
   6  -9   7 38.8542 15.1096  -1
  -6  -9   2 38.8542 15.1096   2
  -8  -8   7 88.3277 8.50095   2
  -7  -8   7 33.5487 4.74237   2
  -6  -8   7 111.847 7.78122   2
  -5  -8   7 72.0813 5.76928   2
  -4  -8   7 38.1688 3.99670   2
  -3  -8   7 347.090 24.1845  -1
   3  -8   1 347.090 24.1845   2
  -2  -8   7 46.3219 5.40962  -1
   2  -8   1 46.3219 5.40962   2
  -1  -8   7 357.299 14.6568  -1
   1  -8   1 357.299 14.6568   2
   0  -8   7 10.6746 3.20899  -1
   0  -8   1 10.6746 3.20899   2
   1  -8   7 243.487 12.7995  -1
  -1  -8   1 243.487 12.7995   2
   2  -8   7 79.0692 6.33019  -1
  -2  -8   1 79.0692 6.33019   2
   3  -8   7 169.512 11.1159  -1
  -3  -8   1 169.512 11.1159   2
   4  -8   7 154.390 11.3166  -1
  -4  -8   1 154.390 11.3166   2
   5  -8   7 13.9073 7.22444  -1
  -5  -8   1 13.9073 7.22444   2
   6  -8   7 166.364 13.4244  -1
  -6  -8   1 166.364 13.4244   2
  -8  -7   7 6.82256 3.29542   2
  -7  -7   7 83.6502 7.53083   2
  -6  -7   7 -0.0488 2.41172   2
  -5  -7   7 163.200 8.08519   2
  -4  -7   7 79.3163 5.33567   2
  -3  -7   7 372.594 34.5052  -1
  -3   7   0 372.594 34.5052   2
  -2  -7   7 342.750 15.6115  -1
  -2   7   0 342.750 15.6115   2
  -1  -7   7 289.993 10.7105  -1
  -1   7   0 289.993 10.7105   2
   0  -7   7 314.162 11.0687  -1
   0   7   0 314.162 11.0687   2
   1  -7   7 153.189 7.35618  -1
   1   7   0 153.189 7.35618   2
   2  -7   7 340.155 15.0011  -1
   2   7   0 340.155 15.0011   2
   3  -7   7 8.74199 4.50510  -1
   3   7   0 8.74199 4.50510   2
   4  -7   7 359.222 18.2337  -1
   4   7   0 359.222 18.2337   2
   5  -7   7 10.0320 7.12532  -1
   5   7   0 10.0320 7.12532   2
   6  -7   7 128.851 10.4912  -1
   6   7   0 128.851 10.4912   2
   6  -7   7 86.8314 10.4661   2
   7  -7   7 -4.9230 7.28033   2
  -9  -6   7 43.8851 6.37252   2
  -8  -6   7 22.4543 4.51743   2
  -7  -6   7 94.9507 7.56705   2
  -6  -6   7 121.230 7.58399   2
  -5  -6   7 88.1306 5.74840   2
  -3  -6   7 6.71523 9.36307  -1
  -3   6   1 6.71523 9.36307   2
  -2  -6   7 998.702 52.3788  -1
  -2   6   1 998.702 52.3788   2
  -1  -6   7 4.06738 2.95981  -1
  -1   6   1 4.06738 2.95981   2
   0  -6   7 875.819 25.6421  -1
   0   6   1 875.819 25.6421   2
   1  -6   7 107.076 5.83907  -1
   1   6   1 107.076 5.83907   2
   2  -6   7 154.366 8.49373  -1
   2   6   1 154.366 8.49373   2
   3  -6   7 62.3493 7.04491  -1
   3   6   1 62.3493 7.04491   2
   4  -6   7 191.361 11.8513  -1
   4   6   1 191.361 11.8513   2
   5  -6   7 268.226 13.6038  -1
   5   6   1 268.226 13.6038   2
   6  -6   7 9.36303 4.17138   2
   6  -6   7 220.216 22.1318  -1
   6   6   1 220.216 22.1318   2
   7  -6   7 103.241 9.88535   2
  -9  -5   7 6.31597 3.22157   2
  -8  -5   7 157.160 11.1164   2
  -7  -5   7 4.04011 2.18063   2
  -6  -5   7 359.488 11.5063   2
  -5  -5   7 8.43517 1.97015   2
  -3  -5   7 157.085 6.71075   2
  -2  -5   7 340.168 25.8443  -1
  -2   5   2 340.168 25.8443   2
  -1  -5   7 609.236 22.6146  -1
  -1   5   2 609.236 22.6146   2
   0  -5   7 343.164 11.6169  -1
   0   5   2 343.164 11.6169   2
   1  -5   7 756.398 23.8373  -1
   1   5   2 756.398 23.8373   2
   2  -5   7 28.5804 3.09906  -1
   2   5   2 28.5804 3.09906   2
   3  -5   7 312.529 15.2947  -1
   3   5   2 312.529 15.2947   2
   4  -5   7 7.89476 4.18636  -1
   4   5   2 7.89476 4.18636   2
   5  -5   7 251.707 16.4519  -1
   5   5   2 251.707 16.4519   2
   6  -5   7 18.3687 7.51567  -1
   6   5   2 18.3687 7.51567   2
   7  -5   7 25.0806 7.72732   2
   7  -5   7 107.194 15.7895  -1
   7   5   2 107.194 15.7895   2
  -9  -4   7 26.6053 5.15911   2
  -8  -4   7 54.0226 6.16089   2
  -7  -4   7 111.475 7.95379   2
  -6  -4   7 31.4031 3.25929   2
  -5  -4   7 144.436 7.38841   2
  -4  -4   7 95.3154 5.73183   2
  -3  -4   7 470.448 13.7792   2
  -2  -4   7 0.77947 1.13742   2
  -2  -4   7 8.96805 5.23402  -1
  -2   4   3 8.96805 5.23402   2
  -1  -4   7 1165.39 32.1480  -1
  -1   4   3 1165.39 32.1480   2
   0  -4   7 214.985 8.50278  -1
   0   4   3 214.985 8.50278   2
   1  -4   7 542.333 18.0849  -1
   1   4   3 542.333 18.0849   2
   2  -4   7 237.811 9.56234  -1
   2   4   3 237.811 9.56234   2
   3  -4   7 133.118 8.51992  -1
   3   4   3 133.118 8.51992   2
   4  -4   7 159.583 10.1257  -1
   4   4   3 159.583 10.1257   2
   5  -4   7 29.3087 6.36207  -1
   5   4   3 29.3087 6.36207   2
   6  -4   7 244.850 14.8001  -1
   6   4   3 244.850 14.8001   2
   7  -4   7 -2.2014 3.71276   2
   7  -4   7 14.3033 8.87632  -1
   7   4   3 14.3033 8.87632   2
  -9  -3   7 127.964 10.1206   2
  -8  -3   7 2.63015 2.79832   2
  -7  -3   7 271.476 11.9255   2
  -6  -3   7 65.7654 4.52816   2
  -5  -3   7 376.224 12.1104   2
  -4  -3   7 106.067 5.66040   2
  -3  -3   7 212.849 8.22042   2
  -2  -3   7 241.692 7.92024   2
  -1  -3   7 201.568 9.19680  -1
  -1   3   4 201.568 9.19680   2
   0  -3   7 1315.42 38.5931  -1
   0   3   4 1315.42 38.5931   2
   1  -3   7 58.2471 4.35571  -1
   1   3   4 58.2471 4.35571   2
   2  -3   7 672.516 23.7346  -1
   2   3   4 672.516 23.7346   2
   3  -3   7 21.6449 3.04552  -1
   3   3   4 21.6449 3.04552   2
   4  -3   7 356.503 14.4939  -1
   4   3   4 356.503 14.4939   2
   5  -3   7 33.6250 5.53330  -1
   5   3   4 33.6250 5.53330   2
   6  -3   7 269.007 15.5314  -1
   6   3   4 269.007 15.5314   2
   7  -3   7 10.1967 4.91673   2
 -10  -2   7 23.3468 4.95237   2
  -9  -2   7 140.598 10.8330   2
  -8  -2   7 91.9954 8.01112   2
  -7  -2   7 66.1198 5.47175   2
  -6  -2   7 240.071 8.97996   2
  -5  -2   7 68.2312 4.62436   2
  -4  -2   7 569.810 16.6164   2
  -3  -2   7 6.75451 2.03213   2
  -2  -2   7 550.871 17.4836   2
  -2  -2   7 1147.46 72.8998  -1
  -2   2   5 1147.46 72.8998   2
  -1  -2   7 32.4759 4.48801  -1
  -1   2   5 32.4759 4.48801   2
   0  -2   7 832.413 25.2475  -1
   0   2   5 832.413 25.2475   2
   1  -2   7 198.022 9.59127  -1
   1   2   5 198.022 9.59127   2
   2  -2   7 419.108 16.0643  -1
   2   2   5 419.108 16.0643   2
   3  -2   7 200.565 9.64364  -1
   3   2   5 200.565 9.64364   2
   4  -2   7 85.6306 7.10607  -1
   4   2   5 85.6306 7.10607   2
   5  -2   7 158.910 10.5458  -1
   5   2   5 158.910 10.5458   2
   6  -2   7 19.4241 6.85629  -1
   6   2   5 19.4241 6.85629   2
 -10  -1   7 145.452 10.3688   2
  -9  -1   7 15.1723 3.87322   2
  -8  -1   7 253.546 11.6124   2
  -7  -1   7 5.67667 2.32032   2
  -6  -1   7 353.270 12.4241   2
  -5  -1   7 64.3925 4.34996   2
  -4  -1   7 268.707 10.0619   2
  -3  -1   7 256.054 9.08886   2
  -2  -1   7 92.4392 5.23860   2
  -1  -1   7 885.588 42.2806  -1
  -1   1   6 885.588 42.2806   2
   0  -1   7 42.4455 4.23610  -1
   0   1   6 42.4455 4.23610   2
   1  -1   7 1078.64 34.8943  -1
   1   1   6 1078.64 34.8943   2
   2  -1   7 3.49504 2.53560  -1
   2   1   6 3.49504 2.53560   2
   3  -1   7 387.353 17.6475  -1
   3   1   6 387.353 17.6475   2
   4  -1   7 28.3918 5.29850  -1
   4   1   6 28.3918 5.29850   2
   5  -1   7 204.773 12.3415  -1
   5   1   6 204.773 12.3415   2
   6  -1   7 96.0148 10.0994  -1
   6   1   6 96.0148 10.0994   2
 -10   0   7 29.8694 5.19527   2
  -9   0   7 90.1498 7.12702   2
  -8   0   7 74.5006 5.90268   2
  -7   0   7 189.062 8.88587   2
  -6   0   7 2.38469 1.92452   2
  -5   0   7 455.095 15.4067   2
  -4   0   7 1.80369 1.42126   2
  -3   0   7 691.756 18.9123   2
  -2   0   7 -0.2965 1.23221   2
  -1   0   7 795.188 38.9349  -1
  -1   0   7 795.188 38.9349   2
   0   0   7 288.504 12.1117  -1
   0   0   7 288.504 12.1117   2
   1   0   7 581.889 20.8401  -1
   1   0   7 581.889 20.8401   2
   2   0   7 361.561 13.0339  -1
   2   0   7 361.561 13.0339   2
   3   0   7 221.909 10.7021  -1
   3   0   7 221.909 10.7021   2
   4   0   7 300.294 12.3954  -1
   4   0   7 300.294 12.3954   2
   5   0   7 5.03243 6.21077  -1
   5   0   7 5.03243 6.21077   2
   6   0   7 64.2300 9.78583  -1
   6   0   7 64.2300 9.78583   2
  -9   1   7 226.834 15.8918   2
  -8   1   7 -1.3865 2.64821   2
  -7   1   7 300.697 14.0257   2
  -6   1   7 43.9676 5.27075   2
  -5   1   7 323.084 17.7070   2
  -4   1   7 148.508 7.93875   2
  -3   1   7 250.498 10.0620   2
  -2   1   7 408.672 13.5068   2
  -1   1   7 36.5821 9.47086  -1
  -1  -1   8 36.5821 9.47086   2
   0   1   7 672.216 25.0701  -1
   0  -1   8 672.216 25.0701   2
   1   1   7 5.11619 3.07705  -1
   1  -1   8 5.11619 3.07705   2
   2   1   7 519.462 17.7121  -1
   2  -1   8 519.462 17.7121   2
   3   1   7 10.6892 4.11538  -1
   3  -1   8 10.6892 4.11538   2
   4   1   7 299.916 13.4958  -1
   4  -1   8 299.916 13.4958   2
   5   1   7 51.1795 7.34886  -1
   5  -1   8 51.1795 7.34886   2
  -9   2   7 17.1460 5.37193   2
  -8   2   7 120.476 9.90611   2
  -7   2   7 64.8392 6.78994   2
  -6   2   7 224.354 12.8116   2
  -5   2   7 2.47708 2.83550   2
  -4   2   7 353.671 15.2408   2
  -3   2   7 102.702 7.82583   2
  -2   2   7 319.998 13.6191   2
   0   2   7 346.561 14.1667  -1
   0  -2   9 346.561 14.1667   2
   1   2   7 225.380 9.30040  -1
   1  -2   9 225.380 9.30040   2
   2   2   7 180.060 8.34530  -1
   2  -2   9 180.060 8.34530   2
   3   2   7 499.264 19.2809  -1
   3  -2   9 499.264 19.2809   2
   4   2   7 26.1926 5.52299  -1
   4  -2   9 26.1926 5.52299   2
   5   2   7 163.033 13.1102  -1
   5  -2   9 163.033 13.1102   2
  -9   3   7 -4.5261 3.69623   2
  -8   3   7 149.545 13.5762   2
  -7   3   7 20.3298 5.31831   2
  -6   3   7 215.355 14.9083   2
  -5   3   7 79.0014 8.31349   2
  -4   3   7 170.298 12.8293   2
  -3   3   7 234.887 12.1630   2
  -2   3   7 11.9480 2.86936   2
  -1   3   7 289.400 13.2091   2
  -1   3   7 545.180 53.2984  -1
  -1  -3  10 545.180 53.2984   2
   0   3   7 -16.584 4.55453  -1
   0  -3  10 -16.584 4.55453   2
   1   3   7 336.274 13.3343  -1
   1  -3  10 336.274 13.3343   2
   2   3   7 -2.8285 4.57279  -1
   2  -3  10 -2.8285 4.57279   2
   3   3   7 304.805 15.1014  -1
   3  -3  10 304.805 15.1014   2
   4   3   7 74.6039 8.36501  -1
   4  -3  10 74.6039 8.36501   2
  -8   4   7 17.0848 7.12856   2
  -7   4   7 158.794 13.9757   2
  -6   4   7 24.2726 5.51718   2
  -5   4   7 180.160 13.4274   2
  -4   4   7 10.6588 4.43823   2
  -3   4   7 173.401 11.8974   2
  -2   4   7 28.4090 3.87112   2
   0   4   7 70.7134 7.94916  -1
   0  -4  11 70.7134 7.94916   2
   1   4   7 157.839 9.56893  -1
   1  -4  11 157.839 9.56893   2
   2   4   7 226.118 11.8357  -1
   2  -4  11 226.118 11.8357   2
   3   4   7 42.7395 8.10567  -1
   3  -4  11 42.7395 8.10567   2
  -8   5   7 -8.6169 7.50380   2
  -7   5   7 98.8305 13.0153   2
  -6   5   7 30.7195 6.31001   2
  -5   5   7 91.8338 8.95646   2
  -4   5   7 75.0487 9.07789   2
  -3   5   7 48.2144 7.27038   2
  -2   5   7 169.733 10.8426   2
   0   5   7 223.287 15.5192  -1
   0  -5  12 223.287 15.5192   2
   1   5   7 8.47944 6.77525  -1
   1  -5  12 8.47944 6.77525   2
   2   5   7 93.3409 10.3229  -1
   2  -5  12 93.3409 10.3229   2
  -6   6   7 120.246 15.2408   2
  -5   6   7 -1.8049 4.23861   2
  -4   6   7 131.751 11.1339   2
  -3   6   7 36.7532 7.56773   2
  -2   6   7 77.1080 8.59843   2
  -1   6   7 52.1553 23.4361  -1
  -1  -6  13 52.1553 23.4361   2
  -1   6   7 38.4615 5.75843   2
   0   6   7 125.995 28.2880  -1
   0  -6  13 125.995 28.2880   2
  -4   7   7 37.9708 9.31230   2
  -3   7   7 57.0387 7.45022   2
  -3 -12   8 4.29901 11.2512  -1
   3 -12   4 4.29901 11.2512   2
  -2 -12   8 174.079 19.1666  -1
   2 -12   4 174.079 19.1666   2
  -1 -12   8 5.53864 5.72670  -1
   1 -12   4 5.53864 5.72670   2
   0 -12   8 143.984 12.3858  -1
   0 -12   4 143.984 12.3858   2
   1 -12   8 12.1730 5.16796  -1
  -1 -12   4 12.1730 5.16796   2
   2 -12   8 98.3001 9.81780  -1
  -2 -12   4 98.3001 9.81780   2
   3 -12   8 10.6702 5.73481   2
  -5 -11   8 8.45614 3.70700   2
  -5 -11   8 10.0445 15.9641  -1
   5 -11   3 10.0445 15.9641   2
  -4 -11   8 122.719 23.6252  -1
   4 -11   3 122.719 23.6252   2
  -3 -11   8 69.4817 19.8829  -1
   3 -11   3 69.4817 19.8829   2
  -2 -11   8 90.6499 11.2904  -1
   2 -11   3 90.6499 11.2904   2
  -1 -11   8 64.1797 7.75553  -1
   1 -11   3 64.1797 7.75553   2
   0 -11   8 65.7253 7.38524  -1
   0 -11   3 65.7253 7.38524   2
   1 -11   8 150.023 10.8871  -1
  -1 -11   3 150.023 10.8871   2
   2 -11   8 -1.6129 4.57078  -1
  -2 -11   3 -1.6129 4.57078   2
   3 -11   8 229.116 15.3847  -1
  -3 -11   3 229.116 15.3847   2
   4 -11   8 -1.5089 8.19752  -1
  -4 -11   3 -1.5089 8.19752   2
  -6 -10   8 85.5257 8.11122   2
  -5 -10   8 34.2428 5.26803   2
  -4 -10   8 15.8286 3.61749   2
  -4 -10   8 42.0354 16.5138  -1
   4 -10   2 42.0354 16.5138   2
  -3 -10   8 294.410 34.6449  -1
   3 -10   2 294.410 34.6449   2
  -2 -10   8 -6.4834 6.19303  -1
   2 -10   2 -6.4834 6.19303   2
  -1 -10   8 250.787 17.3629  -1
   1 -10   2 250.787 17.3629   2
   0 -10   8 23.6275 4.91647  -1
   0 -10   2 23.6275 4.91647   2
   1 -10   8 322.444 18.6653  -1
  -1 -10   2 322.444 18.6653   2
   2 -10   8 63.8736 7.34866  -1
  -2 -10   2 63.8736 7.34866   2
   3 -10   8 125.621 11.0784  -1
  -3 -10   2 125.621 11.0784   2
   4 -10   8 67.5794 9.71242  -1
  -4 -10   2 67.5794 9.71242   2
   5 -10   8 25.8355 5.73432   2
  -7  -9   8 76.1410 7.71428   2
  -6  -9   8 1.52436 2.70684   2
  -5  -9   8 100.397 6.75069   2
  -4  -9   8 18.2647 3.29358   2
  -3  -9   8 204.768 14.7531  -1
   3  -9   1 204.768 14.7531   2
  -2  -9   8 112.763 9.08085  -1
   2  -9   1 112.763 9.08085   2
  -1  -9   8 163.117 10.7712  -1
   1  -9   1 163.117 10.7712   2
   0  -9   8 198.778 10.2225  -1
   0  -9   1 198.778 10.2225   2
   1  -9   8 37.3393 5.55465  -1
  -1  -9   1 37.3393 5.55465   2
   2  -9   8 230.001 13.0153  -1
  -2  -9   1 230.001 13.0153   2
   3  -9   8 2.23257 5.98910  -1
  -3  -9   1 2.23257 5.98910   2
   4  -9   8 200.960 15.1048  -1
  -4  -9   1 200.960 15.1048   2
   5  -9   8 17.6007 8.84927  -1
  -5  -9   1 17.6007 8.84927   2
  -8  -8   8 4.99749 10.2147   2
  -7  -8   8 50.5369 5.49567   2
  -6  -8   8 62.0099 6.05597   2
  -5  -8   8 159.992 8.63671   2
  -4  -8   8 112.990 7.32096   2
  -2  -8   8 392.167 18.1101  -1
  -2   8   0 392.167 18.1101   2
  -1  -8   8 46.4131 4.97700  -1
  -1   8   0 46.4131 4.97700   2
   0  -8   8 216.980 9.80163  -1
   0   8   0 216.980 9.80163   2
   1  -8   8 82.8128 6.65368  -1
   1   8   0 82.8128 6.65368   2
   2  -8   8 241.052 12.4752  -1
   2   8   0 241.052 12.4752   2
   3  -8   8 242.536 13.9290  -1
   3   8   0 242.536 13.9290   2
   4  -8   8 190.914 12.6819  -1
   4   8   0 190.914 12.6819   2
   5  -8   8 216.992 14.9535  -1
   5   8   0 216.992 14.9535   2
   6  -8   8 -0.7809 3.50853   2
  -8  -7   8 123.176 10.1752   2
  -7  -7   8 3.74773 2.60026   2
  -6  -7   8 128.692 8.14654   2
  -5  -7   8 3.87906 2.15926   2
  -3  -7   8 201.210 23.5674  -1
  -3   7   1 201.210 23.5674   2
  -2  -7   8 245.979 14.4797  -1
  -2   7   1 245.979 14.4797   2
  -1  -7   8 457.739 16.8159  -1
  -1   7   1 457.739 16.8159   2
   0  -7   8 79.0705 5.08349  -1
   0   7   1 79.0705 5.08349   2
   1  -7   8 365.477 15.6807  -1
   1   7   1 365.477 15.6807   2
   2  -7   8 12.8657 3.28242  -1
   2   7   1 12.8657 3.28242   2
   3  -7   8 225.982 13.0072  -1
   3   7   1 225.982 13.0072   2
   4  -7   8 17.5847 6.05024  -1
   4   7   1 17.5847 6.05024   2
   5  -7   8 191.753 11.9015  -1
   5   7   1 191.753 11.9015   2
   6  -7   8 65.1279 8.73497  -1
   6   7   1 65.1279 8.73497   2
  -9  -6   8 61.6407 15.5816   2
  -8  -6   8 54.3810 6.70419   2
  -7  -6   8 80.1466 7.05176   2
  -6  -6   8 70.0930 5.38969   2
  -5  -6   8 96.4451 6.20676   2
  -3  -6   8 330.653 10.9475   2
  -2  -6   8 11.0302 4.56955  -1
  -2   6   2 11.0302 4.56955   2
  -1  -6   8 438.950 15.6471  -1
  -1   6   2 438.950 15.6471   2
   0  -6   8 66.8748 4.67781  -1
   0   6   2 66.8748 4.67781   2
   1  -6   8 283.485 12.6907  -1
   1   6   2 283.485 12.6907   2
   2  -6   8 131.220 7.45328  -1
   2   6   2 131.220 7.45328   2
   3  -6   8 146.653 8.65454  -1
   3   6   2 146.653 8.65454   2
   4  -6   8 217.428 11.7088  -1
   4   6   2 217.428 11.7088   2
   5  -6   8 30.3055 7.18848  -1
   5   6   2 30.3055 7.18848   2
   6  -6   8 133.675 11.9673  -1
   6   6   2 133.675 11.9673   2
  -9  -5   8 92.3911 9.07035   2
  -8  -5   8 1.87811 3.06096   2
  -7  -5   8 137.003 8.95924   2
  -6  -5   8 18.6614 2.90433   2
  -5  -5   8 290.423 10.9720   2
  -4  -5   8 14.7483 2.17352   2
  -3  -5   8 176.086 7.89015   2
  -1  -5   8 34.7179 3.22778  -1
  -1   5   3 34.7179 3.22778   2
   0  -5   8 491.304 15.6532  -1
   0   5   3 491.304 15.6532   2
   1  -5   8 24.1181 3.38223  -1
   1   5   3 24.1181 3.38223   2
   2  -5   8 332.237 13.9853  -1
   2   5   3 332.237 13.9853   2
   3  -5   8 3.13947 3.53920  -1
   3   5   3 3.13947 3.53920   2
   4  -5   8 271.153 14.7366  -1
   4   5   3 271.153 14.7366   2
   5  -5   8 36.3011 7.16797  -1
   5   5   3 36.3011 7.16797   2
   6  -5   8 112.924 11.0986  -1
   6   5   3 112.924 11.0986   2
  -9  -4   8 115.427 10.0856   2
  -8  -4   8 72.7819 7.28826   2
  -7  -4   8 45.0598 4.86965   2
  -6  -4   8 223.663 9.53062   2
  -5  -4   8 1.07189 1.73292   2
  -4  -4   8 239.255 9.51847   2
  -3  -4   8 128.572 7.98146   2
  -2  -4   8 331.459 11.0709   2
  -1  -4   8 7.34464 2.89755  -1
  -1   4   4 7.34464 2.89755   2
   0  -4   8 589.285 18.9601  -1
   0   4   4 589.285 18.9601   2
   1  -4   8 226.733 10.2577  -1
   1   4   4 226.733 10.2577   2
   2  -4   8 288.711 13.9687  -1
   2   4   4 288.711 13.9687   2
   3  -4   8 208.993 10.7104  -1
   3   4   4 208.993 10.7104   2
   4  -4   8 117.390 10.6090  -1
   4   4   4 117.390 10.6090   2
   5  -4   8 263.849 18.6897  -1
   5   4   4 263.849 18.6897   2
   6  -4   8 2.77767 9.00601  -1
   6   4   4 2.77767 9.00601   2
  -9  -3   8 10.0851 3.93963   2
  -8  -3   8 161.671 11.0548   2
  -7  -3   8 -1.6747 2.19915   2
  -6  -3   8 249.911 9.31356   2
  -5  -3   8 59.4083 5.15890   2
  -4  -3   8 277.863 10.7353   2
  -3  -3   8 224.367 10.2023   2
  -2  -3   8 133.101 7.10731   2
  -1  -3   8 558.745 30.5613  -1
  -1   3   5 558.745 30.5613   2
   0  -3   8 24.0041 3.70476  -1
   0   3   5 24.0041 3.70476   2
   1  -3   8 483.803 21.6302  -1
   1   3   5 483.803 21.6302   2
   2  -3   8 25.3669 5.80137  -1
   2   3   5 25.3669 5.80137   2
   3  -3   8 361.639 18.0450  -1
   3   3   5 361.639 18.0450   2
   4  -3   8 41.0905 7.65409  -1
   4   3   5 41.0905 7.65409   2
   5  -3   8 166.710 14.2561  -1
   5   3   5 166.710 14.2561   2
   6  -3   8 118.059 13.1805  -1
   6   3   5 118.059 13.1805   2
  -9  -2   8 43.6171 6.72411   2
  -8  -2   8 165.344 13.4483   2
  -7  -2   8 155.057 10.1280   2
  -6  -2   8 16.1297 3.03906   2
  -5  -2   8 242.483 10.5204   2
  -4  -2   8 11.9536 2.45586   2
  -3  -2   8 250.263 9.38805   2
  -2  -2   8 84.6722 5.40636   2
  -1  -2   8 573.211 42.8039  -1
  -1   2   6 573.211 42.8039   2
   0  -2   8 188.624 11.8820  -1
   0   2   6 188.624 11.8820   2
   1  -2   8 230.723 10.9804  -1
   1   2   6 230.723 10.9804   2
   2  -2   8 407.020 18.4957  -1
   2   2   6 407.020 18.4957   2
   3  -2   8 85.2494 8.94825  -1
   3   2   6 85.2494 8.94825   2
   4  -2   8 197.579 12.9188  -1
   4   2   6 197.579 12.9188   2
   5  -2   8 10.8614 8.32382  -1
   5   2   6 10.8614 8.32382   2
   6  -2   8 72.6019 12.2389   2
  -9  -1   8 123.288 10.5653   2
  -8  -1   8 -0.3669 2.57653   2
  -7  -1   8 246.234 11.9855   2
  -6  -1   8 23.4295 3.62467   2
  -5  -1   8 255.001 10.0805   2
  -4  -1   8 149.881 7.57628   2
  -3  -1   8 167.489 7.31649   2
  -2  -1   8 350.602 10.9263   2
  -1  -1   8 40.0882 6.40932  -1
  -1   1   7 40.0882 6.40932   2
   0  -1   8 663.921 26.1560  -1
   0   1   7 663.921 26.1560   2
   1  -1   8 2.96830 3.68473  -1
   1   1   7 2.96830 3.68473   2
   2  -1   8 520.502 19.4644  -1
   2   1   7 520.502 19.4644   2
   3  -1   8 4.26109 3.62806  -1
   3   1   7 4.26109 3.62806   2
   4  -1   8 301.522 12.7549  -1
   4   1   7 301.522 12.7549   2
   5  -1   8 53.6777 8.54381  -1
   5   1   7 53.6777 8.54381   2
  -9   0   8 42.9204 5.96634   2
  -8   0   8 145.501 9.40164   2
  -7   0   8 157.797 9.13153   2
  -6   0   8 302.329 12.4651   2
  -5   0   8 0.48463 1.93944   2
  -4   0   8 287.330 9.82115   2
  -3   0   8 0.15160 1.51870   2
  -2   0   8 331.900 11.6338   2
  -1   0   8 122.049 7.38651   2
   0   0   8 452.245 21.9194  -1
   0   0   8 452.245 21.9194   2
   1   0   8 201.839 10.2854  -1
   1   0   8 201.839 10.2854   2
   2   0   8 74.9541 6.90402  -1
   2   0   8 74.9541 6.90402   2
   3   0   8 310.789 15.5226  -1
   3   0   8 310.789 15.5226   2
   4   0   8 17.2083 4.47903  -1
   4   0   8 17.2083 4.47903   2
   5   0   8 148.585 11.3116  -1
   5   0   8 148.585 11.3116   2
  -9   1   8 -0.1383 3.06115   2
  -8   1   8 206.101 13.1477   2
  -7   1   8 2.11668 2.88424   2
  -6   1   8 318.466 14.6530   2
  -5   1   8 73.6640 7.05671   2
  -4   1   8 133.116 8.13867   2
  -3   1   8 107.632 7.13488   2
  -2   1   8 58.2070 4.77398   2
   0   1   8 28.4967 6.25051  -1
   0  -1   9 28.4967 6.25051   2
   1   1   8 498.494 18.1786  -1
   1  -1   9 498.494 18.1786   2
   2   1   8 21.6956 5.54526  -1
   2  -1   9 21.6956 5.54526   2
   3   1   8 218.535 12.4571  -1
   3  -1   9 218.535 12.4571   2
   4   1   8 50.6414 6.73931  -1
   4  -1   9 50.6414 6.73931   2
  -9   2   8 46.0668 6.90708   2
  -8   2   8 21.7901 4.58279   2
  -7   2   8 203.966 14.5951   2
  -6   2   8 33.1315 6.09562   2
  -5   2   8 282.856 18.8396   2
  -4   2   8 -1.3789 3.22061   2
  -3   2   8 249.104 14.4269   2
  -2   2   8 55.6527 6.31208   2
  -1   2   8 173.086 10.4537   2
   0   2   8 8.56493 6.14454  -1
   0  -2  10 8.56493 6.14454   2
   1   2   8 151.009 8.91406  -1
   1  -2  10 151.009 8.91406   2
   2   2   8 99.4295 8.75771  -1
   2  -2  10 99.4295 8.75771   2
   3   2   8 30.5702 6.24675  -1
   3  -2  10 30.5702 6.24675   2
  -8   3   8 2.66620 4.15507   2
  -7   3   8 204.452 15.4159   2
  -6   3   8 81.0199 9.12559   2
  -5   3   8 144.385 13.5900   2
  -4   3   8 112.862 9.72616   2
  -3   3   8 56.0403 5.89842   2
  -2   3   8 132.685 10.6835   2
   0   3   8 473.913 24.2452  -1
   0  -3  11 473.913 24.2452   2
   1   3   8 0.65454 5.34680  -1
   1  -3  11 0.65454 5.34680   2
   2   3   8 229.822 15.1861  -1
   2  -3  11 229.822 15.1861   2
   3   3   8 13.1480 9.28236  -1
   3  -3  11 13.1480 9.28236   2
  -7   4   8 1.66803 4.02781   2
  -6   4   8 130.555 11.6513   2
  -5   4   8 9.98919 3.31430   2
  -4   4   8 181.826 14.0891   2
  -3   4   8 23.6021 5.86290   2
  -2   4   8 94.7996 8.14920   2
  -1   4   8 41.4605 5.70331   2
   0   4   8 125.508 16.0273  -1
   0  -4  12 125.508 16.0273   2
   1   4   8 15.2003 5.65956  -1
   1  -4  12 15.2003 5.65956   2
   2   4   8 36.9997 8.02361   2
  -6   5   8 54.5561 7.10692   2
  -5   5   8 78.7721 8.64397   2
  -4   5   8 42.5427 7.10519   2
  -3   5   8 51.6483 9.25220   2
  -2   5   8 3.55888 3.11040   2
  -1   5   8 118.713 9.27049   2
   0   5   8 -12.940 11.3660  -1
   0  -5  13 -12.940 11.3660   2
  -4   6   8 -2.4386 4.54451   2
  -3   6   8 82.2719 11.0874   2
  -3 -12   9 136.395 26.9350  -1
   3 -12   3 136.395 26.9350   2
  -2 -12   9 6.97448 9.65865  -1
   2 -12   3 6.97448 9.65865   2
  -1 -12   9 106.219 10.3173  -1
   1 -12   3 106.219 10.3173   2
   0 -12   9 10.8509 6.04492  -1
   0 -12   3 10.8509 6.04492   2
   1 -12   9 114.445 11.4250  -1
  -1 -12   3 114.445 11.4250   2
   2 -12   9 55.3360 7.68152  -1
  -2 -12   3 55.3360 7.68152   2
  -5 -11   9 45.9932 6.13950   2
  -4 -11   9 5.33529 3.43312   2
  -4 -11   9 3.76427 14.9274  -1
   4 -11   2 3.76427 14.9274   2
  -3 -11   9 127.797 23.9611  -1
   3 -11   2 127.797 23.9611   2
  -2 -11   9 132.975 14.0256  -1
   2 -11   2 132.975 14.0256   2
  -1 -11   9 69.0741 8.16985  -1
   1 -11   2 69.0741 8.16985   2
   0 -11   9 160.974 13.2258  -1
   0 -11   2 160.974 13.2258   2
   1 -11   9 31.3944 6.40246  -1
  -1 -11   2 31.3944 6.40246   2
   2 -11   9 154.747 11.1626  -1
  -2 -11   2 154.747 11.1626   2
   3 -11   9 9.89290 7.29419  -1
  -3 -11   2 9.89290 7.29419   2
  -6 -10   9 53.9141 6.21010   2
  -5 -10   9 38.4973 5.05657   2
  -4 -10   9 46.4522 4.72866   2
  -3 -10   9 11.6386 9.46470  -1
   3 -10   1 11.6386 9.46470   2
  -2 -10   9 345.173 26.0352  -1
   2 -10   1 345.173 26.0352   2
  -1 -10   9 4.68636 5.62733  -1
   1 -10   1 4.68636 5.62733   2
   0 -10   9 175.350 11.1231  -1
   0 -10   1 175.350 11.1231   2
   1 -10   9 27.0983 5.69327  -1
  -1 -10   1 27.0983 5.69327   2
   2 -10   9 119.237 9.62846  -1
  -2 -10   1 119.237 9.62846   2
   3 -10   9 150.753 12.5344  -1
  -3 -10   1 150.753 12.5344   2
   4 -10   9 53.5779 8.91235  -1
  -4 -10   1 53.5779 8.91235   2
  -7  -9   9 -1.5765 2.99114   2
  -6  -9   9 95.9030 7.32479   2
  -5  -9   9 7.57040 3.73002   2
  -4  -9   9 82.4806 6.60915   2
  -3  -9   9 169.526 25.5033  -1
  -3   9   0 169.526 25.5033   2
  -2  -9   9 117.298 11.3200  -1
  -2   9   0 117.298 11.3200   2
  -1  -9   9 342.179 14.9224  -1
  -1   9   0 342.179 14.9224   2
   0  -9   9 51.9907 6.13167  -1
   0   9   0 51.9907 6.13167   2
   1  -9   9 238.029 12.7050  -1
   1   9   0 238.029 12.7050   2
   2  -9   9 21.8923 4.65692  -1
   2   9   0 21.8923 4.65692   2
   3  -9   9 193.316 12.8418  -1
   3   9   0 193.316 12.8418   2
   4  -9   9 6.19628 5.92340  -1
   4   9   0 6.19628 5.92340   2
   5  -9   9 48.7455 8.54677   2
  -7  -8   9 65.0571 6.87542   2
  -6  -8   9 -0.9274 2.36107   2
  -5  -8   9 113.242 7.15506   2
  -4  -8   9 19.0157 3.03988   2
  -3  -8   9 450.573 42.4727  -1
  -3   8   1 450.573 42.4727   2
  -2  -8   9 1.13612 7.92909  -1
  -2   8   1 1.13612 7.92909   2
  -1  -8   9 552.973 19.5976  -1
  -1   8   1 552.973 19.5976   2
   0  -8   9 141.770 8.68472  -1
   0   8   1 141.770 8.68472   2
   1  -8   9 268.676 13.5091  -1
   1   8   1 268.676 13.5091   2
   2  -8   9 112.812 8.74717  -1
   2   8   1 112.812 8.74717   2
   3  -8   9 68.5567 7.36454  -1
   3   8   1 68.5567 7.36454   2
   4  -8   9 198.423 11.9347  -1
   4   8   1 198.423 11.9347   2
   5  -8   9 90.3850 8.49226  -1
   5   8   1 90.3850 8.49226   2
  -8  -7   9 1.40497 2.78610   2
  -7  -7   9 158.730 9.75534   2
  -6  -7   9 6.54932 2.63347   2
  -5  -7   9 247.463 10.8990   2
  -4  -7   9 41.4034 4.26315   2
  -2  -7   9 270.926 16.2958  -1
  -2   7   2 270.926 16.2958   2
  -1  -7   9 63.6183 4.54619  -1
  -1   7   2 63.6183 4.54619   2
   0  -7   9 488.977 17.9929  -1
   0   7   2 488.977 17.9929   2
   1  -7   9 26.0346 4.78763  -1
   1   7   2 26.0346 4.78763   2
   2  -7   9 388.305 16.2991  -1
   2   7   2 388.305 16.2991   2
   3  -7   9 0.23786 3.52688  -1
   3   7   2 0.23786 3.52688   2
   4  -7   9 191.436 11.5026  -1
   4   7   2 191.436 11.5026   2
   5  -7   9 44.0084 8.13180  -1
   5   7   2 44.0084 8.13180   2
  -8  -6   9 27.4266 4.98919   2
  -7  -6   9 38.1418 4.86037   2
  -6  -6   9 159.405 8.52723   2
  -5  -6   9 20.0454 3.28650   2
  -4  -6   9 107.713 7.93506   2
  -3  -6   9 43.1664 4.58419   2
  -1  -6   9 39.2237 3.71273  -1
  -1   6   3 39.2237 3.71273   2
   0  -6   9 554.283 19.2419  -1
   0   6   3 554.283 19.2419   2
   1  -6   9 443.454 16.3739  -1
   1   6   3 443.454 16.3739   2
   2  -6   9 125.428 7.87370  -1
   2   6   3 125.428 7.87370   2
   3  -6   9 171.357 10.0324  -1
   3   6   3 171.357 10.0324   2
   4  -6   9 37.1924 6.54877  -1
   4   6   3 37.1924 6.54877   2
   5  -6   9 264.574 19.3988  -1
   5   6   3 264.574 19.3988   2
  -9  -5   9 14.2499 4.61386   2
  -8  -5   9 135.998 10.5437   2
  -7  -5   9 1.64593 2.84799   2
  -6  -5   9 196.952 10.9270   2
  -5  -5   9 94.9042 7.61648   2
  -4  -5   9 140.931 9.06331   2
  -3  -5   9 112.214 7.82516   2
  -1  -5   9 420.094 14.5414  -1
  -1   5   4 420.094 14.5414   2
   0  -5   9 4.72574 3.12876  -1
   0   5   4 4.72574 3.12876   2
   1  -5   9 712.910 30.4522  -1
   1   5   4 712.910 30.4522   2
   2  -5   9 1.22731 4.80158  -1
   2   5   4 1.22731 4.80158   2
   3  -5   9 281.757 16.8295  -1
   3   5   4 281.757 16.8295   2
   4  -5   9 47.9940 8.24495  -1
   4   5   4 47.9940 8.24495   2
   5  -5   9 145.050 14.1644  -1
   5   5   4 145.050 14.1644   2
  -9  -4   9 35.8449 7.27320   2
  -8  -4   9 121.489 11.9265   2
  -7  -4   9 113.896 8.97294   2
  -6  -4   9 52.8232 5.27590   2
  -5  -4   9 275.838 11.8364   2
  -4  -4   9 28.6504 4.30560   2
  -3  -4   9 277.585 11.7056   2
  -2  -4   9 -0.7079 1.88443   2
  -1  -4   9 471.559 22.7322  -1
  -1   4   5 471.559 22.7322   2
   0  -4   9 59.6092 5.92113  -1
   0   4   5 59.6092 5.92113   2
   1  -4   9 317.731 17.9301  -1
   1   4   5 317.731 17.9301   2
   2  -4   9 362.149 21.1975  -1
   2   4   5 362.149 21.1975   2
   3  -4   9 74.5028 8.14085  -1
   3   4   5 74.5028 8.14085   2
   4  -4   9 139.422 12.8927  -1
   4   4   5 139.422 12.8927   2
   5  -4   9 15.3111 8.04996  -1
   5   4   5 15.3111 8.04996   2
  -9  -3   9 145.473 13.6335   2
  -8  -3   9 -3.1380 3.62888   2
  -7  -3   9 257.881 13.8004   2
  -6  -3   9 26.7348 3.79282   2
  -5  -3   9 223.404 11.0293   2
  -4  -3   9 81.3715 6.15805   2
  -3  -3   9 78.7239 5.56242   2
  -2  -3   9 188.462 8.80623   2
  -1  -3   9 72.8650 8.67927  -1
  -1   3   6 72.8650 8.67927   2
   0  -3   9 592.620 29.2913  -1
   0   3   6 592.620 29.2913   2
   1  -3   9 6.14032 4.23567  -1
   1   3   6 6.14032 4.23567   2
   2  -3   9 383.067 18.3005  -1
   2   3   6 383.067 18.3005   2
   3  -3   9 39.5322 7.23553  -1
   3   3   6 39.5322 7.23553   2
   4  -3   9 116.052 9.97034  -1
   4   3   6 116.052 9.97034   2
   5  -3   9 25.8894 9.45745  -1
   5   3   6 25.8894 9.45745   2
  -9  -2   9 8.45110 4.46744   2
  -8  -2   9 71.3775 7.08146   2
  -7  -2   9 71.5987 6.91927   2
  -6  -2   9 181.997 11.2338   2
  -5  -2   9 0.54157 2.07055   2
  -4  -2   9 341.637 13.0993   2
  -3  -2   9 98.2803 6.13520   2
  -2  -2   9 288.649 10.6770   2
  -1  -2   9 -0.4501 1.79128   2
  -1  -2   9 9.94718 8.68117  -1
  -1   2   7 9.94718 8.68117   2
   0  -2   9 380.383 20.7896  -1
   0   2   7 380.383 20.7896   2
   1  -2   9 259.823 15.6944  -1
   1   2   7 259.823 15.6944   2
   2  -2   9 168.215 10.7461  -1
   2   2   7 168.215 10.7461   2
   3  -2   9 463.951 21.7345  -1
   3   2   7 463.951 21.7345   2
   4  -2   9 17.4358 4.90591  -1
   4   2   7 17.4358 4.90591   2
   5  -2   9 151.870 14.6966  -1
   5   2   7 151.870 14.6966   2
  -9  -1   9 0.23939 3.62062   2
  -8  -1   9 200.548 11.3784   2
  -7  -1   9 20.8151 3.64500   2
  -6  -1   9 216.909 11.3846   2
  -5  -1   9 80.1516 5.68125   2
  -4  -1   9 135.231 6.94884   2
  -3  -1   9 162.786 7.50616   2
  -2  -1   9 49.6841 4.41711   2
  -1  -1   9 542.331 42.5894  -1
  -1   1   8 542.331 42.5894   2
  -1  -1   9 330.575 11.5225   2
   0  -1   9 26.3055 7.80065  -1
   0   1   8 26.3055 7.80065   2
   1  -1   9 525.659 24.2180  -1
   1   1   8 525.659 24.2180   2
   2  -1   9 29.0347 6.60062  -1
   2   1   8 29.0347 6.60062   2
   3  -1   9 189.252 14.1458  -1
   3   1   8 189.252 14.1458   2
   4  -1   9 40.6800 7.10452  -1
   4   1   8 40.6800 7.10452   2
  -9   0   9 43.2018 6.32501   2
  -8   0   9 26.7897 4.98617   2
  -7   0   9 109.035 9.02171   2
  -6   0   9 53.4014 6.71661   2
  -5   0   9 217.404 13.7709   2
  -4   0   9 6.67360 2.61771   2
  -3   0   9 240.490 10.2494   2
  -2   0   9 281.131 11.9013   2
  -1   0   9 166.192 19.6958  -1
  -1   0   9 166.192 19.6958   2
   0   0   9 3.07570 7.02818  -1
   0   0   9 3.07570 7.02818   2
   1   0   9 213.166 11.1700  -1
   1   0   9 213.166 11.1700   2
   2   0   9 137.052 10.1455  -1
   2   0   9 137.052 10.1455   2
   3   0   9 38.3536 6.50852  -1
   3   0   9 38.3536 6.50852   2
   4   0   9 377.112 19.1884  -1
   4   0   9 377.112 19.1884   2
  -8   1   9 -2.8262 3.23941   2
  -7   1   9 131.151 10.0749   2
  -6   1   9 32.2370 5.54819   2
  -5   1   9 179.154 14.9689   2
  -4   1   9 117.073 9.01777   2
  -3   1   9 65.4900 6.28532   2
  -2   1   9 160.838 13.1660   2
  -1   1   9 4.03422 2.84911   2
  -1   1   9 -6.0503 9.25197  -1
  -1  -1  10 -6.0503 9.25197   2
   0   1   9 369.918 19.9113  -1
   0  -1  10 369.918 19.9113   2
   1   1   9 -14.114 5.08242  -1
   1  -1  10 -14.114 5.08242   2
   2   1   9 309.527 16.5643  -1
   2  -1  10 309.527 16.5643   2
   3   1   9 62.3482 7.64955  -1
   3  -1  10 62.3482 7.64955   2
  -8   2   9 117.885 11.6643   2
  -7   2   9 15.7483 5.33093   2
  -6   2   9 157.083 12.7667   2
  -5   2   9 10.3060 4.06586   2
  -4   2   9 186.091 12.7821   2
  -3   2   9 13.1798 3.82279   2
  -2   2   9 114.475 9.99508   2
  -1   2   9 112.998 8.95903   2
   0   2   9 135.288 15.7822  -1
   0  -2  11 135.288 15.7822   2
   1   2   9 78.4612 8.06716  -1
   1  -2  11 78.4612 8.06716   2
   2   2   9 70.0939 8.41903  -1
   2  -2  11 70.0939 8.41903   2
  -7   3   9 9.36914 4.41243   2
  -6   3   9 87.1679 9.30282   2
  -5   3   9 43.2694 6.26455   2
  -4   3   9 107.952 10.9649   2
  -3   3   9 130.640 11.1349   2
  -2   3   9 10.0918 4.28376   2
  -1   3   9 116.841 9.41877   2
   0   3   9 7.10210 11.1497  -1
   0  -3  12 7.10210 11.1497   2
   1   3   9 141.390 12.8308  -1
   1  -3  12 141.390 12.8308   2
  -6   4   9 -6.7654 2.98949   2
  -5   4   9 107.003 11.4875   2
  -4   4   9 2.14864 4.90672   2
  -3   4   9 118.688 13.3391   2
  -2   4   9 39.6274 6.73741   2
  -1   4   9 34.6610 5.44491   2
   0   4   9 101.893 10.0988   2
  -2 -12  10 152.349 12.6095  -1
   2 -12   2 152.349 12.6095   2
  -1 -12  10 -2.3399 7.60597  -1
   1 -12   2 -2.3399 7.60597   2
   0 -12  10 109.899 12.4760  -1
   0 -12   2 109.899 12.4760   2
   1 -12  10 21.4043 8.87867  -1
  -1 -12   2 21.4043 8.87867   2
  -4 -11  10 66.9827 7.27843   2
  -3 -11  10 41.6537 16.4113  -1
   3 -11   1 41.6537 16.4113   2
  -2 -11  10 98.8816 14.6564  -1
   2 -11   1 98.8816 14.6564   2
  -1 -11  10 102.529 11.8654  -1
   1 -11   1 102.529 11.8654   2
   0 -11  10 60.0530 8.15403  -1
   0 -11   1 60.0530 8.15403   2
   1 -11  10 147.091 11.2011  -1
  -1 -11   1 147.091 11.2011   2
   2 -11  10 4.81812 5.69415  -1
  -2 -11   1 4.81812 5.69415   2
  -5 -10  10 80.7462 7.11492   2
  -4 -10  10 19.3459 3.85040   2
  -3 -10  10 80.4949 7.17849   2
  -3 -10  10 84.7710 20.1734  -1
  -3  10   0 84.7710 20.1734   2
  -2 -10  10 3.45143 11.2988  -1
  -2  10   0 3.45143 11.2988   2
  -1 -10  10 154.763 9.92487  -1
  -1  10   0 154.763 9.92487   2
   0 -10  10 27.9683 7.10609  -1
   0  10   0 27.9683 7.10609   2
   1 -10  10 110.873 9.85922  -1
   1  10   0 110.873 9.85922   2
   2 -10  10 31.8081 7.39010  -1
   2  10   0 31.8081 7.39010   2
   3 -10  10 76.2058 8.70294  -1
   3  10   0 76.2058 8.70294   2
  -6  -9  10 2.35521 3.13521   2
  -5  -9  10 91.8957 6.66685   2
  -4  -9  10 19.5389 3.83073   2
  -2  -9  10 147.002 16.5798  -1
  -2   9   1 147.002 16.5798   2
  -1  -9  10 99.1387 8.27789  -1
  -1   9   1 99.1387 8.27789   2
   0  -9  10 326.935 15.6650  -1
   0   9   1 326.935 15.6650   2
   1  -9  10 2.92212 4.95616  -1
   1   9   1 2.92212 4.95616   2
   2  -9  10 227.862 13.9321  -1
   2   9   1 227.862 13.9321   2
   3  -9  10 -3.7152 4.15994  -1
   3   9   1 -3.7152 4.15994   2
   4  -9  10 93.2020 8.76796  -1
   4   9   1 93.2020 8.76796   2
  -7  -8  10 57.7804 6.45791   2
  -6  -8  10 80.5313 7.30095   2
  -5  -8  10 27.6500 4.57079   2
  -4  -8  10 160.736 9.99469   2
  -2  -8  10 334.905 24.9089  -1
  -2   8   2 334.905 24.9089   2
  -1  -8  10 5.07315 3.99460  -1
  -1   8   2 5.07315 3.99460   2
   0  -8  10 218.340 10.6480  -1
   0   8   2 218.340 10.6480   2
   1  -8  10 81.5406 7.05429  -1
   1   8   2 81.5406 7.05429   2
   2  -8  10 153.629 9.61555  -1
   2   8   2 153.629 9.61555   2
   3  -8  10 63.2546 6.50668  -1
   3   8   2 63.2546 6.50668   2
   4  -8  10 36.8907 6.59398  -1
   4   8   2 36.8907 6.59398   2
  -8  -7  10 71.8137 10.0045   2
  -7  -7  10 9.98215 3.90971   2
  -6  -7  10 87.4713 7.53246   2
  -5  -7  10 26.9720 4.93205   2
  -4  -7  10 171.281 10.7130   2
  -2  -7  10 153.079 15.2587  -1
  -2   7   3 153.079 15.2587   2
  -1  -7  10 304.546 10.7981  -1
  -1   7   3 304.546 10.7981   2
   0  -7  10 12.8832 4.67736  -1
   0   7   3 12.8832 4.67736   2
   1  -7  10 306.000 14.1358  -1
   1   7   3 306.000 14.1358   2
   2  -7  10 0.03928 5.12137  -1
   2   7   3 0.03928 5.12137   2
   3  -7  10 210.014 16.2955  -1
   3   7   3 210.014 16.2955   2
   4  -7  10 23.9468 7.46288  -1
   4   7   3 23.9468 7.46288   2
  -8  -6  10 56.0268 9.10439   2
  -7  -6  10 83.2678 7.84004   2
  -6  -6  10 55.0018 5.53797   2
  -5  -6  10 197.295 12.0471   2
  -4  -6  10 0.55843 2.48996   2
  -3  -6  10 242.072 12.0535   2
  -2  -6  10 9.11212 10.1150  -1
  -2   6   4 9.11212 10.1150   2
  -1  -6  10 314.200 17.2958  -1
  -1   6   4 314.200 17.2958   2
   0  -6  10 9.37224 5.13048  -1
   0   6   4 9.37224 5.13048   2
   1  -6  10 294.472 18.6462  -1
   1   6   4 294.472 18.6462   2
   2  -6  10 224.211 15.8906  -1
   2   6   4 224.211 15.8906   2
   3  -6  10 107.168 9.74753  -1
   3   6   4 107.168 9.74753   2
   4  -6  10 103.340 12.1701  -1
   4   6   4 103.340 12.1701   2
  -8  -5  10 5.49605 4.02788   2
  -7  -5  10 133.516 9.40611   2
  -6  -5  10 10.0886 3.34753   2
  -5  -5  10 165.991 9.93530   2
  -4  -5  10 88.9301 7.32493   2
  -3  -5  10 90.0039 7.17495   2
  -2  -5  10 245.410 11.7780   2
  -1  -5  10 79.6348 7.89571  -1
  -1   5   5 79.6348 7.89571   2
   0  -5  10 383.660 18.2708  -1
   0   5   5 383.660 18.2708   2
   1  -5  10 8.16116 4.21010  -1
   1   5   5 8.16116 4.21010   2
   2  -5  10 370.781 25.4982  -1
   2   5   5 370.781 25.4982   2
   3  -5  10 3.13250 4.90439  -1
   3   5   5 3.13250 4.90439   2
   4  -5  10 225.528 16.9370  -1
   4   5   5 225.528 16.9370   2
  -8  -4  10 58.7616 8.26511   2
  -7  -4  10 65.4745 6.89833   2
  -6  -4  10 149.181 9.46480   2
  -5  -4  10 19.9274 3.62909   2
  -4  -4  10 246.367 11.7345   2
  -3  -4  10 -3.8837 1.80415   2
  -2  -4  10 253.445 11.9012   2
  -1  -4  10 41.8843 12.5009  -1
  -1   4   6 41.8843 12.5009   2
   0  -4  10 198.259 11.7489  -1
   0   4   6 198.259 11.7489   2
   1  -4  10 80.1445 7.78059  -1
   1   4   6 80.1445 7.78059   2
   2  -4  10 86.0281 7.94014  -1
   2   4   6 86.0281 7.94014   2
   3  -4  10 193.412 15.0433  -1
   3   4   6 193.412 15.0433   2
   4  -4  10 30.7799 7.31514  -1
   4   4   6 30.7799 7.31514   2
  -9  -3  10 2.41558 5.32479   2
  -8  -3  10 116.977 10.4044   2
  -7  -3  10 5.18469 2.95197   2
  -6  -3  10 163.963 9.94324   2
  -5  -3  10 42.5568 4.86647   2
  -4  -3  10 152.456 8.85766   2
  -3  -3  10 185.090 9.39105   2
  -2  -3  10 15.4384 3.01156   2
   0  -3  10 -4.7084 6.07630  -1
   0   3   7 -4.7084 6.07630   2
   1  -3  10 374.139 21.6893  -1
   1   3   7 374.139 21.6893   2
   2  -3  10 18.9717 4.28218  -1
   2   3   7 18.9717 4.28218   2
   3  -3  10 297.576 17.7058  -1
   3   3   7 297.576 17.7058   2
   4  -3  10 81.9688 8.97727  -1
   4   3   7 81.9688 8.97727   2
  -8  -2  10 27.3384 4.95131   2
  -7  -2  10 191.563 10.8204   2
  -6  -2  10 27.9257 4.28710   2
  -5  -2  10 226.631 10.1726   2
  -4  -2  10 -1.6108 1.74319   2
  -3  -2  10 243.259 9.42283   2
  -2  -2  10 32.3697 3.78858   2
  -1  -2  10 254.335 10.6936   2
   0  -2  10 7.21991 6.83693  -1
   0   2   8 7.21991 6.83693   2
   1  -2  10 170.651 13.5347  -1
   1   2   8 170.651 13.5347   2
   2  -2  10 114.965 11.3019  -1
   2   2   8 114.965 11.3019   2
   3  -2  10 39.3338 7.38919  -1
   3   2   8 39.3338 7.38919   2
   4  -2  10 245.100 27.7927  -1
   4   2   8 245.100 27.7927   2
  -8  -1  10 4.98966 3.75170   2
  -7  -1  10 161.348 11.3755   2
  -6  -1  10 29.9444 5.32679   2
  -5  -1  10 195.804 11.2306   2
  -4  -1  10 111.532 7.28936   2
  -3  -1  10 62.6442 5.86157   2
  -2  -1  10 130.912 8.21364   2
   0  -1  10 358.906 24.5459  -1
   0   1   9 358.906 24.5459   2
   1  -1  10 -7.1654 6.29189  -1
   1   1   9 -7.1654 6.29189   2
   2  -1  10 265.964 18.6930  -1
   2   1   9 265.964 18.6930   2
   3  -1  10 19.2337 7.50649  -1
   3   1   9 19.2337 7.50649   2
  -8   0  10 69.8586 7.93437   2
  -7   0  10 9.55375 3.52553   2
  -6   0  10 187.170 13.1026   2
  -5   0  10 0.88409 3.12530   2
  -4   0  10 203.456 10.7429   2
  -3   0  10 4.21029 2.90485   2
  -2   0  10 197.305 11.4079   2
  -1   0  10 148.163 10.8797   2
   0   0  10 118.596 13.4167  -1
   0   0  10 118.596 13.4167   2
   1   0  10 103.320 11.8544  -1
   1   0  10 103.320 11.8544   2
   2   0  10 63.7701 10.0248  -1
   2   0  10 63.7701 10.0248   2
  -8   1  10 74.7718 9.42101   2
  -7   1  10 27.1080 5.91831   2
  -6   1  10 127.433 13.1221   2
  -5   1  10 122.437 11.8049   2
  -4   1  10 58.6551 7.18258   2
  -3   1  10 117.468 10.8144   2
  -2   1  10 41.3094 6.41728   2
  -1   1  10 165.321 12.5925   2
   0   1  10 -4.7939 11.9333  -1
   0  -1  11 -4.7939 11.9333   2
   1   1  10 264.633 18.8108  -1
   1  -1  11 264.633 18.8108   2
   2   1  10 23.3410 10.0882  -1
   2  -1  11 23.3410 10.0882   2
  -7   2  10 102.525 11.0722   2
  -6   2  10 -3.5449 4.26833   2
  -5   2  10 126.684 12.6998   2
  -4   2  10 2.45039 5.38003   2
  -3   2  10 139.403 12.2405   2
  -2   2  10 18.8574 5.50074   2
  -1   2  10 51.7353 7.53312   2
   0   2  10 105.156 20.2255  -1
   0  -2  12 105.156 20.2255   2
   1   2  10 8.80908 8.29699   2
  -6   3  10 56.9897 8.48341   2
  -5   3  10 17.4644 6.11293   2
  -4   3  10 93.6585 12.3140   2
  -3   3  10 12.4351 6.30474   2
  -2   3  10 64.8780 8.23398   2
  -1   3  10 3.54850 4.53760   2
  -4 -11  11 2.20760 11.2636   2
  -3 -11  11 43.7902 7.27265   2
  -2 -11  11 92.0170 11.6622  -1
  -2  11   0 92.0170 11.6622   2
  -1 -11  11 35.2595 10.0008  -1
  -1  11   0 35.2595 10.0008   2
   0 -11  11 137.474 11.4352  -1
   0  11   0 137.474 11.4352   2
   1 -11  11 9.05988 7.88573  -1
   1  11   0 9.05988 7.88573   2
  -5 -10  11 10.9149 4.18219   2
  -4 -10  11 56.6427 6.27717   2
  -2 -10  11 222.154 18.5627  -1
  -2  10   1 222.154 18.5627   2
  -1 -10  11 48.4306 8.88432  -1
  -1  10   1 48.4306 8.88432   2
   0 -10  11 123.119 10.7911  -1
   0  10   1 123.119 10.7911   2
   1 -10  11 151.013 13.0464  -1
   1  10   1 151.013 13.0464   2
   2 -10  11 45.5372 6.69479  -1
   2  10   1 45.5372 6.69479   2
  -6  -9  11 83.0346 9.82560   2
  -5  -9  11 16.3471 4.16987   2
  -4  -9  11 124.302 9.19237   2
  -2  -9  11 33.4771 16.3654  -1
  -2   9   2 33.4771 16.3654   2
  -1  -9  11 173.611 10.5646  -1
  -1   9   2 173.611 10.5646   2
   0  -9  11 16.1676 5.78330  -1
   0   9   2 16.1676 5.78330   2
   1  -9  11 175.802 11.0734  -1
   1   9   2 175.802 11.0734   2
   2  -9  11 -3.4024 5.27999  -1
   2   9   2 -3.4024 5.27999   2
   3  -9  11 168.519 12.3670  -1
   3   9   2 168.519 12.3670   2
  -7  -8  11 50.7735 10.9109   2
  -6  -8  11 17.3889 4.30935   2
  -5  -8  11 52.9885 6.23881   2
  -4  -8  11 1.22989 2.94178   2
  -3  -8  11 87.0543 8.02737   2
  -2  -8  11 12.2623 12.9495  -1
  -2   8   3 12.2623 12.9495   2
  -1  -8  11 296.414 15.0302  -1
  -1   8   3 296.414 15.0302   2
   0  -8  11 68.9568 7.53826  -1
   0   8   3 68.9568 7.53826   2
   1  -8  11 123.402 11.2677  -1
   1   8   3 123.402 11.2677   2
   2  -8  11 230.312 17.2104  -1
   2   8   3 230.312 17.2104   2
   3  -8  11 2.79313 5.52491  -1
   3   8   3 2.79313 5.52491   2
  -7  -7  11 101.433 8.95714   2
  -6  -7  11 9.45056 3.56898   2
  -5  -7  11 93.5197 8.11576   2
  -4  -7  11 72.8707 7.02066   2
  -3  -7  11 42.6290 5.75781   2
  -2  -7  11 119.768 20.4949  -1
  -2   7   4 119.768 20.4949   2
  -1  -7  11 43.9885 10.3565  -1
  -1   7   4 43.9885 10.3565   2
   0  -7  11 260.192 13.2670  -1
   0   7   4 260.192 13.2670   2
   1  -7  11 -13.950 6.45864  -1
   1   7   4 -13.950 6.45864   2
   2  -7  11 225.174 16.9466  -1
   2   7   4 225.174 16.9466   2
   3  -7  11 10.7428 5.65501  -1
   3   7   4 10.7428 5.65501   2
  -7  -6  11 72.7388 7.11206   2
  -6  -6  11 111.906 8.44814   2
  -5  -6  11 8.13876 3.43510   2
  -4  -6  11 136.510 9.62637   2
  -3  -6  11 3.06678 2.54877   2
  -2  -6  11 142.373 9.78226   2
  -1  -6  11 84.7928 11.7936  -1
  -1   6   5 84.7928 11.7936   2
   0  -6  11 233.347 13.7586  -1
   0   6   5 233.347 13.7586   2
   1  -6  11 103.539 9.03594  -1
   1   6   5 103.539 9.03594   2
   2  -6  11 74.8477 10.4595  -1
   2   6   5 74.8477 10.4595   2
   3  -6  11 127.850 12.8380  -1
   3   6   5 127.850 12.8380   2
  -8  -5  11 108.404 10.4818   2
  -7  -5  11 4.33108 3.55967   2
  -6  -5  11 154.860 9.98107   2
  -5  -5  11 54.8669 5.82312   2
  -4  -5  11 90.6741 7.72985   2
  -3  -5  11 85.0328 7.35459   2
  -2  -5  11 43.8908 5.09206   2
  -1  -5  11 322.607 32.6720  -1
  -1   5   6 322.607 32.6720   2
   0  -5  11 5.55908 5.49527  -1
   0   5   6 5.55908 5.49527   2
   1  -5  11 298.566 16.2067  -1
   1   5   6 298.566 16.2067   2
   2  -5  11 0.81511 5.65223  -1
   2   5   6 0.81511 5.65223   2
   3  -5  11 121.489 12.7046  -1
   3   5   6 121.489 12.7046   2
  -8  -4  11 14.1068 5.10598   2
  -7  -4  11 98.8868 8.66526   2
  -6  -4  11 38.9875 5.15028   2
  -5  -4  11 164.171 9.83677   2
  -4  -4  11 3.60774 2.85644   2
  -3  -4  11 143.921 8.91403   2
  -2  -4  11 9.53049 3.07010   2
  -1  -4  11 363.945 35.6815  -1
  -1   4   7 363.945 35.6815   2
  -1  -4  11 175.157 9.95665   2
   0  -4  11 95.8135 11.7025  -1
   0   4   7 95.8135 11.7025   2
   1  -4  11 174.674 11.9973  -1
   1   4   7 174.674 11.9973   2
   2  -4  11 246.875 15.0751  -1
   2   4   7 246.875 15.0751   2
   3  -4  11 27.5945 7.07207  -1
   3   4   7 27.5945 7.07207   2
  -8  -3  11 -0.8288 2.85910   2
  -7  -3  11 111.892 8.99774   2
  -6  -3  11 63.9238 6.82469   2
  -5  -3  11 127.643 8.58944   2
  -4  -3  11 95.5959 7.23972   2
  -3  -3  11 63.1821 5.43159   2
  -2  -3  11 136.275 9.02279   2
  -1  -3  11 16.9297 3.79584   2
  -1  -3  11 27.3409 12.3964  -1
  -1   3   8 27.3409 12.3964   2
   0  -3  11 537.704 32.8545  -1
   0   3   8 537.704 32.8545   2
   1  -3  11 5.80854 7.37754  -1
   1   3   8 5.80854 7.37754   2
   2  -3  11 256.394 18.3928  -1
   2   3   8 256.394 18.3928   2
   3  -3  11 22.8993 7.08099  -1
   3   3   8 22.8993 7.08099   2
  -8  -2  11 69.2839 8.62871   2
  -7  -2  11 23.7621 4.39111   2
  -6  -2  11 152.538 10.9230   2
  -5  -2  11 24.7065 4.19815   2
  -4  -2  11 211.368 11.0129   2
  -3  -2  11 10.1038 3.06583   2
  -2  -2  11 105.680 7.93717   2
  -1  -2  11 81.5729 6.91853   2
   0  -2  11 119.161 13.6381  -1
   0   2   9 119.161 13.6381   2
   1  -2  11 92.7840 11.1398  -1
   1   2   9 92.7840 11.1398   2
   2  -2  11 92.5433 11.3070  -1
   2   2   9 92.5433 11.3070   2
  -7  -1  11 18.8146 4.65783   2
  -6  -1  11 87.7389 9.26724   2
  -5  -1  11 83.6926 8.64484   2
  -4  -1  11 61.7173 5.76816   2
  -3  -1  11 126.308 9.07220   2
  -2  -1  11 20.1952 3.95182   2
  -1  -1  11 167.878 10.3154   2
   0  -1  11 12.5214 10.0637  -1
   0   1  10 12.5214 10.0637   2
   1  -1  11 230.958 17.6035  -1
   1   1  10 230.958 17.6035   2
   2  -1  11 31.6302 9.14833  -1
   2   1  10 31.6302 9.14833   2
  -7   0  11 120.469 9.75880   2
  -6   0  11 -2.5051 4.17977   2
  -5   0  11 157.652 12.7454   2
  -4   0  11 -5.9749 3.96749   2
  -3   0  11 174.963 13.6869   2
  -2   0  11 22.2087 5.08149   2
  -1   0  11 127.670 20.0587  -1
  -1   0  11 127.670 20.0587   2
   0   0  11 81.9065 14.1104  -1
   0   0  11 81.9065 14.1104   2
   1   0  11 69.1770 12.2173  -1
   1   0  11 69.1770 12.2173   2
  -6   1  11 20.5600 5.67187   2
  -5   1  11 50.7935 10.4574   2
  -4   1  11 146.359 15.3895   2
  -3   1  11 38.7587 6.98963   2
  -2   1  11 112.638 10.9616   2
  -1   1  11 -0.8212 3.36396   2
   0   1  11 121.396 12.1676   2
  -5   2  11 -2.0116 9.33325   2
  -4   2  11 81.3414 12.1857   2
  -3   2  11 11.0658 5.49811   2
  -2   2  11 103.616 15.5546   2
  -4 -10  12 7.34565 3.96629   2
  -3 -10  12 67.9157 8.59450   2
  -1 -10  12 254.635 17.4534  -1
  -1  10   2 254.635 17.4534   2
   0 -10  12 48.8086 9.41031  -1
   0  10   2 48.8086 9.41031   2
  -5  -9  12 33.4708 4.89943   2
  -4  -9  12 49.8285 6.69379   2
  -3  -9  12 70.2194 7.52163   2
  -2  -9  12 36.5496 18.5505  -1
  -2   9   3 36.5496 18.5505   2
  -1  -9  12 28.9157 20.2212  -1
  -1   9   3 28.9157 20.2212   2
   0  -9  12 193.776 12.1731  -1
   0   9   3 193.776 12.1731   2
   1  -9  12 -0.8943 8.30947  -1
   1   9   3 -0.8943 8.30947   2
  -6  -8  12 61.5902 6.95763   2
  -5  -8  12 3.63388 3.52282   2
  -4  -8  12 84.7055 7.92968   2
  -3  -8  12 6.98457 3.47299   2
  -2  -8  12 90.3317 20.9332  -1
  -2   8   4 90.3317 20.9332   2
  -1  -8  12 24.4998 13.3030  -1
  -1   8   4 24.4998 13.3030   2
   0  -8  12 144.344 11.4179  -1
   0   8   4 144.344 11.4179   2
   1  -8  12 61.1924 8.42292  -1
   1   8   4 61.1924 8.42292   2
   2  -8  12 98.3197 12.4670  -1
   2   8   4 98.3197 12.4670   2
  -6  -7  12 61.7431 6.74164   2
  -5  -7  12 14.4605 4.30888   2
  -4  -7  12 60.5294 6.54796   2
  -3  -7  12 114.622 9.23884   2
  -2  -7  12 51.9435 17.4867  -1
  -2   7   5 51.9435 17.4867   2
  -1  -7  12 253.183 29.0731  -1
  -1   7   5 253.183 29.0731   2
   0  -7  12 -2.4505 6.37398  -1
   0   7   5 -2.4505 6.37398   2
   1  -7  12 185.514 13.1274  -1
   1   7   5 185.514 13.1274   2
   2  -7  12 8.65169 8.67752  -1
   2   7   5 8.65169 8.67752   2
  -7  -6  12 48.4324 7.02646   2
  -6  -6  12 29.0895 4.87748   2
  -5  -6  12 100.804 8.18467   2
  -4  -6  12 -1.9889 2.79547   2
  -3  -6  12 115.617 9.11656   2
  -2  -6  12 -4.5556 2.52335   2
  -1  -6  12 122.774 20.2677  -1
  -1   6   6 122.774 20.2677   2
   0  -6  12 76.6843 11.8800  -1
   0   6   6 76.6843 11.8800   2
   1  -6  12 62.4173 8.98215  -1
   1   6   6 62.4173 8.98215   2
   2  -6  12 172.120 12.8136  -1
   2   6   6 172.120 12.8136   2
  -7  -5  12 68.7957 7.58604   2
  -6  -5  12 17.8918 4.13284   2
  -5  -5  12 91.6791 7.70851   2
  -4  -5  12 51.1554 5.81488   2
  -3  -5  12 33.0166 5.11323   2
  -2  -5  12 167.468 10.8505   2
  -1  -5  12 1.51251 2.65523   2
  -1  -5  12 3.21204 13.7247  -1
  -1   5   7 3.21204 13.7247   2
   0  -5  12 236.762 19.0500  -1
   0   5   7 236.762 19.0500   2
   1  -5  12 6.42299 6.50892  -1
   1   5   7 6.42299 6.50892   2
   2  -5  12 123.451 11.2378  -1
   2   5   7 123.451 11.2378   2
  -7  -4  12 -4.2303 3.23547   2
  -6  -4  12 92.4924 7.68633   2
  -5  -4  12 9.77662 3.37886   2
  -4  -4  12 129.468 8.75536   2
  -3  -4  12 11.7728 2.92444   2
  -2  -4  12 92.5161 7.38151   2
  -1  -4  12 19.2005 4.02197   2
   0  -4  12 99.1645 12.9500  -1
   0   4   8 99.1645 12.9500   2
   1  -4  12 26.0433 9.57313  -1
   1   4   8 26.0433 9.57313   2
  -7  -3  12 6.89382 4.91326   2
  -6  -3  12 67.0393 6.94730   2
  -5  -3  12 63.1160 5.89873   2
  -4  -3  12 86.9361 6.89728   2
  -3  -3  12 123.163 9.68825   2
  -2  -3  12 12.1895 3.64628   2
  -1  -3  12 117.876 9.27336   2
   0  -3  12 -0.7467 8.88754  -1
   0   3   9 -0.7467 8.88754   2
   1  -3  12 196.205 18.3468  -1
   1   3   9 196.205 18.3468   2
  -7  -2  12 94.1993 10.9425   2
  -6  -2  12 -4.7824 3.19487   2
  -5  -2  12 72.0359 6.95096   2
  -4  -2  12 0.26995 2.94601   2
  -3  -2  12 125.244 9.76676   2
  -2  -2  12 3.88556 3.95049   2
  -1  -2  12 51.8527 6.31518   2
   0  -2  12 122.553 15.6398  -1
   0   2  10 122.553 15.6398   2
  -6  -1  12 17.5308 5.12300   2
  -5  -1  12 41.3530 7.90441   2
  -4  -1  12 133.092 9.76532   2
  -3  -1  12 28.0556 5.38259   2
  -2  -1  12 106.426 9.96624   2
  -1  -1  12 -1.3777 3.64963   2
  -5   0  12 4.79321 7.21043   2
  -4   0  12 59.9842 10.8803   2
  -3   0  12 3.96327 4.84359   2
  -2   0  12 97.8805 10.7943   2
  -3  -9  13 64.9177 9.37449   2
  -2  -9  13 11.7245 16.8802  -1
  -2   9   4 11.7245 16.8802   2
  -1  -9  13 58.4346 11.5452   2
  -4  -8  13 -2.1093 3.57004   2
  -3  -8  13 85.0450 8.06973   2
  -2  -8  13 15.9006 17.8787  -1
  -2   8   5 15.9006 17.8787   2
   0  -8  13 92.6196 10.3168  -1
   0   8   5 92.6196 10.3168   2
  -5  -7  13 74.9073 8.00689   2
  -4  -7  13 33.2438 5.73113   2
  -3  -7  13 30.7218 5.48331   2
  -2  -7  13 107.557 9.44676   2
  -1  -7  13 10.9614 16.4718  -1
  -1   7   6 10.9614 16.4718   2
   0  -7  13 237.290 30.6412  -1
   0   7   6 237.290 30.6412   2
  -5  -6  13 0.10663 3.31805   2
  -4  -6  13 117.920 8.90729   2
  -3  -6  13 18.8106 4.40240   2
  -2  -6  13 48.3039 6.30610   2
   0  -6  13 144.568 23.6457  -1
   0   6   7 144.568 23.6457   2
  -5  -5  13 73.1360 7.22979   2
  -4  -5  13 37.9007 4.97220   2
  -3  -5  13 52.8319 5.94571   2
  -2  -5  13 6.28142 3.68434   2
  -1  -5  13 127.072 11.2802   2
   0  -5  13 -5.7014 10.3344  -1
   0   5   8 -5.7014 10.3344   2
  -5  -4  13 97.8079 7.95150   2
  -4  -4  13 -0.0029 3.20560   2
  -3  -4  13 114.357 8.60681   2
  -2  -4  13 26.9319 5.10598   2
  -1  -4  13 26.1897 5.31646   2
  -5  -3  13 26.4904 4.78968   2
  -4  -3  13 62.6773 7.30549   2
  -3  -3  13 28.6166 5.34985   2
  -2  -3  13 66.8367 7.41081   2
  -1  -3  13 -0.8976 6.48695   2
  -4  -2  13 70.9266 12.1704   2
  -3  -2  13 8.97393 5.04363   2
   0   0   0    0.00    0.00   0
;
_shelx_hkl_checksum              24567
loop_
_space_group_symop_operation_xyz
'x, y, z'
'-x, -y, -z'
loop_
_atom_site_type_symbol
_atom_site_label
_atom_site_fract_x
_atom_site_fract_y
_atom_site_fract_z
_atom_site_U_iso_or_equiv
_atom_site_adp_type
_atom_site_calc_flag
_atom_site_refinement_flags_adp
_atom_site_refinement_flags_occupancy
_atom_site_refinement_flags_posn
_atom_site_occupancy
_atom_site_disorder_assembly
_atom_site_disorder_group
C C1 0.9499(13) 0.7852(14) -0.0558(13) 0.0197(16) Uani d U P D 0.5 A 1
H H1 0.919 0.8071 -0.1367 0.024 Uiso calc U P R 0.5 A 1
C C2 0.8498(13) 0.8254(15) 0.0372(12) 0.0183(16) Uani d U P D 0.5 A 1
H H2 0.7514 0.8697 0.0185 0.022 Uiso calc U P R 0.5 A 1
C C3 0.8985(15) 0.7987(16) 0.1614(13) 0.0181(17) Uani d U P D 0.5 A 1
C C4 1.0438(13) 0.7351(13) 0.1820(12) 0.0200(17) Uani d U P D 0.5 A 1
H H4 1.0821 0.7175 0.2654 0.024 Uiso calc U P R 0.5 A 1
C C5 1.1341(13) 0.6970(14) 0.0797(12) 0.0211(17) Uani d U P D 0.5 A 1
H H5 1.2343 0.6538 0.0956 0.025 Uiso calc U P R 0.5 A 1
C C6 0.7967(13) 0.8326(13) 0.2659(12) 0.0193(17) Uani d U P D 0.5 A 1
H H6 0.8511 0.8149 0.3471 0.023 Uiso calc U P R 0.5 A 1
C C7 0.6707(13) 0.8740(16) 0.2730(12) 0.019(2) Uani d U P D 0.5 A 1
H H7 0.6029 0.8674 0.1807 0.022 Uiso calc U P R 0.5 A 1
C C8 0.5815(19) 0.937(2) 0.3890(18) 0.017(2) Uani d U P D 0.5 A 1
C C9 0.4471(12) 1.0155(12) 0.3684(11) 0.0162(16) Uani d U P D 0.5 A 1
C C10 0.3904(13) 1.0342(13) 0.2362(11) 0.0178(18) Uani d U P D 0.5 A 1
H H10 0.4468 0.9948 0.1629 0.021 Uiso calc U P R 0.5 A 1
C C11 0.2567(13) 1.1079(13) 0.2157(13) 0.023(2) Uani d U P D 0.5 A 1
H H11 0.2186 1.1161 0.1267 0.027 Uiso calc U P R 0.5 A 1
C C12 0.1741(13) 1.1720(13) 0.3256(12) 0.022(2) Uani d U P D 0.5 A 1
H H12 0.0837 1.2256 0.3113 0.026 Uiso calc U P R 0.5 A 1
C C13 0.2238(13) 1.1573(14) 0.4513(13) 0.022(2) Uani d U P D 0.5 A 1
H H13 0.1664 1.1999 0.5235 0.027 Uiso calc U P R 0.5 A 1
C C14 0.3611(12) 1.0786(13) 0.4774(12) 0.0170(17) Uani d U P D 0.5 A 1
C C15 0.4651(12) 0.5345(14) 0.3868(12) 0.0183(16) Uani d U P D 0.5 B 1
C C16 0.592(3) 0.4456(14) 0.396(2) 0.017(2) Uani d U P D 0.5 B 1
C C17 0.6217(13) 0.4125(14) 0.5126(13) 0.0192(17) Uani d U P D 0.5 B 1
F F1 0.4267(8) 0.5704(8) 0.2731(8) 0.0230(15) Uani d U P D 0.5 B 1
F F2 0.7429(9) 0.3302(9) 0.5280(8) 0.0273(17) Uani d U P D 0.5 B 1
N N1 1.085(3) 0.7189(17) -0.042(3) 0.019(2) Uani d U P D 0.5 A 1
C C1A 1.1594(13) 0.8751(12) 0.0890(12) 0.0208(18) Uani d U P D 0.5 C 2
H H1A 1.2675 0.9307 0.1054 0.025 Uiso calc U P R 0.5 C 2
C C2A 1.0822(13) 0.9328(12) 0.1975(12) 0.022(2) Uani d U P D 0.5 C 2
H H2A 1.1373 1.0249 0.2869 0.027 Uiso calc U P R 0.5 C 2
C C3A 0.9203(15) 0.8543(17) 0.1755(12) 0.020(2) Uani d U P D 0.5 C 2
C C4A 0.8459(13) 0.7173(13) 0.0411(12) 0.0209(17) Uani d U P D 0.5 C 2
H H4A 0.7372 0.6597 0.0207 0.025 Uiso calc U P R 0.5 C 2
C C5A 0.9374(13) 0.6689(13) -0.0611(12) 0.0185(17) Uani d U P D 0.5 C 2
H H5A 0.8879 0.5767 -0.1517 0.022 Uiso calc U P R 0.5 C 2
C C6A 0.8341(12) 0.9134(14) 0.2906(10) 0.018(2) Uani d U P D 0.5 C 2
H H6A 0.9128 0.9397 0.3871 0.022 Uiso calc U P R 0.5 C 2
C C7A 0.7018(13) 0.9356(14) 0.2951(14) 0.0181(19) Uani d U P D 0.5 C 2
H H7A 0.6348 0.9358 0.2061 0.022 Uiso calc U P R 0.5 C 2
C C8A 0.5970(18) 0.9654(19) 0.3994(18) 0.015(2) Uani d U P D 0.5 C 2
C C9A 0.4620(12) 0.8560(11) 0.3747(11) 0.0162(16) Uani d U P D 0.5 C 2
C C10A 0.4139(13) 0.7084(12) 0.2448(12) 0.021(2) Uani d U P D 0.5 C 2
H H10A 0.4765 0.6838 0.1758 0.025 Uiso calc U P R 0.5 C 2
C C11A 0.2796(13) 0.6033(12) 0.2192(12) 0.022(2) Uani d U P D 0.5 C 2
H H11A 0.2494 0.507 0.1326 0.027 Uiso calc U P R 0.5 C 2
C C12A 0.1852(14) 0.6370(13) 0.3212(12) 0.023(2) Uani d U P D 0.5 C 2
H H12A 0.0928 0.5633 0.3031 0.027 Uiso calc U P R 0.5 C 2
C C13A 0.2272(12) 0.7754(11) 0.4454(12) 0.0184(19) Uani d U P D 0.5 C 2
H H13A 0.1635 0.7965 0.5132 0.022 Uiso calc U P R 0.5 C 2
C C14A 0.3650(12) 0.8893(12) 0.4756(11) 0.0170(18) Uani d U P D 0.5 C 2
C C15A 0.6333(13) 0.5959(13) 0.5105(12) 0.0177(17) Uani d U P D 0.5 B 2
C C16A 0.585(3) 0.4470(16) 0.390(2) 0.017(2) Uani d U P D 0.5 B 2
C C17A 0.4531(13) 0.3525(13) 0.3862(12) 0.0177(17) Uani d U P D 0.5 B 2
F F1A 0.7638(8) 0.6943(8) 0.5228(8) 0.0222(15) Uani d U P D 0.5 B 2
F F2A 0.4090(9) 0.2063(8) 0.2803(8) 0.0219(15) Uani d U P D 0.5 B 2
N N1A 1.092(3) 0.7460(16) -0.038(3) 0.017(2) Uani d U P D 0.5 C 2
I I1 0.72499(3) 0.36778(5) 0.23829(3) 0.01997(11) Uani d U . D 1 . .
loop_
_atom_site_aniso_label
_atom_site_aniso_U_11
_atom_site_aniso_U_22
_atom_site_aniso_U_33
_atom_site_aniso_U_12
_atom_site_aniso_U_13
_atom_site_aniso_U_23
C1 0.019(3) 0.018(3) 0.019(3) 0.001(3) 0.004(2) 0.007(3)
C2 0.017(3) 0.018(4) 0.016(3) 0.001(3) 0.002(2) 0.007(3)
C3 0.018(3) 0.016(3) 0.016(3) 0.000(3) 0.006(2) 0.004(3)
C4 0.021(3) 0.017(3) 0.015(3) 0.002(3) 0.001(3) 0.005(3)
C5 0.020(3) 0.018(4) 0.018(3) 0.003(3) 0.003(3) 0.004(3)
C6 0.020(3) 0.021(4) 0.009(3) -0.002(3) 0.002(3) 0.003(3)
C7 0.019(3) 0.020(4) 0.006(3) 0.000(3) 0.001(3) -0.001(3)
C8 0.018(3) 0.019(5) 0.009(3) 0.003(3) 0.003(3) 0.002(3)
C9 0.016(3) 0.016(4) 0.012(3) 0.000(3) 0.002(2) 0.004(3)
C10 0.018(3) 0.019(4) 0.014(4) 0.003(3) 0.003(3) 0.007(3)
C11 0.021(4) 0.020(5) 0.023(4) 0.001(4) -0.001(3) 0.012(4)
C12 0.015(4) 0.020(5) 0.025(4) 0.001(3) 0.000(3) 0.010(4)
C13 0.018(4) 0.020(5) 0.024(4) 0.002(3) 0.003(3) 0.008(4)
C14 0.014(3) 0.019(4) 0.015(3) 0.001(3) 0.002(3) 0.008(3)
C15 0.015(3) 0.020(4) 0.015(3) -0.003(3) -0.001(3) 0.008(3)
C16 0.011(3) 0.020(3) 0.017(3) -0.001(3) 0.003(3) 0.007(3)
C17 0.016(3) 0.019(4) 0.015(3) 0.001(3) 0.001(3) 0.005(3)
F1 0.024(3) 0.026(4) 0.015(3) 0.002(3) 0.002(3) 0.009(3)
F2 0.024(3) 0.031(4) 0.021(4) 0.010(3) 0.005(3) 0.010(3)
N1 0.017(3) 0.016(4) 0.017(3) 0.002(4) 0.003(3) 0.005(3)
C1A 0.019(3) 0.017(3) 0.019(3) -0.001(3) 0.003(3) 0.005(3)
C2A 0.022(3) 0.017(4) 0.017(3) -0.002(3) 0.003(3) 0.002(3)
C3A 0.018(3) 0.020(4) 0.014(3) 0.000(3) 0.003(2) 0.005(3)
C4A 0.017(3) 0.020(3) 0.017(3) -0.001(3) 0.002(2) 0.004(3)
C5A 0.016(3) 0.020(3) 0.014(3) 0.004(3) 0.003(2) 0.005(3)
C6A 0.021(3) 0.017(4) 0.009(3) -0.001(3) 0.001(3) 0.003(3)
C7A 0.018(3) 0.020(4) 0.010(3) 0.001(3) 0.003(3) 0.004(3)
C8A 0.015(3) 0.018(4) 0.010(3) 0.001(3) 0.004(3) 0.006(3)
C9A 0.014(3) 0.020(3) 0.013(3) 0.003(3) 0.001(3) 0.008(3)
C10A 0.018(3) 0.023(4) 0.016(4) 0.002(3) 0.002(3) 0.007(3)
C11A 0.019(4) 0.024(4) 0.018(4) 0.002(3) 0.001(3) 0.007(3)
C12A 0.017(4) 0.024(4) 0.021(4) 0.000(3) 0.001(3) 0.009(3)
C13A 0.013(3) 0.022(4) 0.019(4) 0.006(3) 0.001(3) 0.012(3)
C14A 0.014(3) 0.020(4) 0.013(3) 0.003(3) 0.001(3) 0.007(3)
C15A 0.014(3) 0.020(3) 0.014(3) -0.003(3) 0.001(3) 0.006(3)
C16A 0.012(3) 0.019(3) 0.016(3) 0.000(3) 0.001(3) 0.008(3)
C17A 0.015(3) 0.015(3) 0.015(3) 0.001(3) 0.001(3) 0.003(3)
F1A 0.019(3) 0.019(3) 0.021(4) -0.002(2) 0.004(3) 0.005(3)
F2A 0.026(3) 0.016(3) 0.015(3) 0.000(3) 0.006(3) 0.001(3)
N1A 0.015(3) 0.017(4) 0.015(3) 0.001(3) 0.006(2) 0.005(3)
I1 0.01789(17) 0.0227(2) 0.01648(15) 0.00319(15) 0.00677(12) 0.00653(18)
loop_
_atom_type_symbol
_atom_type_description
_atom_type_scat_dispersion_real
_atom_type_scat_dispersion_imag
_atom_type_scat_source
C C 0.0033 0.0016 'International Tables Vol C Tables 4.2.6.8 and 6.1.1.4'
H H 0.0000 0.0000 'International Tables Vol C Tables 4.2.6.8 and 6.1.1.4'
N N 0.0061 0.0033 'International Tables Vol C Tables 4.2.6.8 and 6.1.1.4'
F F 0.0171 0.0103 'International Tables Vol C Tables 4.2.6.8 and 6.1.1.4'
I I -0.4742 1.8119 'International Tables Vol C Tables 4.2.6.8 and 6.1.1.4'
loop_
_geom_angle_atom_site_label_1
_geom_angle_atom_site_label_2
_geom_angle_atom_site_label_3
_geom_angle_site_symmetry_1
_geom_angle_site_symmetry_3
_geom_angle
N1 C1 C2 . . 125.4(13)
C1 C2 C3 . . 117.9(10)
C4 C3 C2 . . 117.8(8)
C4 C3 C6 . . 119.7(11)
C2 C3 C6 . . 122.5(10)
C3 C4 C5 . . 119.5(10)
N1 C5 C4 . . 122.8(11)
C7 C6 C3 . . 136.0(12)
C6 C7 C8 . . 137.2(11)
C9 C8 C14 . 2_676 120.7(10)
C9 C8 C7 . . 119.2(13)
C14 C8 C7 2_676 . 120.0(12)
C8 C9 C14 . . 120.8(9)
C8 C9 C10 . . 121.3(9)
C14 C9 C10 . . 118.0(8)
C11 C10 C9 . . 120.7(8)
C10 C11 C12 . . 120.8(9)
C13 C12 C11 . . 120.2(9)
C12 C13 C14 . . 121.4(9)
C9 C14 C13 . . 118.9(9)
C9 C14 C8 . 2_676 118.5(9)
C13 C14 C8 . 2_676 122.6(9)
C17 C15 F1 2_666 . 118.0(11)
C17 C15 C16 2_666 . 122.7(13)
F1 C15 C16 . . 119.4(10)
C17 C16 C15 . . 115.9(13)
C17 C16 I1 . . 122.9(12)
C15 C16 I1 . . 121.3(12)
F2 C17 C15 . 2_666 120.0(12)
F2 C17 C16 . . 118.5(10)
C15 C17 C16 2_666 . 121.5(13)
C1 N1 C5 . . 116.5(11)
N1A C1A C2A . . 123.9(11)
C1A C2A C3A . . 119.5(9)
C2A C3A C4A . . 117.6(8)
C2A C3A C6A . . 120.7(10)
C4A C3A C6A . . 121.7(11)
C5A C4A C3A . . 117.8(10)
N1A C5A C4A . . 123.6(12)
C7A C6A C3A . . 137.4(11)
C6A C7A C8A . . 139.4(13)
C9A C8A C14A . 2_676 119.5(9)
C9A C8A C7A . . 122.6(11)
C14A C8A C7A 2_676 . 117.9(11)
C8A C9A C14A . . 120.8(9)
C8A C9A C10A . . 121.2(8)
C14A C9A C10A . . 118.0(8)
C11A C10A C9A . . 121.1(8)
C10A C11A C12A . . 120.5(10)
C13A C12A C11A . . 120.1(9)
C12A C13A C14A . . 121.4(9)
C8A C14A C9A 2_676 . 119.7(9)
C8A C14A C13A 2_676 . 121.3(9)
C9A C14A C13A . . 119.0(8)
F1A C15A C17A . 2_666 118.2(10)
F1A C15A C16A . . 119.8(9)
C17A C15A C16A 2_666 . 121.9(12)
C17A C16A C15A . . 116.5(13)
C17A C16A I1 . . 121.9(11)
C15A C16A I1 . . 121.2(11)
F2A C17A C15A . 2_666 119.0(10)
F2A C17A C16A . . 119.6(10)
C15A C17A C16A 2_666 . 121.4(12)
C1A N1A C5A . . 117.5(11)
loop_
_geom_bond_atom_site_label_1
_geom_bond_atom_site_label_2
_geom_bond_site_symmetry_2
_geom_bond_distance
C1 N1 . 1.32(2)
C1 C2 . 1.379(12)
C2 C3 . 1.415(16)
C3 C4 . 1.379(15)
C3 C6 . 1.486(11)
C4 C5 . 1.393(12)
C5 N1 . 1.36(2)
C6 C7 . 1.130(12)
C7 C8 . 1.504(11)
C8 C9 . 1.404(17)
C8 C14 2_676 1.44(2)
C9 C14 . 1.428(11)
C9 C10 . 1.448(11)
C10 C11 . 1.366(12)
C11 C12 . 1.417(12)
C12 C13 . 1.358(12)
C13 C14 . 1.434(12)
C14 C8 2_676 1.44(2)
C15 C17 2_666 1.359(14)
C15 F1 . 1.369(12)
C15 C16 . 1.41(2)
C16 C17 . 1.38(2)
C16 I1 . 2.107(17)
C17 F2 . 1.340(12)
C17 C15 2_666 1.359(14)
C1A N1A . 1.33(2)
C1A C2A . 1.369(13)
C2A C3A . 1.410(15)
C3A C4A . 1.411(15)
C3A C6A . 1.476(11)
C4A C5A . 1.399(12)
C5A N1A . 1.35(2)
C6A C7A . 1.115(12)
C7A C8A . 1.507(11)
C8A C9A . 1.406(15)
C8A C14A 2_676 1.412(18)
C9A C14A . 1.426(11)
C9A C10A . 1.443(11)
C10A C11A . 1.370(12)
C11A C12A . 1.419(12)
C12A C13A . 1.365(12)
C13A C14A . 1.430(11)
C14A C8A 2_676 1.412(18)
C15A F1A . 1.360(11)
C15A C17A 2_666 1.378(13)
C15A C16A . 1.414(18)
C16A C17A . 1.384(18)
C16A I1 . 2.106(18)
C17A F2A . 1.348(12)
C17A C15A 2_666 1.378(13)
