#------------------------------------------------------------------------------
#$Date: 2021-10-24 20:53:08 +0300 (Sun, 24 Oct 2021) $
#$Revision: 270074 $
#$URL: file:///home/coder/svn-repositories/cod/cif/4/12/51/4125187.cif $
#------------------------------------------------------------------------------
#
# This file is available in the Crystallography Open Database (COD),
# http://www.crystallography.net/
#
# All data on this site have been placed in the public domain by the
# contributors.
#
data_4125187
loop_
_publ_author_name
'Dickman, Matthew J.'
'Latturner, Susan E.'
_publ_section_title
;
 Metal nitrides grown from Ca/Li flux: Ca6Te3N2 and new nitridoferrate(I)
 Ca6(LixFe1-x)Te2N3.
;
_journal_name_full               'Journal of the American Chemical Society'
_journal_paper_doi               10.1021/jacs.6b06024
_journal_year                    2016
_chemical_formula_sum            'Ca6 N2 Te3'
_chemical_formula_weight         651.30
_chemical_name_systematic
;
 ?
;
_space_group_crystal_system      trigonal
_space_group_IT_number           167
_space_group_name_Hall           '-R 3 2"c'
_space_group_name_H-M_alt        'R -3 c :H'
_symmetry_space_group_name_Hall  '-R 3 2"c'
_symmetry_space_group_name_H-M   'R -3 c :H'
_audit_creation_method           SHELXL-2014
_cell_angle_alpha                90
_cell_angle_beta                 90
_cell_angle_gamma                120
_cell_formula_units_Z            6
_cell_length_a                   12.000(3)
_cell_length_b                   12.000(3)
_cell_length_c                   13.147(4)
_cell_measurement_reflns_used    5928
_cell_measurement_temperature    200(2)
_cell_measurement_theta_max      28.493
_cell_measurement_theta_min      3.395
_cell_volume                     1639.5(8)
_computing_structure_refinement  'SHELXL-2014 (Sheldrick, 2014)'
_diffrn_ambient_temperature      200(2)
_diffrn_measured_fraction_theta_full 1.000
_diffrn_measured_fraction_theta_max 0.985
_diffrn_measurement_device_type  'Bruker APEX-II CCD area-detector'
_diffrn_radiation_type           MoK\a
_diffrn_radiation_wavelength     0.71073
_diffrn_reflns_av_R_equivalents  0.0351
_diffrn_reflns_av_unetI/netI     0.0140
_diffrn_reflns_Laue_measured_fraction_full 1.000
_diffrn_reflns_Laue_measured_fraction_max 0.985
_diffrn_reflns_limit_h_max       16
_diffrn_reflns_limit_h_min       -15
_diffrn_reflns_limit_k_max       15
_diffrn_reflns_limit_k_min       -16
_diffrn_reflns_limit_l_max       17
_diffrn_reflns_limit_l_min       -17
_diffrn_reflns_number            5928
_diffrn_reflns_point_group_measured_fraction_full 1.000
_diffrn_reflns_point_group_measured_fraction_max 0.985
_diffrn_reflns_theta_full        25.242
_diffrn_reflns_theta_max         28.493
_diffrn_reflns_theta_min         3.395
_exptl_absorpt_coefficient_mu    10.708
_exptl_crystal_colour            green
_exptl_crystal_density_diffrn    3.958
_exptl_crystal_description       Chunks
_exptl_crystal_F_000             1740
_exptl_crystal_size_max          0.05
_exptl_crystal_size_mid          0.03
_exptl_crystal_size_min          0.02
_refine_diff_density_max         0.412
_refine_diff_density_min         -0.363
_refine_diff_density_rms         0.109
_refine_ls_extinction_coef       0.00017(3)
_refine_ls_extinction_expression Fc^*^=kFc[1+0.001xFc^2^\l^3^/sin(2\q)]^-1/4^
_refine_ls_extinction_method     SHELXL
_refine_ls_goodness_of_fit_ref   1.091
_refine_ls_hydrogen_treatment    undef
_refine_ls_matrix_type           full
_refine_ls_number_parameters     20
_refine_ls_number_reflns         456
_refine_ls_number_restraints     0
_refine_ls_restrained_S_all      1.091
_refine_ls_R_factor_all          0.0120
_refine_ls_R_factor_gt           0.0111
_refine_ls_shift/su_max          0.001
_refine_ls_shift/su_mean         0.000
_refine_ls_structure_factor_coef Fsqd
_refine_ls_weighting_details
'w=1/[\s^2^(Fo^2^)+(0.0114P)^2^+2.5572P] where P=(Fo^2^+2Fc^2^)/3'
_refine_ls_weighting_scheme      calc
_refine_ls_wR_factor_gt          0.0246
_refine_ls_wR_factor_ref         0.0249
_reflns_Friedel_coverage         0.000
_reflns_number_gt                438
_reflns_number_total             456
_reflns_threshold_expression     'I > 2\s(I)'
_cod_data_source_file            ja6b06024_si_002.cif
_cod_data_source_block           MD13E2collect_0m
_cod_depositor_comments
;

2021-10-24
Space group name changed to comply with IUCR recomendations
                 miguel
;
_cod_original_cell_volume        1639.5(10)
_cod_database_code               4125187
_shelx_space_group_comment
;
The symmetry employed for this shelxl refinement is uniquely defined
by the following loop, which should always be used as a source of
symmetry information in preference to the above space-group names.
They are only intended as comments.
;
_shelxl_version_number           2014-3
_shelx_res_file
;
TITL MD13E2collect_0m in C2/c    New: R-3c
CELL  0.71073   12.0000   12.0000   13.1470    90.000    90.000   120.000
ZERR        6    0.0030    0.0030    0.0040     0.000     0.000     0.000
LATT   3
SYMM             - Y ,          X - Y ,              Z
SYMM         - X + Y ,            - X ,              Z
SYMM               Y ,              X ,    0.50000 - Z
SYMM             - X ,        - X + Y ,    0.50000 - Z
SYMM           X - Y ,            - Y ,    0.50000 - Z
SFAC Ca Li  N Te
UNIT    36    0  12  18
L.S. 16
FMAP 2
PLAN -20
ACTA
BOND $H
CONF
WGHT    0.011400    2.557200
EXTI    0.000171
FVAR       0.03928
TE1   4    0.293588    0.333333    0.083333    10.50000    0.00586    0.00614 =
         0.00847   -0.00097   -0.00048    0.00307
N1    3    0.000000    0.000000    0.000000    10.16667    0.00657    0.00657 =
         0.00817    0.00000    0.00000    0.00329
N2    3    0.000000    0.000000    0.250000    10.16667    0.00810    0.00810 =
         0.00652    0.00000    0.00000    0.00405
CA4   1    0.159933    0.021524    0.118464    11.00000    0.00669    0.00922 =
         0.00825    0.00022   -0.00078    0.00425
HKLF 4 1  0.5000  0.5000 -1.0000  0.0000 -1.0000  0.0000 -1.0000  0.0000 -1.0000

REM  MD13E2collect_0m in C2/c    New: R-3c
REM R1 =  0.0111 for     438 Fo > 4sig(Fo)  and  0.0120 for all     456 data
REM     20 parameters refined using      0 restraints

END

WGHT      0.0114      2.5570

REM Highest difference peak  0.412,  deepest hole -0.363,  1-sigma level  0.109
Q1    1   0.1828  0.3180  0.1201  11.00000  0.05    0.41
Q2    1   0.0500  0.2681 -0.0318  11.00000  0.05    0.40
Q3    1   0.4119  0.3625 -0.1842  11.00000  0.05    0.39
Q4    1   0.2831  0.6436  0.1005  11.00000  0.05    0.38
Q5    1   0.1341  0.0434  0.0232  11.00000  0.05    0.36
Q6    1   0.3494  0.6370 -0.0245  11.00000  0.05    0.35
Q7    1   0.2916  0.4026  0.0451  11.00000  0.05    0.34
Q8    1   0.2607  0.2279  0.1235  11.00000  0.05    0.34
Q9    1   0.2692  0.2929  0.1496  11.00000  0.05    0.33
Q10   1   0.5545  0.3333  0.0833  10.50000  0.05    0.33
Q11   1   0.0972  0.1288  0.2870  11.00000  0.05    0.32
Q12   1   0.2884  0.2918 -0.0219  11.00000  0.05    0.32
Q13   1   0.2761  0.0406  0.2040  11.00000  0.05    0.31
Q14   1   0.3420  0.3487  0.3614  11.00000  0.05    0.31
Q15   1   0.1695  0.2593  0.0595  11.00000  0.05    0.30
Q16   1   0.0242  0.0429  0.0417  11.00000  0.05    0.30
Q17   1   0.3182  0.4252 -0.0519  11.00000  0.05    0.28
Q18   1   0.4660  0.3333  0.0833  10.50000  0.05    0.28
Q19   1   0.2220  0.2984  0.2749  11.00000  0.05    0.28
Q20   1   0.4739  0.6651  0.1320  11.00000  0.05    0.28
;
_shelx_res_checksum              32291
_shelx_hkl_file
;
   2   0   0   33.10    1.19
  -2   0   0   31.58    1.07
  -2   0   0   30.53    1.01
   2   0   0   31.68    1.09
   4   0   0   82.66    2.71
   4   0   0   79.51    2.56
  -4   0   0   79.26    2.41
   6   0   0  239.90    6.52
  -6   0   0  233.32    6.43
   6   0   0  227.45    6.64
  -6   0   0  225.67    6.20
  -8   0   0   59.64    2.50
   8   0   0   62.13    2.73
  -8   0   0   58.78    2.32
   8   0   0   61.96    2.55
 -10   0   0  231.53    6.89
  10   0   0  227.75    7.03
  10   0   0  222.07    6.75
  12   0   0   -0.07    0.51
 -12   0   0    1.35    0.62
 -14   0   0    1.89    0.76
   1  -1   0    0.13    0.09
  -1  -1   0   -0.01    0.08
  -1  -1   0    0.16    0.07
  -1   1   0    0.10    0.05
  -1   1   0    0.09    0.07
   1   1   0   -0.09    0.05
   1   1   0   -0.17    0.10
   3  -1   0  486.26   11.88
   3  -1   0  471.34   11.44
  -3  -1   0  487.00   11.55
  -3  -1   0  492.71   11.55
   3   1   0  462.67   11.80
  -3   1   0  463.05   11.44
   3   1   0  471.80   11.67
  -3   1   0  488.42   11.67
  -5  -1   0  177.66    4.98
  -5  -1   0  174.58    5.04
   5  -1   0  188.19    5.44
   5  -1   0  188.59    5.04
  -5   1   0  181.35    4.92
  -5   1   0  182.24    5.19
   5   1   0  186.45    5.22
   5   1   0  186.72    5.30
   7  -1   0  295.64    7.91
   7  -1   0  295.47    8.37
  -7  -1   0  280.48    7.77
  -7  -1   0  283.02    7.92
   7   1   0  295.89    8.10
  -7   1   0  288.88    8.05
  -7   1   0  295.93    7.74
   7   1   0  296.47    8.09
  -9  -1   0  185.60    5.79
   9  -1   0  185.22    5.70
   9  -1   0  193.13    6.23
  -9  -1   0  187.41    5.65
   9   1   0  185.39    5.86
   9   1   0  194.63    5.91
  -9   1   0  194.38    5.95
  11  -1   0   32.38    2.14
 -11  -1   0   31.80    1.96
  11   1   0   33.85    2.06
  11   1   0   31.73    2.01
 -11   1   0   29.38    1.96
 -13  -1   0   69.76    3.32
  13  -1   0   70.27    3.50
 -13   1   0   68.63    3.33
   0  -2   0   35.79    1.01
   0  -2   0   34.06    1.11
   0   2   0   36.77    1.08
   0   2   0   35.18    1.06
  -2  -2   0   56.74    1.71
  -2  -2   0   56.97    1.62
   2  -2   0   56.77    1.63
  -2   2   0   55.06    1.47
   2   2   0   53.63    1.88
   2   2   0   55.32    1.48
  -2   2   0   57.60    1.70
  -4  -2   0   52.74    1.82
  -4  -2   0   54.42    1.78
   4  -2   0   49.62    1.59
   4  -2   0   53.13    1.69
   4   2   0   51.58    1.76
  -4   2   0   52.61    1.86
   4   2   0   49.78    2.04
  -6  -2   0  109.74    3.45
  -6  -2   0  101.76    3.37
   6  -2   0  112.59    3.31
   6  -2   0  107.54    3.85
   6   2   0  108.58    3.44
  -6   2   0  111.36    3.62
   6   2   0  113.91    3.76
  -6   2   0  106.52    3.25
   8  -2   0   39.37    2.24
  -8  -2   0   37.71    1.89
  -8  -2   0   38.13    1.90
   8  -2   0   39.99    1.86
  -8   2   0   41.46    1.78
   8   2   0   41.19    1.97
   8   2   0   39.39    2.07
  -8   2   0   42.29    2.05
  10  -2   0   25.02    1.94
 -10  -2   0   26.10    1.69
 -10   2   0   21.95    1.67
  10   2   0   25.49    1.65
  10   2   0   24.28    1.73
 -12  -2   0    1.74    0.75
  12  -2   0    2.68    0.85
 -12   2   0    1.54    0.70
  12   2   0    2.38    0.81
 -14  -2   0   54.17    2.94
  14  -2   0   51.55    3.10
 -14   2   0   52.02    2.97
   1  -3   0   12.04    0.64
  -1  -3   0   12.31    0.60
   1  -3   0   13.82    0.71
  -1   3   0   12.83    0.53
  -1   3   0   13.01    0.62
   1   3   0   13.45    0.73
  -3  -3   0   -0.21    0.13
   3  -3   0    0.29    0.30
  -3  -3   0    0.11    0.22
   3  -3   0   -0.23    0.15
   3   3   0   -0.30    0.24
   3   3   0    0.22    0.13
  -3   3   0   -0.19    0.14
  -3   3   0    0.02    0.11
   5  -3   0   55.09    1.70
  -5  -3   0   54.54    1.92
  -5  -3   0   51.11    1.99
   5  -3   0   53.71    2.36
   5  -3   0   55.27    1.86
   5   3   0   49.69    1.80
  -5   3   0   52.49    2.05
   5   3   0   53.53    2.30
  -7  -3   0  162.09    4.90
   7  -3   0  164.67    4.69
  -7  -3   0  159.84    4.97
   7  -3   0  165.63    5.53
  -7   3   0  168.31    5.14
   7   3   0  175.01    5.39
   7   3   0  169.68    4.87
  -7   3   0  164.10    4.71
   9  -3   0   18.58    1.82
  -9  -3   0   16.87    1.31
  -9  -3   0   15.35    1.31
   9   3   0   17.95    1.49
  -9   3   0   20.59    1.52
   9   3   0   16.92    1.25
  11  -3   0   97.30    4.21
 -11  -3   0   95.30    3.77
 -11   3   0   92.98    3.91
  11   3   0   95.70    3.92
 -13  -3   0    2.20    0.79
  13  -3   0    3.91    1.10
 -13   3   0    2.66    0.88
  13   3   0    2.59    0.89
   0  -4   0  321.21    8.14
   0  -4   0  330.73    7.93
   0   4   0  328.91    8.03
   0   4   0  320.06    8.01
  -2  -4   0  188.74    4.90
   2  -4   0  190.91    5.18
  -2  -4   0  182.67    5.06
   2  -4   0  186.58    4.98
  -2   4   0  194.00    4.70
  -2   4   0  190.51    5.00
   2   4   0  192.11    5.23
  -4  -4   0    2.40    0.44
   4  -4   0    2.80    0.48
  -4  -4   0    2.33    0.53
   4  -4   0    2.13    0.59
   4   4   0    1.96    0.59
  -4   4   0    1.84    0.41
   4   4   0    3.02    0.30
   6  -4   0   23.73    1.21
   6  -4   0   23.22    1.01
  -6  -4   0   24.68    1.28
   6  -4   0   25.05    1.67
  -6  -4   0   23.66    1.40
  -6   4   0   28.33    1.49
   6   4   0   24.74    1.13
   6   4   0   25.18    1.61
  -8  -4   0   39.49    2.02
   8  -4   0   34.81    2.26
  -8  -4   0   38.02    1.87
   8   4   0   39.12    2.19
  -8   4   0   37.83    2.03
  -8   4   0   34.71    1.65
 -10  -4   0   21.71    1.59
 -10  -4   0   23.56    1.91
  10  -4   0   24.04    1.99
  10   4   0   25.04    1.84
 -10   4   0   28.31    1.91
  12  -4   0    4.99    1.17
 -12  -4   0    4.84    1.01
  12   4   0    4.99    1.09
 -12   4   0    4.20    1.02
   1  -5   0  150.76    4.16
  -1  -5   0  155.89    3.80
   1  -5   0  146.13    4.19
   1   5   0  143.65    4.05
  -1   5   0  149.12    3.94
   1   5   0  155.57    4.24
  -1   5   0  146.78    4.10
   3  -5   0   39.09    1.80
  -3  -5   0   39.82    1.50
   3  -5   0   39.21    1.56
  -3  -5   0   39.13    1.66
  -3   5   0   37.95    1.24
  -3   5   0   38.88    1.59
   3   5   0   40.03    1.81
  -5  -5   0    0.06    0.19
   5  -5   0    0.46    0.28
   5  -5   0    0.45    0.44
  -5  -5   0   -0.04    0.28
   5   5   0    0.11    0.14
  -5   5   0    0.12    0.14
   5   5   0    0.33    0.37
  -5   5   0   -0.03    0.20
  -7  -5   0   17.97    1.33
   7  -5   0   18.97    1.18
  -7  -5   0   19.34    1.22
   7  -5   0   19.97    1.64
  -7   5   0   19.55    1.35
   7   5   0   20.33    1.57
  -9  -5   0  125.31    4.62
  -9  -5   0  138.20    4.53
   9  -5   0  131.75    5.19
  -9   5   0  134.13    4.76
   9   5   0  136.71    4.98
 -11  -5   0   11.30    1.42
  11  -5   0   15.65    1.96
 -11   5   0   12.06    1.58
  11   5   0   15.20    1.78
  13  -5   0   18.35    2.25
  13   5   0   17.61    2.07
 -13   5   0   19.08    2.09
   0  -6   0  115.34    3.55
   0  -6   0  118.46    3.32
   0   6   0  116.04    3.35
   0   6   0  113.88    3.38
  -2  -6   0   75.77    2.07
  -2  -6   0   76.16    2.47
  -2  -6   0   77.27    2.69
   2  -6   0   78.84    2.64
   2  -6   0   81.68    2.79
  -2   6   0   77.54    2.57
   2   6   0   79.91    2.75
  -2   6   0   81.71    2.31
  -4  -6   0   18.25    1.03
   4  -6   0   18.57    1.37
   4  -6   0   17.08    1.06
  -4  -6   0   19.92    1.23
  -4   6   0   17.33    0.76
  -4   6   0   18.08    1.11
   4   6   0   20.06    1.38
   6  -6   0  114.61    3.66
   6  -6   0  114.57    4.35
  -6  -6   0  119.26    3.97
  -6  -6   0  116.80    3.66
  -6   6   0  114.36    3.87
   6   6   0  107.91    4.20
   8  -6   0    0.80    0.64
  -8  -6   0    0.29    0.53
  -8  -6   0    0.16    0.38
   8   6   0   -0.21    0.49
  -8   6   0   -0.25    0.35
 -10  -6   0   45.69    2.62
 -10  -6   0   49.58    2.49
  10  -6   0   48.05    2.96
 -10   6   0   52.57    2.80
  10   6   0   50.88    2.87
 -12  -6   0    1.07    0.67
  12  -6   0    1.44    0.89
  12   6   0    1.00    0.79
 -12   6   0    2.15    0.91
  -1  -7   0   48.23    1.71
   1  -7   0   50.56    2.06
   1  -7   0   54.54    2.07
  -1  -7   0   49.49    2.06
  -1   7   0   50.36    1.79
   1   7   0   55.87    2.06
   1   7   0   49.00    1.88
  -1   7   0   50.21    1.94
  -3  -7   0  121.26    3.63
  -3  -7   0  116.84    3.86
   3  -7   0  117.33    3.75
   3  -7   0  123.58    4.12
   3   7   0  118.36    3.99
  -3   7   0  119.27    3.75
  -3   7   0  120.35    3.31
   5  -7   0  446.06   11.58
  -5  -7   0  459.88   11.53
   5  -7   0  456.08   12.39
  -5  -7   0  452.81   11.94
   5   7   0  425.16   12.19
  -5   7   0  461.34   11.77
  -7  -7   0    0.02    0.49
   7  -7   0    0.44    0.37
  -7  -7   0    0.02    0.32
   7  -7   0   -0.08    0.55
  -7   7   0   -0.35    0.29
   7   7   0    0.30    0.56
  -9  -7   0    5.52    0.91
   9  -7   0    4.68    1.08
  -9  -7   0    5.57    1.14
   9   7   0    6.91    1.33
  -9   7   0    3.24    0.89
 -11  -7   0  136.00    5.09
  11  -7   0  151.18    6.02
 -11   7   0  146.96    5.65
  11   7   0  152.43    5.77
   0  -8   0   91.58    3.10
   0  -8   0   99.79    3.37
   0   8   0   97.43    3.15
   0   8   0   97.01    3.08
  -2  -8   0  452.25   11.96
   2  -8   0  467.40   11.89
   2  -8   0  451.33   12.05
  -2   8   0  467.03   11.36
  -2   8   0  455.63   11.75
   2   8   0  466.77   11.95
   2   8   0  446.43   11.62
   4  -8   0   20.02    1.30
  -4  -8   0   21.37    1.23
  -4  -8   0   19.90    1.40
   4  -8   0   17.53    1.49
   4   8   0   20.86    1.52
  -4   8   0   18.24    1.25
   6  -8   0    5.44    0.83
  -6  -8   0    6.89    1.10
  -6  -8   0    6.80    0.89
   6  -8   0    6.58    1.20
   6   8   0    4.19    0.98
  -6   8   0    5.48    0.87
  -8  -8   0  439.75   11.63
   8  -8   0  433.16   12.72
  -8  -8   0  445.48   12.25
  -8   8   0  432.36   12.03
   8   8   0  415.66   12.44
  10  -8   0    7.98    1.51
 -10  -8   0    8.54    1.49
 -10  -8   0    7.58    1.11
  10   8   0   10.54    1.57
 -10   8   0   10.26    1.43
  12  -8   0   36.51    3.79
 -12   8   0   36.09    2.84
  12   8   0   33.48    2.57
   1  -9   0  289.97    7.98
   1  -9   0  270.63    7.90
  -1  -9   0  289.20    8.02
  -1   9   0  270.52    7.68
  -1   9   0  287.83    7.50
   1   9   0  289.04    7.72
   1   9   0  286.27    7.76
   3  -9   0   53.00    2.61
  -3  -9   0   52.61    2.48
   3  -9   0   57.52    2.43
   3   9   0   54.53    2.52
  -3   9   0   55.26    2.32
   3   9   0   52.95    2.20
   5  -9   0  142.35    5.25
  -5  -9   0  148.50    4.95
  -5  -9   0  144.88    4.49
   5  -9   0  136.46    4.58
   5   9   0  134.01    5.04
  -5   9   0  139.06    4.68
   7  -9   0    0.79    0.74
  -7  -9   0    0.24    0.42
   7  -9   0   -0.18    0.40
  -7  -9   0   -0.46    0.46
   7   9   0    0.93    0.64
  -7   9   0    0.60    0.48
  -9  -9   0    0.71    0.51
  -9  -9   0   -0.88    0.49
   9  -9   0    0.44    0.69
   9   9   0   -0.42    0.59
  -9   9   0    0.32    0.49
  11  -9   0   76.93    4.16
  11   9   0   76.55    3.99
 -11   9   0   75.06    3.82
   0 -10   0   23.55    1.60
   0  10   0   21.94    1.38
   0  10   0   20.96    1.29
  -2 -10   0    2.44    0.71
   2 -10   0    2.95    0.74
   2  10   0    1.79    0.58
   2  10   0    4.07    0.70
  -2  10   0    2.40    0.59
  -4 -10   0    4.15    0.97
   4 -10   0    4.60    1.04
   4 -10   0    2.97    0.73
  -4  10   0    2.27    0.61
   4  10   0    4.64    0.80
   4  10   0    3.22    0.82
   6 -10   0   14.20    1.48
   6 -10   0   15.65    1.90
  -6 -10   0   15.59    1.78
  -6 -10   0   14.38    1.38
  -6  10   0   15.65    1.63
   6  10   0   20.54    2.18
  -8 -10   0  125.47    4.51
  -8 -10   0  127.57    5.09
   8 -10   0  127.54    5.41
   8  10   0  130.96    5.38
  -8  10   0  129.82    4.85
 -10 -10   0    1.60    0.85
  10 -10   0   -0.04    0.75
 -10  10   0    0.23    0.68
  10  10   0    1.16    1.02
  -1 -11   0    1.57    0.65
   1 -11   0    0.78    0.54
  -1  11   0    0.56    0.44
   1  11   0    0.85    0.44
   1  11   0    0.53    0.40
  -3 -11   0   50.04    2.66
   3 -11   0   53.27    2.58
   3  11   0   53.18    2.35
  -3  11   0   53.73    2.48
   3  11   0   51.01    2.63
  -5 -11   0   20.94    2.08
   5 -11   0   22.95    1.72
   5 -11   0   27.50    2.18
  -5  11   0   23.02    1.67
   5  11   0   23.41    1.92
   5  11   0   22.23    1.57
   7 -11   0    0.78    0.78
  -7 -11   0   -0.53    0.58
  -7 -11   0    0.11    0.44
  -7  11   0    0.17    0.52
   7  11   0    0.18    0.70
   9 -11   0   12.22    1.94
  -9 -11   0   16.82    2.08
  -9  11   0   18.98    2.04
   9  11   0   17.46    2.29
   0 -12   0    0.91    0.57
   0  12   0    1.24    0.55
  -2 -12   0    8.61    1.29
   2 -12   0   10.21    1.33
   2  12   0   11.89    1.29
  -2  12   0   11.27    1.29
   2  12   0   10.70    1.27
  -4 -12   0   38.42    2.42
   4 -12   0   31.47    2.08
  -4  12   0   33.31    2.05
   4  12   0   34.12    2.26
   4  12   0   36.54    2.01
   6 -12   0   40.97    2.37
   6 -12   0   45.01    2.95
  -6 -12   0   36.75    2.55
   6  12   0   38.68    2.22
  -6  12   0   36.07    2.30
   6  12   0   41.23    2.78
   8 -12   0   38.36    2.90
  -8 -12   0   30.87    2.55
   8  12   0   31.00    2.59
  -8  12   0   32.02    2.28
   1 -13   0   72.57    3.46
  -1 -13   0   79.96    3.57
   1  13   0   79.24    3.26
  -1  13   0   72.50    3.22
  -3 -13   0    5.03    1.15
   3 -13   0    5.27    1.08
   3  13   0    4.26    1.00
   3  13   0    6.02    1.00
  -3  13   0    4.05    0.90
  -5 -13   0   14.32    1.83
   5 -13   0   13.81    1.66
  -5  13   0   11.58    1.48
   5  13   0   12.71    1.47
   5  13   0   13.74    1.85
  -7 -13   0    8.11    1.56
   7  13   0    8.48    1.65
  -7  13   0    7.66    1.32
   0 -14   0    7.55    1.33
   0  14   0    4.78    1.03
  -2 -14   0   23.35    2.00
   2 -14   0   23.86    1.95
   2  14   0   23.51    1.76
  -2  14   0   22.40    1.76
  -4 -14   0    0.22    0.64
   4 -14   0   -0.12    0.59
  -4  14   0   -0.18    0.41
   4  14   0   -0.77    0.41
   4  14   0    0.28    0.62
   6  14   0   21.61    2.39
  -6  14   0   16.01    2.13
  -1 -15   0    2.45    0.96
   1 -15   0    1.08    0.75
   1  15   0    0.71    0.62
  -1  15   0    2.38    0.82
   3 -15   0  201.64    7.03
  -3  15   0  194.86    6.76
   3  15   0  197.44    8.22
   5 -15   0   29.62    2.37
   5  15   0   30.91    2.52
   0  16   0  111.60    5.22
 -14   0   1    0.73    0.56
 -12   0   1    0.71    0.54
  12   0  -1    0.07    0.52
  10   0  -1    0.53    0.52
  10   0  -1    0.20    0.47
 -10   0   1    0.26    0.45
   8   0  -1    0.80    0.46
  -8   0   1   -0.12    0.28
   8   0  -1    0.40    0.39
   6   0  -1   -0.07    0.29
  -6   0   1    0.01    0.29
  -6   0   1    0.05    0.25
   6   0  -1   -0.25    0.26
  -4   0   1    0.09    0.16
  -4   0   1   -0.02    0.21
   4   0  -1    0.11    0.20
   4   0  -1    0.21    0.22
  -2   0   1    0.08    0.14
  -2   0   1   -0.05    0.07
   2   0  -1    0.12    0.14
  -2   0   1    0.13    0.15
   0   0   1    0.20    0.08
   0   0   1    0.09    0.05
   0   0  -1   -0.01    0.09
   0   0   1    0.07    0.07
   2   0   1   -0.82    0.19
  -2   0  -1   -1.13    0.15
  -2   0  -1   -1.22    0.22
   2   0   1   -0.99    0.23
   4   0   1   -0.05    0.20
  -4   0  -1    0.03    0.19
   4   0   1    0.34    0.27
  -4   0  -1    0.08    0.21
   6   0   1    1.19    0.38
   6   0   1    0.36    0.37
  -6   0  -1    1.32    0.46
  -6   0  -1   -0.30    0.19
  -8   0  -1    0.13    0.34
   8   0   1    0.38    0.41
   8   0   1   -0.44    0.27
  -8   0  -1    0.28    0.31
 -10   0  -1    0.31    0.45
  10   0   1    0.21    0.43
 -10   0  -1   -0.29    0.37
 -12   0  -1   -0.59    0.41
  12   0   1   -0.40    0.50
  14   0   1   -0.21    0.59
 -14   0  -1    0.33    0.56
 -13  -1   1   30.06    2.12
  13  -1  -1   25.75    2.10
 -13   1   1   28.01    2.05
  11  -1  -1  132.73    5.01
 -11  -1   1  131.64    4.73
 -11   1   1  128.83    4.71
  11   1  -1  124.32    4.69
  11   1  -1  130.84    4.75
   9  -1  -1   37.71    1.98
  -9  -1   1   34.99    1.94
   9  -1  -1   30.34    2.01
   9   1  -1   39.70    2.19
  -9   1   1   33.81    1.94
   9   1  -1   34.85    2.01
  -7  -1   1  132.42    4.24
   7  -1  -1  130.85    4.09
  -7  -1   1  127.05    3.81
   7  -1  -1  132.82    4.37
   7   1  -1  131.89    4.25
   7   1  -1  134.40    4.38
  -7   1   1  136.53    3.74
  -7   1   1  128.13    4.29
   5  -1  -1   -0.22    0.22
   5  -1  -1    0.02    0.20
  -5  -1   1    0.33    0.23
  -5  -1   1   -0.07    0.24
   5   1  -1    0.24    0.26
  -5   1   1    0.32    0.21
  -5   1   1    0.15    0.25
   5   1  -1    0.52    0.36
  -3  -1   1   10.66    0.61
   3  -1  -1    9.49    0.61
  -3  -1   1    9.43    0.46
  -3   1   1    9.18    0.53
   3   1  -1    8.84    0.50
   1  -1  -1   33.08    1.03
  -1  -1   1   31.21    1.03
  -1  -1   1   32.56    0.96
   1  -1  -1   32.34    0.89
  -1   1   1   32.25    1.03
   1   1  -1   32.04    0.92
  -1  -1  -1   31.13    1.10
   1  -1   1   30.84    1.05
  -1  -1  -1   31.24    0.81
   1  -1   1   30.20    1.05
   1   1   1   30.32    1.01
  -1   1  -1   34.05    0.96
   1   1   1   31.52    0.98
  -3  -1  -1  273.23    7.13
   3  -1   1  290.66    6.77
   3  -1   1  259.04    7.22
  -3  -1  -1  268.26    6.82
   3   1   1  283.96    7.05
   3   1   1  280.80    6.98
  -3   1  -1  282.89    6.90
  -3   1  -1  272.58    7.00
   5  -1   1  117.18    3.43
  -5  -1  -1  117.12    3.48
   5  -1   1  129.34    3.97
  -5  -1  -1  114.84    3.65
  -5   1  -1  122.79    3.61
   5   1   1  115.51    3.67
  -5   1  -1  123.94    3.60
   5   1   1  109.48    3.64
   7  -1   1    1.91    0.50
  -7  -1  -1    1.78    0.52
   7  -1   1    2.81    0.68
  -7  -1  -1    1.42    0.39
   7   1   1    1.70    0.51
   7   1   1    1.95    0.55
  -7   1  -1    0.78    0.41
  -7   1  -1    2.55    0.55
  -9  -1  -1    3.99    0.73
   9  -1   1    2.83    0.78
  -9  -1  -1    4.38    0.84
  -9   1  -1    2.84    0.69
   9   1   1    3.39    0.74
  -9   1  -1    3.18    0.73
   9   1   1    2.04    0.64
 -11  -1  -1   24.18    1.68
  11  -1   1   26.12    1.95
 -11   1  -1   25.30    1.72
  11   1   1   22.79    1.72
 -13  -1  -1    2.30    0.76
  13  -1   1    1.94    0.85
 -13   1  -1    5.21    1.13
  14  -2  -1  160.60    6.14
 -14  -2   1  150.91    5.78
 -14   2   1  161.38    5.93
 -12  -2   1   18.83    1.87
  12  -2  -1   18.15    2.01
 -12   2   1   19.08    1.90
  12   2  -1   17.81    1.81
  10  -2  -1   10.37    1.48
 -10  -2   1    8.55    1.13
 -10   2   1    6.06    1.03
  10   2  -1    8.80    1.26
  10   2  -1    9.68    1.17
   8  -2  -1  148.89    5.08
  -8  -2   1  140.58    4.37
  -8  -2   1  145.25    4.73
   8  -2  -1  148.10    4.53
  -8   2   1  152.08    4.91
   8   2  -1  155.80    5.07
   8   2  -1  142.20    4.68
   6  -2  -1   17.75    1.20
  -6  -2   1   18.02    1.12
  -6  -2   1   17.62    0.97
   6  -2  -1   15.89    0.95
  -6   2   1   19.06    1.25
   6   2  -1   18.12    1.30
   6   2  -1   18.41    1.11
  -4  -2   1  997.99   22.88
   4  -2  -1  946.79   22.67
   4  -2  -1  963.49   23.19
  -4  -2   1  965.29   23.06
  -4   2   1  947.05   22.89
  -4   2   1  943.57   23.24
   4   2  -1  989.06   22.89
   4   2  -1  973.55   23.48
  -2  -2   1   13.01    0.61
  -2  -2   1   12.10    0.61
   2  -2  -1   12.12    0.66
   2  -2  -1   11.67    0.50
   2   2  -1   12.89    0.80
  -2   2   1   12.54    0.58
   2   2  -1   11.51    0.45
  -2   2   1   13.33    0.68
   0  -2   1    0.01    0.12
   0  -2   1    0.07    0.19
   0  -2  -1    0.06    0.13
   0  -2  -1    0.17    0.18
   0  -2   1    0.02    0.14
   0   2   1    0.03    0.15
   0   2  -1   -0.03    0.16
   0   2   1    0.02    0.10
  -2  -2  -1  471.04   11.41
   2  -2   1  435.63   11.49
  -2  -2  -1  481.68   11.03
   2  -2   1  458.86   11.30
  -2   2  -1  475.21   11.22
   2   2   1  457.72   11.14
   2   2   1  479.96   11.38
  -4  -2  -1   -0.22    0.23
   4  -2   1    0.49    0.37
  -4  -2  -1   -0.16    0.15
   4  -2   1   -0.10    0.14
   4   2   1    0.06    0.27
   4   2   1   -0.12    0.19
  -4   2  -1    1.25    0.32
   6  -2   1    1.89    0.39
   6  -2   1    2.12    0.64
  -6  -2  -1    1.46    0.38
  -6  -2  -1    1.87    0.55
  -6   2  -1    1.02    0.39
   6   2   1    2.12    0.49
  -6   2  -1    2.57    0.52
   6   2   1    1.21    0.48
   8  -2   1   99.85    3.84
  -8  -2  -1   90.92    3.30
  -8  -2  -1   96.95    3.53
  -8   2  -1   95.83    3.40
   8   2   1  103.87    3.72
   8   2   1   98.52    3.50
  -8   2  -1   98.13    3.55
  10  -2   1   23.95    1.86
 -10  -2  -1   21.88    1.64
 -10  -2  -1   23.96    1.57
  10   2   1   21.85    1.58
 -10   2  -1   19.15    1.54
  10   2   1   20.37    1.62
  12  -2   1  159.45    5.89
 -12  -2  -1  161.27    5.49
 -12   2  -1  163.30    5.60
  14  -2   1   33.71    2.52
 -14   2  -1   39.41    2.47
 -13  -3   1   21.68    2.09
  13  -3  -1   25.20    2.56
 -13   3   1   18.49    2.01
  13   3  -1   19.08    2.00
  11  -3  -1  125.13    5.11
 -11  -3   1  124.53    4.61
 -11   3   1  121.86    4.70
  11   3  -1  123.13    4.73
  -9  -3   1   50.48    2.38
   9  -3  -1   48.82    2.68
   9   3  -1   45.66    2.16
   9   3  -1   52.13    2.62
  -9   3   1   51.13    2.51
   7  -3  -1  109.14    3.40
   7  -3  -1  107.24    3.94
  -7  -3   1  111.37    3.70
  -7  -3   1  110.70    3.49
   7   3  -1  113.63    3.56
   7   3  -1  109.75    4.03
  -7   3   1  112.63    3.90
   5  -3  -1  416.76   10.03
  -5  -3   1  426.30   10.45
   5  -3  -1  393.27   10.62
  -5  -3   1  411.34   10.28
   5   3  -1  396.42   10.92
  -5   3   1  418.23   10.18
   5   3  -1  415.13   10.25
  -5   3   1  410.38   10.60
  -3  -3   1  189.66    4.90
  -3  -3   1  185.58    4.87
   3  -3  -1  188.31    4.70
  -3   3   1  180.65    4.95
  -3   3   1  186.12    4.76
   3   3  -1  183.40    5.34
   3   3  -1  188.82    4.56
  -1  -3   1  475.61   11.20
  -1  -3   1  485.03   10.88
   1  -3  -1  471.51   11.19
  -1  -3   1  468.60   11.24
   1  -3  -1  474.11   11.15
   1   3  -1  388.15   11.33
  -1   3   1  465.50   11.12
  -1   3   1  469.58   11.15
   1  -3   1    9.52    0.63
   1  -3   1    8.86    0.59
   1   3   1    8.42    0.58
  -1   3  -1    9.41    0.54
  -1   3  -1    9.32    0.39
  -3  -3  -1   51.41    1.92
   3  -3   1   53.89    1.83
  -3  -3  -1   53.39    1.60
   3  -3   1   49.36    2.11
  -3   3  -1   53.13    1.78
   3   3   1   52.52    1.96
   3   3   1   51.21    1.60
   5  -3   1  555.16   14.07
   5  -3   1  562.00   12.88
   5  -3   1  529.84   13.35
  -5  -3  -1  551.41   13.17
  -5  -3  -1  550.58   13.64
  -5   3  -1  514.96   13.32
   5   3   1  547.31   13.22
   5   3   1  484.36   13.66
  -7  -3  -1  134.86    4.54
  -7  -3  -1  144.36    4.27
   7  -3   1  141.03    4.88
   7   3   1  140.04    4.32
  -7   3  -1  132.39    4.38
   7   3   1  142.82    4.73
  -7   3  -1  142.94    4.32
  -9  -3  -1   86.72    3.49
  -9  -3  -1   84.88    3.24
   9  -3   1   91.44    3.78
   9   3   1   85.36    3.53
  -9   3  -1   83.45    3.25
  -9   3  -1   89.68    3.50
   9   3   1   90.62    3.33
 -11  -3  -1  121.24    4.48
  11  -3   1  126.27    5.03
  11   3   1  130.14    4.81
 -11   3  -1  132.04    4.79
  13  -3   1   23.20    2.40
 -13   3  -1   18.96    1.95
 -14  -4   1   86.45    4.03
  14  -4  -1   82.86    5.57
  14   4  -1   81.43    3.94
 -12  -4   1    4.52    1.02
  12  -4  -1    1.86    0.88
  12   4  -1    2.40    0.89
 -12   4   1    3.14    0.97
  10  -4  -1    1.18    0.76
 -10  -4   1    2.01    0.66
 -10   4   1    3.12    0.82
  10   4  -1    2.10    0.78
  -8  -4   1   74.59    2.95
   8  -4  -1   71.51    3.29
  -8  -4   1   73.18    2.84
   8  -4  -1   80.83    3.52
   8   4  -1   75.55    3.28
  -8   4   1   76.06    3.17
   6  -4  -1  195.52    5.24
  -6  -4   1  201.17    5.61
  -6  -4   1  194.43    5.51
   6  -4  -1  193.87    5.93
   6   4  -1  197.75    5.27
  -6   4   1  204.78    5.31
   6   4  -1  196.92    6.13
  -6   4   1  195.06    5.80
  -4  -4   1   38.72    1.54
   4  -4  -1   38.38    1.69
   4  -4  -1   39.54    1.40
  -4  -4   1   38.25    1.54
   4   4  -1   40.12    1.94
  -4   4   1   40.46    1.38
   4   4  -1   37.39    1.19
  -4   4   1   38.45    1.60
   2  -4  -1   -0.60    0.16
   2  -4  -1   -0.35    0.18
  -2  -4   1   -0.40    0.22
  -2  -4   1   -0.38    0.15
  -2   4   1   -0.29    0.15
  -2   4   1   -0.45    0.15
   2   4  -1    0.70    0.37
   0  -4  -1  467.08   11.45
   0  -4   1  481.27   11.28
   0  -4   1  451.79   11.48
   0  -4  -1  461.29   11.23
   0   4   1  461.39   11.24
   0   4  -1  481.48   11.41
   0   4  -1  476.48   11.34
   0   4   1  458.69   11.40
  -2  -4  -1 1000.00   22.53
  -2  -4  -1  938.05   22.88
   2  -4   1  840.71   23.05
   2  -4   1  945.60   22.82
  -2   4  -1  980.73   22.77
  -2   4  -1  981.21   22.24
   2   4   1  969.08   22.43
   2   4   1  970.49   22.94
  -4  -4  -1   53.70    1.78
   4  -4   1   55.19    2.02
   4  -4   1   58.59    2.50
  -4  -4  -1   53.84    2.14
   4   4   1   52.92    1.70
   4   4   1   53.01    2.23
  -4   4  -1   54.46    2.00
   6  -4   1    0.08    0.43
  -6  -4  -1    2.46    0.48
   6  -4   1   -0.11    0.33
  -6  -4  -1    0.30    0.43
   6   4   1   -0.40    0.19
  -6   4  -1   -0.26    0.24
   6   4   1    0.38    0.43
  -8  -4  -1  101.30    3.40
   8  -4   1  107.16    4.13
  -8  -4  -1   89.69    3.63
   8   4   1  104.38    3.97
  -8   4  -1   99.12    3.61
   8   4   1   87.19    3.24
  -8   4  -1   97.70    3.39
 -10  -4  -1  209.13    6.47
 -10  -4  -1  215.08    6.85
  10  -4   1  213.27    7.17
 -10   4  -1  212.45    6.83
  10   4   1  221.21    7.02
  12  -4   1   67.85    3.57
 -12   4  -1   66.30    3.33
  12   4   1   72.26    3.40
  13  -5  -1   81.54    4.31
 -13  -5   1   74.70    3.61
  13   5  -1   77.96    3.80
 -13   5   1   77.73    3.85
 -11  -5   1    2.75    0.79
  11  -5  -1    3.39    1.05
 -11   5   1    2.82    0.87
  11   5  -1    2.16    0.81
   9  -5  -1  232.01    7.60
  -9  -5   1  221.35    6.82
  -9  -5   1  226.36    6.89
  -9   5   1  231.56    7.24
   9   5  -1  239.17    7.42
  -7  -5   1    3.90    0.74
   7  -5  -1    2.55    0.70
  -7  -5   1    2.70    0.60
  -7   5   1    2.09    0.57
   7   5  -1    2.81    0.80
   5  -5  -1   18.59    1.26
   5  -5  -1   17.12    0.93
  -5  -5   1   18.20    1.11
  -5  -5   1   17.51    1.05
  -5   5   1   18.65    0.90
  -5   5   1   17.96    1.14
   5   5  -1   15.50    1.27
   3  -5  -1  251.90    6.85
  -3  -5   1  257.28    6.71
   3  -5  -1  257.31    6.62
  -3  -5   1  255.88    6.80
  -3   5   1  262.94    6.52
  -3   5   1  256.11    6.75
   3   5  -1  250.52    7.14
  -1  -5   1   89.83    2.82
  -1  -5   1   89.68    2.32
   1  -5  -1   89.30    2.76
  -1  -5   1   91.36    2.74
   1  -5  -1   89.51    2.67
   1   5  -1   92.02    2.83
  -1   5   1   85.87    2.63
  -1   5   1   90.81    2.66
   1  -5   1  201.64    5.81
  -1  -5  -1  215.90    5.39
   1  -5   1  216.15    5.80
   1   5   1  218.19    5.50
  -1   5  -1  219.78    5.40
  -1   5  -1  214.41    5.68
   1   5   1  220.76    5.78
   3  -5   1  400.08   10.29
  -3  -5  -1  407.42   10.42
  -3  -5  -1  403.86    9.97
   3  -5   1  400.19   10.77
  -3   5  -1  391.97    9.54
   3   5   1  421.81   10.61
  -3   5  -1  413.55   10.28
   5  -5   1   22.44    1.30
  -5  -5  -1   26.47    1.18
  -5  -5  -1   24.99    1.47
   5  -5   1   25.37    1.70
   5   5   1   24.73    1.03
  -5   5  -1   24.07    1.32
   5   5   1   23.88    1.55
   7  -5   1  368.13    9.70
   7  -5   1  390.72   10.62
  -7  -5  -1  356.37   10.04
  -7  -5  -1  363.36    9.48
  -7   5  -1  348.59    9.78
   7   5   1  344.31   10.20
  -9  -5  -1    4.82    1.01
   9  -5   1    4.52    1.07
  -9  -5  -1    4.03    0.77
   9   5   1    6.05    1.12
  -9   5  -1    3.59    0.79
  -9   5  -1    4.34    0.88
 -11  -5  -1    4.67    1.09
  11  -5   1    5.50    1.20
 -11   5  -1    4.80    1.05
  11   5   1    4.40    1.06
  13  -5   1   58.23    3.44
  13   5   1   63.33    3.35
 -13   5  -1   63.53    3.42
  12  -6  -1  124.67    5.53
 -12  -6   1  124.64    4.86
  12   6  -1  127.14    5.12
 -12   6   1  120.79    5.01
 -10  -6   1    0.03    0.42
  10  -6  -1    0.26    0.62
  10   6  -1    0.71    0.64
 -10   6   1    0.00    0.47
  -8  -6   1    1.13    0.56
  -8  -6   1    0.83    0.45
   8  -6  -1    0.95    0.65
   8   6  -1    0.82    0.63
  -8   6   1    0.47    0.46
   6  -6  -1  451.83   12.18
  -6  -6   1  445.31   11.61
   6  -6  -1  451.84   11.35
  -6  -6   1  459.14   11.77
   6   6  -1  446.75   12.30
  -6   6   1  445.82   11.84
   4  -6  -1    0.20    0.22
  -4  -6   1    0.07    0.19
  -4  -6   1    0.03    0.28
   4  -6  -1   -0.23    0.24
  -4   6   1    0.75    0.33
  -4   6   1    0.18    0.15
   4   6  -1   -0.67    0.27
  -2  -6   1  124.40    3.69
   2  -6  -1  122.49    3.69
   2  -6  -1  126.19    3.73
  -2  -6   1  128.01    3.86
  -2   6   1  121.86    3.65
  -2   6   1  125.78    3.54
   2   6  -1  125.33    3.91
   0  -6  -1   96.79    2.86
   0  -6  -1   97.18    3.15
   0  -6   1  100.91    3.20
   0  -6   1   99.28    2.93
   0   6  -1   98.81    3.07
   0   6  -1  100.91    2.96
   0   6   1  105.85    3.10
   0   6   1  101.78    2.97
   2  -6   1    4.48    0.67
  -2  -6  -1    3.99    0.64
   2  -6   1    4.29    0.73
  -2   6  -1    4.66    0.36
   2   6   1    4.79    0.66
   2   6   1    5.27    0.57
  -2   6  -1    4.70    0.60
   4  -6   1  199.75    6.21
   4  -6   1  204.90    5.69
  -4  -6  -1  202.50    5.36
  -4  -6  -1  196.54    5.80
   4   6   1  197.74    6.07
   4   6   1  182.36    4.97
  -4   6  -1  205.12    5.69
   6  -6   1   19.54    1.90
  -6  -6  -1   17.71    1.09
   6  -6   1   20.63    1.34
  -6  -6  -1   20.44    1.49
  -6   6  -1   18.78    1.28
   6   6   1   16.64    1.64
  -8  -6  -1    0.11    0.30
   8  -6   1    0.36    0.54
  -8  -6  -1    0.85    0.63
  -8   6  -1    0.39    0.40
   8   6   1    0.69    0.60
  10  -6   1  141.02    5.54
 -10  -6  -1  143.41    5.38
 -10   6  -1  137.38    5.18
  10   6   1  154.42    5.55
  12  -6   1   30.00    2.45
 -12   6  -1   27.95    2.61
  12   6   1   28.52    2.28
 -13  -7   1   16.63    1.97
  11  -7  -1   13.70    2.00
 -11  -7   1   13.58    1.65
 -11   7   1   13.08    1.74
  11   7  -1   12.21    1.69
  -9  -7   1   40.89    2.18
   9  -7  -1   36.05    2.54
  -9  -7   1   34.92    2.17
  -9   7   1   38.64    2.31
   9   7  -1   41.52    2.54
  -7  -7   1    5.79    0.87
   7  -7  -1    4.95    1.05
  -7  -7   1    5.62    0.91
  -7   7   1    4.23    0.80
   7   7  -1    5.71    1.12
  -5  -7   1  170.43    5.24
  -5  -7   1  178.47    5.11
   5  -7  -1  171.46    4.93
   5  -7  -1  173.34    5.45
  -5   7   1  169.87    4.65
   5   7  -1  163.04    5.55
  -5   7   1  168.11    5.17
   3  -7  -1  108.78    3.41
  -3  -7   1  106.20    3.53
   3  -7  -1  105.82    3.52
  -3  -7   1  104.18    3.35
  -3   7   1  105.92    3.39
  -3   7   1  106.05    3.13
   3   7  -1   99.16    3.65
  -1  -7   1   18.21    1.19
  -1  -7   1   19.72    0.78
   1  -7  -1   18.76    1.03
   1  -7  -1   20.04    1.17
  -1   7   1   18.08    1.01
   1   7  -1   20.08    1.13
   1   7  -1   20.26    1.12
  -1   7   1   17.44    0.99
   1  -7   1   82.94    2.89
   1  -7   1   76.16    2.81
  -1  -7  -1   79.25    2.84
  -1  -7  -1   82.37    2.41
  -1   7  -1   84.23    2.76
  -1   7  -1   80.38    2.44
   1   7   1   80.56    2.59
   1   7   1   83.39    2.80
  -3  -7  -1   25.18    1.18
   3  -7   1   24.99    1.64
   3  -7   1   23.53    1.39
  -3  -7  -1   24.89    1.48
  -3   7  -1   24.16    1.35
   3   7   1   26.80    1.58
   5  -7   1    3.21    0.65
  -5  -7  -1    3.70    0.78
  -5  -7  -1    3.25    0.53
   5  -7   1    3.51    0.88
   5   7   1    2.20    0.74
  -5   7  -1    3.44    0.68
  -7  -7  -1    0.36    0.55
   7  -7   1    0.65    0.64
  -7  -7  -1   -0.05    0.30
   7  -7   1    0.21    0.39
   7   7   1    1.72    0.79
  -7   7  -1    0.33    0.36
  -9  -7  -1   35.01    2.31
   9  -7   1   33.55    2.40
  -9   7  -1   37.41    2.21
   9   7   1   36.83    2.49
  11  -7   1   28.59    2.36
 -11  -7  -1   29.50    2.31
 -11   7  -1   31.90    2.28
  11   7   1   30.07    2.38
 -12  -8   1   10.99    1.60
  12  -8  -1    9.57    1.83
 -12   8   1   10.74    1.71
  12   8  -1   10.75    1.70
 -10  -8   1    0.13    0.46
  10  -8  -1    0.23    0.69
  10   8  -1    0.29    0.64
 -10   8   1   -0.11    0.53
  -8  -8   1    0.38    0.41
   8  -8  -1    0.45    0.65
  -8  -8   1    1.76    0.71
   8   8  -1   -0.25    0.56
  -8   8   1    0.59    0.55
  -6  -8   1    0.42    0.45
   6  -8  -1    0.43    0.53
   6  -8  -1   -0.22    0.31
  -6  -8   1    0.22    0.33
  -6   8   1   -0.18    0.35
   6   8  -1   -0.63    0.46
  -4  -8   1   -0.43    0.18
   4  -8  -1    0.25    0.38
  -4  -8   1    0.73    0.46
   4  -8  -1   -0.20    0.25
   4   8  -1    0.65    0.44
  -4   8   1    0.07    0.27
  -4   8   1    0.17    0.21
   2  -8  -1   48.77    2.07
   2  -8  -1   50.11    2.13
  -2  -8   1   45.28    2.14
  -2   8   1   51.01    1.89
  -2   8   1   49.56    2.01
   2   8  -1   51.09    2.17
   2   8  -1   49.82    2.06
   0  -8   1    0.98    0.43
   0  -8  -1    0.83    0.32
   0  -8   1    1.22    0.35
   0  -8  -1    1.26    0.44
   0   8  -1    0.86    0.31
   0   8  -1    1.14    0.39
   0   8   1    1.05    0.39
   0   8   1    1.24    0.36
  -2  -8  -1   63.44    2.56
   2  -8   1   56.37    2.60
   2  -8   1   63.20    2.54
  -2   8  -1   65.20    2.44
   2   8   1   64.01    2.24
   2   8   1   61.60    2.54
  -2   8  -1   62.73    2.06
  -4  -8  -1   54.79    2.54
   4  -8   1   55.56    2.42
  -4  -8  -1   59.46    2.15
   4  -8   1   54.65    2.77
  -4   8  -1   56.76    2.41
   4   8   1   55.47    2.65
   6  -8   1    0.06    0.42
  -6  -8  -1    0.15    0.49
   6  -8   1    1.10    0.67
  -6  -8  -1    0.35    0.35
  -6   8  -1    0.49    0.39
   6   8   1    1.00    0.62
  -8  -8  -1    6.48    1.23
   8  -8   1    4.40    0.88
   8  -8   1    3.27    0.99
   8   8   1    6.45    1.34
  -8   8  -1    3.56    0.83
  10  -8   1   -0.40    0.58
 -10  -8  -1   -0.03    0.64
 -10   8  -1    0.27    0.58
  10   8   1    0.88    0.78
  12   8   1   -0.26    0.68
 -12   8  -1    0.12    1.02
 -11  -9   1   -0.12    0.49
  11  -9  -1    2.05    1.05
  11   9  -1   -0.94    0.61
 -11   9   1    0.93    0.74
  -9  -9   1  129.47    4.68
  -9  -9   1  122.49    4.93
   9  -9  -1  125.86    5.40
   9   9  -1  127.14    5.24
  -9   9   1  129.36    4.94
  -7  -9   1   10.57    1.26
  -7  -9   1   10.81    1.45
   7  -9  -1   11.22    1.63
   7   9  -1   11.30    1.61
  -7   9   1   11.27    1.36
  -5  -9   1    0.29    0.37
  -5  -9   1    0.55    0.52
   5  -9  -1   -0.07    0.45
   5  -9  -1   -0.13    0.33
   5   9  -1   -0.18    0.52
  -5   9   1    0.17    0.38
   3  -9  -1   44.28    2.07
  -3  -9   1   42.32    2.17
   3  -9  -1   46.57    2.18
  -3   9   1   43.79    1.79
   3   9  -1   43.35    2.18
  -3   9   1   42.21    2.00
  -1  -9   1   -0.13    0.30
   1  -9  -1   -0.08    0.28
   1  -9  -1    0.03    0.32
   1   9  -1    0.76    0.38
   1   9  -1    0.08    0.31
  -1   9   1    0.48    0.33
  -1   9   1    0.14    0.25
   1  -9   1   83.24    3.16
  -1  -9  -1   83.32    3.16
   1   9   1   79.28    2.79
  -1   9  -1   79.93    2.99
  -1   9  -1   79.60    2.64
   1   9   1   84.14    3.02
   3  -9   1    2.11    0.65
  -3  -9  -1    2.20    0.62
   3  -9   1    1.35    0.63
   3   9   1    3.17    0.74
   3   9   1    2.61    0.53
  -3   9  -1    2.50    0.62
  -5  -9  -1   14.98    1.66
   5  -9   1   21.01    1.51
   5  -9   1   20.17    2.02
  -5  -9  -1   17.70    1.16
  -5   9  -1   17.21    1.36
   5   9   1   18.01    1.82
   7  -9   1   40.11    2.62
  -7  -9  -1   43.51    2.59
   7  -9   1   37.85    2.17
   7   9   1   36.87    2.53
  -7   9  -1   39.26    2.21
   9  -9   1    7.51    1.44
  -9  -9  -1    7.79    1.44
   9   9   1   10.30    1.60
  -9   9  -1    7.85    1.28
 -11  -9  -1    6.58    1.44
  11  -9   1    7.10    1.53
 -11   9  -1    6.43    1.34
  11   9   1    6.93    1.51
 -10 -10   1   19.74    3.32
 -10 -10   1   16.84    1.87
  10 -10  -1   18.52    2.41
 -10  10   1   14.39    1.80
  10  10  -1   17.62    2.17
  -8 -10   1   -0.20    0.55
   8 -10  -1   -0.49    0.50
  -8 -10   1   -0.34    0.34
  -8  10   1    0.21    0.48
   8  10  -1   -0.10    0.60
  -6 -10   1  184.85    6.03
  -6 -10   1  179.96    5.60
   6 -10  -1  172.11    6.26
   6  10  -1  168.85    6.16
  -6  10   1  166.13    5.67
  -4 -10   1   15.90    1.59
   4 -10  -1   14.70    1.25
   4 -10  -1   16.20    1.62
  -4  10   1   14.57    1.37
   4  10  -1   15.37    1.62
  -2 -10   1   50.34    2.49
   2 -10  -1   48.76    2.35
   2 -10  -1   54.68    2.41
  -2  10   1   50.39    2.08
  -2  10   1   49.43    2.24
   2  10  -1   49.23    2.25
   2  10  -1   59.02    2.47
   0 -10  -1  132.24    4.46
   0 -10   1  129.13    4.52
   0  10  -1  130.65    4.26
   0  10   1  126.83    4.09
   0  10  -1  127.56    4.02
   0  10   1  129.62    4.18
  -2 -10  -1    0.36    0.48
   2 -10   1   -0.07    0.39
   2  10   1    0.22    0.32
   2  10   1   -0.08    0.34
  -2  10  -1    0.66    0.41
   4 -10   1  183.90    6.37
  -4 -10  -1  193.40    6.23
   4 -10   1  192.13    6.09
   4  10   1  195.62    5.68
  -4  10  -1  188.24    5.98
   4  10   1  193.60    6.32
   6 -10   1   46.66    2.84
  -6 -10  -1   49.70    2.71
   6 -10   1   45.51    2.42
   6  10   1   46.50    2.84
  -6  10  -1   44.18    2.41
  -8 -10  -1   -0.28    0.63
   8 -10   1   -0.54    0.60
  -8  10  -1    0.08    0.48
   8  10   1    0.51    0.69
  10 -10   1   74.13    3.99
 -10 -10  -1   67.38    3.87
 -10  10  -1   72.57    3.67
  10  10   1   77.32    4.08
  -9 -11   1   71.13    3.36
  -9 -11   1   75.19    3.84
   9 -11  -1   70.55    4.04
  -9  11   1   76.20    3.66
   9  11  -1   68.07    3.83
  -7 -11   1   18.72    1.80
   7 -11  -1   20.66    2.23
  -7 -11   1   19.81    2.06
   7  11  -1   17.27    2.02
  -7  11   1   18.49    1.88
  -5 -11   1   29.46    2.02
   5 -11  -1   27.27    2.16
   5 -11  -1   22.94    1.62
  -5  11   1   24.86    1.71
   5  11  -1   27.05    2.05
   3 -11  -1  353.01    9.77
  -3 -11   1  348.47    9.99
   3  11  -1  339.70    9.59
   3  11  -1  351.75    9.89
  -3  11   1  342.86    9.64
   1 -11  -1   43.70    2.29
  -1 -11   1   41.95    2.30
  -1  11   1   42.33    2.06
   1  11  -1   41.00    2.02
   1  11  -1   43.77    2.13
  -1  11   1   40.26    1.94
   1 -11   1   52.46    2.59
  -1 -11  -1   47.14    2.49
  -1  11  -1   49.13    2.33
   1  11   1   50.83    2.38
   1  11   1   46.17    2.17
   3 -11   1  117.32    4.28
  -3 -11  -1  111.27    4.30
  -3  11  -1  104.13    4.01
   3  11   1  106.61    3.75
   3  11   1  110.08    4.19
   5 -11   1  101.57    4.05
   5 -11   1  106.99    4.45
  -5 -11  -1  103.83    4.30
   5  11   1  110.77    4.47
  -5  11  -1   96.68    3.96
   7 -11   1  156.21    5.87
   7 -11   1  140.18    5.13
  -7 -11  -1  148.12    5.68
  -7  11  -1  149.27    5.32
   7  11   1  139.88    5.83
   9 -11   1    0.22    0.70
  -9 -11  -1   -0.88    0.69
  -9  11  -1    1.52    0.79
   9  11   1   -0.86    0.64
 -10 -12   1   -0.17    0.93
  -8 -12   1   44.98    3.01
  -8 -12   1   47.62    2.66
   8 -12  -1   49.25    3.33
  -8  12   1   48.32    2.83
   8  12  -1   49.20    3.28
  -6 -12   1  116.41    4.83
   6 -12  -1  120.64    5.11
   6  12  -1  124.36    5.17
  -6  12   1  113.02    4.48
  -4 -12   1   23.16    1.90
   4 -12  -1   27.46    1.85
  -4  12   1   24.31    1.74
   4  12  -1   26.70    2.00
   4  12  -1   24.70    1.73
   2 -12  -1   36.12    2.19
  -2 -12   1   34.17    2.18
  -2  12   1   34.54    1.95
   2  12  -1   37.81    2.09
   2  12  -1   34.19    2.01
   0 -12   1   98.13    4.00
   0 -12  -1   98.09    3.95
   0  12  -1  103.49    3.82
   0  12   1   93.42    3.57
   0  12   1   96.92    3.60
  -2 -12  -1   72.60    3.42
   2 -12   1   75.96    3.43
   2  12   1   82.35    3.12
   2  12   1   84.79    3.44
  -2  12  -1   76.77    3.28
   4 -12   1  170.40    5.88
  -4 -12  -1  172.63    6.07
  -4  12  -1  166.36    5.72
   4  12   1  168.50    5.99
  -6 -12  -1    1.09    0.74
   6 -12   1    0.73    0.63
   6  12   1    0.06    0.68
  -6  12  -1    0.15    0.48
   8 -12   1   99.72    4.67
  -8 -12  -1   89.58    4.48
   8  12   1   88.93    4.59
  -8  12  -1   91.16    4.13
  -7 -13   1   31.96    2.59
  -7  13   1   30.88    2.28
   7  13  -1   32.40    2.58
   7  13  -1   32.54    2.21
  -5 -13   1   26.55    2.17
  -5  13   1   27.77    1.97
   5  13  -1   24.34    1.82
   5  13  -1   24.18    2.35
  -3 -13   1   11.43    1.53
   3 -13  -1   11.02    1.46
  -3  13   1   12.95    1.48
   3  13  -1   12.20    1.52
   3  13  -1   10.81    1.38
   1 -13  -1  244.75    7.68
  -1 -13   1  237.01    7.78
  -1  13   1  255.40    7.48
   1  13  -1  241.69    7.47
   1 -13   1    2.20    0.81
  -1 -13  -1    1.97    0.75
   1  13   1    2.65    0.67
  -1  13  -1    3.27    0.85
   1  13   1    2.84    0.77
   3 -13   1   16.33    1.82
  -3 -13  -1   16.20    1.86
  -3  13  -1   16.05    1.65
   3  13   1   16.18    1.80
   5 -13   1   95.46    4.17
  -5 -13  -1   95.09    4.40
   5  13   1  102.10    4.47
  -5  13  -1  100.14    4.18
  -7 -13  -1    3.58    1.11
  -7  13  -1    2.32    0.88
   7  13   1    3.93    1.30
   6  14  -1   32.19    2.57
  -6  14   1   29.61    2.23
   6  14  -1   30.63    2.17
  -4 -14   1   53.67    3.13
   4 -14  -1   53.78    2.94
   4  14  -1   55.57    2.86
  -4  14   1   53.94    2.88
   4  14  -1   53.85    3.02
  -2 -14   1    3.08    0.98
   2 -14  -1    2.30    0.84
  -2  14   1    0.93    0.58
   2  14  -1    2.46    0.78
   0 -14  -1   21.25    2.06
   0 -14   1   15.31    1.86
   0  14   1   19.24    1.54
   0  14  -1   20.12    1.62
  -2 -14  -1   94.03    4.19
   2 -14   1   96.17    4.23
  -2  14  -1   91.70    3.94
   2  14   1   95.27    3.98
  -4 -14  -1   11.07    1.72
   4 -14   1   10.76    1.57
   4  14   1   13.27    1.81
  -4  14  -1   12.89    1.63
   6 -14   1   45.02    2.81
   6  14   1   46.93    3.35
   5  15  -1   15.93    1.89
   5  15  -1   15.14    3.12
   3 -15  -1   13.91    1.75
   3  15  -1   16.23    1.82
  -3  15   1   11.07    1.55
   1 -15  -1   32.90    2.39
  -1 -15   1   31.42    2.43
  -1  15   1   32.94    2.17
   1  15  -1   33.08    2.22
   1 -15   1    1.21    0.81
  -1 -15  -1    0.84    0.76
  -1  15  -1    2.06    0.80
   3 -15   1    2.38    0.97
   3  15   1    3.09    1.03
  -3  15  -1    3.39    1.10
 -14   0   2    0.95    0.80
 -12   0   2  243.41    7.75
  12   0  -2  244.01    7.89
  12   0  -2  240.93    7.94
 -10   0   2   36.59    2.16
  10   0  -2   32.57    2.13
  10   0  -2   33.95    2.14
   8   0  -2  102.36    3.65
   8   0  -2  102.22    3.69
  -8   0   2  103.98    3.76
   6   0  -2  256.07    6.80
   6   0  -2  251.53    6.88
  -6   0   2  246.00    6.98
  -6   0   2  251.28    6.10
   4   0  -2    7.16    0.58
  -4   0   2    6.95    0.73
  -4   0   2    6.36    0.67
  -2   0   2  451.50   10.81
  -2   0   2  446.27   11.13
   2   0  -2  476.10   11.08
  -2   0   2  455.17   11.03
   0   0   2   50.27    1.61
   0   0   2   53.24    1.59
   0   0  -2   53.11    1.66
   0   0   2   54.38    1.41
  -2   0  -2  276.85    7.22
  -2   0  -2  280.31    6.71
   2   0   2  281.50    7.07
   2   0   2  276.25    6.84
   4   0   2  913.45   22.38
  -4   0  -2  917.91   21.99
   4   0   2  957.65   22.02
  -4   0  -2  902.22   22.44
   6   0   2   69.79    2.60
  -6   0  -2   81.00    2.64
   6   0   2   71.26    2.89
  -6   0  -2   83.59    2.96
  -8   0  -2   52.63    2.24
  -8   0  -2   53.04    2.43
   8   0   2   47.25    2.20
   8   0   2   53.50    2.59
  10   0   2  276.00    8.34
 -10   0  -2  276.16    7.82
 -10   0  -2  264.48    7.98
  12   0   2   70.08    3.40
  14   0   2  146.55    5.73
 -13  -1   2    0.58    0.66
  13  -1  -2    1.94    0.83
 -13   1   2    1.55    0.70
  13   1  -2   -0.11    0.63
  11  -1  -2   13.05    1.61
  11  -1  -2   12.29    1.50
 -11  -1   2   15.12    1.69
 -11   1   2   14.90    1.66
  11   1  -2   14.62    1.70
  11   1  -2   12.06    1.52
   9  -1  -2  155.30    4.96
  -9  -1   2  149.18    5.01
   9  -1  -2  150.45    5.10
   9   1  -2  141.01    5.08
  -9   1   2  153.74    5.06
   9   1  -2  144.72    4.94
   7  -1  -2  142.29    4.41
   7  -1  -2  139.49    4.51
  -7  -1   2  151.32    4.01
  -7  -1   2  141.70    4.55
   7   1  -2  143.64    4.38
  -7   1   2  143.45    4.64
   7   1  -2  142.86    4.63
  -5  -1   2   94.81    2.51
   5  -1  -2   88.56    2.98
  -5  -1   2   94.97    3.04
  -5   1   2   95.90    2.96
  -5   1   2   93.92    3.14
   5   1  -2   92.86    3.09
   5   1  -2   95.55    2.88
  -3  -1   2  463.99   11.22
  -3  -1   2  456.85   11.65
   3  -1  -2  483.51   11.60
  -3  -1   2  474.34   11.55
  -3   1   2  469.64   11.67
   3   1  -2  489.20   11.45
  -3   1   2  476.71   11.60
  -1  -1   2   11.82    0.58
  -1  -1   2   11.99    0.62
   1  -1  -2   13.07    0.58
  -1  -1   2   12.45    0.60
   1  -1  -2   12.20    0.63
  -1  -1   2   12.71    0.58
  -1   1   2   11.44    0.62
  -1   1   2   12.41    0.54
   1  -1   2  452.03   10.65
   1  -1   2  439.73   10.92
   1  -1   2  426.87   10.84
  -1  -1  -2  431.25   11.02
   1   1   2  460.50   10.86
   1   1   2  448.11   10.80
  -1   1  -2  469.97   10.65
  -3  -1  -2    0.81    0.21
  -3  -1  -2   -0.37    0.21
   3  -1   2    0.75    0.30
   3  -1   2    0.07    0.13
  -3   1  -2   -0.09    0.19
  -3   1  -2    0.28    0.17
   3   1   2    0.31    0.21
   3   1   2   -0.13    0.16
   5  -1   2   -0.02    0.20
  -5  -1  -2    0.14    0.23
  -5  -1  -2   -0.33    0.28
   5  -1   2   -0.25    0.28
   5   1   2    0.02    0.26
  -5   1  -2    0.03    0.30
  -5   1  -2    0.08    0.19
   5   1   2    0.39    0.32
  -7  -1  -2  334.07    8.87
  -7  -1  -2  336.55    8.43
   7  -1   2  284.27    8.27
   7  -1   2  327.70    9.05
   7   1   2  310.19    8.81
  -7   1  -2  324.61    8.75
  -7   1  -2  336.97    8.61
   7   1   2  287.54    8.61
  -9  -1  -2  119.61    4.29
  -9  -1  -2  119.21    3.99
   9  -1   2  119.82    4.46
   9   1   2  114.93    4.29
  -9   1  -2  118.14    4.08
   9   1   2  121.97    4.22
  -9   1  -2  112.49    4.18
 -11  -1  -2   27.13    1.78
  11  -1   2   25.52    2.05
 -11  -1  -2   32.79    2.09
 -11   1  -2   25.89    1.75
  11   1   2   30.60    2.07
  13  -1   2   86.72    4.06
  13   1   2   91.60    4.07
  14  -2  -2   37.46    2.84
 -14  -2   2   35.71    2.53
 -14   2   2   36.23    2.56
  14   2  -2   37.64    2.64
  12  -2  -2   86.48    4.17
 -12  -2   2   86.59    3.84
  12   2  -2   83.52    3.90
 -12   2   2   87.95    3.86
  10  -2  -2   79.66    3.22
  10  -2  -2   77.37    3.55
 -10  -2   2   73.21    3.29
 -10   2   2   81.94    3.43
  10   2  -2   79.21    3.56
  10   2  -2   70.04    3.15
   8  -2  -2    1.87    0.59
  -8  -2   2    3.13    0.67
   8  -2  -2    2.58    0.57
   8   2  -2    3.42    0.65
   8   2  -2    2.61    0.79
  -8   2   2    3.89    0.78
  -6  -2   2   31.65    1.55
  -6  -2   2   28.98    1.19
   6  -2  -2   26.46    1.48
   6   2  -2   30.43    1.67
   6   2  -2   31.00    1.37
  -6   2   2   34.51    1.47
  -6   2   2   30.71    1.65
   4  -2  -2  217.83    5.98
  -4  -2   2  226.07    5.61
  -4  -2   2  224.62    5.91
  -4   2   2  215.92    6.09
  -4   2   2  230.92    5.88
   4   2  -2  226.02    5.67
   4   2  -2  214.88    6.08
  -2  -2   2  314.76    7.86
  -2  -2   2  318.86    7.77
   2  -2  -2  323.89    7.95
   2  -2  -2  324.08    7.61
  -2   2   2  301.51    7.95
  -2   2   2  315.33    7.90
   2   2  -2  321.99    7.70
   0  -2   2    9.30    0.59
   0  -2   2    9.16    0.50
   0  -2   2    9.19    0.51
   0  -2  -2   10.41    0.61
   0  -2   2    7.88    0.49
   0   2   2    9.57    0.57
   0   2   2    9.31    0.57
   0   2   2    9.05    0.40
   2  -2   2   77.94    2.05
   2  -2   2   80.19    2.52
   2  -2   2   84.18    2.56
  -2  -2  -2   80.27    2.00
  -2  -2  -2   81.19    2.62
   2   2   2   77.41    2.43
   2   2   2   79.94    2.38
  -2   2  -2   80.77    2.30
  -4  -2  -2  119.52    3.90
   4  -2   2  124.80    3.18
   4  -2   2  124.67    3.98
  -4  -2  -2  127.91    3.34
   4   2   2  127.45    3.81
   4   2   2  122.78    3.64
  -4   2  -2  125.90    3.53
  -4   2  -2  120.46    3.73
   6  -2   2   87.48    2.67
   6  -2   2   84.71    3.42
  -6  -2  -2   96.65    3.38
  -6  -2  -2   89.95    2.83
  -6   2  -2   90.30    2.99
   6   2   2   89.56    3.12
  -6   2  -2   93.18    3.20
   6   2   2   86.26    3.23
  -8  -2  -2    0.26    0.28
   8  -2   2    0.79    0.53
  -8  -2  -2   -0.36    0.34
   8   2   2    0.23    0.43
   8   2   2    0.05    0.43
  -8   2  -2    0.22    0.36
  -8   2  -2    0.01    0.39
 -10  -2  -2    1.46    0.53
  10  -2   2    0.83    0.69
 -10  -2  -2    0.16    0.47
 -10   2  -2    0.94    0.62
 -10   2  -2    0.92    0.53
  10   2   2    0.75    0.61
  10   2   2    0.83    0.55
  12  -2   2   16.47    1.96
 -12   2  -2   17.10    1.72
 -13  -3   2   19.82    2.07
  13  -3  -2   21.20    2.52
 -13   3   2   18.53    1.99
  13   3  -2   18.25    2.08
 -11  -3   2   35.76    2.25
  11  -3  -2   32.80    2.45
  11   3  -2   36.42    2.43
 -11   3   2   40.29    2.36
  -9  -3   2   48.72    2.43
   9  -3  -2   43.87    2.10
   9  -3  -2   47.32    2.53
  -9   3   2   49.98    2.52
   9   3  -2   46.34    2.61
  -7  -3   2   81.38    2.68
   7  -3  -2   83.17    3.19
  -7   3   2   83.82    2.86
   7   3  -2   80.96    3.35
  -7   3   2   87.21    3.24
   7   3  -2   80.76    2.79
  -5  -3   2    3.31    0.55
   5  -3  -2    4.09    0.33
  -5  -3   2    3.85    0.52
   5  -3  -2    3.46    0.57
  -5   3   2    5.35    0.77
   5   3  -2    4.14    0.46
   5   3  -2    4.09    0.73
  -5   3   2    4.70    0.57
   3  -3  -2  149.18    3.74
   3  -3  -2  141.25    4.14
  -3  -3   2  145.88    3.97
   3   3  -2  150.82    4.38
  -3   3   2  139.80    4.01
   3   3  -2  152.53    3.75
  -3   3   2  148.77    4.18
  -1  -3   2  481.79   11.06
  -1  -3   2  461.00   11.25
   1  -3  -2  464.60   11.29
   1  -3  -2  465.75   11.19
  -1  -3   2  465.03   11.30
   1   3  -2  453.22   11.36
  -1   3   2  446.52   11.12
  -1   3   2  461.30   11.32
  -1  -3  -2   -0.48    0.19
   1  -3   2   -0.10    0.19
   1  -3   2   -0.07    0.17
   1   3   2    0.00    0.09
   1   3   2    0.21    0.17
  -1   3  -2   -0.16    0.14
   1   3   2    0.06    0.17
  -1   3  -2   -0.04    0.12
  -3  -3  -2  181.33    4.44
   3  -3   2  174.30    4.97
   3  -3   2  176.17    5.14
  -3  -3  -2  175.58    5.10
   3   3   2  183.35    5.04
   3   3   2  179.81    4.76
  -3   3  -2  176.51    4.77
   5  -3   2    1.80    0.59
  -5  -3  -2    1.62    0.52
  -5  -3  -2    1.80    0.34
   5  -3   2    1.43    0.18
  -5   3  -2    1.86    0.42
   5   3   2    1.12    0.46
  -5   3  -2    1.28    0.44
   5   3   2    2.53    0.47
  -7  -3  -2    0.07    0.25
   7  -3   2   -0.24    0.44
  -7  -3  -2    0.09    0.39
   7   3   2    0.29    0.43
  -7   3  -2    0.28    0.37
   7   3   2    0.01    0.30
  -7   3  -2    0.03    0.28
  -9  -3  -2    5.14    0.82
  -9  -3  -2    5.32    1.02
   9  -3   2    5.25    1.07
   9   3   2    7.69    1.19
  -9   3  -2    4.51    0.88
   9   3   2    4.87    0.88
  -9   3  -2    4.41    0.90
  11  -3   2    1.83    0.86
 -11  -3  -2    1.87    0.78
 -11   3  -2    3.30    0.86
  11   3   2    0.86    0.74
  13  -3   2   20.86    2.28
 -13   3  -2   23.55    1.92
 -14  -4   2    0.02    0.73
  14   4  -2    0.63    0.79
  12  -4  -2   54.05    3.34
 -12  -4   2   56.46    3.05
 -12   4   2   58.62    3.08
  12   4  -2   53.97    3.09
 -10  -4   2   83.65    3.56
  10  -4  -2   85.76    3.92
 -10   4   2   82.96    3.64
  10   4  -2   85.60    3.84
   8  -4  -2   55.13    2.70
  -8  -4   2   57.22    2.57
  -8  -4   2   68.25    3.08
  -8   4   2   58.15    2.75
   8   4  -2   60.80    2.99
  -8   4   2   60.15    2.35
   6  -4  -2   23.91    1.46
  -6  -4   2   26.51    1.29
  -6  -4   2   27.73    1.42
  -6   4   2   22.34    1.47
   6   4  -2   25.40    1.71
   6   4  -2   24.00    1.12
  -6   4   2   25.12    1.25
   4  -4  -2   78.30    2.26
  -4  -4   2   75.55    2.57
  -4  -4   2   74.94    2.51
   4   4  -2   85.58    3.10
  -4   4   2   79.38    2.49
  -4   4   2   77.93    2.71
   4   4  -2   80.85    2.16
  -2  -4   2   88.88    2.73
  -2  -4   2   88.32    2.31
  -2  -4   2   88.53    2.71
   2  -4  -2   84.86    2.72
   2  -4  -2   86.68    2.55
   2   4  -2   94.20    3.06
  -2   4   2   89.37    2.66
  -2   4   2   90.29    2.69
   0  -4  -2    6.61    0.53
   0  -4  -2    7.25    0.60
   0  -4   2    7.41    0.50
   0  -4   2    6.84    0.63
   0   4  -2    7.52    0.71
   0   4   2    9.16    0.65
   0   4  -2    7.05    0.56
   0   4   2    6.98    0.44
  -2  -4  -2   -0.25    0.25
   2  -4   2   -0.35    0.22
   2  -4   2    0.00    0.26
  -2   4  -2    0.25    0.11
  -2   4  -2    0.09    0.20
   2   4   2    0.02    0.17
   2   4   2    0.17    0.27
  -4  -4  -2  105.71    2.93
  -4  -4  -2  108.82    3.63
   4  -4   2   97.95    3.68
   4  -4   2  111.18    3.48
   4   4   2  107.81    3.62
  -4   4  -2  107.72    3.30
   4   4   2  107.96    3.15
   6  -4   2  142.40    4.96
  -6  -4  -2  143.45    4.04
  -6  -4  -2  145.36    4.79
   6   4   2  131.27    4.71
  -6   4  -2  143.57    4.38
   6   4   2  145.73    4.24
  -8  -4  -2   75.32    2.75
   8  -4   2   87.30    3.65
  -8  -4  -2   76.87    3.32
  -8   4  -2   73.45    3.01
   8   4   2   76.99    3.40
  -8   4  -2   74.68    3.02
   8   4   2   70.06    2.85
 -10  -4  -2    9.61    1.40
  10  -4   2    6.76    1.23
 -10   4  -2    7.99    1.23
 -10   4  -2    7.80    1.16
  10   4   2    7.29    1.26
  12  -4   2   20.69    2.28
  12   4   2   19.62    2.06
 -12   4  -2   19.44    2.02
  13  -5  -2    3.58    1.24
 -13  -5   2    5.85    1.27
  13   5  -2    3.41    1.07
 -13   5   2    4.26    1.08
 -11  -5   2   14.80    1.66
  11  -5  -2   14.78    2.03
  11   5  -2   18.55    2.01
 -11   5   2   15.86    1.75
  -9  -5   2  202.13    6.37
   9  -5  -2  201.87    6.76
   9   5  -2  211.60    6.89
  -9   5   2  197.94    6.57
  -7  -5   2   54.29    2.36
   7  -5  -2   53.85    2.57
  -7  -5   2   54.42    2.25
  -7   5   2   55.30    2.57
   7   5  -2   58.02    2.84
  -7   5   2   56.84    2.13
  -5  -5   2  118.92    3.71
   5  -5  -2  118.67    3.32
   5  -5  -2  111.98    3.86
  -5  -5   2  116.02    3.63
   5   5  -2  125.46    4.36
  -5   5   2  118.62    3.50
  -5   5   2  113.56    3.80
  -3  -5   2  127.78    3.77
   3  -5  -2  126.37    3.57
   3  -5  -2  125.73    3.85
  -3  -5   2  124.76    3.78
  -3   5   2  128.57    3.67
   3   5  -2  132.15    3.13
   3   5  -2  121.61    4.19
  -3   5   2  123.75    3.73
   1  -5  -2   -0.34    0.20
   1  -5  -2   -0.01    0.21
  -1  -5   2   -0.12    0.12
  -1  -5   2   -0.41    0.22
  -1  -5   2   -0.20    0.18
  -1   5   2   -0.44    0.14
   1   5  -2   -0.12    0.25
  -1   5   2   -0.28    0.18
   1  -5   2   96.27    2.88
   1  -5   2   93.74    3.03
  -1  -5  -2   90.90    2.97
  -1  -5  -2   92.08    2.71
  -1   5  -2   93.97    2.88
   1   5   2   93.10    2.58
   1   5   2   90.99    2.96
  -1   5  -2   96.25    2.64
   3  -5   2   18.13    1.14
  -3  -5  -2   19.11    1.22
   3  -5   2   17.25    1.24
  -3  -5  -2   17.45    0.78
   3   5   2   17.63    1.16
  -3   5  -2   19.08    1.06
  -5  -5  -2  161.66    5.20
   5  -5   2  164.17    5.02
   5  -5   2  168.25    5.52
  -5  -5  -2  169.89    4.49
  -5   5  -2  161.40    4.86
   5   5   2  161.44    4.57
   5   5   2  164.77    5.34
   7  -5   2  103.35    4.13
  -7  -5  -2   95.33    3.12
  -7  -5  -2   96.00    3.82
  -7   5  -2   91.98    3.44
  -7   5  -2  102.51    3.52
   7   5   2  100.76    3.30
   7   5   2   87.19    3.79
   9  -5   2    0.08    0.48
  -9  -5  -2   -0.26    0.52
   9   5   2   -0.22    0.51
  -9   5  -2    0.14    0.42
  -9   5  -2   -0.07    0.49
 -11  -5  -2    8.78    1.48
  11  -5   2    8.77    1.46
  11   5   2    8.76    1.43
 -11   5  -2    8.59    1.30
 -13   5  -2   24.31    2.38
 -12  -6   2   78.24    3.71
  12  -6  -2   76.16    4.23
  12   6  -2   78.73    3.93
 -12   6   2   81.49    3.88
  10  -6  -2   39.72    2.71
 -10  -6   2   39.18    2.33
 -10   6   2   44.63    2.59
  10   6  -2   40.22    2.59
  -8  -6   2   15.39    1.29
   8  -6  -2   17.00    1.76
  -8  -6   2   16.80    1.33
   8   6  -2   16.38    1.80
  -8   6   2   15.62    1.61
  -6  -6   2   20.24    1.29
   6  -6  -2   20.06    1.44
  -6  -6   2   20.88    1.32
   6   6  -2   20.93    1.64
  -6   6   2   18.56    1.10
  -6   6   2   19.54    1.37
   4  -6  -2  100.89    3.49
  -4  -6   2  102.81    3.42
   4  -6  -2  107.88    3.16
  -4  -6   2  102.67    3.36
  -4   6   2  102.90    3.19
  -4   6   2  104.95    3.39
   4   6  -2  104.64    3.85
  -2  -6   2  501.61   12.77
   2  -6  -2  518.02   12.63
  -2  -6   2  516.40   11.97
  -2  -6   2  518.34   12.72
   2  -6  -2  502.24   12.68
  -2   6   2  504.27   12.56
   2   6  -2  479.50   12.97
  -2   6   2  515.61   12.63
   0  -6  -2    0.85    0.28
   0  -6   2    0.91    0.37
   0  -6  -2    0.61    0.34
   0  -6   2    0.81    0.23
   0   6  -2    0.56    0.30
   0   6  -2    0.68    0.26
   0   6   2    1.98    0.45
   0   6   2    0.61    0.24
   2  -6   2   31.09    1.56
  -2  -6  -2   30.48    1.21
   2  -6   2   33.83    1.59
  -2  -6  -2   33.00    1.60
  -2   6  -2   29.41    1.41
   2   6   2   30.53    1.17
   2   6   2   28.13    1.50
   4  -6   2  111.07    3.67
  -4  -6  -2  111.20    3.82
  -4  -6  -2  108.98    3.14
   4  -6   2   95.42    3.85
  -4   6  -2  112.58    3.57
   4   6   2  109.98    3.84
  -6  -6  -2   38.96    2.20
   6  -6   2   40.68    2.03
  -6  -6  -2   38.03    1.60
   6  -6   2   39.00    2.34
   6   6   2   32.78    2.14
  -6   6  -2   39.51    1.93
  -8  -6  -2    5.04    1.08
   8  -6   2    6.20    1.22
  -8   6  -2    4.70    0.91
  -8   6  -2    5.57    0.96
   8   6   2    4.19    1.01
 -10  -6  -2    0.22    0.58
  10  -6   2   -0.05    0.58
  10   6   2    1.24    0.76
 -10   6  -2    0.40    0.55
 -12  -6  -2   10.60    1.82
  12  -6   2    9.19    1.56
  12   6   2   12.76    1.85
 -12   6  -2   12.49    1.73
 -13  -7   2   52.27    3.09
  11  -7  -2    6.13    1.48
 -11  -7   2    5.82    1.16
  11   7  -2   11.32    1.70
 -11   7   2    9.12    1.46
  -9  -7   2   49.47    2.48
   9  -7  -2   44.42    2.76
  -9   7   2   44.94    2.60
   9   7  -2   42.58    2.70
  -7  -7   2  153.91    4.85
  -7  -7   2  141.60    4.69
   7  -7  -2  137.19    5.03
   7   7  -2  145.96    5.30
  -7   7   2  140.68    4.88
   5  -7  -2    0.54    0.38
  -5  -7   2    0.12    0.31
  -5  -7   2    0.54    0.41
   5  -7  -2    0.24    0.26
  -5   7   2    0.73    0.36
  -5   7   2    0.32    0.26
   5   7  -2   -0.15    0.41
   3  -7  -2   -0.10    0.26
  -3  -7   2   -0.02    0.22
   3  -7  -2   -0.16    0.24
  -3  -7   2    0.19    0.35
  -3   7   2   -0.13    0.18
   3   7  -2   -0.16    0.34
  -3   7   2    0.22    0.21
  -1  -7   2  429.54   11.24
   1  -7  -2  444.16   11.10
  -1  -7   2  432.52   10.45
   1  -7  -2  427.51   10.92
  -1   7   2  431.67   11.01
   1   7  -2  435.79   11.08
  -1   7   2  426.94   10.83
   1   7  -2  436.06   11.09
  -1  -7  -2    6.79    0.84
  -1  -7  -2    6.79    0.58
   1  -7   2    8.92    0.84
   1  -7   2    7.46    0.96
  -1   7  -2    7.05    0.54
   1   7   2    7.22    0.83
  -1   7  -2    7.77    0.82
   1   7   2    7.68    0.61
  -3  -7  -2   79.24    3.01
   3  -7   2   81.04    2.98
  -3  -7  -2   77.07    2.39
   3  -7   2   72.13    3.00
   3   7   2   79.14    2.46
   3   7   2   76.65    3.00
  -3   7  -2   80.79    2.85
  -5  -7  -2   77.07    3.15
   5  -7   2   73.17    2.93
   5  -7   2   68.92    3.25
  -5  -7  -2   68.00    2.41
   5   7   2   77.35    3.29
  -5   7  -2   75.96    2.87
   7  -7   2  147.84    5.37
   7  -7   2  129.95    4.60
  -7  -7  -2  136.40    5.07
   7   7   2  125.15    5.08
  -7   7  -2  138.23    4.65
   9  -7   2  159.90    5.92
  -9  -7  -2  149.22    5.73
  -9   7  -2  154.61    5.41
  -9   7  -2  151.22    5.20
   9   7   2  146.17    5.76
  11  -7   2   -0.36    0.58
 -11  -7  -2    0.26    0.73
  11   7   2    0.23    0.73
 -11   7  -2   -0.38    0.50
  12  -8  -2    3.07    1.51
 -12  -8   2    2.80    0.96
  12   8  -2    1.36    0.94
 -12   8   2    1.47    1.02
  10  -8  -2  156.86    6.28
 -10  -8   2  157.39    5.52
 -10   8   2  152.42    5.79
  10   8  -2  148.51    5.84
  -8  -8   2   11.13    1.31
  -8  -8   2   15.86    1.64
   8  -8  -2   13.03    1.67
   8   8  -2   12.94    1.65
  -8   8   2   13.69    1.55
   6  -8  -2    0.77    0.54
  -6  -8   2    1.36    0.61
  -6  -8   2    0.43    0.42
   6   8  -2    0.39    0.59
  -6   8   2    0.76    0.47
   4  -8  -2  316.17    8.50
   4  -8  -2  315.87    8.83
  -4  -8   2  329.20    8.88
  -4  -8   2  324.26    8.74
  -4   8   2  312.76    8.63
   4   8  -2  313.82    9.16
  -4   8   2  325.15    8.42
   2  -8  -2   17.95    1.19
  -2  -8   2   19.55    1.31
   2  -8  -2   17.17    1.15
   2   8  -2   17.63    1.20
  -2   8   2   18.66    1.12
   2   8  -2   20.52    1.32
  -2   8   2   18.75    1.12
   0  -8  -2   12.48    1.02
   0  -8   2   12.83    1.07
   0  -8  -2   12.34    0.84
   0   8   2   11.53    0.93
   0   8  -2   10.58    1.02
   0   8  -2   12.82    0.85
   0   8   2   12.24    0.83
   2  -8   2  381.96   10.43
  -2  -8  -2  391.74   10.47
   2  -8   2  408.09   10.36
   2   8   2  371.58    9.77
   2   8   2  394.17   10.44
  -2   8  -2  383.03   10.21
  -4  -8  -2   55.95    2.62
   4  -8   2   47.47    2.59
   4  -8   2   55.28    2.50
  -4   8  -2   58.13    2.42
   4   8   2   57.52    2.67
   4   8   2   55.90    2.06
  -6  -8  -2  237.10    7.48
   6  -8   2  239.03    7.77
   6  -8   2  247.18    7.27
   6   8   2  234.25    7.68
  -6   8  -2  236.35    7.10
   8  -8   2   57.63    2.77
  -8  -8  -2   43.44    2.80
   8  -8   2   55.51    3.14
   8   8   2   51.67    3.10
  -8   8  -2   52.99    2.68
 -10  -8  -2   26.81    2.28
  10  -8   2   33.61    2.56
 -10   8  -2   30.21    2.18
  10   8   2   27.58    2.69
 -12  -8  -2  210.81    7.66
  11  -9  -2   89.08    4.67
 -11  -9   2   81.36    3.90
  11   9  -2   94.18    4.50
 -11   9   2   90.96    4.29
  -9  -9   2   -0.57    0.76
   9  -9  -2    0.89    0.70
  -9  -9   2   -0.02    0.45
   9   9  -2   -0.83    0.58
  -9   9   2   -0.11    0.54
  -7  -9   2  176.57    5.90
  -7  -9   2  180.53    5.72
   7  -9  -2  180.14    6.21
  -7   9   2  169.69    5.80
   7   9  -2  171.26    6.21
   5  -9  -2   -0.15    0.30
   5  -9  -2   -0.06    0.45
  -5  -9   2    0.22    0.45
  -5  -9   2    0.20    0.39
   5   9  -2   -0.33    0.45
  -5   9   2   -0.47    0.31
   3  -9  -2    3.88    0.74
   3  -9  -2    4.08    0.72
  -3  -9   2    3.39    0.79
   3   9  -2    4.00    0.81
  -3   9   2    3.57    0.64
  -3   9   2    4.61    0.68
   1  -9  -2  191.52    5.61
   1  -9  -2  195.08    5.86
  -1  -9   2  195.54    6.01
  -1   9   2  194.18    5.57
  -1   9   2  202.43    5.72
   1   9  -2  199.26    5.69
   1   9  -2  192.38    5.77
  -1  -9  -2  139.93    4.61
   1  -9   2  140.27    4.68
   1   9   2  137.34    4.51
  -1   9  -2  139.30    4.47
   1   9   2  142.80    4.18
   3  -9   2   50.02    2.38
   3  -9   2   43.22    2.28
  -3  -9  -2   47.04    2.38
   3   9   2   43.77    1.84
   3   9   2   51.00    2.43
  -3   9  -2   42.28    2.12
   5  -9   2  185.50    6.55
  -5  -9  -2  202.64    6.45
   5  -9   2  195.37    6.21
   5   9   2  203.25    6.66
  -5   9  -2  196.80    6.13
  -7  -9  -2    0.18    0.61
   7  -9   2    3.00    0.94
   7  -9   2    0.19    0.51
   7   9   2    1.05    0.80
  -7   9  -2   -0.30    0.36
  -9  -9  -2  134.90    5.68
   9  -9   2  156.67    5.97
  -9   9  -2  145.69    5.37
   9   9   2  145.22    5.97
 -11  -9  -2   -1.33    0.72
 -11   9  -2    1.07    0.78
  11   9   2    0.85    0.96
  10 -10  -2   35.75    2.84
 -10 -10   2   32.84    2.33
  10  10  -2   34.11    2.66
 -10  10   2   34.68    2.48
   8 -10  -2   15.94    1.94
  -8 -10   2   18.06    1.78
  -8 -10   2   15.42    1.78
  -8  10   2   19.05    1.90
   8  10  -2   18.57    2.13
  -6 -10   2  120.06    4.26
  -6 -10   2  120.88    4.47
   6 -10  -2  117.56    4.58
  -6  10   2  109.62    4.19
   6  10  -2  109.94    4.66
  -4 -10   2  188.11    6.10
   4 -10  -2  192.67    5.79
   4 -10  -2  192.80    6.09
  -4 -10   2  185.65    5.83
   4  10  -2  183.32    6.19
  -4  10   2  189.47    5.82
   2 -10  -2   11.35    1.19
  -2 -10   2   11.03    1.35
   2 -10  -2   10.15    1.16
   2  10  -2    9.54    1.13
   2  10  -2    9.78    1.15
  -2  10   2   10.86    1.08
  -2  10   2   10.00    1.07
   0 -10   2   36.37    2.06
   0 -10  -2   36.45    2.01
   0  10   2   36.40    1.87
   0  10   2   36.89    1.75
   0  10  -2   37.08    1.91
   2 -10   2    2.30    0.74
  -2 -10  -2    2.14    0.66
   2  10   2    3.08    0.75
  -2  10  -2    2.16    0.60
   2  10   2    1.93    0.51
   4 -10   2   39.15    2.22
   4 -10   2   30.36    2.10
  -4 -10  -2   40.30    2.35
  -4  10  -2   36.83    2.03
   4  10   2   41.82    2.39
  -6 -10  -2   38.40    2.55
   6 -10   2   42.51    2.38
   6 -10   2   43.46    2.71
  -6  10  -2   43.01    2.36
   6  10   2   40.43    2.66
   8 -10   2   13.05    1.60
   8 -10   2   16.42    2.03
  -8 -10  -2   14.97    1.92
  -8  10  -2   16.52    1.83
   8  10   2   13.96    1.91
 -10 -10  -2   33.86    2.80
  10 -10   2   38.86    2.87
  10  10   2   38.32    2.96
 -10  10  -2   34.22    2.52
  -9 -11   2   48.52    3.05
  -9 -11   2   52.00    2.85
   9 -11  -2   54.58    3.46
   9  11  -2   51.43    3.31
  -9  11   2   46.27    2.87
  -7 -11   2    0.09    0.41
  -7 -11   2    0.31    0.63
   7 -11  -2   -0.03    0.60
   7  11  -2    0.66    0.76
  -7  11   2    1.68    0.73
  -5 -11   2   59.51    2.74
   5 -11  -2   57.01    2.95
  -5 -11   2   55.42    2.91
  -5  11   2   59.39    2.76
   5  11  -2   56.95    3.03
   3 -11  -2    1.43    0.92
  -3 -11   2    1.08    0.63
   3 -11  -2    1.65    0.63
  -3  11   2    0.59    0.43
   3  11  -2    1.06    0.60
   3  11  -2    0.73    0.52
  -1 -11   2    2.57    0.78
   1 -11  -2    1.10    0.60
  -1  11   2    2.48    0.62
  -1  11   2    2.31    0.60
   1  11  -2    2.17    0.67
  -1 -11  -2  124.18    4.53
   1 -11   2  125.79    4.59
   1  11   2  118.59    3.99
   1  11   2  126.36    4.38
  -1  11  -2  125.57    4.38
   3 -11   2    1.54    0.70
  -3 -11  -2    0.18    0.51
   3  11   2    0.31    0.58
  -3  11  -2    2.35    0.67
   5 -11   2    3.85    1.08
  -5 -11  -2    4.52    1.04
   5 -11   2    3.53    0.91
  -5  11  -2    3.49    0.87
   5  11   2    3.11    0.93
   7 -11   2    7.13    1.28
   7 -11   2    6.21    1.29
  -7 -11  -2    8.41    1.53
  -7  11  -2    6.96    1.25
   7  11   2    8.96    1.60
   9 -11   2    9.17    1.66
  -9 -11  -2    8.83    1.72
   9  11   2    8.79    1.75
  -9  11  -2   10.14    1.52
  -8 -12   2    6.82    1.20
   8 -12  -2    5.52    1.44
  -8 -12   2    6.58    1.40
  -8  12   2    8.08    1.38
   8  12  -2    8.28    1.56
   6 -12  -2    6.51    1.35
  -6 -12   2    6.46    1.25
   6  12  -2    7.96    1.46
  -6  12   2    9.08    1.35
  -4 -12   2   46.16    2.67
   4 -12  -2   49.97    2.50
   4  12  -2   47.21    2.52
   4  12  -2   56.88    2.91
  -4  12   2   51.44    2.55
  -2 -12   2   23.49    1.84
   2 -12  -2   24.65    1.76
   2  12  -2   21.92    1.68
  -2  12   2   23.78    1.60
   0 -12   2   86.24    3.77
   0 -12  -2   89.26    3.71
   0  12  -2   88.86    3.60
   0  12   2   90.46    3.36
   0  12   2   89.00    3.49
   2 -12   2   46.98    2.63
  -2 -12  -2   46.95    2.62
   2  12   2   46.60    2.51
  -2  12  -2   46.18    2.44
  -4 -12  -2   10.94    1.54
   4 -12   2   14.13    1.68
  -4  12  -2   14.52    1.59
   4  12   2   13.32    1.69
   6 -12   2    2.58    0.89
  -6 -12  -2    2.63    0.99
   6  12   2    5.24    1.26
  -6  12  -2    4.57    1.03
  -8 -12  -2    0.26    0.87
   8 -12   2    1.03    0.86
  -8  12  -2    1.43    0.95
   8  12   2    4.40    1.57
  -7 -13   2  114.49    4.99
  -7  13   2  113.16    4.70
   7  13  -2  117.34    5.16
  -5 -13   2   -0.06    0.62
   5  13  -2    0.26    0.55
   5  13  -2    0.40    0.67
  -5  13   2    0.00    0.50
  -3 -13   2    8.26    1.37
   3 -13  -2    9.05    1.30
  -3  13   2   10.05    1.30
   3  13  -2   11.56    1.51
   1 -13  -2   44.22    2.53
  -1 -13   2   40.59    2.53
   1  13  -2   37.55    2.25
  -1  13   2   42.68    2.32
  -1 -13  -2   23.59    1.93
   1 -13   2   26.86    2.08
   1  13   2   28.39    1.90
  -1  13  -2   27.41    1.86
  -3 -13  -2   56.20    3.11
   3 -13   2   57.97    3.13
   3  13   2   59.86    3.06
  -3  13  -2   54.98    2.91
  -5 -13  -2   22.83    2.33
   5 -13   2   25.63    2.13
  -5  13  -2   22.80    1.88
   5  13   2   27.06    2.27
   7 -13   2   29.09    2.30
   6  14  -2   35.29    2.63
  -6  14   2   32.11    2.30
   6  14  -2   34.52    2.34
  -4 -14   2   98.42    4.42
  -4  14   2   89.49    3.91
   4  14  -2   97.13    4.06
   2 -14  -2    4.89    1.09
  -2 -14   2    6.76    1.32
   2  14  -2    7.01    1.16
   0 -14   2    1.92    0.85
   0 -14  -2    1.40    0.80
   0  14  -2    2.99    0.86
   2 -14   2   12.80    1.73
  -2 -14  -2   11.28    1.57
   2  14   2   11.86    1.57
  -2  14  -2   11.93    1.56
  -4 -14  -2   24.96    2.47
   4 -14   2   30.04    2.38
  -4  14  -2   28.33    2.14
   4  14   2   29.92    2.30
   6 -14   2   65.54    3.91
  -5  15   2   29.87    3.72
   3 -15  -2    4.52    1.10
   3  15  -2    5.18    1.13
   1 -15  -2   63.48    3.33
   1  15  -2   63.96    3.27
  -1 -15  -2   97.60    4.45
  -1  15  -2   99.33    4.34
   3  15   2    4.19    1.12
 -14   0   3    0.78    0.89
  12   0  -3   -0.27    0.62
 -12   0   3    0.50    0.62
  12   0  -3   -0.20    0.58
  10   0  -3    0.30    0.43
 -10   0   3   -0.01    0.44
  10   0  -3   -0.07    0.47
  -8   0   3    0.10    0.35
   8   0  -3    0.05    0.36
   8   0  -3   -0.30    0.25
  -6   0   3   -0.02    0.25
  -6   0   3   -0.09    0.26
   6   0  -3   -0.40    0.18
  -4   0   3   -0.05    0.22
  -4   0   3    0.14    0.25
   4   0  -3   -0.02    0.23
   4   0  -3   -0.09    0.11
   2   0  -3   -0.13    0.19
  -2   0   3   -0.39    0.16
   2   0  -3   -0.16    0.17
  -2   0   3   -0.27    0.15
   0   0  -3    0.24    0.25
   0   0   3   -0.06    0.15
   0   0   3   -0.02    0.11
   0   0   3    0.10    0.17
  -2   0  -3    0.05    0.31
  -2   0  -3    0.03    0.10
   2   0   3    0.72    0.25
   2   0   3   -0.32    0.16
  -4   0  -3    0.03    0.16
   4   0   3   -0.14    0.23
   4   0   3    0.32    0.23
  -4   0  -3    0.10    0.33
  -6   0  -3    0.18    0.40
   6   0   3    0.11    0.33
   6   0   3    0.40    0.31
  -6   0  -3    2.68    0.49
  -8   0  -3   -0.05    0.34
  -8   0  -3   -0.30    0.40
   8   0   3   -0.08    0.40
 -10   0  -3    0.24    0.57
  10   0   3   -0.06    0.53
  12   0   3    0.10    0.67
 -13  -1   3    2.64    0.96
  13  -1  -3    3.85    1.16
  13   1  -3    2.23    1.03
 -13   1   3    2.60    0.83
  11  -1  -3   -0.17    0.51
 -11  -1   3    0.07    0.51
  11  -1  -3   -0.44    0.53
 -11   1   3    0.56    0.58
  11   1  -3    0.20    0.50
  11   1  -3   -0.03    0.62
  -9  -1   3    1.04    0.59
   9  -1  -3    0.95    0.54
   9  -1  -3    1.71    0.55
   9   1  -3    0.94    0.56
   9   1  -3    1.64    0.55
  -9   1   3    1.12    0.58
   7  -1  -3  325.06    8.76
  -7  -1   3  321.89    8.86
  -7   1   3  319.69    8.96
   7   1  -3  320.02    8.56
   7   1  -3  314.66    8.83
  -7   1   3  324.43    8.70
  -5  -1   3    0.28    0.27
  -5  -1   3    0.44    0.28
  -5  -1   3    0.52    0.18
   5  -1  -3    0.95    0.35
  -5   1   3    3.59    0.61
  -5   1   3    0.61    0.31
   5   1  -3    0.50    0.27
  -3  -1   3   84.35    2.76
  -3  -1   3   84.29    2.62
   3  -1  -3   88.48    2.25
   3  -1  -3   87.30    2.72
  -3  -1   3   91.02    2.42
   3   1  -3   86.70    2.60
  -3   1   3   90.10    2.67
  -3   1   3   84.38    2.73
  -1  -1   3  169.99    4.53
  -1  -1   3  176.83    4.52
  -1  -1   3  173.31    4.55
   1  -1  -3  167.69    4.53
  -1  -1   3  173.62    4.39
  -1   1   3  155.35    4.54
  -1   1   3  173.50    4.26
  -1  -1  -3   48.24    1.91
   1  -1   3   47.89    1.74
   1  -1   3   49.48    1.58
  -1   1  -3   50.24    1.84
   1   1   3   48.31    1.69
   1   1   3   50.22    1.76
  -1   1  -3   50.84    1.48
  -3  -1  -3  120.57    3.18
   3  -1   3  122.38    3.31
   3  -1   3  123.08    3.76
  -3  -1  -3  121.32    3.95
  -3   1  -3  123.98    3.32
  -3   1  -3  124.25    3.86
   3   1   3  122.45    3.68
   3   1   3  123.70    3.54
  -5  -1  -3   82.79    2.55
   5  -1   3   81.49    3.11
   5  -1   3   83.03    2.54
  -5  -1  -3   83.74    3.16
   5   1   3   83.82    2.82
  -5   1  -3   81.05    2.61
  -5   1  -3   85.07    3.13
   5   1   3   82.13    2.98
  -7  -1  -3   44.28    2.28
  -7  -1  -3   42.99    1.78
   7  -1   3   44.74    2.38
   7   1   3   39.96    1.97
  -7   1  -3   44.98    2.23
   7   1   3   40.91    2.13
  -7   1  -3   44.75    1.94
  -9  -1  -3  106.53    4.05
   9  -1   3  105.15    4.28
  -9   1  -3  102.76    3.69
  -9   1  -3  104.11    4.08
   9   1   3   97.22    4.02
  11  -1   3    3.77    1.06
 -11  -1  -3    5.21    1.10
  11   1   3    4.98    1.09
 -11   1  -3    3.89    0.99
  13  -1   3   22.69    2.36
  13   1   3   27.00    2.17
  14  -2  -3   56.67    3.60
  14   2  -3   53.66    3.32
 -12  -2   3    0.73    0.62
  12  -2  -3   -0.17    0.69
  12   2  -3    1.16    0.85
 -12   2   3    1.51    0.79
  10  -2  -3  268.49    8.18
  10  -2  -3  268.58    7.90
 -10  -2   3  252.00    8.01
  10   2  -3  289.32   10.00
  10   2  -3  255.83    8.31
 -10   2   3  264.66    8.12
  -8  -2   3    5.67    0.90
   8  -2  -3    6.60    1.01
  -8   2   3    7.03    0.93
   8   2  -3    6.41    0.88
  -8   2   3    5.83    0.97
   8   2  -3    4.81    0.93
   6  -2  -3    7.03    0.84
  -6  -2   3    6.09    0.49
   6   2  -3    6.75    0.87
  -6   2   3    7.11    0.81
  -6   2   3    6.38    0.87
   6   2  -3    7.73    0.76
   4  -2  -3  100.72    3.14
  -4  -2   3   94.52    3.01
  -4  -2   3   95.57    2.72
  -4   2   3   97.03    3.07
  -4   2   3   96.97    3.17
   4   2  -3   98.32    2.87
   2  -2  -3  135.18    3.95
  -2  -2   3  142.60    3.82
  -2  -2   3  142.37    3.99
   2  -2  -3  143.81    3.66
  -2  -2   3  136.48    3.82
  -2   2   3  141.91    3.82
  -2   2   3  141.10    3.97
   0  -2   3  838.06   20.89
   0  -2   3  850.82   21.11
   0  -2   3  883.52   21.00
   0  -2   3  911.00   20.87
   0  -2  -3  885.87   21.10
   0   2   3  909.14   21.09
   0   2   3  862.80   21.05
   0   2   3  892.29   20.52
   2  -2   3  172.20    4.92
   2  -2   3  176.59    4.42
  -2  -2  -3  170.46    5.02
   2  -2   3  180.54    4.89
   2   2   3  178.59    4.79
  -2   2  -3  169.12    4.50
   2   2   3  166.74    4.74
   4  -2   3    0.57    0.35
  -4  -2  -3   -0.03    0.13
  -4  -2  -3   -0.48    0.28
   4  -2   3   -0.20    0.13
  -4   2  -3    0.22    0.20
  -4   2  -3    0.06    0.31
   4   2   3   -0.14    0.23
   4   2   3    1.53    0.41
  -6  -2  -3  342.50    9.33
  -6  -2  -3  328.75    8.46
   6  -2   3  308.93    9.38
   6   2   3  338.07    9.08
   6   2   3  337.89    9.07
  -6   2  -3  342.35    9.22
  -6   2  -3  335.01    8.74
   8  -2   3   -0.18    0.49
  -8  -2  -3   -0.34    0.41
  -8   2  -3    0.39    0.40
   8   2   3    0.10    0.44
   8   2   3   -0.28    0.38
  -8   2  -3    0.62    0.51
 -10  -2  -3   41.87    2.44
  10  -2   3   38.93    2.50
 -10   2  -3   38.58    2.33
 -10   2  -3   35.76    2.06
  10   2   3   37.57    2.30
  12  -2   3    7.48    1.38
 -12  -2  -3    5.07    1.12
  12   2   3    4.99    1.10
 -13  -3   3   84.61    4.05
  13  -3  -3   89.61    4.49
  13   3  -3   86.23    4.27
 -13   3   3   87.89    4.09
  11  -3  -3   16.52    1.98
 -11  -3   3   10.67    1.49
  11   3  -3   16.08    1.99
 -11   3   3   13.56    1.65
  -9  -3   3   27.46    1.82
   9  -3  -3   28.40    1.92
  -9   3   3   27.20    1.87
   9   3  -3   27.26    2.05
   7  -3  -3  407.40   10.86
  -7   3   3  413.28   11.03
  -7   3   3  411.52   10.58
   7   3  -3  389.90   11.05
   7   3  -3  390.78   10.24
  -5  -3   3   83.06    2.84
  -5  -3   3   82.35    2.56
   5  -3  -3   84.74    2.97
  -5   3   3   84.08    2.83
  -5   3   3   83.41    3.07
   5   3  -3   83.25    2.56
   5   3  -3   85.45    3.11
   3  -3  -3  114.64    3.01
  -3  -3   3  111.86    3.35
  -3  -3   3  111.88    3.25
   3  -3  -3  115.83    3.49
   3   3  -3  115.33    3.13
  -3   3   3  118.08    3.46
   3   3  -3  114.69    3.59
  -3   3   3  109.40    3.47
   1  -3  -3  210.66    5.54
   1  -3  -3  213.84    5.42
  -1  -3   3  206.34    5.52
  -1  -3   3  212.01    5.36
  -1  -3   3  208.85    5.50
  -1  -3   3  203.87    5.41
  -1   3   3  191.18    5.28
  -1   3   3  211.23    5.58
   1  -3   3   -0.15    0.28
   1  -3   3   -0.04    0.19
  -1  -3  -3   -0.32    0.23
   1  -3   3   -0.04    0.16
   1   3   3   -0.08    0.18
  -1   3  -3    0.32    0.18
   1   3   3    0.22    0.23
   3  -3   3  213.44    6.16
  -3  -3  -3  214.35    5.27
  -3  -3  -3  218.71    6.30
   3  -3   3  229.18    6.26
   3  -3   3  228.67    5.41
   3   3   3  213.78    6.05
  -3   3  -3  230.78    5.86
   3   3   3  216.26    5.93
  -5  -3  -3    2.16    0.62
  -5  -3  -3    1.83    0.30
   5  -3   3    2.47    0.65
  -5   3  -3    1.95    0.42
   5   3   3    1.22    0.46
  -5   3  -3    1.95    0.56
   5   3   3    2.03    0.47
   7  -3   3   -0.65    0.35
  -7  -3  -3    0.29    0.49
   7   3   3   -0.47    0.34
  -7   3  -3   -0.06    0.26
   7   3   3   -0.04    0.36
  -7   3  -3    0.23    0.42
   9  -3   3  371.55   10.53
  -9  -3  -3  354.95   10.13
  -9   3  -3  345.68    9.72
   9   3   3  321.96    9.93
  -9   3  -3  357.05   10.08
   9   3   3  339.46    9.86
 -11  -3  -3   27.89    2.11
  11  -3   3   20.80    2.22
 -11   3  -3   23.59    1.95
 -11   3  -3   21.68    1.71
  13  -3   3   12.40    2.12
 -12  -4   3   57.55    3.15
  12  -4  -3   58.23    3.48
  12   4  -3   57.91    3.35
 -12   4   3   61.02    3.19
 -10  -4   3   88.54    3.74
  10  -4  -3   87.85    3.89
  10  -4  -3   92.39    3.60
  10   4  -3   84.84    4.03
 -10   4   3   87.51    3.81
  -8  -4   3   48.56    2.31
   8  -4  -3   45.16    2.36
  -8   4   3   44.18    2.06
   8   4  -3   42.78    2.54
  -8   4   3   50.54    2.52
   6  -4  -3   68.17    2.70
  -6  -4   3   65.20    2.29
  -6  -4   3   65.82    2.54
   6   4  -3   60.62    2.83
   6   4  -3   61.48    2.10
  -6   4   3   64.45    2.44
  -6   4   3   67.28    2.77
   4  -4  -3   50.32    1.57
   4  -4  -3   52.19    2.10
  -4  -4   3   47.59    1.83
  -4  -4   3   50.70    1.96
   4   4  -3   47.18    2.21
  -4   4   3   49.54    2.13
  -4   4   3   53.30    1.97
   4   4  -3   52.52    1.65
  -2  -4   3   97.43    2.99
   2  -4  -3   94.10    3.04
  -2  -4   3   95.04    2.71
   2  -4  -3   97.73    2.80
  -2  -4   3   95.31    3.00
  -2   4   3  102.91    2.99
  -2   4   3   93.71    3.03
   2   4  -3   98.14    3.18
   0  -4  -3   92.04    2.85
   0  -4   3   88.58    2.95
   0  -4  -3   96.48    2.93
   0  -4   3   92.21    2.75
   0   4  -3   91.74    2.83
   0   4   3   97.34    2.54
   0   4  -3   98.21    2.83
   0   4   3   84.04    2.88
   2  -4   3    0.07    0.29
  -2  -4  -3    0.08    0.34
   2  -4   3   -0.50    0.23
   2   4   3   -0.29    0.08
  -2   4  -3   -0.36    0.14
  -2   4  -3   -0.16    0.19
   2   4   3   -0.09    0.23
   2   4   3   -0.52    0.18
   4  -4   3  287.25    8.01
  -4  -4  -3  278.76    7.97
   4  -4   3  288.54    7.81
  -4  -4  -3  276.52    6.86
   4   4   3  276.08    7.43
  -4   4  -3  287.43    7.46
   4   4   3  275.31    7.77
  -6  -4  -3   88.64    3.66
   6  -4   3   89.30    3.80
   6   4   3   98.52    3.66
   6   4   3   97.94    3.28
  -6   4  -3   97.66    3.26
  -6   4  -3   93.59    3.47
   8  -4   3    4.61    1.07
  -8  -4  -3    5.37    1.13
  -8   4  -3    5.98    1.07
   8   4   3    3.30    0.74
   8   4   3    4.82    0.96
  -8   4  -3    4.66    0.79
 -10  -4  -3    0.36    0.66
  10  -4   3    0.54    0.64
  10   4   3    1.33    0.80
 -10   4  -3   -0.40    0.57
 -10   4  -3   -0.26    0.42
 -12  -4  -3   97.84    4.35
  12  -4   3   90.38    4.40
 -12   4  -3   95.95    4.06
 -13  -5   3   60.19    3.35
  13  -5  -3   59.64    3.80
  13   5  -3   57.82    3.46
 -13   5   3   58.29    3.29
  11  -5  -3   54.19    3.22
 -11  -5   3   52.35    2.87
  11   5  -3   46.62    2.97
 -11   5   3   52.47    2.93
  -9  -5   3   36.55    2.18
   9  -5  -3   40.05    2.42
   9   5  -3   37.41    2.57
  -9   5   3   37.80    2.34
  -9   5   3   42.16    2.03
  -7  -5   3    2.72    0.58
  -7  -5   3    1.88    0.55
   7  -5  -3    1.90    0.61
   7   5  -3    2.16    0.77
  -7   5   3    2.65    0.71
  -7   5   3    1.09    0.42
  -5  -5   3  461.03   11.75
   5  -5  -3  470.54   12.16
  -5  -5   3  461.54   11.92
   5   5  -3  466.43   12.60
  -5   5   3  467.13   12.18
  -5   5   3  460.84   11.79
   3  -5  -3   19.98    1.17
  -3  -5   3   18.63    1.09
  -3  -5   3   18.54    1.09
   3  -5  -3   18.77    0.93
   3   5  -3   17.56    0.76
  -3   5   3   18.97    1.09
   3   5  -3   20.50    1.39
  -3   5   3   20.86    1.14
  -1  -5   3    0.70    0.23
  -1  -5   3    1.15    0.32
   1  -5  -3    0.84    0.30
   1  -5  -3    1.22    0.35
  -1  -5   3    1.43    0.43
   1   5  -3    0.95    0.37
  -1   5   3    0.71    0.29
  -1   5   3    0.98    0.28
   1  -5   3  251.00    6.93
  -1  -5  -3  253.09    6.61
  -1  -5  -3  251.80    6.88
   1  -5   3  251.72    6.65
  -1   5  -3  249.24    6.68
   1   5   3  253.70    6.85
   1   5   3  258.75    6.21
  -1   5  -3  246.48    6.54
   3  -5   3  132.88    4.28
  -3  -5  -3  138.65    4.40
   3  -5   3  137.02    4.34
   3   5   3  130.20    3.44
   3   5   3  131.64    4.28
  -3   5  -3  138.01    4.02
   3   5   3  130.13    3.89
  -5  -5  -3   39.32    2.14
   5  -5   3   36.91    2.17
   5  -5   3   39.19    2.00
  -5   5  -3   39.10    1.79
   5   5   3   37.15    2.04
   5   5   3   39.82    1.70
   7  -5   3   86.59    3.85
  -7  -5  -3   86.57    3.67
   7   5   3   82.06    3.07
   7   5   3   78.97    3.60
  -7   5  -3   87.17    3.40
  -7   5  -3   87.50    3.22
  -9  -5  -3    7.10    1.29
   9  -5   3    9.64    1.54
  -9   5  -3    8.30    1.16
  -9   5  -3    9.13    1.33
   9   5   3    9.24    1.45
  11  -5   3  191.48    7.03
 -11  -5  -3  190.01    6.78
 -11   5  -3  183.00    6.46
  11   5   3  193.94    6.77
 -12  -6   3   85.56    3.97
  12  -6  -3   80.86    4.41
  12   6  -3   83.55    4.15
 -12   6   3   82.73    4.01
 -10  -6   3    4.85    1.00
  10  -6  -3    5.10    1.13
 -10   6   3    3.85    1.02
  10   6  -3    4.30    1.09
   8  -6  -3  188.91    6.36
  -8  -6   3  195.90    6.09
   8   6  -3  194.87    6.72
  -8   6   3  189.37    5.69
  -8   6   3  193.91    6.35
  -6  -6   3   48.97    2.29
  -6  -6   3   55.19    2.30
   6  -6  -3   54.82    2.55
  -6   6   3   56.89    2.25
  -6   6   3   59.15    2.59
   6   6  -3   57.35    2.92
  -4  -6   3   46.84    2.02
  -4  -6   3   46.27    2.04
   4  -6  -3   48.99    1.76
   4  -6  -3   48.23    2.14
   4   6  -3   49.12    2.49
  -4   6   3   49.85    1.99
  -4   6   3   49.16    2.08
   2  -6  -3  439.45   10.95
  -2  -6   3  425.90   11.11
  -2  -6   3  434.81   11.20
   2  -6  -3  429.98   11.11
  -2  -6   3  437.79   10.52
   2   6  -3  419.64   11.52
  -2   6   3  445.92   11.15
  -2   6   3  446.23   10.97
   0  -6  -3   -0.14    0.21
   0  -6   3   -0.02    0.16
   0  -6  -3    0.33    0.22
   0  -6   3    0.10    0.29
   0   6  -3    0.61    0.31
   0   6   3    0.17    0.16
   0   6  -3   -0.12    0.25
   0   6   3    0.17    0.26
  -2  -6  -3  144.32    4.08
   2  -6   3  148.15    4.38
   2  -6   3  135.46    4.44
  -2  -6  -3  141.93    4.50
   2   6   3  140.33    3.74
  -2   6  -3  148.59    4.31
   2   6   3  136.76    4.43
   4  -6   3  145.18    4.73
   4  -6   3  142.82    4.87
  -4  -6  -3  147.10    4.87
   4   6   3  151.91    4.88
   4   6   3  140.69    4.20
  -4   6  -3  141.85    4.44
  -6  -6  -3   21.23    1.68
   6  -6   3   18.45    1.47
   6  -6   3   17.16    1.79
  -6   6  -3   19.47    1.35
   6   6   3   15.54    1.67
  -8  -6  -3  203.14    6.91
   8  -6   3  220.48    7.19
  -8   6  -3  204.95    6.36
   8   6   3  184.49    6.86
  -8   6  -3  213.01    6.62
 -10  -6  -3    8.31    1.47
  10  -6   3    7.44    1.42
 -10   6  -3    7.18    1.23
  10   6   3    9.79    1.59
 -10   6  -3    9.28    1.44
 -12  -6  -3    0.21    0.76
 -12   6  -3    0.47    0.65
  12   6   3   -0.03    0.77
 -11  -7   3    4.86    1.12
  11  -7  -3    4.90    1.29
 -11   7   3    5.45    1.21
  11   7  -3    5.39    1.31
   9  -7  -3  100.84    4.38
  -9  -7   3  103.04    4.07
  -9   7   3  103.89    4.31
   9   7  -3  107.14    4.61
  -7  -7   3    4.53    0.82
  -7  -7   3    4.56    0.87
   7  -7  -3    3.60    0.87
   7   7  -3    2.77    0.91
  -7   7   3    4.32    0.88
  -7   7   3    2.56    0.58
   5  -7  -3   44.23    2.19
  -5  -7   3   43.23    2.04
  -5  -7   3   44.21    2.05
  -5   7   3   40.73    1.87
  -5   7   3   42.55    2.08
   5   7  -3   45.37    2.51
   3  -7  -3   19.90    1.12
   3  -7  -3   17.92    1.22
  -3  -7   3   18.70    1.25
  -3  -7   3   17.21    1.18
  -3   7   3   21.22    1.21
  -3   7   3   15.81    1.09
   3   7  -3   18.57    1.46
  -1  -7   3   28.54    1.13
  -1  -7   3   27.52    1.54
   1  -7  -3   26.04    1.42
   1  -7  -3   25.16    1.34
   1   7  -3   27.56    1.52
   1   7  -3   28.95    1.47
  -1   7   3   26.52    1.42
  -1   7   3   29.08    1.29
  -1  -7  -3  308.07    8.04
   1  -7   3  312.84    8.08
  -1  -7  -3  304.17    8.39
   1  -7   3  310.90    8.53
   1   7   3  306.42    8.40
  -1   7  -3  304.45    8.24
   1   7   3  313.76    7.79
   3  -7   3    2.46    0.63
  -3  -7  -3    3.10    0.48
  -3  -7  -3    3.79    0.76
   3  -7   3    2.76    0.68
  -3   7  -3    2.33    0.55
   3   7   3    2.44    0.62
  -5  -7  -3   51.24    2.60
   5  -7   3   51.68    2.50
   5  -7   3   40.48    2.47
  -5   7  -3   48.54    2.23
   5   7   3   49.66    2.60
   7  -7   3   26.68    1.85
  -7  -7  -3   24.27    1.97
   7  -7   3   23.01    2.22
  -7   7  -3   23.33    1.58
   7   7   3   23.19    1.95
   9  -7   3    5.85    1.30
  -9  -7  -3    6.13    1.31
   9   7   3    5.12    1.26
  -9   7  -3    6.49    1.23
  -9   7  -3    5.13    1.05
  11  -7   3   14.84    2.09
 -11  -7  -3   11.59    1.79
  11   7   3   13.29    1.95
 -11   7  -3   12.20    1.70
 -12  -8   3   27.41    2.62
  10  -8  -3   -0.45    0.54
 -10  -8   3   -0.08    0.44
 -10   8   3    0.65    0.70
  10   8  -3   -0.52    0.70
   8  -8  -3   22.19    1.88
  -8  -8   3   23.60    1.70
  -8   8   3   21.11    2.02
   8   8  -3   25.34    2.07
  -6  -8   3   16.16    1.36
  -6  -8   3   11.27    1.23
   6  -8  -3   13.18    1.47
  -6   8   3   15.14    1.10
   6   8  -3   16.10    1.82
  -6   8   3   15.46    1.50
  -4  -8   3    2.69    0.61
   4  -8  -3    4.10    0.65
  -4  -8   3    3.40    0.78
   4  -8  -3    2.73    0.67
   4   8  -3    2.91    0.81
  -4   8   3    2.78    0.62
  -4   8   3    4.07    0.68
  -2  -8   3   -0.32    0.30
   2  -8  -3   -0.10    0.26
   2  -8  -3    0.19    0.29
   2   8  -3   -0.14    0.31
  -2   8   3    0.12    0.28
  -2   8   3    0.68    0.33
   0  -8   3   19.61    1.40
   0  -8  -3   16.40    1.08
   0  -8  -3   18.72    1.29
   0   8  -3   21.53    1.31
   0   8  -3   20.39    1.13
   0   8   3   17.60    1.21
   0   8   3   19.65    1.06
   2  -8   3    7.16    0.91
  -2  -8  -3    7.14    1.04
   2  -8   3    5.54    0.92
  -2  -8  -3    5.77    0.66
   2   8   3    6.74    0.96
  -2   8  -3    6.55    0.90
   4  -8   3   50.82    2.56
  -4  -8  -3   49.79    2.55
   4  -8   3   48.27    2.42
   4   8   3   49.75    2.56
  -4   8  -3   48.86    2.28
   6  -8   3    1.46    0.75
  -6  -8  -3    1.23    0.75
   6  -8   3    3.35    0.86
  -6   8  -3    1.28    0.55
   6   8   3    0.44    0.56
   8  -8   3   11.54    1.70
  -8  -8  -3   11.08    1.70
   8  -8   3   10.23    1.47
  -8   8  -3    9.57    1.31
   8   8   3   10.71    1.62
 -10  -8  -3   25.87    2.64
  10  -8   3   31.94    2.54
 -10   8  -3   27.07    2.05
 -10   8  -3   26.38    2.29
  10   8   3   27.44    2.66
 -11  -9   3    3.29    1.01
  11  -9  -3    4.56    1.35
  11   9  -3    2.66    1.02
 -11   9   3    2.80    1.01
  -9  -9   3   40.11    2.41
   9  -9  -3   39.36    2.75
  -9   9   3   40.08    2.60
   9   9  -3   41.65    2.81
  -7  -9   3   27.74    1.82
  -7  -9   3   27.76    1.91
   7  -9  -3   29.67    2.12
   7   9  -3   23.32    2.34
  -7   9   3   27.32    1.89
  -5  -9   3  185.13    5.86
   5  -9  -3  192.46    6.06
  -5  -9   3  188.81    5.97
  -5   9   3  179.15    5.51
   5   9  -3  186.65    6.36
  -5   9   3  187.73    5.88
  -3  -9   3    8.73    1.07
   3  -9  -3   10.17    1.10
  -3  -9   3    9.74    1.20
   3  -9  -3    8.39    1.06
  -3   9   3    9.99    1.05
   3   9  -3    8.35    1.16
  -3   9   3    8.16    0.96
  -1  -9   3    0.14    0.39
   1  -9  -3    0.30    0.30
   1  -9  -3    0.15    0.36
   1   9  -3    0.27    0.35
  -1   9   3    0.28    0.29
  -1   9   3   -0.12    0.28
   1   9  -3    0.07    0.32
  -1  -9  -3   59.56    2.69
   1  -9   3   64.16    2.83
  -1   9  -3   65.56    2.63
   1   9   3   60.32    2.63
  -3  -9  -3   29.00    1.84
   3  -9   3   27.54    1.86
   3  -9   3   34.70    1.90
  -3   9  -3   28.74    1.71
   3   9   3   27.36    1.84
   5  -9   3   80.79    3.45
  -5  -9  -3   75.35    3.52
   5  -9   3   69.67    3.50
   5   9   3   83.73    3.71
  -5   9  -3   82.13    3.27
   7  -9   3    2.16    0.93
   7  -9   3    2.57    0.82
  -7  -9  -3    2.44    0.99
  -7   9  -3    2.48    0.76
   7   9   3    3.24    1.09
   9  -9   3    0.44    0.75
  -9  -9  -3    1.69    0.97
  -9   9  -3   -0.07    0.52
   9   9   3    1.16    0.88
  10 -10  -3    9.92    1.74
 -10 -10   3   12.32    1.65
  10  10  -3    6.62    1.47
 -10  10   3    8.23    1.48
   8 -10  -3  121.23    5.10
  -8 -10   3  131.79    4.85
  -8 -10   3  131.42    4.99
   8  10  -3  132.01    5.35
  -8  10   3  128.02    4.98
  -6 -10   3   59.52    2.82
  -6 -10   3   63.60    2.99
   6 -10  -3   58.60    3.00
   6  10  -3   60.57    3.20
  -6  10   3   59.62    2.89
  -4 -10   3   -0.36    0.45
  -4 -10   3    0.14    0.39
   4 -10  -3   -0.63    0.32
  -4  10   3   -0.07    0.30
  -4  10   3    0.27    0.38
   4  10  -3    0.51    0.50
  -2 -10   3  304.05    8.88
   2 -10  -3  308.04    8.59
   2 -10  -3  320.18    8.67
   2  10  -3  297.22    8.66
  -2  10   3  306.87    8.42
  -2  10   3  313.23    8.60
   2  10  -3  301.87    8.69
   0 -10   3    9.94    1.33
   0 -10  -3   10.05    1.21
   0  10   3    7.80    1.04
   0  10  -3    8.18    1.06
   2 -10   3   27.65    1.91
  -2 -10  -3   27.82    1.86
   2  10   3   26.74    1.80
  -2  10  -3   28.49    1.72
  -4 -10  -3   89.11    3.84
   4 -10   3   83.42    3.65
   4 -10   3   89.60    3.73
   4  10   3   86.86    3.86
  -4  10  -3   90.96    3.57
   6 -10   3   13.92    1.81
   6 -10   3   18.26    1.90
  -6 -10  -3   15.20    1.86
   6  10   3   18.22    2.11
  -6  10  -3   17.64    1.71
   8 -10   3  128.08    5.04
  -8 -10  -3  126.52    5.44
   8 -10   3  128.43    5.43
  -8  10  -3  127.03    4.87
   8  10   3  121.47    5.47
   9 -11  -3   27.76    2.77
  -9 -11   3   30.39    2.20
   9  11  -3   31.52    3.04
  -9  11   3   31.16    2.37
  -7 -11   3    7.92    1.33
   7 -11  -3    5.56    1.20
  -7 -11   3    7.77    1.27
  -7  11   3    6.50    1.13
   7  11  -3    8.39    1.50
   5 -11  -3   65.28    3.15
  -5 -11   3   58.26    2.83
  -5 -11   3   64.76    3.17
  -5  11   3   65.18    2.92
   5  11  -3   65.77    3.30
   3 -11  -3   11.48    1.26
  -3 -11   3    8.91    1.29
   3 -11  -3   11.29    1.33
   3  11  -3   11.19    1.34
   3  11  -3    9.23    1.29
  -3  11   3   10.60    1.19
  -3  11   3   10.15    1.16
   1 -11  -3    6.91    1.03
  -1 -11   3    6.52    1.12
  -1  11   3    6.81    0.97
   1  11  -3    7.25    1.06
  -1 -11  -3  320.27    9.18
   1 -11   3  313.25    9.30
   1  11   3  313.33    9.06
  -1  11  -3  308.84    9.02
  -3 -11  -3    0.93    0.66
   3 -11   3    1.53    0.74
   3  11   3    1.98    0.73
  -3  11  -3    1.01    0.54
   5 -11   3   47.85    2.74
  -5 -11  -3   48.97    2.93
  -5  11  -3   48.30    2.60
   5  11   3   53.18    3.10
   7 -11   3   78.51    4.13
   7 -11   3   80.84    3.86
  -7 -11  -3   81.45    4.19
   7  11   3   89.26    4.39
  -7  11  -3   82.41    3.71
   9 -11   3   17.88    2.34
   9 -11   3   14.47    1.93
  -8 -12   3  118.81    5.00
  -8 -12   3  115.88    4.71
   8 -12  -3  106.99    5.06
   8  12  -3  114.41    5.16
  -8  12   3  117.67    4.84
  -6 -12   3    0.13    0.52
  -6 -12   3    0.19    0.64
   6 -12  -3   -0.58    0.46
  -6  12   3   -0.35    0.49
   6  12  -3   -0.29    0.62
  -4 -12   3   21.43    1.86
   4  12  -3   20.11    1.65
   4  12  -3   26.23    1.96
  -4  12   3   22.28    1.68
   2 -12  -3   68.67    3.07
  -2 -12   3   68.66    3.31
   2  12  -3   67.92    3.11
  -2  12   3   70.77    3.01
   0 -12  -3    4.00    0.91
   0 -12   3    3.71    0.95
   0  12   3    5.89    0.99
   0  12  -3    2.18    0.69
  -2 -12  -3    1.75    0.73
   2 -12   3    1.81    0.77
   2  12   3    1.96    0.73
  -2  12  -3    1.69    0.63
   4 -12   3   13.17    1.66
  -4 -12  -3   10.73    1.58
   4  12   3    8.26    1.34
  -4  12  -3   10.58    1.35
  -6 -12  -3   87.54    4.31
   6 -12   3   86.80    4.05
  -6  12  -3   83.52    3.81
   6  12   3   86.85    4.37
   8 -12   3   59.48    3.40
   7 -13  -3   52.35    3.29
  -7 -13   3   47.16    3.09
   7  13  -3   45.87    3.12
  -7  13   3   48.67    2.91
  -5 -13   3   22.35    2.27
   5  13  -3   21.49    2.16
   5  13  -3   18.28    1.90
  -5  13   3   20.53    1.97
   3 -13  -3   77.27    4.03
  -3 -13   3   70.99    3.53
   3  13  -3   72.44    3.38
  -1 -13   3   20.39    2.15
   1 -13  -3   21.63    1.83
   1  13  -3   17.69    1.79
  -1  13   3   18.14    1.52
   1 -13   3   33.42    2.38
  -1 -13  -3   31.31    2.28
   1  13   3   36.61    2.21
  -1  13  -3   37.07    2.26
  -3 -13  -3  165.24    6.12
   3 -13   3  164.80    6.13
   3  13   3  164.83    6.05
  -3  13  -3  171.47    5.92
   5 -13   3   13.04    1.77
  -5 -13  -3   15.62    2.05
   5  13   3   17.28    2.14
  -5  13  -3   12.50    1.66
  -4 -14   3  201.09    7.13
   4  14  -3  194.23    6.72
   2 -14  -3    6.21    1.18
  -2 -14   3    6.63    1.33
   2  14  -3    4.42    1.02
   0 -14   3   74.39    3.73
   0 -14  -3   67.89    3.49
   0  14  -3   74.69    3.49
   0  14   3   67.20    3.25
  -2 -14  -3    0.28    0.62
   2 -14   3    0.64    0.72
   2  14   3    0.32    0.57
  -2  14  -3   -0.30    0.45
   4 -14   3    1.42    1.30
   4  14   3    1.57    0.91
   1 -15  -3   26.33    2.14
   1  15   3    0.44    0.61
  14   0  -4  276.72    9.43
  12   0  -4    9.15    1.52
 -12   0   4    7.57    1.31
  12   0  -4    9.60    1.49
 -10   0   4   48.40    2.72
  10   0  -4   52.72    2.65
  10   0  -4   48.16    2.66
   8   0  -4  264.20    7.85
   8   0  -4  278.62    7.71
  -8   0   4  258.15    7.84
   6   0  -4   27.63    1.48
  -6   0   4   27.31    1.54
  -6   0   4   28.39    1.56
  -4   0   4  476.38   12.40
  -4   0   4  512.23   12.25
   4   0  -4  489.53   12.27
   4   0  -4  479.98   11.74
  -2   0   4  242.34    6.06
  -2   0   4  234.20    6.38
   2   0  -4  231.28    6.21
   2   0  -4  241.77    6.31
   0   0   4    2.07    0.48
   0   0   4    2.46    0.45
   0   0   4    2.88    0.33
   0   0  -4    2.76    0.57
  -2   0  -4  530.42   13.55
   2   0   4  520.44   13.25
  -2   0  -4  538.72   12.56
   2   0   4  523.46   12.99
   4   0   4   86.56    3.16
  -4   0  -4   89.03    3.39
  -4   0  -4   88.57    2.56
   4   0   4   91.33    2.85
  -6   0  -4   43.02    2.33
   6   0   4   42.27    2.24
   6   0   4   45.56    1.89
  -8   0  -4   75.19    3.32
   8   0   4   66.84    3.25
 -10   0  -4    4.66    1.08
  10   0   4    3.80    1.02
 -12   0  -4   42.44    2.70
  12   0   4   36.65    2.61
 -13  -1   4    2.82    0.94
  13  -1  -4    4.98    1.35
  13  -1  -4    3.65    1.16
 -13   1   4    3.57    1.02
  13   1  -4    4.44    1.32
  11  -1  -4  234.51    7.40
  11  -1  -4  229.68    7.37
 -11  -1   4  215.77    7.40
 -11   1   4  224.06    7.42
  11   1  -4  232.12    7.62
  11   1  -4  221.04    7.34
  -9  -1   4   10.70    1.31
   9  -1  -4   13.39    1.43
   9  -1  -4   10.21    1.30
  -9   1   4   10.19    1.32
   9   1  -4   10.78    1.21
   9   1  -4   11.82    1.47
  -7  -1   4   20.50    1.40
   7  -1  -4   21.93    1.38
  -7   1   4   19.81    1.33
   7   1  -4   18.34    1.22
   7   1  -4   17.58    1.37
  -7   1   4   16.79    1.32
  -5  -1   4  435.72   11.44
  -5  -1   4  450.47   11.29
   5  -1  -4  433.06   11.31
  -5   1   4  438.96   11.32
  -5   1   4  443.32   11.41
   5   1  -4  444.08   11.18
  -3  -1   4  120.41    3.36
   3  -1  -4  119.70    3.62
   3  -1  -4  119.65    3.23
  -3  -1   4  116.30    3.44
  -3  -1   4  119.45    3.67
  -3   1   4  120.31    3.44
   3   1  -4  115.85    3.50
  -3   1   4  120.40    3.69
  -1  -1   4   36.79    1.50
  -1  -1   4   34.52    1.28
   1  -1  -4   38.05    1.56
  -1   1   4   35.55    1.51
  -1   1   4   35.09    1.17
  -1   1   4   35.12    1.53
   1   1  -4   37.54    1.51
   1  -1   4   52.90    2.00
  -1  -1  -4   50.98    2.15
   1  -1   4   51.52    1.80
  -1  -1  -4   50.30    1.35
  -1   1  -4   52.09    2.07
   1   1   4   50.04    1.87
  -1   1  -4   50.86    1.58
   1   1   4   53.74    2.00
   3  -1   4    1.64    0.47
  -3  -1  -4    1.65    0.59
  -3  -1  -4    2.04    0.25
   3  -1   4    1.69    0.34
   3   1   4    2.09    0.42
  -3   1  -4    1.87    0.57
  -3   1  -4    2.17    0.33
   3   1   4    1.64    0.47
   5  -1   4  351.31    8.75
   5  -1   4  342.88    9.52
  -5  -1  -4  336.30    9.64
   5   1   4  339.73    9.36
   5   1   4  340.54    9.04
  -5   1  -4  348.36    8.75
  -5   1  -4  345.27    9.61
   7  -1   4   -0.03    0.46
  -7  -1  -4   -0.27    0.45
  -7   1  -4    1.12    0.62
   7   1   4   -0.26    0.35
   7   1   4    0.18    0.41
  -9  -1  -4    0.59    0.62
   9  -1   4   -0.28    0.42
  -9   1  -4    0.70    0.66
   9   1   4    0.54    0.60
  11  -1   4  180.36    6.55
 -11  -1  -4  171.72    6.24
 -11   1  -4  183.00    6.37
  11   1   4  175.81    6.39
  13   1   4   10.65    1.76
  14  -2  -4   11.77    2.04
  14   2  -4   14.43    2.13
  12  -2  -4    0.42    0.68
  12  -2  -4    1.57    0.80
 -12  -2   4   -0.10    0.57
 -12   2   4   -0.07    0.49
  12   2  -4    0.91    0.89
 -10  -2   4   16.20    1.74
  10  -2  -4   21.09    1.74
  10  -2  -4   19.71    1.60
  10   2  -4   22.85    2.22
 -10   2   4   21.83    1.76
   8  -2  -4   61.28    2.75
  -8  -2   4   59.84    2.73
   8   2  -4   60.06    2.86
   8   2  -4   65.07    2.55
  -8   2   4   60.26    2.64
  -8   2   4   62.87    2.88
   6  -2  -4   11.31    1.11
  -6  -2   4   12.32    1.20
  -6   2   4   11.67    1.22
   6   2  -4   13.67    1.15
   6   2  -4   12.88    0.92
  -6   2   4   11.96    1.00
   4  -2  -4   17.56    1.11
  -4  -2   4   17.87    0.90
  -4  -2   4   18.38    1.17
   4  -2  -4   17.71    0.65
  -4  -2   4   17.63    1.04
  -4   2   4   17.45    1.10
   4   2  -4   17.13    0.94
  -4   2   4   19.21    1.10
  -2  -2   4   74.21    2.44
  -2  -2   4   73.64    2.34
  -2  -2   4   73.96    2.41
   2  -2  -4   73.53    2.26
   2  -2  -4   76.66    2.55
  -2  -2   4   75.70    2.52
  -2   2   4   75.43    2.22
  -2   2   4   66.49    2.48
   0  -2  -4  389.36    9.87
   0  -2   4  372.98    9.80
   0  -2   4  379.73    9.42
   0  -2   4  372.78    9.58
   0  -2   4  386.13    9.71
   0   2   4  374.37    9.75
   0   2   4  387.56    9.04
   0   2   4  394.84    9.81
   2  -2   4  103.88    3.39
   2  -2   4  106.44    3.02
  -2  -2  -4  104.50    3.61
   2   2   4  102.95    3.34
  -2   2  -4  106.30    2.99
   2   2   4  106.06    3.30
  -2   2  -4  107.08    3.51
   4  -2   4    2.42    0.59
  -4  -2  -4    1.44    0.53
   4  -2   4    2.65    0.38
   4   2   4    1.76    0.44
  -4   2  -4    1.41    0.54
  -4   2  -4    2.55    0.41
   4   2   4    0.82    0.37
   6  -2   4   51.27    2.56
  -6  -2  -4   47.45    2.49
   6   2   4   48.46    2.24
   6   2   4   51.71    2.37
  -6   2  -4   51.26    2.51
  -6   2  -4   48.49    1.97
   8  -2   4  100.64    4.18
  -8  -2  -4   94.78    3.94
   8   2   4   93.54    3.79
   8   2   4   82.72    3.55
  -8   2  -4   99.68    3.99
 -10  -2  -4   35.61    2.41
  10  -2   4   38.31    2.58
  10   2   4   37.62    2.40
 -10   2  -4   30.53    2.27
  12  -2   4    0.90    0.74
 -12  -2  -4    1.71    0.87
 -12   2  -4    2.43    0.97
  12   2   4    1.69    0.83
  13  -3  -4   28.95    2.86
 -13  -3   4   28.59    2.73
 -13   3   4   23.76    2.35
  13   3  -4   30.64    3.10
  11  -3  -4   26.89    2.11
  11  -3  -4   24.32    1.90
 -11  -3   4   24.42    2.00
  11   3  -4   22.85    2.43
 -11   3   4   26.67    2.07
   9  -3  -4   33.39    2.08
  -9  -3   4   31.47    2.02
  -9   3   4   32.19    2.07
  -9   3   4   30.14    1.85
   9   3  -4   32.90    2.22
  -7  -3   4  143.33    4.68
   7  -3  -4  143.79    4.79
  -7   3   4  141.97    4.86
  -7   3   4  144.65    4.60
   7   3  -4  141.67    4.31
   7   3  -4  147.81    4.98
  -5  -3   4    1.89    0.40
  -5  -3   4    0.27    0.26
   5  -3  -4    0.45    0.35
   5   3  -4    0.75    0.28
  -5   3   4    0.64    0.40
   5   3  -4    2.03    0.55
  -5   3   4    1.27    0.41
   3  -3  -4   46.93    1.54
  -3  -3   4   47.58    1.83
   3  -3  -4   46.89    1.93
  -3  -3   4   47.28    1.97
  -3  -3   4   47.89    1.78
  -3   3   4   45.14    1.91
  -3   3   4   48.99    1.82
   3   3  -4   45.96    1.68
   1  -3  -4    3.94    0.56
   1  -3  -4    5.21    0.62
  -1  -3   4    4.14    0.51
  -1  -3   4    3.97    0.55
  -1  -3   4    5.18    0.58
  -1  -3   4    3.37    0.57
  -1   3   4    3.44    0.58
  -1   3   4    4.83    0.38
   1  -3   4   19.81    0.93
   1  -3   4   15.94    1.00
  -1  -3  -4   17.01    1.13
   1  -3   4   19.92    1.19
  -1   3  -4   16.66    0.87
   1   3   4   17.58    1.07
   1   3   4   16.91    1.03
  -3  -3  -4  278.16    7.93
   3  -3   4  280.02    7.01
   3  -3   4  291.70    7.80
   3   3   4  278.29    7.61
  -3   3  -4  282.37    7.25
   3   3   4  273.21    7.56
   5  -3   4    0.14    0.41
  -5  -3  -4   -0.08    0.39
   5   3   4    0.07    0.26
   5   3   4    0.02    0.33
  -5   3  -4    0.25    0.37
  -5   3  -4    0.23    0.24
  -7  -3  -4  111.13    4.31
   7  -3   4  106.65    4.42
  -7   3  -4  114.66    4.26
   7   3   4  112.51    4.02
  -7   3  -4  107.58    3.71
   7   3   4  114.66    4.18
  -9  -3  -4   39.84    2.54
   9  -3   4   35.57    2.51
   9   3   4   32.02    2.20
   9   3   4   38.92    2.30
  -9   3  -4   37.78    2.41
 -11  -3  -4   -0.62    0.50
  11  -3   4    0.60    0.75
 -11   3  -4   -0.64    0.59
 -12  -4   4   21.00    2.20
  12  -4  -4   18.44    2.20
 -12   4   4   26.39    2.47
  12   4  -4   24.70    2.62
 -10  -4   4    1.44    0.66
  10  -4  -4    0.29    0.63
 -10   4   4    0.83    0.51
  10   4  -4    1.29    0.82
 -10   4   4    1.48    0.72
   8  -4  -4    2.64    0.76
  -8  -4   4    2.14    0.63
   8   4  -4    2.23    0.81
  -8   4   4    2.40    0.62
  -8   4   4    1.95    0.70
  -6  -4   4   81.06    3.03
   6  -4  -4   81.11    3.17
  -6   4   4   78.49    3.20
  -6   4   4   83.80    3.05
   6   4  -4   85.96    3.03
   6   4  -4   79.63    3.34
  -4  -4   4  105.61    3.19
  -4  -4   4  102.50    3.30
   4  -4  -4   97.78    3.40
  -4   4   4   96.30    3.37
   4   4  -4  102.10    2.96
   4   4  -4  100.49    3.53
  -4   4   4   92.90    3.27
  -2  -4   4   77.10    2.47
   2  -4  -4   77.19    2.72
  -2  -4   4   80.26    2.65
   2  -4  -4   78.05    2.48
  -2  -4   4   81.39    2.71
  -2   4   4   77.13    2.75
  -2   4   4   75.53    2.53
   2   4  -4   84.06    2.82
   0  -4  -4   30.26    1.46
   0  -4   4   30.58    1.33
   0  -4   4   29.78    1.50
   0  -4   4   30.78    1.36
   0  -4  -4   29.16    1.40
   0   4  -4   31.64    1.35
   0   4   4   26.52    1.42
   2  -4   4  125.97    3.56
   2  -4   4  132.23    4.08
   2  -4   4  130.16    4.22
  -2  -4  -4  134.35    4.29
   2   4   4  124.25    4.05
  -2   4  -4  133.61    3.83
   2   4   4  135.35    4.04
  -4  -4  -4   54.43    2.60
   4  -4   4   60.58    2.62
   4  -4   4   59.60    2.59
  -4   4  -4   58.70    2.19
   4   4   4   59.96    2.53
   4   4   4   62.37    2.38
   6  -4   4    4.11    0.96
  -6  -4  -4    3.16    0.85
   6   4   4    2.90    0.76
  -6   4  -4    3.73    0.86
  -6   4  -4    2.60    0.56
   6   4   4    3.45    0.70
   8  -4   4   -0.08    0.51
  -8  -4  -4    0.97    0.67
  -8   4  -4   -0.13    0.33
  -8   4  -4    1.76    0.75
   8   4   4   -0.04    0.47
   8   4   4    0.87    0.66
  10  -4   4   20.98    2.23
 -10  -4  -4   25.48    2.11
  10   4   4   22.25    2.18
 -10   4  -4   23.94    2.34
  12  -4   4   35.73    3.83
 -12  -4  -4   44.12    2.89
  13  -5  -4   14.10    3.09
  11  -5  -4   12.34    1.73
 -11  -5   4    9.77    1.45
 -11   5   4   13.42    1.75
  11   5  -4   12.80    1.90
  -9  -5   4    0.14    0.45
   9  -5  -4    1.03    0.60
   9   5  -4    0.22    0.70
  -9   5   4    1.23    0.54
  -9   5   4    1.30    0.76
   7  -5  -4    0.32    0.40
  -7  -5   4   -0.14    0.36
  -7   5   4   -0.25    0.37
  -7   5   4    0.01    0.32
   7   5  -4   -0.06    0.57
  -5  -5   4  282.46    7.90
   5  -5  -4  297.09    8.15
  -5  -5   4  285.56    7.73
  -5   5   4  286.51    7.90
   5   5  -4  289.69    8.44
  -5   5   4  288.45    8.15
   3  -5  -4    0.70    0.35
   3  -5  -4    1.07    0.32
  -3  -5   4    1.12    0.37
  -3  -5   4    0.85    0.39
  -3   5   4    0.89    0.36
  -3   5   4    0.24    0.31
   3   5  -4    1.10    0.47
   3   5  -4    0.49    0.22
   1  -5  -4    6.64    0.80
  -1  -5   4    6.40    0.81
  -1  -5   4    7.28    0.77
  -1  -5   4    7.62    0.61
   1  -5  -4    9.09    0.88
   1   5  -4    8.14    0.87
  -1   5   4    6.05    0.63
  -1  -5  -4  136.86    4.12
  -1  -5  -4  139.95    4.34
   1  -5   4  138.67    4.11
   1  -5   4  136.21    4.34
  -1   5  -4  136.31    4.05
  -1   5  -4  134.11    3.90
   1   5   4  137.55    4.28
   3  -5   4    0.65    0.43
  -3  -5  -4    1.58    0.57
   3  -5   4    0.03    0.31
  -3   5  -4    0.28    0.26
   3   5   4    0.02    0.24
   3   5   4   -0.18    0.24
   5  -5   4  184.86    5.95
  -5  -5  -4  183.82    6.12
   5  -5   4  182.53    6.13
  -5   5  -4  190.24    5.51
   5   5   4  197.68    6.05
   5   5   4  187.41    5.57
   7  -5   4   20.47    2.11
  -7  -5  -4   21.84    1.79
  -7   5  -4   20.20    1.40
   7   5   4   19.69    1.96
   7   5   4   20.93    1.47
  -7   5  -4   19.58    1.65
   9  -5   4    3.47    1.01
  -9  -5  -4    1.14    0.69
  -9   5  -4    1.68    0.79
  -9   5  -4    2.32    0.70
   9   5   4    2.93    0.93
 -11  -5  -4  100.15    4.59
  11  -5   4  104.03    4.87
 -11   5  -4  100.38    4.57
 -12  -6   4   18.56    2.14
  12  -6  -4   16.00    2.22
  12   6  -4   12.98    1.99
 -12   6   4   12.20    1.68
  10  -6  -4   13.01    1.72
 -10  -6   4   12.72    1.57
  10   6  -4   10.06    1.65
 -10   6   4   12.67    1.69
   8  -6  -4  105.14    4.27
  -8  -6   4  103.84    4.02
  -8   6   4  109.47    3.86
  -8   6   4  116.80    4.42
   8   6  -4  109.02    4.70
   6  -6  -4    2.68    0.70
  -6  -6   4    1.05    0.45
  -6  -6   4    3.36    0.68
   6   6  -4    2.87    0.86
  -6   6   4    4.75    0.94
  -6   6   4    2.11    0.55
  -4  -6   4    0.21    0.36
  -4  -6   4    0.51    0.35
   4  -6  -4   -0.05    0.30
  -4   6   4   -0.03    0.28
  -4   6   4    0.01    0.35
   4   6  -4    0.24    0.48
   2  -6  -4   13.19    0.89
  -2  -6   4   12.05    0.74
  -2  -6   4   13.72    1.06
   2  -6  -4   12.76    0.98
  -2  -6   4   11.50    0.93
  -2   6   4   11.93    0.99
  -2   6   4   12.41    0.90
   2   6  -4   14.47    1.41
   0  -6  -4  312.87    8.35
   0  -6   4  303.95    8.48
   0  -6  -4  307.34    8.23
   0  -6   4  310.77    8.04
   0   6   4  316.67    8.43
   0   6  -4  303.98    8.28
   0   6  -4  310.63    8.25
  -2  -6  -4  101.76    3.27
   2  -6   4   96.53    3.57
  -2  -6  -4  106.06    3.66
   2  -6   4  101.02    3.41
  -2   6  -4  100.25    3.31
   2   6   4   93.38    3.48
   4  -6   4   32.35    1.97
   4  -6   4   38.63    2.13
  -4  -6  -4   32.49    2.06
   4   6   4   35.62    1.72
  -4   6  -4   36.49    1.77
   4   6   4   41.33    2.14
   6  -6   4   17.52    1.93
  -6  -6  -4   23.00    1.87
   6  -6   4   23.45    1.74
   6   6   4   23.39    1.85
   6   6   4   23.64    1.44
  -6   6  -4   22.25    1.45
   8  -6   4  118.28    5.00
  -8  -6  -4  114.65    4.79
  -8   6  -4  114.88    4.16
   8   6   4  101.84    4.64
  -8   6  -4  123.37    4.63
 -10  -6  -4   20.18    2.28
  10  -6   4   19.94    2.39
 -10   6  -4   18.26    2.06
  10   6   4   16.45    2.05
 -10   6  -4   19.02    1.95
 -11  -7   4   24.86    2.38
  11  -7  -4   22.61    2.49
  11   7  -4   22.51    2.50
 -11   7   4   24.79    2.40
   9  -7  -4  176.12    6.27
  -9  -7   4  168.96    5.92
  -9   7   4  177.73    6.18
   9   7  -4  171.34    6.51
  -7  -7   4   56.78    2.63
   7  -7  -4   56.14    2.82
   7   7  -4   53.16    3.09
  -7   7   4   51.84    2.39
  -7   7   4   57.33    2.84
  -5  -7   4   52.46    2.30
   5  -7  -4   50.33    2.43
  -5  -7   4   47.78    2.26
  -5   7   4   50.20    2.24
   5   7  -4   47.71    2.74
  -5   7   4   47.21    2.36
  -3  -7   4  199.49    5.85
   3  -7  -4  193.87    5.53
  -3  -7   4  194.13    5.91
   3  -7  -4  192.87    5.88
  -3   7   4  205.79    5.91
   3   7  -4  197.83    6.35
  -3   7   4  199.90    5.78
   1  -7  -4   20.70    1.23
  -1  -7   4   18.69    1.34
   1  -7  -4   21.26    1.27
   1   7  -4   19.26    1.24
   1   7  -4   17.07    1.33
  -1   7   4   18.13    1.27
  -1  -7  -4    0.16    0.26
   1  -7   4    0.35    0.41
  -1  -7  -4    0.04    0.34
   1  -7   4    0.29    0.27
  -1   7  -4   -0.27    0.23
   1   7   4   -0.14    0.28
  -3  -7  -4  144.14    4.47
   3  -7   4  154.21    4.89
   3  -7   4  151.73    5.05
  -3  -7  -4  154.43    5.13
  -3   7  -4  146.67    4.64
   3   7   4  148.37    5.00
   5  -7   4    8.75    1.26
   5  -7   4    8.75    1.30
  -5  -7  -4    6.93    1.29
   5   7   4   10.22    1.37
  -5   7  -4    7.11    0.96
   7  -7   4   80.66    4.03
  -7  -7  -4   88.13    4.02
   7   7   4   86.78    4.05
  -7   7  -4   90.29    3.46
  -9  -7  -4   71.70    3.82
   9  -7   4   74.31    3.94
  -9   7  -4   74.41    3.32
   9   7   4   65.15    3.71
  -9   7  -4   67.25    3.44
 -11  -7  -4   25.49    2.67
 -11   7  -4   26.95    2.87
 -11   7  -4   24.37    2.35
  11   7   4   24.10    2.55
 -10  -8   4   96.91    4.25
  10  -8  -4   98.31    4.59
 -10   8   4  100.19    4.44
  10   8  -4  105.05    4.81
  -8  -8   4   34.09    2.12
   8  -8  -4   34.00    2.29
   8   8  -4   32.24    2.46
  -8   8   4   31.70    2.23
  -6  -8   4  348.52    9.63
  -6  -8   4  337.21    9.61
   6  -8  -4  331.54    9.84
  -6   8   4  344.61    9.40
   6   8  -4  347.93   10.39
  -6   8   4  344.76    9.82
  -4  -8   4   10.56    1.24
  -4  -8   4   11.18    1.26
   4  -8  -4   11.22    1.27
  -4   8   4   10.82    1.19
   4   8  -4   10.33    1.40
  -4   8   4   10.83    1.15
   2  -8  -4    0.39    0.37
   2  -8  -4    0.34    0.35
  -2  -8   4    0.13    0.43
  -2   8   4    0.12    0.30
   2   8  -4   -0.10    0.37
   0  -8  -4  251.32    6.96
   0  -8  -4  243.60    7.08
   0  -8   4  248.92    7.34
   0   8   4  247.82    7.19
   0   8  -4  250.94    7.11
   2  -8   4    1.01    0.44
  -2  -8  -4    0.42    0.34
  -2  -8  -4    1.00    0.52
   2  -8   4    1.19    0.61
  -2   8  -4    0.43    0.39
   2   8   4    0.31    0.41
  -4  -8  -4   81.73    3.57
   4  -8   4   79.05    3.44
   4  -8   4   85.10    3.50
  -4   8  -4   75.60    3.10
   4   8   4   81.17    3.52
   6  -8   4  110.03    4.78
  -6  -8  -4  118.18    4.81
   6  -8   4  122.64    4.61
  -6   8  -4  118.22    4.25
   6   8   4  119.90    4.89
  -8  -8  -4    5.72    1.36
   8  -8   4    6.04    1.42
  -8   8  -4    4.29    0.93
  -8   8  -4    4.27    1.02
   8   8   4    6.59    1.39
  10  -8   4   67.10    3.88
 -10  -8  -4   60.21    3.66
 -10   8  -4   66.56    3.35
 -10   8  -4   66.58    3.53
  10   8   4   68.17    3.91
 -11   9   4   50.35    3.40
   9  -9  -4   12.34    1.78
  -9  -9   4    9.84    1.40
   9   9  -4   13.30    1.87
  -9   9   4   10.90    1.62
   7  -9  -4   27.24    2.00
  -7  -9   4   25.94    1.84
  -7  -9   4   24.85    1.84
  -7   9   4   24.28    1.92
   7   9  -4   26.70    2.19
  -5  -9   4    1.16    0.57
  -5  -9   4    2.40    0.70
   5  -9  -4    1.38    0.60
  -5   9   4    2.10    0.67
   5   9  -4    0.63    0.64
  -5   9   4    1.21    0.49
   3  -9  -4  314.64    8.69
   3  -9  -4  295.92    8.34
  -3  -9   4  298.89    8.62
  -3  -9   4  310.65    8.82
  -3   9   4  313.03    8.63
   3   9  -4  298.24    8.93
   1  -9  -4    0.10    0.31
  -1  -9   4    0.18    0.47
   1  -9  -4    0.53    0.46
   1   9  -4   -0.14    0.35
  -1   9   4   -0.19    0.32
   1  -9   4   11.30    1.35
  -1  -9  -4    9.57    1.21
  -1  -9  -4    9.98    1.02
  -1   9  -4    8.96    1.09
   1   9   4    9.75    1.19
   3  -9   4  273.34    7.78
  -3  -9  -4  268.51    8.06
   3  -9   4  258.57    8.01
  -3   9  -4  259.48    7.66
   3   9   4  265.87    8.06
  -5  -9  -4   36.49    2.45
   5  -9   4   35.54    2.35
   5  -9   4   37.88    2.41
   5   9   4   39.95    2.53
  -5   9  -4   37.20    2.10
   7  -9   4    1.02    0.79
   7  -9   4    2.93    1.08
  -7  -9  -4    0.72    0.70
   7   9   4    2.14    0.98
  -7   9  -4    2.81    0.81
  -9  -9  -4   19.04    2.35
   9  -9   4   14.28    2.09
  -9   9  -4   19.87    2.15
  -9   9  -4   14.37    1.68
   9   9   4   15.43    2.19
 -10 -10   4   19.71    3.21
 -10  10   4   14.87    1.95
   8 -10  -4   22.18    2.29
  -8 -10   4   27.27    1.97
   8  10  -4   25.94    2.62
  -8  10   4   29.82    2.25
  -6 -10   4   52.86    2.79
   6 -10  -4   52.96    2.82
  -6 -10   4   54.85    2.72
  -6  10   4   51.47    2.71
   6  10  -4   49.37    2.99
   4 -10  -4    9.71    1.31
  -4 -10   4   11.37    1.35
  -4 -10   4    9.46    1.34
   4  10  -4   10.25    1.42
  -4  10   4   11.31    1.25
   2 -10  -4  161.05    5.17
  -2 -10   4  159.39    5.47
   2 -10  -4  157.73    5.13
  -2  10   4  159.53    5.21
   2  10  -4  156.88    5.27
   0 -10  -4   19.96    1.54
   0 -10   4   20.46    1.66
   0  10   4   19.56    1.50
   0  10  -4   18.89    1.44
  -2 -10  -4   22.24    1.72
   2 -10   4   21.06    1.73
   2  10   4   15.46    1.61
  -2  10  -4   21.74    1.54
  -4 -10  -4   16.21    1.89
   4 -10   4   13.71    1.69
  -4  10  -4   12.62    1.43
   4  10   4   17.27    1.87
   6 -10   4   59.20    3.15
   6 -10   4   48.51    3.08
  -6 -10  -4   58.59    3.32
  -6  10  -4   55.54    2.81
   6  10   4   57.59    3.30
   8 -10   4   68.29    3.89
   8 -10   4   73.79    3.74
  -8 -10  -4   72.81    3.97
  -8  10  -4   72.98    3.41
   8  10   4   63.01    3.90
  -9 -11   4   30.77    3.68
   9 -11  -4   28.51    2.77
  -9  11   4   30.88    2.47
   9  11  -4   27.43    2.77
   7 -11  -4    0.12    0.62
  -7 -11   4   -0.67    0.41
  -7 -11   4    1.35    0.77
   7  11  -4    0.51    0.68
  -7  11   4   -0.10    0.58
  -5 -11   4   25.83    1.82
   5 -11  -4   24.32    1.91
  -5 -11   4   23.19    1.89
   5  11  -4   23.92    2.02
  -3 -11   4    0.08    0.55
   3 -11  -4   -0.27    0.42
   3  11  -4   -0.44    0.33
  -3  11   4    0.39    0.44
  -1 -11   4   35.53    2.31
   1 -11  -4   40.46    2.21
  -1  11   4   39.76    2.18
   1  11  -4   37.77    2.19
  -1 -11  -4   46.94    2.52
   1 -11   4   46.50    2.68
  -1  11  -4   47.55    2.49
   1  11   4   46.23    2.49
   3 -11   4   23.29    1.95
  -3 -11  -4   25.02    1.98
  -3  11  -4   21.31    1.67
   3  11   4   24.28    1.90
   5 -11   4   58.28    3.21
  -5 -11  -4   55.88    3.22
  -5  11  -4   56.31    2.88
   5  11   4   54.67    3.22
  -7 -11  -4    4.21    1.23
   7 -11   4    3.30    1.18
   7 -11   4    5.06    1.19
  -7  11  -4    4.57    1.11
   7  11   4    5.57    1.42
   8 -12  -4   32.62    2.60
  -8  12   4   34.41    2.55
   8  12  -4   35.83    2.86
  -6 -12   4   21.08    2.09
   6 -12  -4   20.62    2.16
  -6 -12   4   21.90    2.25
   6  12  -4   20.62    2.34
  -4 -12   4    9.84    1.46
   4  12  -4   10.80    1.42
   2 -12  -4    2.48    0.74
  -2 -12   4    3.05    0.93
  -2  12   4    3.48    0.80
   2  12  -4    3.36    0.83
   0 -12   4   16.19    1.87
   0 -12  -4   15.47    1.66
   0  12   4   16.76    1.68
   0  12  -4   13.03    1.49
  -2 -12  -4    7.23    1.28
   2 -12   4    8.11    1.40
  -2  12  -4    9.21    1.29
   2  12   4    6.99    1.21
  -4 -12  -4   20.31    2.25
   4 -12   4   17.99    2.09
   4  12   4   21.70    2.23
  -4  12  -4   22.23    1.79
   6 -12   4   54.92    3.39
  -6 -12  -4   63.07    3.68
   6  12   4   68.15    3.86
  -6  12  -4   61.06    3.20
   7 -13  -4   30.91    2.50
  -7 -13   4   29.45    2.44
   7  13  -4   32.22    3.06
  -5 -13   4    0.16    0.73
   5  13  -4   -0.08    0.52
  -3 -13   4   96.71    4.34
   3  13  -4   94.31    4.04
  -1 -13   4   19.08    2.11
   1 -13  -4   21.85    1.85
  -1  13   4   21.39    2.01
   1  13  -4   25.72    1.89
  -1 -13  -4    2.20    0.82
   1 -13   4    2.68    0.98
   1  13   4    2.21    0.77
  -1  13  -4    2.78    0.80
  -3 -13  -4  117.70    4.88
   3 -13   4  115.26    4.91
  -3  13  -4  107.37    4.49
   3  13   4  115.34    4.81
  -2 -14   4   46.78    3.14
   2  14  -4   43.05    2.98
   0 -14  -4   44.26    2.76
   0 -14   4   43.78    3.19
   0  14   4   45.91    2.68
   0  14  -4   49.17    2.86
  -2 -14  -4    9.41    1.53
   2  14   4   10.03    1.59
   1 -15  -4  139.53    6.89
 -12   0   5    0.21    0.62
  12   0  -5    1.16    0.96
  12   0  -5   -0.17    0.69
  10   0  -5    0.16    0.48
  10   0  -5   -0.40    0.51
 -10   0   5   -0.63    0.44
  -8   0   5   -0.25    0.37
   8   0  -5    0.43    0.41
  -8   0   5   -0.07    0.37
  -6   0   5   -0.06    0.29
  -6   0   5    0.00    0.28
   6   0  -5   -0.09    0.26
  -4   0   5    0.41    0.32
   4   0  -5    0.02    0.25
  -4   0   5    0.21    0.21
   2   0  -5   -0.47    0.20
  -2   0   5    0.09    0.16
  -2   0   5   -0.09    0.23
   2   0  -5    0.22    0.26
   0   0   5    0.10    0.22
   0   0   5    0.04    0.25
   0   0   5   -0.08    0.12
   0   0  -5   -0.56    0.23
   2   0   5    0.06    0.24
   2   0   5    0.17    0.27
  -2   0  -5    0.69    0.49
  -4   0  -5    0.09    0.42
   4   0   5    0.19    0.36
   4   0   5    0.45    0.29
  -6   0  -5   -0.22    0.47
   6   0   5   -0.44    0.42
   8   0   5    0.18    0.54
  -8   0  -5    0.12    0.59
 -10   0  -5    0.24    0.72
  10   0   5   -0.91    0.49
 -12   0  -5    0.83    0.84
  12   0   5   -0.05    0.70
  13  -1  -5    9.16    1.69
 -13  -1   5   10.64    1.73
  13  -1  -5    8.37    1.52
  13   1  -5   13.02    2.01
 -13   1   5    9.79    1.65
 -11  -1   5   36.95    2.53
  11  -1  -5   40.89    2.50
  11  -1  -5   35.49    2.34
  11   1  -5   35.46    2.53
 -11   1   5   32.70    2.37
  -9  -1   5   23.17    1.75
   9  -1  -5   19.90    1.58
   9   1  -5   19.38    1.95
  -9   1   5   18.47    1.83
   9   1  -5   20.53    1.55
  -9   1   5   23.22    1.70
  -7  -1   5    0.08    0.40
   7  -1  -5    0.24    0.33
  -7  -1   5    0.03    0.38
  -7   1   5    0.14    0.38
   7   1  -5    0.12    0.35
  -7   1   5   -0.09    0.30
  -5  -1   5   18.40    1.27
  -5  -1   5   19.31    1.18
   5  -1  -5   17.67    1.19
  -5   1   5   17.94    1.17
  -5   1   5   19.13    1.29
   5   1  -5   17.23    1.13
  -3  -1   5   97.42    3.30
   3  -1  -5   97.51    2.94
  -3  -1   5   98.22    3.03
   3  -1  -5   95.30    3.23
  -3   1   5  100.10    2.97
   3   1  -5   98.47    3.07
   3   1  -5   98.67    3.19
  -3   1   5   94.74    3.30
  -1  -1   5   17.40    1.06
   1  -1  -5   15.76    1.09
  -1  -1   5   15.96    0.84
  -1  -1   5   17.75    1.10
  -1   1   5   17.88    1.11
  -1   1   5   18.20    0.77
   1   1  -5   16.41    1.08
  -1   1   5   17.97    1.13
   1  -1   5   22.90    1.19
   1  -1   5   23.44    1.33
  -1  -1  -5   24.64    1.53
   1   1   5   24.12    1.34
  -1   1  -5   23.55    1.48
   1   1   5   21.76    1.23
  -1   1  -5   24.22    0.96
  -3  -1  -5  146.43    4.92
   3  -1   5  146.96    4.18
   3  -1   5  136.58    4.52
  -3   1  -5  147.20    4.86
   3   1   5  137.09    4.50
  -3   1  -5  141.43    3.91
   3   1   5  144.57    4.33
  -5  -1  -5    0.56    0.57
   5  -1   5   -0.14    0.38
   5   1   5    0.47    0.33
   5   1   5    0.29    0.36
  -5   1  -5    0.12    0.49
   7  -1   5   98.83    4.15
  -7  -1  -5  100.41    4.16
   7   1   5  102.27    4.09
  -7   1  -5   99.33    4.12
  -9  -1  -5    2.28    0.87
   9  -1   5    2.08    0.90
   9   1   5    2.99    0.91
  -9   1  -5    3.61    1.06
 -11  -1  -5   10.08    1.59
  11  -1   5   14.68    2.04
 -11   1  -5   14.65    1.89
  11   1   5   12.71    1.82
 -12  -2   5   57.63    3.38
  12  -2  -5   69.60    3.50
  12  -2  -5   65.76    3.50
  12   2  -5   63.62    3.68
 -12   2   5   66.31    3.53
  10  -2  -5   49.66    2.67
 -10  -2   5   47.27    2.69
 -10   2   5   47.26    2.69
  10   2  -5   44.77    2.77
  -8  -2   5    7.47    1.08
   8  -2  -5   10.72    1.29
  -8   2   5    8.76    1.14
   8   2  -5    8.59    1.27
   8   2  -5    7.91    0.99
  -8   2   5    7.91    1.15
  -6  -2   5  194.45    5.81
  -6  -2   5  187.82    6.00
   6  -2  -5  196.83    5.93
  -6   2   5  206.20    5.95
  -6   2   5  201.96    5.99
   6   2  -5  194.45    5.65
  -4  -2   5   48.93    1.80
  -4  -2   5   46.83    2.09
  -4  -2   5   44.96    1.88
   4  -2  -5   45.77    2.03
   4   2  -5   45.30    1.86
  -4   2   5   47.33    2.09
  -4   2   5   44.65    1.83
  -2  -2   5  115.01    3.38
   2  -2  -5  115.86    3.41
  -2  -2   5  106.80    3.50
   2  -2  -5  114.26    3.66
  -2  -2   5  110.04    3.59
  -2  -2   5  112.82    3.55
  -2   2   5  111.72    3.67
  -2   2   5  112.77    3.14
   0  -2   5  193.65    5.25
   0  -2  -5  184.39    5.51
   0  -2   5  185.65    5.36
   0   2  -5  189.64    5.48
   0   2   5  181.90    5.37
   0   2   5  184.18    5.41
   2  -2   5  157.68    4.87
   2  -2   5  167.81    4.53
  -2  -2  -5  157.63    5.14
  -2   2  -5  157.24    4.31
   2   2   5  160.48    4.77
  -2   2  -5  156.97    5.03
   2   2   5  160.25    4.88
  -4  -2  -5   94.81    3.81
   4  -2   5   97.72    3.65
  -4   2  -5  100.43    3.01
   4   2   5  100.67    3.45
   4   2   5   97.79    3.54
  -4   2  -5  100.14    3.81
  -6  -2  -5  114.53    4.42
   6  -2   5  109.66    4.34
   6   2   5  114.34    3.95
   6   2   5  113.87    4.17
  -6   2  -5  107.65    4.32
  -8  -2  -5   -0.35    0.57
   8  -2   5   -0.37    0.54
  -8   2  -5    0.24    0.59
   8   2   5    0.33    0.49
 -10  -2  -5  168.96    6.13
  10  -2   5  162.52    6.36
  10   2   5  160.80    6.07
 -10   2  -5  165.76    6.21
 -12  -2  -5    0.59    0.92
  12   2   5    1.11    0.85
 -12   2  -5   -0.19    0.75
  13  -3  -5   40.02    2.95
  13   3  -5   42.76    3.39
  11  -3  -5    6.92    1.30
  11  -3  -5    8.87    1.47
 -11  -3   5    8.11    1.38
  11   3  -5    6.36    1.41
 -11   3   5    7.00    1.26
   9  -3  -5  326.44    9.53
  -9  -3   5  319.70    9.41
   9   3  -5  329.51    9.87
  -9   3   5  320.81    9.25
  -9   3   5  313.43    9.51
  -7  -3   5   35.35    1.92
   7  -3  -5   34.62    1.96
  -7   3   5   31.24    1.92
   7   3  -5   35.44    1.71
   7   3  -5   32.09    2.02
  -7   3   5   36.19    1.95
   5  -3  -5   -0.20    0.25
  -5  -3   5    0.07    0.29
  -5   3   5    0.09    0.35
  -5   3   5    0.22    0.33
   5   3  -5    0.11    0.23
   3  -3  -5  420.44   10.78
  -3  -3   5  445.38   11.16
  -3  -3   5  441.89   11.19
   3  -3  -5  441.39   11.39
  -3  -3   5  430.04   11.40
   3   3  -5  438.67   11.07
  -3   3   5  451.08   10.95
  -3   3   5  433.94   11.41
  -1  -3   5   28.41    1.37
  -1  -3   5   25.28    1.32
  -1  -3   5   26.67    1.44
  -1  -3   5   25.17    1.21
   1  -3  -5   25.92    1.41
   1  -3  -5   28.36    1.40
  -1   3   5   22.62    1.36
   1  -3   5  110.69    3.58
   1  -3   5  112.11    3.34
  -1  -3  -5  110.57    3.77
   1  -3   5  107.34    3.73
   1   3   5  103.76    3.55
   1   3   5  110.87    3.63
  -1   3  -5  104.17    3.19
  -3  -3  -5   37.13    2.10
   3  -3   5   39.33    1.97
  -3   3  -5   40.48    1.57
   3   3   5   40.64    1.90
  -3   3  -5   34.48    1.98
   3   3   5   40.46    1.91
   5  -3   5    3.36    0.82
  -5  -3  -5    3.33    0.84
  -5   3  -5    2.58    0.78
   5   3   5    3.67    0.74
  -5   3  -5    2.89    0.54
   5   3   5    2.78    0.65
   7  -3   5  258.94    8.34
  -7  -3  -5  261.43    8.19
   7   3   5  266.81    7.94
  -7   3  -5  255.34    8.15
   7   3   5  258.42    7.83
   9  -3   5    4.58    1.14
  -9  -3  -5    2.04    0.92
  -9   3  -5    7.17    1.37
   9   3   5    2.37    0.87
 -11  -3  -5    0.73    0.76
  11  -3   5    1.98    1.03
  11   3   5    0.80    0.75
 -11   3  -5    1.19    0.89
  12  -4  -5  125.84    5.34
 -12  -4   5  113.13    5.05
  12   4  -5  128.88    5.66
 -12   4   5  126.39    5.18
 -10  -4   5    1.28    0.68
  10  -4  -5    1.29    0.72
 -10   4   5    0.92    0.71
 -10   4   5    1.84    0.69
  10   4  -5    0.03    0.80
   8  -4  -5  122.07    4.55
  -8  -4   5  121.14    4.43
  -8   4   5  122.27    4.33
  -8   4   5  126.62    4.58
   8   4  -5  118.37    4.76
  -6  -4   5  130.00    4.28
   6  -4  -5  133.97    4.50
   6   4  -5  131.75    4.66
  -6   4   5  124.88    4.32
  -6   4   5  122.69    4.37
  -4  -4   5  289.60    7.76
  -4  -4   5  286.92    7.64
   4  -4  -5  274.25    7.92
  -4   4   5  278.21    7.68
   4   4  -5  290.89    8.08
   4   4  -5  280.27    7.44
  -4   4   5  286.61    7.93
  -2  -4   5   57.88    2.21
  -2  -4   5   62.51    2.41
  -2  -4   5   59.27    2.39
   2  -4  -5   59.37    2.41
  -2  -4   5   59.80    2.19
   2  -4  -5   58.57    2.14
  -2   4   5   61.13    2.45
  -2   4   5   61.42    2.00
   0  -4   5   75.24    2.91
   0  -4  -5   83.18    2.87
   0  -4  -5   81.26    2.90
   0  -4   5   77.25    2.66
   0  -4   5   74.99    2.71
   0   4  -5   78.00    2.59
   0   4   5   73.77    2.83
  -2  -4  -5  141.22    4.78
   2  -4   5  149.39    4.77
   2  -4   5  142.14    4.51
   2   4   5  149.26    4.59
   2   4   5  141.67    4.55
  -2   4  -5  140.96    4.17
  -4  -4  -5  176.65    6.03
   4  -4   5  190.39    5.93
  -4   4  -5  180.22    5.85
   4   4   5  179.93    5.58
   4   4   5  193.25    5.77
  -4   4  -5  182.63    5.23
   6  -4   5   -0.12    0.47
  -6  -4  -5    0.13    0.56
   6   4   5    0.18    0.44
  -6   4  -5    0.05    0.45
   6   4   5    0.09    0.40
  -6   4  -5   -0.15    0.27
  -8  -4  -5   26.90    2.11
   8  -4   5   23.50    2.38
  -8   4  -5   24.30    2.04
   8   4   5   27.53    1.93
   8   4   5   24.03    1.93
 -10  -4  -5    7.90    1.49
  10  -4   5    7.65    1.51
 -10   4  -5    6.90    1.41
 -11  -5   5  166.49    6.12
  11  -5  -5  164.06    6.29
 -11   5   5  164.24    6.09
  11   5  -5  164.12    6.61
  -9  -5   5   44.34    2.50
   9  -5  -5   46.77    2.67
   9   5  -5   47.60    2.98
  -9   5   5   41.87    2.32
  -9   5   5   43.94    2.60
  -7  -5   5   45.17    2.28
   7  -5  -5   50.45    2.52
  -7   5   5   45.08    2.43
  -7   5   5   45.20    2.26
   7   5  -5   45.18    2.65
  -5  -5   5   23.28    1.38
   5  -5  -5   20.88    1.47
  -5  -5   5   20.01    1.36
  -5   5   5   20.93    1.40
  -5   5   5   18.74    1.39
   5   5  -5   24.51    1.71
  -3  -5   5   79.43    2.93
  -3  -5   5   77.54    2.86
   3  -5  -5   80.06    3.02
   3   5  -5   85.06    3.15
   3   5  -5   80.38    2.64
  -3   5   5   80.34    2.78
  -3   5   5   76.07    3.00
  -1  -5   5  373.63    9.67
  -1  -5   5  380.50    9.77
   1  -5  -5  370.26    9.75
  -1  -5   5  377.64   10.02
   1  -5  -5  379.38    9.96
   1   5  -5  367.04    9.86
  -1   5   5  374.99   10.06
   1  -5   5    1.94    0.47
  -1  -5  -5    2.83    0.56
   1  -5   5    3.05    0.72
  -1  -5  -5    2.44    0.65
   1   5   5    2.13    0.55
  -1   5  -5    2.48    0.49
   3  -5   5   35.04    1.90
   3  -5   5   37.30    2.07
  -3  -5  -5   32.59    2.00
   3   5   5   33.84    1.89
  -3   5  -5   36.01    1.63
   3   5   5   34.32    1.79
  -5  -5  -5  210.81    7.13
   5  -5   5  227.78    7.17
   5   5   5  236.96    7.06
   5   5   5  222.01    6.65
  -5   5  -5  229.86    6.41
  -5   5  -5  216.22    6.95
  -7  -5  -5   24.40    2.04
   7  -5   5   21.39    2.21
   7   5   5   22.10    1.86
   7   5   5   21.16    1.57
  -7   5  -5   25.33    1.94
  -7   5  -5   22.44    1.51
  -9  -5  -5   15.97    2.01
   9  -5   5   14.84    2.05
  -9   5  -5   15.82    2.01
   9   5   5   12.67    1.79
 -11  -5  -5   13.17    2.04
 -11   5  -5   12.52    1.87
 -12   6   5    0.75    0.71
  10  -6  -5   58.73    3.22
 -10  -6   5   54.93    2.99
 -10   6   5   56.75    3.11
  10   6  -5   57.33    3.53
  -8  -6   5   74.57    3.30
   8  -6  -5   80.26    3.58
  -8   6   5   73.80    3.17
  -8   6   5   76.05    3.49
   8   6  -5   77.25    3.86
   6  -6  -5    0.49    0.49
  -6  -6   5    0.43    0.40
   6   6  -5    1.11    0.74
  -6   6   5    0.40    0.51
  -6   6   5    0.83    0.48
  -4  -6   5  127.49    4.18
  -4  -6   5  118.74    4.13
   4  -6  -5  130.57    4.35
  -4   6   5  132.58    4.35
   4   6  -5  131.55    4.63
  -4   6   5  116.88    4.15
  -2  -6   5  140.29    4.38
  -2  -6   5  142.05    4.10
   2  -6  -5  137.17    4.20
  -2  -6   5  141.77    4.55
   2  -6  -5  137.74    4.50
  -2   6   5  136.39    4.56
   2   6  -5  140.64    4.65
   0  -6  -5    5.46    0.77
   0  -6   5    6.04    0.77
   0  -6   5    6.57    0.95
   0  -6  -5    7.21    0.95
   0   6   5    5.73    0.85
   0   6  -5    6.45    0.80
   0   6  -5    5.85    1.00
  -2  -6  -5  146.24    4.60
   2  -6   5  146.58    4.96
  -2  -6  -5  151.47    5.00
   2  -6   5  148.59    4.68
   2   6   5  144.94    4.83
  -2   6  -5  143.01    4.49
  -4  -6  -5    0.67    0.55
   4  -6   5   -0.11    0.42
   4  -6   5    0.47    0.56
   4   6   5    0.28    0.42
  -4   6  -5    0.01    0.30
   4   6   5    0.36    0.39
   6  -6   5   29.87    2.25
  -6  -6  -5   31.83    2.29
  -6   6  -5   33.80    1.83
   6   6   5   33.95    2.26
   6   6   5   30.05    1.83
  -6   6  -5   32.94    2.19
   8  -6   5  146.54    5.96
  -8  -6  -5  145.29    5.83
  -8   6  -5  152.31    5.09
  -8   6  -5  163.09    5.79
   8   6   5  142.48    5.74
  10  -6   5   23.48    2.69
 -10  -6  -5   25.24    2.64
  10   6   5   22.87    2.48
 -10   6  -5   23.63    2.54
 -11  -7   5   24.85    2.37
  11  -7  -5   28.84    2.86
  11   7  -5   29.10    2.88
 -11   7   5   28.21    2.26
  -9  -7   5   18.29    1.85
   9  -7  -5   19.32    2.13
   9   7  -5   20.79    2.41
  -9   7   5   17.32    1.96
  -9   7   5   17.87    1.48
   7  -7  -5   12.85    1.56
  -7  -7   5    9.40    1.18
  -7   7   5   12.63    1.55
   7   7  -5   13.27    1.85
  -7   7   5   10.38    1.23
   5  -7  -5   37.26    2.16
  -5  -7   5   40.99    2.11
  -5  -7   5   38.35    2.06
  -5   7   5   44.01    2.17
   5   7  -5   40.65    2.56
  -5   7   5   40.42    2.21
   3  -7  -5   33.84    1.87
  -3  -7   5   35.10    1.92
  -3  -7   5   33.19    1.79
  -3   7   5   32.44    1.86
   3   7  -5   33.85    2.11
  -1  -7   5   61.16    2.70
   1  -7  -5   63.64    2.48
   1  -7  -5   60.12    2.51
   1   7  -5   54.62    2.59
  -1   7   5   59.25    2.59
   1   7  -5   62.64    2.52
   1  -7   5    1.42    0.67
  -1  -7  -5    1.02    0.42
  -1  -7  -5    1.23    0.54
   1  -7   5    1.10    0.41
   1   7   5    1.10    0.51
  -1   7  -5    0.64    0.40
   3  -7   5   35.73    1.99
  -3  -7  -5   35.80    1.82
  -3  -7  -5   36.15    2.17
   3  -7   5   36.94    2.18
  -3   7  -5   34.67    1.81
   3   7   5   32.98    2.02
   5  -7   5  120.23    4.75
  -5  -7  -5  133.59    5.05
   5  -7   5  137.84    5.04
  -5   7  -5  128.95    4.35
   5   7   5  131.04    4.92
   5   7   5  120.87    4.31
   7  -7   5    1.74    0.92
  -7  -7  -5    2.68    0.99
  -7   7  -5    1.89    0.66
  -7   7  -5    2.84    0.91
   7   7   5    1.71    0.80
   9  -7   5   15.61    2.18
  -9  -7  -5   16.17    2.13
  -9   7  -5   21.61    2.38
   9   7   5   17.84    2.23
  10  -8  -5    8.45    1.55
 -10  -8   5    7.71    1.34
 -10   8   5    8.95    1.59
  10   8  -5   12.97    1.96
   8  -8  -5    5.59    1.19
  -8  -8   5    4.35    0.97
  -8   8   5    2.95    0.79
   8   8  -5    3.32    1.14
  -8   8   5    5.91    1.14
  -6  -8   5   35.00    2.06
   6  -8  -5   36.86    2.24
   6   8  -5   38.49    2.61
  -6   8   5   31.43    2.13
  -6   8   5   36.58    2.03
  -4  -8   5    2.44    0.71
  -4  -8   5    1.83    0.64
   4  -8  -5    2.39    0.67
  -4   8   5    2.21    0.63
   4   8  -5    2.25    0.86
  -2  -8   5    9.41    1.25
   2  -8  -5    8.65    1.10
   2  -8  -5    8.03    0.97
   2   8  -5    8.01    1.09
  -2   8   5    8.41    1.08
   2   8  -5    8.54    1.21
   0  -8  -5   11.00    1.24
   0  -8   5    9.85    1.28
   0  -8  -5   10.70    1.13
   0   8   5   11.08    1.28
   0   8  -5   11.13    1.17
  -2  -8  -5   -0.11    0.46
  -2  -8  -5    0.14    0.30
   2  -8   5   -0.16    0.47
   2  -8   5    0.01    0.35
  -2   8  -5    0.36    0.37
   2   8   5    0.16    0.41
   4  -8   5   13.65    1.54
   4  -8   5   12.90    1.64
  -4  -8  -5   10.69    1.48
  -4   8  -5   12.08    1.29
   4   8   5   10.09    1.40
   6  -8   5   20.65    2.15
   6  -8   5   20.04    2.18
  -6  -8  -5   18.74    2.23
   6   8   5   21.79    2.25
  -6   8  -5   19.51    1.53
  -8  -8  -5    3.40    1.26
   8  -8   5    4.20    1.26
  -8   8  -5    4.17    0.93
   8   8   5    1.94    1.08
  -8   8  -5    1.43    0.88
   9  -9  -5    0.01    0.61
  -9  -9   5    0.00    0.62
  -9   9   5    0.76    0.73
   9   9  -5   -0.05    0.72
   7  -9  -5   12.14    1.63
  -7  -9   5   12.69    1.52
  -7   9   5    9.46    1.22
  -7   9   5   13.65    1.66
   7   9  -5   12.33    1.77
  -5  -9   5   22.98    1.66
   5  -9  -5   21.66    1.70
  -5  -9   5   18.97    1.62
   5   9  -5   23.26    2.23
  -5   9   5   24.28    1.66
   3  -9  -5    7.75    1.13
  -3  -9   5    5.38    1.04
  -3   9   5    5.54    0.94
   3   9  -5    5.35    1.08
  -1  -9   5   21.03    1.65
   1  -9  -5   19.61    1.46
   1  -9  -5   18.85    1.39
   1   9  -5   22.45    1.52
  -1   9   5   17.53    1.44
  -1  -9  -5   50.79    2.54
  -1  -9  -5   50.18    2.27
   1  -9   5   48.13    2.60
  -1   9  -5   50.59    2.38
   1   9   5   47.09    2.47
   3  -9   5    0.17    0.41
   3  -9   5    0.43    0.59
  -3  -9  -5    0.72    0.61
   3   9   5   -0.43    0.38
  -3   9  -5   -0.06    0.39
   5  -9   5   86.60    3.92
  -5  -9  -5   87.79    4.10
   5  -9   5   81.96    3.87
   5   9   5   89.57    4.06
  -5   9  -5   85.04    3.50
   7  -9   5   26.65    2.17
  -7  -9  -5   18.71    2.27
   7  -9   5   19.94    2.32
  -7   9  -5   20.64    1.96
   7   9   5   18.52    2.24
  -9   9  -5   18.02    1.97
  -9   9  -5   13.53    2.25
 -10  10   5   26.68    2.63
   8 -10  -5   48.55    2.99
  -8 -10   5   52.66    2.89
   8  10  -5   52.67    3.32
  -6 -10   5    9.97    1.51
   6 -10  -5   13.43    1.70
  -6 -10   5   10.37    1.45
  -6  10   5    7.85    1.14
   6  10  -5    9.98    1.56
   4 -10  -5   67.27    3.14
  -4 -10   5   67.81    3.24
  -4 -10   5   69.27    3.12
   4  10  -5   66.73    3.36
  -4  10   5   74.63    3.17
   2 -10  -5   37.11    2.11
  -2 -10   5   34.37    2.22
  -2  10   5   37.91    2.15
   2  10  -5   39.09    2.19
   0 -10  -5    0.04    0.46
   0 -10   5    0.13    0.55
   0  10  -5   -0.07    0.38
   0  10   5    0.43    0.46
   2 -10   5  226.26    7.27
  -2 -10  -5  220.48    7.10
   2  10   5  219.71    7.13
  -2  10  -5  220.08    6.83
  -4 -10  -5    2.43    0.93
   4 -10   5    0.89    0.67
   4  10   5    2.48    0.83
  -4  10  -5    1.72    0.65
   6 -10   5   18.88    2.20
   6 -10   5   18.71    2.14
  -6 -10  -5   20.33    2.38
  -6  10  -5   20.34    1.98
   6  10   5   22.48    2.42
   8 -10   5   58.94    3.82
  -8  10  -5   78.17    3.55
  -8  10  -5   93.03    6.32
   7 -11  -5   95.61    4.26
  -7 -11   5   88.12    3.99
   7  11  -5   89.18    4.43
   5 -11  -5   71.21    3.46
  -5 -11   5   77.50    3.61
  -5 -11   5   71.18    3.33
   5  11  -5   64.27    3.51
  -5  11   5   76.14    3.30
   3 -11  -5    3.81    0.93
  -3 -11   5    3.56    0.97
  -3  11   5    3.77    0.86
   3  11  -5    3.79    0.89
  -1 -11   5  243.74    7.80
   1 -11  -5  236.32    7.34
  -1  11   5  239.94    7.50
   1  11  -5  245.19    7.53
  -1 -11  -5   37.52    2.33
   1 -11   5   35.55    2.39
   1  11   5   33.61    2.18
  -1  11  -5   35.58    2.20
   3 -11   5    1.33    0.81
  -3 -11  -5    0.17    0.62
  -3  11  -5    0.50    0.52
   3  11   5    0.65    0.65
  -5 -11  -5   93.63    4.46
   5 -11   5   95.14    4.39
   5  11   5   97.29    4.53
  -5  11  -5   89.62    3.91
  -7  11  -5    0.17    0.58
   6 -12  -5  208.34    7.22
  -6 -12   5  206.50    7.30
   4 -12  -5   90.54    4.14
  -4 -12   5   93.08    4.23
  -4  12   5   94.71    3.94
   4  12  -5   97.04    4.09
  -2 -12   5    1.10    0.73
   2  12  -5    0.35    0.54
  -2  12   5    0.34    0.48
   0 -12   5   11.49    1.73
   0 -12  -5   11.53    1.46
   0  12  -5    9.81    1.40
   0  12   5   11.61    1.50
   2 -12   5   65.54    3.49
  -2 -12  -5   64.99    3.37
  -2  12  -5   69.82    3.22
   2  12   5   67.96    3.40
   4 -12   5   28.94    2.43
  -4 -12  -5   27.45    2.32
  -4  12  -5   25.66    1.99
   4  12   5   32.92    2.43
  -5 -13   5   10.30    1.69
  -3 -13   5   61.74    3.46
  -3  13   5   64.17    3.20
   3  13  -5   66.39    3.31
  -1 -13   5   40.96    2.76
  -1  13   5   41.64    2.51
   1  13  -5   38.20    2.43
   1 -13   5   53.04    3.16
  -1 -13  -5   51.16    2.96
   1  13   5   47.73    2.81
  -1  13  -5   51.20    2.84
  -3 -13  -5   45.22    3.18
  -2  14   5    0.73    0.80
   0 -14  -5  114.05    4.83
   0  14   5  121.33    5.38
 -12   0   6   29.35    2.39
  12   0  -6   31.19    2.96
  10   0  -6  268.56    8.43
 -10   0   6  248.84    8.24
  10   0  -6  261.53    8.02
  -8   0   6  157.83    5.48
  -8   0   6  162.98    5.38
   8   0  -6  155.49    5.21
   6   0  -6    8.04    1.00
  -6   0   6    8.60    1.17
  -6   0   6    9.68    1.07
  -4   0   6  315.74    8.33
  -4   0   6  314.37    8.81
   4   0  -6  318.07    8.64
   2   0  -6  162.53    4.93
   2   0  -6  154.33    4.90
  -2   0   6  157.88    4.93
  -2   0   6  164.15    4.42
   0   0   6  109.35    3.65
   0   0   6  112.82    3.80
   0   0  -6  110.67    4.00
  -2   0  -6  345.68    9.81
   2   0   6  341.14    9.13
   2   0   6  343.31    9.43
   4   0   6   74.34    3.16
   4   0   6   77.53    2.85
  -4   0  -6   71.93    3.36
   6   0   6  358.12   10.41
  -6   0  -6  357.24   10.67
   8   0   6   37.32    2.52
  -8   0  -6   39.06    2.60
 -10   0  -6   12.65    1.84
  10   0   6   15.11    2.07
  13  -1  -6   26.22    3.51
 -11  -1   6   14.28    1.84
  11  -1  -6   14.11    1.88
  11  -1  -6   10.24    1.49
  11   1  -6   13.20    1.91
 -11   1   6   10.30    1.68
   9  -1  -6   43.02    2.36
  -9  -1   6   37.31    2.34
   9   1  -6   39.38    2.19
   9   1  -6   42.57    2.56
  -9   1   6   42.90    2.44
  -9   1   6   43.38    2.48
   7  -1  -6  303.48    8.74
  -7  -1   6  306.96    8.72
  -7  -1   6  305.69    8.99
  -7   1   6  309.63    8.95
  -7   1   6  322.21    8.78
   7   1  -6  302.77    8.58
  -5  -1   6    4.02    0.67
  -5  -1   6    3.42    0.74
   5  -1  -6    2.58    0.62
   5   1  -6    2.56    0.58
  -5   1   6    4.36    0.67
  -5   1   6    2.73    0.65
  -3  -1   6   -0.21    0.31
  -3  -1   6    0.55    0.27
   3  -1  -6    0.21    0.32
  -3   1   6    0.83    0.38
   3   1  -6    0.90    0.38
   3   1  -6    0.17    0.37
  -3   1   6    0.30    0.23
  -1  -1   6  413.47   10.86
  -1  -1   6  422.60   10.32
  -1  -1   6  419.58   10.92
   1  -1  -6  411.86   11.02
  -1   1   6  413.83   10.90
   1   1  -6  403.58   11.00
   1  -1   6   18.76    1.18
  -1  -1  -6   19.53    1.51
   1  -1   6   18.74    1.29
   1   1   6   18.11    1.29
   1   1   6   18.01    1.22
  -1   1  -6   18.40    1.48
   3  -1   6  102.20    3.31
   3  -1   6   93.54    3.63
  -3  -1  -6   98.06    3.99
  -3   1  -6   95.39    3.90
   3   1   6   98.35    3.45
   3   1   6   97.59    3.62
   5  -1   6    5.74    1.01
  -5  -1  -6    4.88    1.11
   5   1   6    5.04    0.82
   5   1   6    2.83    0.76
  -5   1  -6    4.83    1.09
  -7  -1  -6   32.70    2.38
   7  -1   6   40.40    2.59
  -7   1  -6   36.80    2.52
   7   1   6   42.49    2.54
  -9  -1  -6  170.40    6.28
   9  -1   6  157.09    6.32
  -9   1  -6  175.59    6.41
   9   1   6  163.16    6.24
  11   1   6   -1.02    0.53
 -11   1  -6    0.31    1.02
  12  -2  -6   52.89    3.13
  12  -2  -6   57.46    3.22
 -12  -2   6   50.45    3.13
  12   2  -6   47.77    3.28
 -12   2   6   43.69    2.99
 -10  -2   6   14.79    1.77
  10  -2  -6   15.90    1.79
 -10   2   6   15.83    1.86
  10   2  -6   16.00    1.99
 -10   2   6   17.06    1.77
  -8  -2   6    6.63    1.07
   8  -2  -6    8.05    1.17
   8   2  -6   11.63    1.51
  -8   2   6    7.43    1.15
  -8   2   6    7.91    1.20
   8   2  -6    5.38    0.87
  -6  -2   6    7.85    1.01
   6  -2  -6    9.15    1.14
  -6  -2   6    9.08    1.18
  -6   2   6    9.37    1.08
   6   2  -6   10.43    1.09
  -6   2   6   10.64    1.22
   4  -2  -6   44.31    2.05
  -4  -2   6   41.54    1.82
  -4  -2   6   43.44    2.10
  -4   2   6   36.36    1.69
   4   2  -6   43.46    1.91
  -4   2   6   40.55    2.04
  -2  -2   6   18.73    1.05
   2  -2  -6   17.32    1.24
  -2  -2   6   18.47    1.26
  -2  -2   6   19.48    1.23
   2  -2  -6   18.75    1.15
   2   2  -6   16.80    1.22
  -2   2   6   16.11    1.20
   0  -2  -6    2.22    0.65
   0  -2   6    2.69    0.57
   0  -2   6    3.60    0.62
   0   2  -6    3.42    0.48
   0   2   6    2.46    0.59
   0   2   6    2.68    0.59
   0   2  -6    3.98    0.78
  -2  -2  -6   36.60    2.14
   2  -2   6   37.92    1.67
   2  -2   6   34.93    1.88
  -2   2  -6   37.32    2.13
   2   2   6   35.15    1.84
   2   2   6   38.14    1.95
   4  -2   6   82.60    3.46
  -4  -2  -6   91.75    3.85
   4   2   6   88.22    3.46
   4   2   6   91.78    3.37
  -4   2  -6   84.07    3.68
  -6  -2  -6    0.20    0.59
   6  -2   6    1.11    0.69
   6   2   6    0.71    0.53
  -6   2  -6    1.14    0.74
   6   2   6    0.60    0.57
  -8  -2  -6    1.93    0.90
   8  -2   6    3.71    1.02
  -8   2  -6    3.89    1.13
   8   2   6    5.88    1.16
 -10  -2  -6   35.38    2.60
  10  -2   6   35.69    2.78
  10   2   6   37.94    2.71
 -10   2  -6   34.06    2.67
  13  -3  -6    4.38    1.31
  11  -3  -6    2.11    0.83
 -11  -3   6    2.57    0.85
 -11   3   6    1.61    0.85
  11   3  -6    2.83    1.16
  -9  -3   6    3.38    0.92
   9  -3  -6    3.39    0.89
   9   3  -6    2.17    0.85
  -9   3   6    2.43    0.79
  -9   3   6    3.56    0.88
   7  -3  -6    1.11    0.60
  -7  -3   6    1.57    0.59
   7   3  -6    2.00    0.69
  -7   3   6    1.47    0.62
  -7   3   6    2.35    0.68
  -5  -3   6   45.69    2.32
   5  -3  -6   46.89    2.29
  -5  -3   6   47.92    2.12
  -5   3   6   49.69    2.09
   5   3  -6   43.46    1.95
  -5   3   6   48.54    2.33
  -3  -3   6   52.78    2.10
  -3  -3   6   53.05    2.34
   3  -3  -6   49.22    2.27
  -3  -3   6   50.13    2.20
  -3   3   6   48.13    2.28
   3   3  -6   52.34    2.13
  -1  -3   6   50.88    2.14
  -1  -3   6   50.86    2.32
   1  -3  -6   51.64    2.19
   1  -3  -6   50.88    2.26
  -1  -3   6   49.17    1.93
  -1  -3   6   53.28    2.21
  -1   3   6   48.72    2.23
   1  -3   6   65.34    2.67
   1  -3   6   71.00    2.55
  -1  -3  -6   63.92    2.84
   1   3   6   64.65    2.72
  -1   3  -6   71.12    2.93
   1   3   6   70.56    2.80
  -1   3  -6   67.54    2.31
   3  -3   6   19.28    1.45
  -3  -3  -6   18.36    1.58
  -3   3  -6   17.27    1.51
   3   3   6   19.01    1.37
   3   3   6   20.17    1.43
  -5  -3  -6   22.82    1.89
   5  -3   6   20.81    1.71
   5   3   6   19.54    1.50
  -5   3  -6   21.54    1.82
   5   3   6   21.40    1.61
  -7  -3  -6   24.36    2.06
   7  -3   6   27.09    2.17
   7   3   6   27.16    1.89
  -7   3  -6   23.85    2.08
   7   3   6   27.22    1.96
   9  -3   6    1.00    0.83
  -9  -3  -6   -0.77    0.62
  -9   3  -6    0.49    0.69
   9   3   6    0.20    0.63
  11   3   6    7.72    1.43
  12  -4  -6   13.55    1.85
  12  -4  -6   10.55    1.71
 -12   4   6   13.23    1.88
 -10  -4   6   31.89    2.28
  10  -4  -6   33.64    2.39
 -10   4   6   37.08    2.29
 -10   4   6   38.61    2.48
  10   4  -6   36.39    2.69
   8  -4  -6   91.95    3.84
  -8  -4   6   88.43    3.64
   8   4  -6   87.33    3.96
  -8   4   6   92.75    3.70
  -8   4   6   85.23    3.73
   6  -4  -6   42.51    2.26
  -6  -4   6   45.77    2.18
   6   4  -6   38.51    2.33
  -6   4   6   42.89    2.16
  -6   4   6   43.93    2.28
  -4  -4   6    2.86    0.64
   4  -4  -6    1.99    0.57
  -4  -4   6    4.29    0.84
   4   4  -6    3.36    0.58
  -4   4   6    2.22    0.60
   2  -4  -6    2.18    0.52
  -2  -4   6    2.81    0.65
   2  -4  -6    2.21    0.59
  -2  -4   6    2.75    0.57
  -2  -4   6    2.27    0.52
  -2  -4   6    3.30    0.72
  -2   4   6    2.88    0.65
   0  -4  -6   51.66    2.34
   0  -4   6   53.27    2.20
   0  -4   6   56.74    2.34
   0  -4  -6   54.12    2.37
   0  -4   6   52.55    2.48
   0   4  -6   54.46    2.10
   0   4   6   53.70    2.44
   2  -4   6   47.01    2.26
  -2  -4  -6   42.93    2.38
  -2   4  -6   51.23    2.46
  -2   4  -6   44.21    1.86
   2   4   6   47.03    2.26
   2   4   6   52.29    2.35
  -4  -4  -6   25.48    1.93
   4  -4   6   26.59    1.82
   4   4   6   24.34    1.63
  -4   4  -6   23.87    1.82
   4   4   6   23.17    1.63
   6  -4   6   23.52    2.00
  -6  -4  -6   27.93    2.18
  -6   4  -6   23.61    1.99
   6   4   6   26.48    1.85
   6   4   6   23.95    1.81
  -8  -4  -6   64.10    3.46
   8  -4   6   65.74    3.69
   8   4   6   62.66    3.22
  -8   4  -6   68.63    3.60
   8   4   6   63.18    3.23
  10  -4   6   24.15    2.85
 -10  -4  -6   23.58    2.52
 -10   4  -6   20.98    2.39
 -11  -5   6    0.85    0.74
  11  -5  -6   -0.44    0.65
 -11   5   6    0.53    0.66
  11   5  -6    2.36    1.10
 -11   5   6   -0.10    0.57
   9  -5  -6   28.48    2.09
  -9  -5   6   28.35    2.01
  -9   5   6   29.41    1.94
   9   5  -6   22.36    2.35
  -9   5   6   21.24    2.11
   7  -5  -6  105.06    4.07
  -7  -5   6   98.88    3.83
  -7   5   6   97.55    3.87
  -7   5   6   97.47    3.91
   7   5  -6   97.58    4.24
  -5  -5   6    0.50    0.43
   5  -5  -6    0.87    0.48
   5   5  -6    0.73    0.58
  -5   5   6    0.29    0.41
   3  -5  -6    0.77    0.41
  -3  -5   6    0.22    0.44
  -3  -5   6    0.22    0.33
   3   5  -6   -0.38    0.28
  -3   5   6   -0.10    0.33
   3   5  -6   -0.10    0.25
  -1  -5   6   44.24    1.98
   1  -5  -6   46.04    2.06
  -1  -5   6   45.97    2.26
   1  -5  -6   43.48    2.13
  -1   5   6   43.62    2.20
   1   5  -6   45.07    2.01
  -1  -5  -6   49.34    2.36
  -1  -5  -6   45.09    2.18
   1  -5   6   43.33    2.33
   1  -5   6   47.89    2.19
  -1   5  -6   44.55    1.93
   1   5   6   46.67    2.28
  -3  -5  -6    8.09    1.26
   3  -5   6    7.19    1.05
   3   5   6    7.65    1.03
  -3   5  -6    6.16    0.77
   3   5   6    8.98    1.20
   5  -5   6   31.58    2.15
  -5  -5  -6   31.05    2.29
  -5   5  -6   30.84    2.18
   5   5   6   30.66    2.05
   5   5   6   34.85    2.03
  -7  -5  -6   -0.36    0.59
   7  -5   6   -0.72    0.48
   7   5   6    0.28    0.60
   7   5   6   -0.09    0.44
  -7   5  -6   -0.01    0.61
  -9  -5  -6   83.44    4.24
   9  -5   6   85.96    4.51
  -9   5  -6   89.63    4.39
  10  -6  -6   10.84    1.68
 -10  -6   6   11.52    1.62
 -10   6   6    9.99    1.57
  10   6  -6   12.50    2.03
 -10   6   6   12.66    1.59
   8  -6  -6    1.49    0.77
  -8  -6   6    2.02    0.67
  -8   6   6    2.30    0.86
   8   6  -6    1.59    0.90
  -8   6   6    3.09    0.80
   6  -6  -6    1.63    0.67
  -6  -6   6    1.23    0.54
  -6   6   6    3.46    0.79
   6   6  -6    2.05    0.90
   4  -6  -6   44.67    2.31
  -4  -6   6   45.83    2.24
  -4  -6   6   45.67    2.17
  -4   6   6   44.36    2.31
   4   6  -6   43.51    2.43
  -2  -6   6    0.86    0.44
  -2  -6   6    2.89    0.75
   2  -6  -6    2.02    0.59
  -2   6   6    2.22    0.64
   2   6  -6    2.07    0.60
   0  -6   6   25.93    1.52
   0  -6  -6   26.06    1.64
   0  -6  -6   31.69    1.78
   0  -6   6   29.84    1.88
   0   6  -6   27.01    1.52
   0   6   6   30.19    1.80
   2  -6   6   75.23    3.30
   2  -6   6   76.96    3.07
  -2  -6  -6   75.18    3.31
  -2  -6  -6   77.68    3.06
  -2   6  -6   73.55    2.82
   2   6   6   74.90    3.21
   4  -6   6  134.82    4.85
  -4  -6  -6  129.01    5.00
   4   6   6  130.20    4.81
  -4   6  -6  125.76    4.22
   4   6   6  128.35    4.54
   6  -6   6    1.51    0.75
  -6  -6  -6    0.03    0.62
  -6   6  -6    0.30    0.62
   6   6   6    0.08    0.50
   6   6   6    1.61    0.77
   8  -6   6    2.91    1.12
  -8  -6  -6    1.43    0.99
   8   6   6    2.91    1.06
  -8   6  -6    2.55    1.02
 -11   7   6    3.51    1.13
  -9  -7   6   96.88    4.16
   9  -7  -6   94.62    4.33
  -9   7   6   97.11    3.98
  -9   7   6   94.99    4.22
   9   7  -6   96.63    4.77
   7  -7  -6   83.01    3.68
  -7  -7   6   74.16    3.36
   7   7  -6   77.28    4.03
  -7   7   6   85.71    3.53
  -5  -7   6  100.19    3.72
   5  -7  -6   93.22    3.84
  -5   7   6   97.14    3.81
   5   7  -6   97.37    4.23
  -3  -7   6  113.57    4.04
   3  -7  -6  117.65    4.24
  -3  -7   6  114.73    4.21
   3   7  -6  111.98    4.39
  -3   7   6  123.53    4.32
  -1  -7   6   29.19    1.88
   1  -7  -6   28.48    1.74
   1  -7  -6   28.79    1.70
  -1   7   6   27.99    1.82
   1   7  -6   28.18    1.67
   1  -7   6  257.31    7.38
   1  -7   6  263.91    7.92
  -1  -7  -6  257.94    7.53
  -1  -7  -6  262.79    7.73
   1   7   6  246.84    7.69
  -1   7  -6  255.89    7.31
   3  -7   6   10.45    1.48
  -3  -7  -6   14.25    1.65
   3  -7   6   12.45    1.42
  -3  -7  -6   13.05    1.35
  -3   7  -6   14.14    1.30
   3   7   6   13.60    1.55
   5  -7   6    0.69    0.61
  -5  -7  -6   -0.56    0.57
   5   7   6    0.48    0.56
  -5   7  -6   -0.22    0.34
   5   7   6   -0.16    0.40
  -7  -7  -6   67.11    3.73
   7  -7   6   63.67    3.71
  -7   7  -6   68.18    3.58
   7   7   6   66.93    3.63
   9   7   6   33.72    2.76
  -9   7  -6   39.38    4.73
 -10   8   6    5.56    1.21
  -8  -8   6   24.56    1.95
   8  -8  -6   25.13    2.07
  -8   8   6   23.47    1.85
   8   8  -6   24.79    2.71
  -6  -8   6  237.03    7.41
   6  -8  -6  244.79    7.72
  -6   8   6  248.01    7.51
   6   8  -6  236.20    8.20
  -4  -8   6   85.76    3.63
   4  -8  -6   95.65    3.76
  -4  -8   6   86.37    3.50
  -4   8   6   92.95    3.70
   4   8  -6   87.01    4.00
   2  -8  -6  301.63    8.88
  -2  -8   6  306.65    9.01
   2   8  -6  318.06    8.86
  -2   8   6  308.62    9.01
   0  -8  -6   20.06    1.47
   0  -8  -6   21.71    1.57
   0  -8   6   20.27    1.67
   0   8  -6   22.36    1.54
   0   8   6   17.68    1.52
   2  -8   6   -0.68    0.45
   2  -8   6    0.03    0.37
  -2  -8  -6    0.62    0.45
  -2  -8  -6    0.90    0.59
   2   8   6    0.36    0.51
  -2   8  -6    0.25    0.38
   4  -8   6  239.47    7.84
  -4  -8  -6  238.02    7.91
   4  -8   6  248.06    7.64
  -4   8  -6  229.94    7.12
   4   8   6  244.68    7.85
  -6  -8  -6   26.62    2.72
   6  -8   6   29.07    2.31
  -6   8  -6   24.87    2.48
   6   8   6   25.67    2.16
  -6   8  -6   26.54    1.79
   8  -8   6   42.97    3.21
  -8   8  -6   54.22    3.27
   8   8   6   47.39    3.22
   9   9  -6  207.16    7.86
   7  -9  -6    2.63    0.90
  -7  -9   6    2.99    0.84
   7   9  -6    1.49    0.92
  -7   9   6    3.58    0.92
   5  -9  -6   39.62    2.41
  -5  -9   6   41.95    2.36
  -5  -9   6   38.79    2.68
  -5   9   6   46.56    2.52
   5   9  -6   44.51    2.90
   3  -9  -6    3.00    0.76
  -3  -9   6    2.98    0.89
   3   9  -6    3.74    0.82
  -3   9   6    4.59    0.94
  -1  -9   6   46.58    2.58
   1  -9  -6   44.60    2.30
   1  -9  -6   44.09    2.34
  -1   9   6   45.18    2.47
   1   9  -6   51.64    2.46
   1  -9   6  212.71    7.14
  -1  -9  -6  212.35    6.61
  -1  -9  -6  222.31    6.93
  -1   9  -6  222.81    6.70
   1   9   6  213.43    7.01
  -3  -9  -6    0.49    0.60
   3  -9   6    0.16    0.61
   3   9   6    0.18    0.51
  -3   9  -6   -0.10    0.32
   5  -9   6    1.21    0.84
   5  -9   6    1.87    0.85
  -5  -9  -6    1.27    0.79
  -5   9  -6    0.88    0.57
   5   9   6    0.84    0.75
  -7  -9  -6  155.02    6.84
   7  -9   6  153.85    6.34
   7   9   6  157.62    6.38
  -7   9  -6  149.69    5.41
  -7   9  -6  157.13    6.18
   8 -10  -6   11.28    1.87
   8  10  -6   16.14    2.21
   6 -10  -6    5.54    1.17
  -6 -10   6    5.24    1.09
  -6  10   6    5.90    1.11
   6  10  -6    6.28    1.43
  -4 -10   6   20.55    2.05
   4 -10  -6   21.05    2.01
  -4  10   6   19.82    1.68
   2 -10  -6   15.84    1.62
  -2 -10   6   13.66    1.65
   2  10  -6   16.50    1.67
  -2  10   6   13.87    1.61
   0 -10  -6   33.56    2.07
   0 -10   6   37.12    2.40
   0 -10  -6   36.97    2.23
   0  10  -6   38.86    2.19
   0  10   6   34.64    2.22
  -2 -10  -6    7.41    1.26
   2 -10   6    7.34    1.33
   2  10   6    8.20    1.33
  -2  10  -6    6.36    1.04
  -4 -10  -6    4.47    1.18
   4 -10   6    3.60    1.07
   4  10   6    1.10    0.83
  -4  10  -6    3.74    0.94
  -6 -10  -6   39.59    3.34
   6 -10   6   39.45    3.15
   6 -10   6   41.99    2.88
   6  10   6   39.95    2.91
  -6  10  -6   39.74    2.43
   7 -11  -6    2.07    0.92
   7  11  -6    3.75    1.24
   5 -11  -6    6.19    1.29
  -5 -11   6    5.17    1.21
  -5  11   6    7.74    1.30
   3 -11  -6   22.10    1.79
  -3 -11   6   24.39    2.38
  -3  11   6   22.43    1.84
   3  11  -6   25.41    1.91
  -1 -11   6   12.31    1.66
   1  11  -6   11.10    1.48
  -1  11   6    9.78    1.39
  -1 -11  -6    0.51    0.67
   1 -11   6   -0.61    0.57
   1  11   6   -0.26    0.47
  -1  11  -6    0.51    0.59
   3 -11   6    4.67    1.26
  -3 -11  -6    2.92    0.98
  -3  11  -6    5.71    1.07
   3  11   6    6.38    1.24
  -5  11  -6   57.63    3.02
   6 -12  -6   11.33    1.87
   4 -12  -6   48.94    2.86
  -4 -12   6   43.25    2.88
  -4  12   6   50.14    2.76
   4  12  -6   44.36    2.91
  -2 -12   6   39.57    2.74
  -2  12   6   40.42    2.54
   2  12  -6   43.51    2.61
   0 -12  -6   26.79    2.11
   0 -12   6   34.19    2.48
   0  12   6   28.98    2.17
   0  12  -6   30.15    2.12
   2 -12   6   11.30    1.94
  -2 -12  -6    9.34    1.57
   2  12   6    8.60    1.49
  -2  12  -6   10.25    1.50
  -3  13   6   -0.08    0.57
  -1  13   6    0.27    0.66
  -1 -13  -6   22.44    2.20
  10   0  -7   -0.36    0.59
 -10   0   7    0.13    0.59
  10   0  -7    0.84    0.62
   8   0  -7    0.03    0.45
  -8   0   7    0.47    0.52
  -8   0   7    0.26    0.51
  -6   0   7   -0.01    0.34
  -6   0   7    0.24    0.42
   6   0  -7    0.03    0.37
   4   0  -7    0.15    0.38
  -4   0   7    0.41    0.31
  -4   0   7   -0.47    0.36
   2   0  -7   -0.24    0.32
   2   0  -7    0.02    0.38
  -2   0   7   -0.03    0.32
   0   0   7   -0.29    0.28
   0   0   7    0.00    0.36
   0   0  -7    0.01    0.46
  -2   0  -7    0.04    0.53
   2   0   7    0.09    0.32
   2   0   7    0.36    0.40
  -4   0  -7    0.48    0.67
   4   0   7    0.45    0.46
  -6   0  -7    0.04    0.67
   6   0   7   -0.28    0.50
   8   0   7    0.20    0.73
  -8   0  -7    0.09    0.73
  11  -1  -7   36.20    2.69
  11  -1  -7   41.28    2.64
 -11  -1   7   44.25    2.79
 -11   1   7   34.44    2.58
  11   1  -7   42.36    2.90
  -9  -1   7    4.53    0.97
   9  -1  -7    2.57    0.83
  -9   1   7    2.57    0.88
   9   1  -7    2.65    0.77
  -9   1   7    2.62    0.86
   7  -1  -7   10.90    1.32
  -7  -1   7   10.58    1.38
  -7  -1   7    9.03    1.17
   7   1  -7    8.47    1.12
  -7   1   7   10.56    1.34
  -7   1   7   12.84    1.39
  -5  -1   7  180.29    5.81
  -5  -1   7  179.45    5.32
   5  -1  -7  175.13    5.61
   5   1  -7  179.26    5.53
  -5   1   7  173.33    5.77
  -5   1   7  172.84    5.22
  -3  -1   7    0.65    0.47
  -3  -1   7    0.87    0.37
   3  -1  -7    0.43    0.39
   3   1  -7    0.56    0.41
  -3   1   7    0.72    0.47
   1  -1  -7    6.32    1.06
  -1  -1   7    7.00    0.98
  -1  -1   7    6.29    0.92
   1   1  -7    6.99    1.09
  -1   1   7    4.82    0.85
   1  -1   7    0.44    0.43
  -1  -1  -7    0.35    0.60
   1  -1   7    0.08    0.32
   1   1   7   -0.13    0.36
   1   1   7    0.58    0.39
  -1   1  -7   -0.53    0.47
   3  -1   7    5.84    0.97
  -3  -1  -7    6.70    1.31
   3   1   7    4.12    0.79
  -3   1  -7    5.10    1.13
   3   1   7    5.04    0.94
   5  -1   7    7.17    1.18
  -5  -1  -7    5.85    1.21
  -5   1  -7    7.98    1.43
   5   1   7    7.67    1.24
  -7  -1  -7   22.88    2.38
   7  -1   7   24.92    2.45
  -7   1  -7   21.07    2.33
   7   1   7   24.13    2.37
  -9  -1  -7    2.17    0.99
   9  -1   7    1.51    0.90
   9   1   7    1.50    0.87
  -9   1  -7    1.39    0.92
  12  -2  -7  118.43    5.03
 -10  -2   7   18.97    2.03
  10  -2  -7   23.31    1.96
 -10   2   7   19.76    2.10
 -10   2   7   23.22    2.22
  10   2  -7   25.98    2.48
  -8  -2   7   72.86    3.18
   8  -2  -7   68.88    3.19
   8   2  -7   69.28    3.47
  -8   2   7   69.77    3.30
   8   2  -7   68.64    3.30
  -8   2   7   69.24    3.15
  -6  -2   7    1.00    0.48
  -6  -2   7    0.41    0.50
   6  -2  -7    2.00    0.66
   6   2  -7    1.28    0.51
  -6   2   7    2.43    0.71
  -6   2   7    1.13    0.49
  -4  -2   7   13.19    1.37
   4  -2  -7   14.70    1.43
  -4  -2   7   15.18    1.11
   4   2  -7   14.31    1.18
  -4   2   7   14.36    1.44
   2  -2  -7  138.38    4.59
  -2  -2   7  133.17    4.47
  -2  -2   7  131.49    4.06
   2   2  -7  128.91    4.49
  -2   2   7  128.72    4.50
   0  -2  -7    0.51    0.49
   0  -2   7    0.26    0.39
   0  -2   7    0.53    0.41
   0   2  -7    0.50    0.54
   0   2   7    0.16    0.37
   0   2   7    0.11    0.39
  -2  -2  -7  127.32    4.88
   2  -2   7  128.16    4.57
   2   2   7  133.36    4.53
  -2   2  -7  134.38    4.96
   2   2   7  134.48    4.66
  -4  -2  -7  210.96    7.10
   4  -2   7  208.28    6.79
   4   2   7  208.09    6.67
  -4   2  -7  203.35    7.02
   4   2   7  209.82    6.49
   6  -2   7    1.61    0.80
  -6  -2  -7    2.23    0.92
   6   2   7    2.40    0.81
  -6   2  -7    5.74    1.33
  -8  -2  -7    7.43    1.50
   8  -2   7    6.15    1.39
  -8   2  -7   10.77    1.82
   8   2   7    5.71    1.22
 -11  -3   7   48.76    3.00
  11  -3  -7   49.61    2.97
  11   3  -7   49.99    3.39
 -11   3   7   47.29    3.03
 -11   3   7   48.46    2.89
   9  -3  -7   19.45    1.99
  -9  -3   7   20.08    1.99
  -9   3   7   21.10    1.77
  -9   3   7   21.66    2.07
   9   3  -7   18.30    2.05
   7  -3  -7   21.81    1.70
  -7  -3   7   24.85    1.69
  -7   3   7   24.61    2.34
  -7   3   7   22.96    1.76
   7   3  -7   22.53    1.88
  -5  -3   7  319.28    8.80
  -5  -3   7  326.03    9.28
   5  -3  -7  313.50    9.07
  -5   3   7  312.85    9.20
   5   3  -7  318.37    8.78
   3  -3  -7    4.47    0.85
  -3  -3   7    3.65    0.66
  -3  -3   7    2.65    0.70
   3   3  -7    3.97    0.76
  -3   3   7    4.01    0.83
  -1  -3   7   17.86    1.32
  -1  -3   7   16.59    1.26
   1  -3  -7   16.89    1.36
   1  -3  -7   16.79    1.32
  -1  -3   7   16.04    1.10
   1   3  -7   16.63    1.40
  -1   3   7   17.17    1.37
   1  -3   7  217.20    6.71
  -1  -3  -7  224.91    7.00
  -1   3  -7  224.94    7.04
   1   3   7  225.72    6.89
   1   3   7  227.14    6.82
   3  -3   7   26.46    1.83
  -3  -3  -7   25.52    2.00
  -3   3  -7   26.62    2.00
   3   3   7   26.29    1.76
   3   3   7   25.97    1.77
  -5  -3  -7  119.93    4.98
   5  -3   7  122.01    4.84
   5   3   7  123.12    4.67
  -5   3  -7  120.61    5.02
   5   3   7  127.71    4.62
   7  -3   7   14.81    1.95
  -7  -3  -7   12.88    1.86
  -7   3  -7   18.06    2.27
   7   3   7    9.74    1.45
  -9  -3  -7   22.53    2.76
   9  -3   7   20.58    2.59
   9   3   7   26.71    2.60
  -9   3  -7   23.10    2.62
  10  -4  -7   71.79    3.66
 -10  -4   7   78.55    3.67
  10   4  -7   71.45    3.95
 -10   4   7   74.59    3.69
 -10   4   7   69.21    3.49
   8  -4  -7   40.61    2.44
  -8  -4   7   36.77    2.26
  -8   4   7   44.70    2.52
   8   4  -7   41.02    2.65
   6  -4  -7   34.98    2.11
  -6  -4   7   31.17    1.90
  -6   4   7   33.86    2.13
   6   4  -7   34.13    2.20
  -4  -4   7   53.54    2.35
   4  -4  -7   50.69    2.52
  -4  -4   7   51.95    2.59
   4   4  -7   49.29    2.27
  -4   4   7   52.35    2.57
  -2  -4   7  189.45    5.86
   2  -4  -7  186.71    5.93
  -2  -4   7  189.04    5.50
  -2  -4   7  186.74    5.94
  -2  -4   7  183.73    5.68
  -2   4   7  180.98    5.95
   0  -4  -7  195.05    5.96
   0  -4  -7  187.42    5.95
   0  -4   7  190.04    5.85
   0   4  -7  182.99    6.04
   0   4   7  188.38    6.03
  -2  -4  -7    2.08    0.75
   2  -4   7    2.90    0.72
   2   4   7    1.71    0.62
   2   4   7    2.04    0.67
  -2   4  -7    1.13    0.68
   4  -4   7   91.38    3.88
  -4  -4  -7   91.95    4.09
   4   4   7   93.98    3.79
  -4   4  -7   90.08    4.05
   4   4   7   89.22    3.73
   6  -4   7  170.53    6.19
  -6  -4  -7  152.02    6.09
   6   4   7  163.73    5.79
   6   4   7  164.92    5.81
  -6   4  -7  155.84    6.10
   8  -4   7   78.86    4.37
  -8  -4  -7   92.93    4.44
  -8   4  -7   93.13    4.56
 -11   5   7    0.13    0.78
 -11   5   7    1.36    0.71
  -9  -5   7    3.12    0.95
   9  -5  -7    1.58    0.79
   9   5  -7    2.93    1.00
  -9   5   7    3.53    0.90
  -7  -5   7  238.44    7.44
   7  -5  -7  236.25    7.67
  -7   5   7  252.73    7.74
   7   5  -7  243.53    8.00
   5  -5  -7   10.61    1.35
  -5  -5   7   10.47    1.26
  -5   5   7   10.79    1.41
   5   5  -7   14.08    1.64
   3  -5  -7  102.64    3.93
  -3  -5   7  102.69    3.89
  -3  -5   7  105.24    3.70
  -3   5   7  110.71    4.12
   3   5  -7  102.73    3.99
   3   5  -7  102.85    3.66
  -1  -5   7   37.25    1.95
  -1  -5   7   39.40    2.25
   1  -5  -7   37.64    2.02
   1  -5  -7   35.67    2.04
  -1  -5   7   40.50    2.28
  -1   5   7   35.87    2.11
   1   5  -7   36.90    1.84
  -1  -5  -7   73.23    3.15
  -1  -5  -7   77.64    3.34
   1  -5   7   76.40    3.13
   1   5   7   79.54    3.35
   3  -5   7  116.35    4.41
  -3  -5  -7  114.53    4.70
   3   5   7  123.44    4.43
  -3   5  -7  114.74    4.65
   3   5   7  118.24    4.48
  -5  -5  -7    1.25    0.85
   5  -5   7    1.83    0.73
   5   5   7    2.71    0.84
  -5   5  -7    1.08    0.77
   5   5   7    2.05    0.79
   7  -5   7    0.08    0.74
  -7  -5  -7    5.08    1.30
  -7   5  -7    2.17    0.98
   7   5   7    2.05    0.85
   7   5   7    1.23    0.73
 -10  -6   7  112.96    4.94
  10   6  -7  103.67    6.98
 -10   6   7  101.89    4.46
  -8  -6   7   19.56    1.94
   8  -6  -7   17.74    1.96
   8   6  -7   20.59    2.42
  -8   6   7   20.52    2.04
   6  -6  -7   72.88    3.43
  -6  -6   7   79.98    3.34
  -6   6   7   77.96    3.50
   6   6  -7   76.32    3.71
  -4  -6   7   68.36    2.98
   4  -6  -7   70.40    3.20
  -4   6   7   75.92    3.29
   4   6  -7   72.05    3.32
  -2  -6   7    2.54    0.78
   2  -6  -7    0.53    0.45
   2   6  -7    0.93    0.58
  -2   6   7    1.59    0.61
   0  -6   7   82.12    3.20
   0  -6  -7   83.19    3.41
   0  -6  -7   84.94    3.41
   0  -6   7   79.80    3.56
   0   6   7   80.84    3.49
   0   6  -7   83.55    3.12
   2  -6   7   35.15    2.30
  -2  -6  -7   39.28    2.39
  -2  -6  -7   34.77    2.05
   2  -6   7   34.68    2.06
   2   6   7   36.27    2.20
   4  -6   7   21.87    1.81
  -4  -6  -7   16.48    2.02
   4   6   7   19.60    1.98
  -4   6  -7   20.85    2.21
   4   6   7   19.10    1.63
   6  -6   7   67.86    3.66
  -6  -6  -7   63.94    3.66
   6   6   7   72.09    3.63
   6   6   7   69.84    3.33
  -6   6  -7   67.15    3.63
   8  -6   7    0.40    0.96
   8   6   7   -0.21    0.69
   9  -7  -7    1.88    0.85
  -9  -7   7    0.67    0.68
  -9   7   7    0.71    0.65
   9   7  -7    1.55    0.99
  -7  -7   7    6.93    1.16
   7  -7  -7    9.08    1.44
   7   7  -7    6.51    1.41
  -7   7   7    4.59    1.01
   5  -7  -7    3.12    0.89
  -5  -7   7    2.66    0.72
  -5   7   7    2.50    0.74
   5   7  -7    6.04    1.32
  -3  -7   7   44.26    2.23
  -3  -7   7   43.45    2.45
   3  -7  -7   43.60    2.38
  -3   7   7   42.62    2.42
   3   7  -7   41.03    2.84
  -1  -7   7    1.15    0.67
   1  -7  -7    0.55    0.47
  -1   7   7    0.76    0.49
   1   7  -7    0.90    0.49
  -1  -7  -7   12.59    1.49
  -1  -7  -7   13.82    1.57
   1  -7   7   11.58    1.28
   1  -7   7   10.23    1.46
   1   7   7   14.10    1.55
  -1   7  -7   12.09    1.24
  -3  -7  -7   84.31    3.49
  -3  -7  -7   82.74    3.88
   3  -7   7   83.99    3.59
   3  -7   7   88.48    3.93
   3   7   7   80.31    3.75
  -5  -7  -7   23.11    2.45
   5  -7   7   26.07    2.08
  -5   7  -7   25.68    2.19
   5   7   7   24.00    1.86
   5   7   7   25.60    2.11
   7  -7   7    2.57    1.10
  -7  -7  -7    3.02    1.22
   7   7   7    2.88    1.11
  -7   7  -7    5.97    1.44
  -8  -8   7    1.15    0.71
   8  -8  -7    1.55    0.80
  -8   8   7    1.98    0.80
   8   8  -7    1.59    1.02
   6  -8  -7   20.60    2.05
  -6  -8   7   17.86    1.77
  -6   8   7   18.93    1.91
   6   8  -7   21.22    2.35
  -4  -8   7   28.09    1.84
   4  -8  -7   23.05    1.85
   4   8  -7   23.33    3.18
  -4   8   7   28.75    2.01
  -2  -8   7    1.33    0.76
   2  -8  -7    1.72    0.65
  -2   8   7    1.63    0.71
   2   8  -7    2.11    0.70
   0  -8  -7   21.90    1.69
   0  -8   7   22.64    1.89
   0  -8  -7   24.17    1.75
   0   8   7   23.47    1.83
   0   8  -7   22.00    1.63
  -2  -8  -7    1.33    0.56
  -2  -8  -7    1.30    0.73
   2  -8   7    2.47    0.92
   2   8   7    1.14    0.63
  -2   8  -7    1.07    0.50
  -4  -8  -7    0.80    0.78
   4  -8   7    1.31    0.76
   4   8   7    0.49    0.61
   6  -8   7    0.39    0.74
  -6  -8  -7    0.48    0.87
   6   8   7   -0.39    0.72
  -6   8  -7    1.56    0.90
   7  -9  -7   28.76    2.29
  -7  -9   7   33.27    2.28
  -7   9   7   33.73    2.32
   7   9  -7   40.23    2.99
   5  -9  -7    3.58    0.98
  -5  -9   7    2.64    0.80
  -5   9   7    3.06    0.85
  -3  -9   7   34.28    2.30
   3  -9  -7   36.70    2.31
  -3   9   7   34.10    2.24
   3   9  -7   33.74    2.13
   1  -9  -7    8.65    1.24
  -1  -9   7    7.47    1.29
  -1   9   7    8.44    1.33
   1   9  -7    7.89    1.21
  -1  -9  -7    0.24    0.54
   1  -9   7    0.36    0.64
  -1  -9  -7    1.29    0.62
   1   9   7    0.50    0.57
  -1   9  -7    0.28    0.49
  -3  -9  -7    1.77    0.90
   3  -9   7    2.44    0.98
   3   9   7    1.18    0.75
  -3   9  -7    1.99    0.72
  -5  -9  -7    0.66    0.87
   5  -9   7    1.25    0.86
   5   9   7    1.27    0.83
   6 -10  -7   60.10    3.32
  -6 -10   7   61.57    3.18
  -6  10   7   62.78    3.23
  -4 -10   7   76.03    4.35
   4 -10  -7   67.49    3.39
   4  10  -7   69.49    3.39
  -4  10   7   68.66    3.39
   2 -10  -7    3.16    0.87
  -2 -10   7    2.24    0.88
   2  10  -7    3.28    0.85
  -2  10   7    2.90    0.88
   0 -10   7   63.84    3.45
   0 -10  -7   63.93    3.02
   0  10   7   62.25    3.24
   0  10  -7   64.24    3.03
   2 -10   7    4.89    1.27
  -2 -10  -7    4.35    1.12
   2  10   7    4.74    1.09
  -2  10  -7    5.86    1.09
  -4 -10  -7   -0.40    0.65
   4  10   7   -0.26    0.94
  -4  10  -7    0.10    0.48
   5 -11  -7   23.58    2.33
  -5  11   7   23.79    2.00
   3 -11  -7   46.02    2.75
  -3 -11   7   44.73    2.91
  -3  11   7   48.54    2.80
   3  11  -7   45.65    2.68
  -1 -11   7   44.65    2.96
   1  11  -7   54.95    2.88
  -1  11   7   51.44    2.96
  -1 -11  -7    9.25    1.47
   1 -11   7    9.57    1.63
   1  11   7   10.04    1.54
  -1  11  -7   11.26    1.52
  -3 -11  -7  251.91    8.67
  -3  11  -7  260.69    8.12
   4 -12  -7  131.12    6.29
  -4 -12   7  152.89    7.71
  10   0  -8   61.81    3.19
 -10   0   8   63.79    3.30
  -8   0   8   10.65    1.48
   8   0  -8   13.19    1.54
  -8   0   8   10.15    1.37
   6   0  -8   62.86    2.88
  -6   0   8   59.90    3.01
  -4   0   8  107.20    4.23
   4   0  -8  117.14    4.24
   2   0  -8    8.26    1.12
  -2   0   8   10.79    1.30
   0   0   8  404.65   10.95
   0   0  -8  389.48   11.37
   0   0   8  397.86   11.08
   2   0   8   35.16    2.01
  -2   0  -8   35.38    2.44
   2   0   8   33.53    2.13
   4   0   8    0.66    0.50
  -4   0  -8    1.09    0.81
   6   0   8  175.66    6.55
  -6   0  -8  184.37    6.85
   8   0   8   50.12    3.51
  11  -1  -8   -0.55    0.64
 -11  -1   8    1.53    1.23
 -11   1   8    0.48    0.78
  -9  -1   8   99.23    4.12
   9  -1  -8   95.08    4.07
  -9   1   8  102.72    4.19
  -9   1   8   92.72    4.25
   7  -1  -8   23.69    1.79
  -7  -1   8   21.78    1.62
  -7  -1   8   24.36    1.90
  -7   1   8   18.55    1.97
   7   1  -8   23.05    1.69
   5  -1  -8   58.50    2.77
  -5  -1   8   57.36    2.88
   5   1  -8   55.12    2.67
  -5   1   8   57.78    2.89
   3  -1  -8  172.15    5.69
  -3  -1   8  165.42    5.64
  -3   1   8  172.51    5.74
   3   1  -8  173.95    5.65
  -1  -1   8    1.75    0.59
   1  -1  -8    0.48    0.49
  -1  -1   8    0.57    0.49
   1   1  -8    1.48    0.72
  -1   1   8    0.56    0.43
  -1  -1  -8    6.34    1.24
   1  -1   8    3.87    0.85
   1  -1   8    6.20    1.00
   1   1   8    5.47    0.96
  -1   1  -8    6.42    1.31
   1   1   8    5.74    0.99
   3  -1   8  139.02    5.17
  -3  -1  -8  141.81    5.57
  -3   1  -8  143.81    5.56
   3   1   8  143.88    5.22
   3   1   8  149.85    5.06
  -5  -1  -8    9.44    1.62
   5  -1   8    8.10    1.33
  -5   1  -8    9.36    1.66
   5   1   8    7.89    1.38
   7  -1   8   96.96    4.74
  -7  -1  -8   99.01    4.78
   7   1   8  108.87    4.80
  -7   1  -8  106.18    4.98
  10  -2  -8   40.65    2.68
 -10  -2   8   46.64    2.80
  10   2  -8   40.39    4.14
 -10   2   8   47.42    2.93
   8  -2  -8   79.62    3.56
  -8  -2   8   73.99    3.32
  -8   2   8   74.66    3.61
  -6  -2   8   48.45    2.38
  -6  -2   8   50.63    2.75
   6  -2  -8   49.11    2.63
   6   2  -8   53.20    2.55
  -6   2   8   51.85    2.76
   4  -2  -8   27.42    1.85
  -4  -2   8   24.74    1.81
   4   2  -8   27.89    1.76
  -4   2   8   25.15    1.83
   2  -2  -8   12.00    1.43
  -2  -2   8   10.60    1.26
   2   2  -8   12.10    1.39
  -2   2   8   11.15    1.33
   0  -2   8   35.13    2.15
   0  -2  -8   37.91    2.27
   0  -2   8   41.24    2.16
   0   2  -8   38.63    2.48
   0   2   8   39.15    2.23
   2  -2   8   46.79    2.54
  -2  -2  -8   50.06    2.88
   2   2   8   46.75    2.60
   2   2   8   52.59    2.63
  -2   2  -8   58.60    3.13
   4  -2   8    7.16    1.28
  -4  -2  -8    6.10    1.39
   4   2   8    6.17    1.11
  -4   2  -8    7.03    1.41
   4   2   8    5.95    1.16
  -6  -2  -8   15.23    2.07
   6  -2   8   19.42    2.22
  -6   2  -8   23.53    2.60
   6   2   8   19.98    2.16
   8   2   8   16.42    2.17
  -9  -3   8    6.42    1.18
   9  -3  -8    6.40    1.23
  -9   3   8    5.73    1.20
   9   3  -8    4.47    1.20
   7  -3  -8    9.22    1.38
  -7  -3   8    7.99    1.18
  -7   3   8    8.33    1.32
  -5  -3   8   24.70    1.60
  -5  -3   8   26.08    1.92
   5  -3  -8   24.79    1.83
   5   3  -8   23.23    1.64
  -5   3   8   23.74    1.83
  -3  -3   8   19.54    1.58
   3  -3  -8   22.17    1.69
   3   3  -8   22.97    1.63
  -3   3   8   21.67    1.65
  -1  -3   8   44.84    2.30
   1  -3  -8   44.09    2.43
  -1  -3   8   49.26    2.41
   1   3  -8   43.84    2.52
  -1   3   8   44.46    2.46
   1  -3   8    0.46    0.50
  -1  -3  -8    0.54    0.63
   1   3   8    0.39    0.48
   1   3   8    1.41    0.62
  -1   3  -8    1.04    0.70
  -3  -3  -8   10.51    1.58
   3  -3   8   12.99    1.55
   3   3   8   10.00    1.47
  -3   3  -8   11.21    1.71
   3   3   8   14.36    1.61
   5  -3   8   74.94    3.73
  -5  -3  -8   67.47    3.74
   5   3   8   71.89    3.51
  -5   3  -8   70.12    3.84
   5   3   8   77.36    3.53
   7  -3   8   20.36    2.34
  -7  -3  -8   20.43    2.42
  -7   3  -8   22.00    2.59
   7   3   8   24.26    2.47
 -10  -4   8   20.21    2.28
  -8  -4   8    6.40    1.09
   8  -4  -8    7.09    1.26
   8   4  -8    5.74    1.28
  -8   4   8    6.03    1.16
  -6  -4   8   11.46    1.34
   6  -4  -8   12.08    1.53
   6   4  -8   12.35    1.63
  -6   4   8   12.53    1.63
  -4  -4   8   33.39    2.15
   4  -4  -8   34.77    2.13
  -4  -4   8   31.53    1.81
   4   4  -8   34.38    1.97
  -4   4   8   29.03    2.02
   2  -4  -8   99.57    4.04
  -2  -4   8  102.95    3.99
   2   4  -8  120.28    5.44
  -2   4   8  100.93    4.10
   0  -4  -8   37.81    2.24
   0  -4  -8   40.04    2.28
   0  -4   8   41.06    2.23
   0   4  -8   41.56    2.46
   0   4   8   41.56    2.37
  -2  -4  -8    2.41    0.87
   2  -4   8    2.46    0.81
   2   4   8    3.64    0.89
  -2   4  -8    2.39    0.93
   2   4   8    4.07    0.94
  -4  -4  -8    4.82    1.23
   4  -4   8    4.75    1.12
   4   4   8    5.91    1.14
  -4   4  -8    6.85    1.42
   4   4   8    4.75    1.03
   6  -4   8   17.48    2.17
  -6  -4  -8   20.15    2.39
  -6   4  -8   20.72    2.46
   6   4   8   22.00    2.24
   8   4   8   11.29    1.89
   9  -5  -8   67.36    3.90
  -9  -5   8   63.08    3.25
   9   5  -8   57.39    3.69
  -9   5   8   65.53    3.37
  -7  -5   8    3.00    0.87
   7  -5  -8    2.70    0.86
  -7   5   8    5.45    1.16
   7   5  -8    3.31    1.03
   5  -5  -8    4.34    0.95
  -5  -5   8    5.95    0.99
  -5   5   8    4.12    0.95
   5   5  -8    5.42    1.14
  -3  -5   8  162.44    5.28
   3  -5  -8  162.93    5.69
  -3   5   8  175.93    5.90
  -1  -5   8    3.77    0.82
   1  -5  -8    5.40    0.97
  -1   5   8    3.39    0.88
   1   5  -8    3.66    0.97
  -1  -5  -8   16.54    1.79
   1  -5   8   18.40    1.53
  -1  -5  -8   12.50    1.50
  -1   5  -8   16.99    1.95
   1   5   8   15.15    1.66
   3  -5   8    2.02    0.76
  -3  -5  -8    3.37    1.07
   3   5   8    2.61    0.83
   3   5   8    3.77    0.99
  -3   5  -8    2.31    0.87
  -5  -5  -8    2.22    0.99
   5  -5   8    2.50    1.03
   5   5   8    2.98    0.92
   5   5   8    2.40    0.90
  -5   5  -8    3.55    1.11
   7   5   8   38.63    2.67
   8  -6  -8   27.90    2.25
  -8  -6   8   34.66    2.31
  -8   6   8   31.40    2.33
   8   6  -8   36.76    2.74
   6  -6  -8   23.32    1.89
  -6  -6   8   22.96    1.73
  -6   6   8   20.64    2.10
   6   6  -8   19.85    2.25
  -4  -6   8   19.16    1.52
   4  -6  -8   18.22    1.85
  -4   6   8   15.94    1.73
   4   6  -8   19.19    1.93
   2  -6  -8   13.06    1.57
  -2  -6   8   14.22    1.72
  -2   6   8   15.56    1.71
   2   6  -8   12.88    1.36
   0  -6  -8   45.54    2.53
   0  -6   8   46.89    2.42
   0   6   8   47.03    2.65
  -2  -6  -8   53.46    2.79
  -2  -6  -8   55.58    3.06
   2  -6   8   59.15    2.86
   2   6   8   54.46    2.97
  -2   6  -8   51.56    3.00
  -4  -6  -8   19.19    2.25
   4  -6   8   18.20    2.02
  -4   6  -8   21.11    2.33
   4   6   8   24.91    2.04
   4   6   8   22.33    2.17
  -6  -6  -8   54.02    3.50
   6  -6   8   52.44    3.34
  -6   6  -8   59.59    6.17
   6   6   8   57.12    3.36
   6   6   8   56.72    3.14
  -7  -7   8    0.94    0.62
   7  -7  -8    1.53    0.80
   7   7  -8    1.69    1.00
  -7   7   8    3.05    0.95
  -5  -7   8   89.39    3.79
   5  -7  -8  100.25    4.19
   5   7  -8   96.73    4.38
  -5   7   8   90.91    4.05
   3  -7  -8   53.51    2.81
  -3   7   8   52.65    2.90
  -1  -7   8   11.48    1.61
   1  -7  -8   10.15    1.44
   1   7  -8   13.20    1.38
  -1   7   8   10.26    1.43
  -1  -7  -8   59.62    2.97
  -1  -7  -8   55.57    2.97
   1   7   8   56.75    3.08
   3  -7   8   18.26    1.92
  -3  -7  -8   17.56    2.08
  -3  -7  -8   15.15    1.67
  -3   7  -8   18.94    2.16
   3   7   8   21.47    2.21
  -5  -7  -8  155.04    6.35
   5  -7   8  165.42    6.26
   5   7   8  165.66    6.31
  -5   7  -8  157.97    6.40
  -6  -8   8    0.13    0.58
   6  -8  -8    1.09    0.75
  -6   8   8    1.05    0.74
   6   8  -8    0.64    0.96
  -4  -8   8   10.51    1.43
   4  -8  -8   11.61    1.57
  -4   8   8    9.82    1.47
   2  -8  -8  159.47    5.80
  -2  -8   8  158.76    5.97
   2   8  -8  170.38    5.69
  -2   8   8  168.24    6.01
   0  -8   8   23.26    2.29
   0  -8  -8   21.79    2.08
   0   8   8   20.00    2.03
   0   8  -8   15.38    1.98
   2  -8   8   84.26    4.11
  -2  -8  -8   87.48    3.83
  -2  -8  -8   86.56    4.08
   2   8   8   93.12    4.18
   4  -8   8   39.16    2.59
  -4  -8  -8   35.63    2.77
  -4   8  -8   42.72    3.27
   4   8   8   38.45    2.73
   7   9  -8    0.68    1.15
   5  -9  -8  102.17    4.41
  -5  -9   8  100.73    4.15
  -5   9   8   89.70    4.21
   3  -9  -8   -0.32    0.49
   3   9  -8    1.29    0.70
  -3   9   8    0.26    0.60
   1  -9  -8  111.31    4.57
  -1  -9   8  110.29    4.81
   1   9  -8  120.41    4.53
  -1   9   8  114.71    4.78
   1  -9   8   27.45    2.32
  -1  -9  -8   26.94    2.06
   1   9   8   27.85    2.24
  -3  -9  -8   51.43    3.15
   4 -10  -8    0.99    1.04
   4  10  -8    0.22    0.68
   2 -10  -8    8.34    1.39
  -2 -10   8   10.55    1.64
   2  10  -8   13.28    1.67
   0 -10  -8   41.56    2.59
   0 -10   8   40.51    2.82
   0  10  -8   40.95    2.45
  -2 -10  -8    9.66    1.63
   8   0  -9    0.39    0.55
  -8   0   9   -0.36    0.49
  -6   0   9   -0.56    0.50
   6   0  -9   -0.39    0.42
   4   0  -9   -0.14    0.43
  -4   0   9   -0.11    0.46
   2   0  -9   -0.67    0.37
  -2   0   9    0.13    0.50
   0   0  -9   -0.19    0.71
   0   0   9   -0.07    0.45
   0   0   9    0.63    0.58
  -2   0  -9    0.67    0.81
   2   0   9    0.03    0.47
   4   0   9    0.17    0.63
  -4   0  -9   -0.18    0.72
   9  -1  -9   10.43    1.58
  -7  -1   9   20.91    2.16
   7  -1  -9   20.18    2.02
  -7   1   9   23.77    2.38
   7   1  -9   22.25    1.83
   5  -1  -9    7.85    1.27
  -5  -1   9    7.34    1.27
   5   1  -9    8.18    1.27
  -5   1   9    7.68    1.32
   3  -1  -9   17.21    1.80
  -3  -1   9   16.74    1.76
   3   1  -9   18.90    1.89
  -3   1   9   16.99    1.79
  -1  -1   9  124.44    4.70
   1  -1  -9  126.24    4.75
  -1   1   9  123.28    4.74
  -1  -1  -9    7.98    1.44
   1  -1   9    8.46    1.28
   1   1   9    8.70    1.35
   1   1   9    8.01    1.24
  -1   1  -9    8.47    1.50
  -3  -1  -9   33.96    2.58
   3  -1   9   31.18    2.22
   3   1   9   29.81    2.20
  -3   1  -9   32.53    2.59
  -5  -1  -9   14.60    2.04
   5  -1   9   14.51    1.87
   5   1   9   10.67    1.66
  -5   1  -9   11.81    1.95
   8  -2  -9  211.49    7.07
  -8   2   9  194.66    7.15
  -6  -2   9    0.74    0.61
   6  -2  -9   -0.17    0.45
  -6   2   9   -0.45    0.46
   6   2  -9    0.13    0.47
   4  -2  -9  124.98    4.81
  -4  -2   9  129.15    4.88
   4   2  -9  127.68    4.73
  -4   2   9  119.00    4.85
  -2  -2   9    0.28    0.54
   2  -2  -9   -0.30    0.43
   2   2  -9   -0.17    0.41
  -2   2   9    0.60    0.55
   0  -2   9    0.24    0.48
   0  -2  -9   -0.15    0.43
   0   2   9   -0.35    0.43
   0   2  -9   -0.05    0.76
   2  -2   9  140.66    5.33
  -2  -2  -9  140.48    5.59
   2   2   9  147.76    5.35
  -2   2  -9  144.39    5.82
   2   2   9  141.93    5.35
   4  -2   9   27.02    2.18
  -4  -2  -9   21.45    2.38
  -4   2  -9   25.95    2.71
   4   2   9   24.40    2.40
  -9  -3   9   10.80    1.56
   7  -3  -9   87.78    3.99
  -7   3   9   91.22    4.16
   5  -3  -9   25.80    1.97
  -5  -3   9   23.10    2.25
   5   3  -9   22.61    1.79
  -5   3   9   28.28    2.11
  -3  -3   9   42.05    2.49
   3  -3  -9   39.29    2.44
  -3   3   9   40.10    2.49
   3   3  -9   41.41    2.39
   1  -3  -9  136.95    5.24
  -1  -3   9  148.00    5.24
  -1   3   9  148.47    5.35
  -1  -3  -9   12.45    1.67
   1  -3   9   13.95    1.64
  -1  -3  -9   15.28    1.71
  -1   3  -9   13.11    1.88
   1   3   9   14.50    1.77
   3  -3   9    1.48    0.73
  -3  -3  -9    1.24    0.85
   3   3   9    2.29    0.88
  -3   3  -9   -0.62    0.70
   3   3   9    0.79    0.67
  -5  -3  -9   72.67    3.96
   5  -3   9   66.20    3.66
  -5   3  -9   67.44    3.92
   5   3   9   65.18    3.56
  -8  -4   9    5.86    1.21
   6  -4  -9   52.97    2.97
   6   4  -9   51.51    3.07
  -6   4   9   52.79    3.06
  -4  -4   9   13.27    1.69
   4  -4  -9   11.53    1.54
  -4   4   9   11.84    1.58
   2  -4  -9   -0.20    0.43
  -2   4   9    0.44    0.58
   2   4  -9   -0.13    0.45
   0  -4   9    8.37    1.29
   0  -4  -9    5.92    1.15
   0   4  -9    7.54    1.35
   0   4   9    5.90    1.14
   2  -4   9  122.54    4.87
  -2  -4  -9  123.10    5.15
   2   4   9  125.93    4.94
  -2   4  -9  128.86    5.35
  -4  -4  -9   12.63    1.92
   4  -4   9   19.77    2.22
   4   4   9   18.78    2.01
  -4   4  -9   18.16    2.36
   4   4   9   22.49    2.28
  -7  -5   9   14.51    1.66
   7   5  -9   11.81    1.79
   5  -5  -9   -1.07    0.44
  -5   5   9    0.61    0.61
   5   5  -9    0.05    0.63
   3  -5  -9   95.75    4.07
  -3   5   9   88.03    4.01
  -1  -5   9    4.16    0.94
   1  -5  -9    2.44    0.74
  -1   5   9    4.52    1.06
   1   5  -9    4.39    1.49
   1  -5   9   77.70    3.54
  -1  -5  -9   76.85    3.65
   1   5   9   81.44    3.76
  -3  -5  -9   72.08    3.86
   3  -5   9   73.99    3.61
   3   5   9   72.29    3.66
  -3   5  -9   71.94    3.93
   5   5   9   21.84    2.39
   5   5   9   17.98    2.23
  -6  -6   9  186.32    6.31
  -6   6   9  196.76    8.96
   6   6  -9  181.76    6.87
   4  -6  -9    9.63    1.49
  -4   6   9   11.44    1.56
   2  -6  -9   20.95    2.06
  -2   6   9   21.44    2.14
   0  -6  -9   81.24    3.73
   0   6   9   78.97    3.81
   0   6  -9   79.62    3.91
   2  -6   9    6.43    1.19
  -2  -6  -9    6.23    1.21
  -2  -6  -9    4.84    1.25
   2   6   9    4.63    1.16
  -2   6  -9    5.60    1.29
  -4  -6  -9   73.27    4.07
  -4  -6  -9   74.40    3.75
   4  -6   9   78.20    3.87
   4   6   9   82.06    4.07
  -5  -7   9    3.81    0.95
   3  -7  -9   24.47    2.03
  -3   7   9   28.04    2.17
   1  -7  -9   10.47    1.57
   1   7  -9   11.02    1.60
  -1   7   9   13.20    1.76
  -1  -7  -9   59.20    3.15
   1   7   9   59.15    3.34
  -1   7  -9   55.32    3.35
  -3  -7  -9    0.01    0.59
   3  -7   9    0.23    0.64
  -3  -7  -9    0.85    0.88
   4   8  -9    4.99    1.29
   2  -8  -9    0.70    0.70
   0  -8  -9   16.48    1.95
   0   8  -9   14.60    1.90
  -2  -8  -9   28.26    2.16
  -1  -9   9   13.54    1.92
  -6   0  10   48.32    5.33
   6   0 -10   53.18    3.01
  -4   0  10    6.85    1.27
   4   0 -10    6.88    1.34
   2   0 -10   77.33    3.68
  -2   0  10   73.44    3.65
   0   0  10    0.99    0.73
   0   0 -10    0.36    0.60
   2   0  10    7.66    1.40
  -2   0 -10    6.50    1.56
   7   1 -10   25.95    2.12
  -5  -1  10  112.40    4.83
   5  -1 -10  114.14    4.76
   5   1 -10  129.57    4.90
  -5   1  10  110.43    4.83
  -3  -1  10   49.73    2.87
   3  -1 -10   52.62    2.94
  -3   1  10   44.35    2.83
   3   1 -10   53.67    2.95
  -1  -1  10   19.49    2.04
   1  -1 -10   16.42    1.93
   1   1 -10   16.02    1.83
  -1   1  10   16.45    1.89
   1  -1  10   66.23    3.42
   1   1  10   72.82    3.69
  -3  -1 -10   -0.18    0.82
  -3   1 -10    0.91    0.96
  -6  -2  10   35.23    3.52
   4  -2 -10   33.11    2.35
  -4  -2  10   30.08    2.28
   4   2 -10   33.76    2.29
  -4   2  10   30.23    2.34
   2  -2 -10   34.59    2.40
  -2  -2  10   35.26    2.34
   2   2 -10   39.70    2.46
  -2   2  10   32.38    2.38
   0  -2 -10    1.27    0.71
   0  -2  10    0.41    0.61
   0   2  10    1.16    0.72
   2  -2  10   33.60    2.46
  -2  -2 -10   35.75    2.78
  -2   2 -10   41.70    3.02
   2   2  10   31.94    3.34
  -5  -3  10   29.99    2.37
   3  -3 -10    9.96    1.56
  -3  -3  10    6.80    1.31
   3   3 -10   11.83    1.56
  -3   3  10    9.17    1.48
   1  -3 -10   82.65    3.94
  -1   3  10   82.78    3.89
  -1  -3 -10   10.65    1.60
   1  -3  10   11.74    1.67
  -1   3 -10   10.01    1.79
   1   3  10    9.21    1.50
  -3  -3 -10   18.14    2.28
  -3   3 -10   15.38    2.50
  -4  -4  10   18.02    2.11
   2  -4 -10    3.22    0.99
  -2   4  10    4.93    1.16
   2   4 -10    2.53    0.91
   0  -4 -10    1.25    0.85
   0  -4  10    1.55    0.75
   0   4  10    0.86    0.73
   2  -4  10   16.28    2.04
   2   4  10   18.73    2.13
  -2   4 -10   16.07    2.25
   5   5 -10   25.53    2.61
   1  -5  10   56.69    3.08
  -1   5 -10   45.99    3.21
   0   0   0    0.00    0.00
;
_shelx_hkl_checksum              80364
loop_
_space_group_symop_operation_xyz
'x, y, z'
'-y, x-y, z'
'-x+y, -x, z'
'y, x, -z+1/2'
'-x, -x+y, -z+1/2'
'x-y, -y, -z+1/2'
'x+2/3, y+1/3, z+1/3'
'-y+2/3, x-y+1/3, z+1/3'
'-x+y+2/3, -x+1/3, z+1/3'
'y+2/3, x+1/3, -z+5/6'
'-x+2/3, -x+y+1/3, -z+5/6'
'x-y+2/3, -y+1/3, -z+5/6'
'x+1/3, y+2/3, z+2/3'
'-y+1/3, x-y+2/3, z+2/3'
'-x+y+1/3, -x+2/3, z+2/3'
'y+1/3, x+2/3, -z+7/6'
'-x+1/3, -x+y+2/3, -z+7/6'
'x-y+1/3, -y+2/3, -z+7/6'
'-x, -y, -z'
'y, -x+y, -z'
'x-y, x, -z'
'-y, -x, z-1/2'
'x, x-y, z-1/2'
'-x+y, y, z-1/2'
'-x+2/3, -y+1/3, -z+1/3'
'y+2/3, -x+y+1/3, -z+1/3'
'x-y+2/3, x+1/3, -z+1/3'
'-y+2/3, -x+1/3, z-1/6'
'x+2/3, x-y+1/3, z-1/6'
'-x+y+2/3, y+1/3, z-1/6'
'-x+1/3, -y+2/3, -z+2/3'
'y+1/3, -x+y+2/3, -z+2/3'
'x-y+1/3, x+2/3, -z+2/3'
'-y+1/3, -x+2/3, z+1/6'
'x+1/3, x-y+2/3, z+1/6'
'-x+y+1/3, y+2/3, z+1/6'
loop_
_atom_site_label
_atom_site_type_symbol
_atom_site_fract_x
_atom_site_fract_y
_atom_site_fract_z
_atom_site_U_iso_or_equiv
_atom_site_adp_type
_atom_site_occupancy
_atom_site_site_symmetry_order
_atom_site_calc_flag
_atom_site_refinement_flags_posn
_atom_site_refinement_flags_adp
_atom_site_refinement_flags_occupancy
Te1 Te 0.29359(2) 0.3333 0.0833 0.00679(8) Uani 1 2 d S T P
N1 N 0.0000 0.0000 0.0000 0.0071(8) Uani 1 6 d S T P
N2 N 0.0000 0.0000 0.2500 0.0076(8) Uani 1 6 d S T P
Ca4 Ca 0.15993(4) 0.02152(4) 0.11846(3) 0.00793(10) Uani 1 1 d . . .
loop_
_atom_site_aniso_label
_atom_site_aniso_U_11
_atom_site_aniso_U_22
_atom_site_aniso_U_33
_atom_site_aniso_U_23
_atom_site_aniso_U_13
_atom_site_aniso_U_12
Te1 0.00586(9) 0.00614(10) 0.00847(11) -0.00097(6) -0.00048(3) 0.00307(5)
N1 0.0066(11) 0.0066(11) 0.0082(19) 0.000 0.000 0.0033(5)
N2 0.0081(11) 0.0081(11) 0.0065(19) 0.000 0.000 0.0041(6)
Ca4 0.00669(19) 0.00922(19) 0.0083(2) 0.00022(14) -0.00078(14) 0.00425(15)
loop_
_atom_type_symbol
_atom_type_description
_atom_type_scat_dispersion_real
_atom_type_scat_dispersion_imag
_atom_type_scat_source
Ca Ca 0.2262 0.3064 'International Tables Vol C Tables 4.2.6.8 and 6.1.1.4'
N N 0.0061 0.0033 'International Tables Vol C Tables 4.2.6.8 and 6.1.1.4'
Te Te -0.5308 1.6751 'International Tables Vol C Tables 4.2.6.8 and 6.1.1.4'
loop_
_geom_angle_atom_site_label_1
_geom_angle_atom_site_label_2
_geom_angle_atom_site_label_3
_geom_angle
_geom_angle_site_symmetry_1
_geom_angle_site_symmetry_3
Ca4 Te1 Ca4 65.97(2) 30 25
Ca4 Te1 Ca4 94.396(10) 30 .
Ca4 Te1 Ca4 77.700(11) 25 .
Ca4 Te1 Ca4 77.698(11) 30 18_554
Ca4 Te1 Ca4 94.394(10) 25 18_554
Ca4 Te1 Ca4 170.672(14) . 18_554
Ca4 Te1 Ca4 127.072(10) 30 34
Ca4 Te1 Ca4 79.25(2) 25 34
Ca4 Te1 Ca4 116.394(18) . 34
Ca4 Te1 Ca4 66.160(18) 18_554 34
Ca4 Te1 Ca4 79.256(19) 30 21
Ca4 Te1 Ca4 127.074(10) 25 21
Ca4 Te1 Ca4 66.160(18) . 21
Ca4 Te1 Ca4 116.395(17) 18_554 21
Ca4 Te1 Ca4 151.259(16) 34 21
Ca4 Te1 Ca4 122.639(9) 30 17_554
Ca4 Te1 Ca4 140.674(11) 25 17_554
Ca4 Te1 Ca4 133.000(5) . 17_554
Ca4 Te1 Ca4 56.308(13) 18_554 17_554
Ca4 Te1 Ca4 65.562(18) 34 17_554
Ca4 Te1 Ca4 91.446(12) 21 17_554
Ca4 Te1 Ca4 140.674(11) 30 2
Ca4 Te1 Ca4 122.640(9) 25 2
Ca4 Te1 Ca4 56.307(13) . 2
Ca4 Te1 Ca4 133.001(5) 18_554 2
Ca4 Te1 Ca4 91.447(12) 34 2
Ca4 Te1 Ca4 65.561(18) 21 2
Ca4 Te1 Ca4 77.004(14) 17_554 2
Ca4 N1 Ca4 180.0 . 19
Ca4 N1 Ca4 98.08(2) . 20
Ca4 N1 Ca4 81.92(2) 19 20
Ca4 N1 Ca4 81.92(2) . 2
Ca4 N1 Ca4 98.08(2) 19 2
Ca4 N1 Ca4 180.00(2) 20 2
Ca4 N1 Ca4 98.08(2) . 21
Ca4 N1 Ca4 81.92(2) 19 21
Ca4 N1 Ca4 81.92(2) 20 21
Ca4 N1 Ca4 98.08(2) 2 21
Ca4 N1 Ca4 81.92(2) . 3
Ca4 N1 Ca4 98.08(2) 19 3
Ca4 N1 Ca4 98.08(2) 20 3
Ca4 N1 Ca4 81.92(2) 2 3
Ca4 N1 Ca4 180.00(4) 21 3
Ca4 N2 Ca4 77.39(2) . 3
Ca4 N2 Ca4 128.34(2) . 4
Ca4 N2 Ca4 147.403(19) 3 4
Ca4 N2 Ca4 88.50(3) . 6
Ca4 N2 Ca4 128.34(2) 3 6
Ca4 N2 Ca4 77.39(2) 4 6
Ca4 N2 Ca4 77.39(2) . 2
Ca4 N2 Ca4 77.39(2) 3 2
Ca4 N2 Ca4 88.50(3) 4 2
Ca4 N2 Ca4 147.403(19) 6 2
Ca4 N2 Ca4 147.403(19) . 5
Ca4 N2 Ca4 88.50(3) 3 5
Ca4 N2 Ca4 77.39(2) 4 5
Ca4 N2 Ca4 77.39(2) 6 5
Ca4 N2 Ca4 128.34(2) 2 5
N1 Ca4 N2 84.59(3) . .
N1 Ca4 Ca4 49.040(11) . 2
N2 Ca4 Ca4 51.306(11) . 2
N1 Ca4 Ca4 49.040(11) . 3
N2 Ca4 Ca4 51.306(11) . 3
Ca4 Ca4 Ca4 60.0 2 3
N1 Ca4 Te1 167.501(16) . 25
N2 Ca4 Te1 102.77(2) . 25
Ca4 Ca4 Te1 143.131(14) 2 25
Ca4 Ca4 Te1 128.807(16) 3 25
N1 Ca4 Te1 86.540(12) . .
N2 Ca4 Te1 97.320(12) . .
Ca4 Ca4 Te1 62.709(14) 2 .
Ca4 Ca4 Te1 122.052(14) 3 .
Te1 Ca4 Te1 102.300(11) 25 .
N1 Ca4 Te1 85.93(2) . 20
N2 Ca4 Te1 170.471(15) . 20
Ca4 Ca4 Te1 121.763(13) 2 20
Ca4 Ca4 Te1 120.618(13) 3 20
Te1 Ca4 Te1 86.39(2) 25 20
Te1 Ca4 Te1 83.067(10) . 20
N1 Ca4 Te1 85.319(12) . 3
N2 Ca4 Te1 95.979(12) . 3
Ca4 Ca4 Te1 120.348(14) 2 3
Ca4 Ca4 Te1 60.983(14) 3 3
Te1 Ca4 Te1 83.886(10) 25 3
Te1 Ca4 Te1 163.669(15) . 3
Te1 Ca4 Te1 82.254(10) 20 3
N1 Ca4 Ca4 129.499(16) . 6
N2 Ca4 Ca4 45.752(14) . 6
Ca4 Ca4 Ca4 92.860(4) 2 6
Ca4 Ca4 Ca4 85.561(9) 3 6
Te1 Ca4 Ca4 57.017(12) 25 6
Te1 Ca4 Ca4 105.429(16) . 6
Te1 Ca4 Ca4 143.325(13) 20 6
Te1 Ca4 Ca4 90.651(15) 3 6
N1 Ca4 Ca4 40.960(11) . 21
N2 Ca4 Ca4 114.705(19) . 21
Ca4 Ca4 Ca4 64.276(11) 2 21
Ca4 Ca4 Ca4 90.0 3 21
Te1 Ca4 Ca4 138.487(14) 25 21
Te1 Ca4 Ca4 57.276(8) . 21
Te1 Ca4 Ca4 57.58(2) 20 21
Te1 Ca4 Ca4 108.240(17) 3 21
Ca4 Ca4 Ca4 155.431(14) 6 21
N1 Ca4 Ca4 40.960(11) . 20
N2 Ca4 Ca4 114.704(19) . 20
Ca4 Ca4 Ca4 90.0 2 20
Ca4 Ca4 Ca4 64.276(11) 3 20
Te1 Ca4 Ca4 126.753(15) 25 20
Te1 Ca4 Ca4 108.547(17) . 20
Te1 Ca4 Ca4 56.56(2) 20 20
Te1 Ca4 Ca4 56.862(8) 3 20
Ca4 Ca4 Ca4 143.032(19) 6 20
Ca4 Ca4 Ca4 51.45(2) 21 20
N1 Ca4 Ca4 136.029(19) . 25
N2 Ca4 Ca4 106.07(2) . 25
Ca4 Ca4 Ca4 105.05(2) 2 25
Ca4 Ca4 Ca4 157.141(16) 3 25
Te1 Ca4 Ca4 52.038(9) 25 25
Te1 Ca4 Ca4 50.262(10) . 25
Te1 Ca4 Ca4 81.554(19) 20 25
Te1 Ca4 Ca4 133.674(16) 3 25
Ca4 Ca4 Ca4 77.655(16) 6 25
Ca4 Ca4 Ca4 98.809(17) 21 25
Ca4 Ca4 Ca4 136.688(19) 20 25
loop_
_geom_bond_atom_site_label_1
_geom_bond_atom_site_label_2
_geom_bond_distance
_geom_bond_site_symmetry_2
Te1 Ca4 3.2031(8) 30
Te1 Ca4 3.2031(7) 25
Te1 Ca4 3.2840(9) .
Te1 Ca4 3.2840(9) 18_554
Te1 Ca4 3.3107(8) 34
Te1 Ca4 3.3107(8) 21
Te1 Ca4 3.3373(9) 17_554
Te1 Ca4 3.3374(9) 2
N1 Ca4 2.3833(6) .
N1 Ca4 2.3833(6) 19
N1 Ca4 2.3833(6) 20
N1 Ca4 2.3833(6) 2
N1 Ca4 2.3833(6) 21
N1 Ca4 2.3833(6) 3
N2 Ca4 2.4990(6) .
N2 Ca4 2.4990(6) 3
N2 Ca4 2.4990(6) 4
N2 Ca4 2.4990(6) 6
N2 Ca4 2.4990(6) 2
N2 Ca4 2.4990(6) 5
Ca4 Ca4 3.1246(10) 2
Ca4 Ca4 3.1246(10) 3
Ca4 Te1 3.2031(8) 25
Ca4 Te1 3.3108(8) 20
Ca4 Te1 3.3374(9) 3
Ca4 Ca4 3.4875(13) 6
Ca4 Ca4 3.5995(11) 21
Ca4 Ca4 3.5995(11) 20
Ca4 Ca4 4.0698(12) 25
