#------------------------------------------------------------------------------
#$Date: 2017-01-05 03:58:03 +0200 (Thu, 05 Jan 2017) $
#$Revision: 189857 $
#$URL: file:///home/coder/svn-repositories/cod/cif/4/12/54/4125400.cif $
#------------------------------------------------------------------------------
#
# This file is available in the Crystallography Open Database (COD),
# http://www.crystallography.net/
#
# All data on this site have been placed in the public domain by the
# contributors.
#
data_4125400
loop_
_publ_author_name
'Beldjoudi, Yassine'
'Arauzo, Ana'
'Palacio, Fernando'
'Pilkington, Melanie'
'Rawson, Jeremy M.'
_publ_section_title
;
 Studies on a &quot;Disappearing Polymorph&quot;: Thermal and Magnetic
 Characterization of \a-p-NCC6F4CNSSN(&#x2022;).
;
_journal_issue                   51
_journal_name_full               'Journal of the American Chemical Society'
_journal_page_first              16779
_journal_page_last               16786
_journal_paper_doi               10.1021/jacs.6b10707
_journal_volume                  138
_journal_year                    2016
_chemical_formula_moiety         'C8 F4 N3 S2'
_chemical_formula_sum            'C8 F4 N3 S2'
_chemical_formula_weight         278.23
_chemical_name_systematic
;
 ?
;
_space_group_crystal_system      triclinic
_space_group_IT_number           2
_space_group_name_Hall           '-P 1'
_space_group_name_H-M_alt        'P -1'
_symmetry_space_group_name_Hall  '-P 1'
_symmetry_space_group_name_H-M   'P -1'
_atom_sites_solution_primary     intrinsic
_audit_creation_method           SHELXL-2013
_cell_angle_alpha                65.67(11)
_cell_angle_beta                 67.56(9)
_cell_angle_gamma                67.47(8)
_cell_formula_units_Z            2
_cell_length_a                   7.755(8)
_cell_length_b                   8.128(12)
_cell_length_c                   9.746(15)
_cell_measurement_reflns_used    4926
_cell_measurement_temperature    343(2)
_cell_measurement_theta_max      27.13
_cell_measurement_theta_min      2.38
_cell_volume                     498.4(13)
_computing_cell_refinement       'Bruker SAINT'
_computing_data_collection       'Bruker APEX2'
_computing_data_reduction        'Bruker SAINT'
_computing_molecular_graphics    'Bruker SHELXTL'
_computing_publication_material  'Bruker SHELXTL'
_computing_structure_refinement  'SHELXL-2014 (Sheldrick 2014)'
_computing_structure_solution    'SHELXS-97 (Sheldrick 2008)'
_diffrn_ambient_temperature      343(2)
_diffrn_measured_fraction_theta_full 0.992
_diffrn_measured_fraction_theta_max 0.985
_diffrn_measurement_device_type  'Bruker APEX-II with CCD detector'
_diffrn_measurement_method       'phi and omega scans'
_diffrn_radiation_type           MoK\a
_diffrn_radiation_wavelength     0.71073
_diffrn_reflns_av_R_equivalents  0.1094
_diffrn_reflns_av_unetI/netI     0.0578
_diffrn_reflns_Laue_measured_fraction_full 0.992
_diffrn_reflns_Laue_measured_fraction_max 0.985
_diffrn_reflns_limit_h_max       9
_diffrn_reflns_limit_h_min       -9
_diffrn_reflns_limit_k_max       10
_diffrn_reflns_limit_k_min       -10
_diffrn_reflns_limit_l_max       12
_diffrn_reflns_limit_l_min       -12
_diffrn_reflns_number            6744
_diffrn_reflns_point_group_measured_fraction_full 0.992
_diffrn_reflns_point_group_measured_fraction_max 0.985
_diffrn_reflns_theta_full        25.242
_diffrn_reflns_theta_max         27.132
_diffrn_reflns_theta_min         2.379
_diffrn_source                   'fine focus sealed tube'
_exptl_absorpt_coefficient_mu    0.570
_exptl_absorpt_correction_T_max  0.7455
_exptl_absorpt_correction_T_min  0.6011
_exptl_absorpt_correction_type   multi-scan
_exptl_absorpt_process_details   sadabs
_exptl_crystal_colour            'dark brown'
_exptl_crystal_density_diffrn    1.854
_exptl_crystal_description       block
_exptl_crystal_F_000             274
_exptl_crystal_size_max          0.500
_exptl_crystal_size_mid          0.150
_exptl_crystal_size_min          0.010
_refine_diff_density_max         0.480
_refine_diff_density_min         -0.314
_refine_diff_density_rms         0.086
_refine_ls_extinction_method     none
_refine_ls_goodness_of_fit_ref   1.185
_refine_ls_hydrogen_treatment    undef
_refine_ls_matrix_type           full
_refine_ls_number_parameters     154
_refine_ls_number_reflns         2186
_refine_ls_number_restraints     0
_refine_ls_restrained_S_all      1.185
_refine_ls_R_factor_all          0.0814
_refine_ls_R_factor_gt           0.0752
_refine_ls_shift/su_max          0.000
_refine_ls_shift/su_mean         0.000
_refine_ls_structure_factor_coef Fsqd
_refine_ls_weighting_details
'w=1/[\s^2^(Fo^2^)+(0.0697P)^2^+1.0705P] where P=(Fo^2^+2Fc^2^)/3'
_refine_ls_weighting_scheme      calc
_refine_ls_wR_factor_gt          0.2008
_refine_ls_wR_factor_ref         0.2054
_reflns_Friedel_coverage         0.000
_reflns_number_gt                1980
_reflns_number_total             2186
_reflns_threshold_expression     'I > 2\s(I)'
_cod_data_source_file            ja6b10707_si_001.cif
_cod_data_source_block           YBalpha70C_a
_cod_database_code               4125400
_shelx_space_group_comment
;
The symmetry employed for this shelxl refinement is uniquely defined
by the following loop, which should always be used as a source of
symmetry information in preference to the above space-group names.
They are only intended as comments.
;
_shelx_estimated_absorpt_t_min   0.764
_shelx_estimated_absorpt_t_max   0.994
_shelxl_version_number           2013-3
_shelx_res_file
;
TITL YBalpha70C_a.res in P-1
CELL  0.71073   7.7546   8.1281   9.7464   65.669   67.560   67.468
ZERR    2.000   0.0079   0.0118   0.0148    0.106    0.086    0.079
LATT 1
SFAC C  N  F  S
UNIT 16  6  8  4
TEMP 69.840
SIZE 0.50 0.15 0.01
REM Old TITL YBalpha70C in P-1
REM SHELXT solution in P-1
REM R1 0.241,  Rweak 0.020,  Alpha 0.065,  Orientation as input
REM Formula found by SHELXT:  C10 N F4 S2
L.S. 10
ACTA
LIST
BOND $H
FMAP 2
PLAN 5
WGHT    0.069700    1.070500
FVAR       0.68388
S1    4    0.733934    0.519675    0.065062    11.00000    0.04336    0.04098 =
         0.04845   -0.01091    0.01233   -0.01984
S2    4    0.526110    0.752217    0.121726    11.00000    0.05822    0.02874 =
         0.05650   -0.00134    0.01192   -0.01808
F2    3    0.426880    0.109564    0.274660    11.00000    0.06806    0.05127 =
         0.04223   -0.02695    0.00958   -0.03112
F3    3    0.209561   -0.104858    0.501313    11.00000    0.06534    0.03553 =
         0.06156   -0.01625   -0.00824   -0.02600
F6    3    0.222644    0.514423    0.578360    11.00000    0.08395    0.04826 =
         0.04858   -0.02520    0.00643   -0.03984
F5    3    0.008797    0.294758    0.803938    11.00000    0.07220    0.07391 =
         0.03715   -0.02643    0.01194   -0.03561
N1    2    0.617826    0.368154    0.202292    11.00000    0.04243    0.03105 =
         0.04416   -0.01090    0.00532   -0.01717
N2    2    0.382183    0.630460    0.263617    11.00000    0.04522    0.03148 =
         0.04796   -0.00963    0.01098   -0.01296
C1    1    0.332040    0.323823    0.416260    11.00000    0.03105    0.02813 =
         0.03069   -0.00525   -0.00674   -0.01181
C0    1    0.450437    0.446959    0.287583    11.00000    0.03510    0.02705 =
         0.02642   -0.00553   -0.00376   -0.01273
C3    1    0.213894    0.046404    0.520496    11.00000    0.03958    0.02691 =
         0.03770   -0.00901   -0.01039   -0.01247
C2    1    0.325474    0.159978    0.403309    11.00000    0.03683    0.03011 =
         0.03170   -0.01021   -0.00522   -0.00990
C4    1    0.102957    0.088079    0.659787    11.00000    0.03338    0.03370 =
         0.03143    0.00034   -0.00393   -0.01523
C6    1    0.221611    0.363661    0.554906    11.00000    0.04534    0.03181 =
         0.03102   -0.00935   -0.00250   -0.01831
N3    2   -0.114383   -0.119769    0.871018    11.00000    0.04854    0.05111 =
         0.06040    0.00654   -0.00014   -0.02665
C5    1    0.110533    0.250086    0.673229    11.00000    0.04222    0.04271 =
         0.02867   -0.01435   -0.00286   -0.01479
C7    1   -0.016803   -0.027968    0.778595    11.00000    0.03756    0.04069 =
         0.04473   -0.00536   -0.00797   -0.01399
HKLF 4

REM  YBalpha70C_a.res in P-1
REM R1 =  0.0752 for    1980 Fo > 4sig(Fo)  and  0.0814 for all    2186 data
REM    154 parameters refined using      0 restraints

END

WGHT      0.0409      0.9725

REM Highest difference peak  0.480,  deepest hole -0.314,  1-sigma level  0.086
Q1    1   0.3016  0.2835  0.3873  11.00000  0.05    0.48
Q2    1   0.5101  0.7007  0.0626  11.00000  0.05    0.39
Q3    1   0.1807  0.0841  0.5893  11.00000  0.05    0.37
Q4    1   0.3448  0.2372  0.4121  11.00000  0.05    0.37
Q5    1   0.7286  0.5631  0.1395  11.00000  0.05    0.35
;
_shelx_res_checksum              18184
_shelx_hkl_file
;
   0   0  -1  149.77    0.39
   0   0  -1  236.83    0.46
   0   0  -1  178.12    0.39
   0   0  -1  166.99    0.39
   0   0  -1   24.84    0.18
   0   0   1    0.67    0.07
   0   0   1    0.57    0.07
   0   0  -2   35.72    0.32
   0   0  -2   31.64    0.28
   0   0  -2   30.90    0.28
   0   0  -2   11.66    0.18
   0   0   2   28.45    0.28
   0   0   2   39.54    0.32
   0   0   2    4.36    0.11
   0   0   2   31.36    0.28
   0   0   2   34.79    0.28
   0   0  -3  518.52    1.20
   0   0  -3  445.46    1.10
   0   0  -3  446.55    1.10
   0   0  -3  305.57    0.99
   0   0   3  397.37    1.06
   0   0   3  440.25    1.10
   0   0   3  458.32    1.20
   0   0  -4    1.24    0.28
   0   0  -4    0.74    0.21
   0   0  -4    0.96    0.21
   0   0  -4    0.28    0.14
   0   0   4    0.71    0.21
   0   0   4    1.98    0.21
   0   0   4    1.28    0.21
   0   0  -5  103.04    0.74
   0   0  -5   89.61    0.67
   0   0  -5   87.48    0.64
   0   0  -5   94.78    0.74
   0   0   5   79.90    0.67
   0   0   5   85.68    0.67
   0   0   5   93.29    0.74
   0   0  -6   94.89    0.78
   0   0  -6   92.51    0.74
   0   0  -6   84.90    0.71
   0   0  -6   89.68    0.78
   0   0   6   81.64    0.74
   0   0   6   83.73    0.74
   0   0   6   91.13    0.81
   0   0  -7    0.07    0.32
   0   0  -7    0.18    0.21
   0   0   7    0.71    0.32
   0   0   7    0.53    0.25
   0   0  -8   14.10    0.53
   0   0   8    8.75    0.46
   0   0  -9    0.99    0.43
   0   0   9    1.77    0.46
   0   0 -10    6.38    0.57
   0   0  10    5.17    0.64
   0  -1  10    0.89    0.57
   0   1 -10    3.12    0.53
   0  -1   9    0.71    0.43
   0   1  -9    1.38    0.46
   0  -1   8  195.73    1.42
   0   1  -8  254.33    1.52
   0  -1   7   13.71    0.46
   0   1  -7   19.35    0.53
   0  -1   6  230.98    1.24
   0  -1   6  261.77    1.31
   0  -1   6  277.65    1.42
   0   1  -6  313.61    1.42
   0   1  -6  286.51    1.31
   0   1  -6  290.47    1.45
   0  -1   5    0.53    0.25
   0  -1   5    0.28    0.18
   0  -1   5    1.06    0.21
   0   1  -5    0.46    0.28
   0   1  -5    0.11    0.21
   0   1  -5    0.81    0.21
   0   1  -5    0.39    0.18
   0  -1   4    0.21    0.21
   0  -1   4   -0.11    0.18
   0  -1   4    0.14    0.14
   0   1  -4   -0.46    0.25
   0   1  -4   -0.28    0.18
   0   1  -4    0.78    0.18
   0  -1   3  155.97    0.74
   0  -1   3  191.48    0.78
   0  -1   3  201.36    0.85
   0   1  -3  229.74    0.89
   0   1  -3  195.05    0.78
   0   1  -3  197.82    0.78
   0   1  -3  212.38    0.89
   0  -1   2  412.01    0.99
   0  -1   2  470.33    1.03
   0  -1   2  539.99    1.20
   0   1  -2  601.22    1.17
   0   1  -2  493.54    1.03
   0   1  -2  516.18    1.17
   0  -1   1  879.75    1.63
   0  -1   1 1365.07    2.55
   0  -1   1 1174.76    2.69
   0  -1   1 1182.70    2.52
   0   1  -1  929.00    1.77
   0   1  -1 1317.20    2.23
   0   1  -1 1187.30    2.52
   0   1  -1 1110.34    1.81
   0  -1   0  135.49    0.39
   0  -1   0  141.23    0.39
   0  -1   0  142.97    0.39
   0  -1   0  133.69    0.39
   0  -1   0  107.89    0.35
   0   1   0  177.45    0.43
   0   1   0  212.98    0.46
   0   1   0  197.39    0.43
   0   1   0  184.85    0.46
   0  -1  -1   28.42    0.21
   0  -1  -1   29.52    0.21
   0  -1  -1   28.38    0.21
   0  -1  -1   22.18    0.18
   0  -1  -1   24.48    0.18
   0   1   1   28.06    0.21
   0   1   1   30.44    0.21
   0   1   1   28.56    0.18
   0   1   1   21.01    0.18
   0   1   1   24.84    0.18
   0  -1  -2  163.98    0.57
   0  -1  -2  174.22    0.60
   0  -1  -2  170.89    0.57
   0  -1  -2    7.72    0.14
   0  -1  -2  149.42    0.57
   0   1   2  155.05    0.53
   0   1   2  162.32    0.53
   0   1   2  139.78    0.50
   0   1   2  157.96    0.60
   0  -1  -3   35.11    0.35
   0  -1  -3   33.80    0.32
   0  -1  -3   13.71    0.25
   0  -1  -3   31.39    0.32
   0   1   3   32.88    0.35
   0   1   3   30.79    0.32
   0   1   3   30.58    0.32
   0   1   3   33.48    0.35
   0  -1  -4  147.86    0.78
   0  -1  -4  146.51    0.74
   0  -1  -4  127.17    0.67
   0  -1  -4  131.77    0.74
   0   1   4  120.93    0.67
   0   1   4  130.43    0.71
   0   1   4  115.69    0.67
   0   1   4  135.53    0.74
   0  -1  -5  391.10    1.35
   0  -1  -5  367.57    1.28
   0  -1  -5  323.36    1.20
   0  -1  -5  285.97    1.24
   0   1   5  325.23    1.24
   0   1   5  335.05    1.24
   0   1   5  316.94    1.20
   0   1   5  343.59    1.35
   0  -1  -6  127.52    0.89
   0  -1  -6  123.52    0.85
   0  -1  -6  121.96    0.81
   0  -1  -6   95.21    0.78
   0   1   6  112.00    0.85
   0   1   6  108.35    0.81
   0   1   6  120.47    0.89
   0  -1  -7    8.72    0.43
   0  -1  -7    9.60    0.35
   0  -1  -7   10.28    0.43
   0  -1  -7    6.52    0.28
   0   1   7    8.04    0.39
   0   1   7    7.69    0.35
   0   1   7    8.89    0.35
   0  -1  -8   19.03    0.57
   0   1   8   17.36    0.53
   0  -1  -9   18.46    0.60
   0   1   9   13.71    0.57
   0  -1 -10   10.28    0.60
   0   1  10   12.08    0.64
   0  -1 -11    1.74    0.60
   0   1  11    3.79    0.71
   0  -2  10    7.09    0.71
   0  -2   9   12.76    0.67
   0   2  -9   14.14    0.57
   0  -2   8    6.17    0.46
   0   2  -8    7.33    0.50
   0  -2   7   71.47    0.85
   0   2  -7   97.12    0.96
   0  -2   6   57.05    0.71
   0  -2   6   61.72    0.71
   0  -2   6   71.08    0.78
   0   2  -6   79.01    0.81
   0   2  -6   72.07    0.78
   0  -2   5   16.83    0.39
   0  -2   5   21.86    0.43
   0  -2   5   22.50    0.43
   0   2  -5   26.82    0.50
   0   2  -5   23.14    0.39
   0   2  -5   25.23    0.46
   0  -2   4  194.45    1.10
   0  -2   4  248.13    1.10
   0  -2   4  254.44    1.20
   0   2  -4  291.75    1.20
   0   2  -4  237.47    1.03
   0   2  -4  262.66    1.20
   0  -2   3   47.05    0.50
   0  -2   3   58.99    0.50
   0  -2   3   61.58    0.53
   0   2  -3   70.55    0.57
   0   2  -3   58.32    0.50
   0   2  -3   62.54    0.57
   0  -2   2  400.07    1.13
   0  -2   2  487.30    1.24
   0  -2   2  535.24    1.38
   0   2  -2  587.68    1.35
   0   2  -2  508.10    1.20
   0   2  -2  499.70    1.35
   0  -2   1   42.16    0.39
   0  -2   1   54.42    0.39
   0  -2   1   54.42    0.39
   0   2  -1   61.79    0.43
   0   2  -1   53.50    0.35
   0   2  -1   50.56    0.39
   0  -2   0   83.41    0.43
   0  -2   0  100.38    0.50
   0  -2   0  100.80    0.46
   0  -2   0   98.01    0.50
   0  -2   0   68.35    0.43
   0   2   0   91.27    0.43
   0   2   0  105.23    0.50
   0   2   0   97.69    0.43
   0  -2  -1  707.69    1.20
   0  -2  -1  771.08    1.24
   0  -2  -1  748.30    1.24
   0  -2  -1  827.59    1.24
   0  -2  -1  652.70    1.20
   0   2   1  816.33    1.24
   0   2   1  750.03    1.20
   0   2   1  579.28    1.13
   0  -2  -2   97.33    0.53
   0  -2  -2  104.60    0.50
   0  -2  -2   77.60    0.43
   0  -2  -2   87.45    0.50
   0   2   2  102.08    0.50
   0   2   2  100.24    0.50
   0   2   2   74.48    0.43
   0   2   2   80.57    0.46
   0  -2  -3  272.83    0.92
   0  -2  -3  272.94    0.89
   0  -2  -3  234.17    0.81
   0   2   3  265.28    0.89
   0   2   3  270.45    0.89
   0   2   3  209.05    0.78
   0   2   3  261.07    0.60
   0   2   3  246.18    0.92
   0  -2  -4  285.94    1.06
   0  -2  -4  308.79    1.06
   0  -2  -4    0.07    0.07
   0  -2  -4  281.97    1.10
   0   2   4  256.64    0.99
   0   2   4  275.81    0.99
   0   2   4  241.51    0.92
   0   2   4  246.36    1.03
   0  -2  -5  223.22    1.06
   0  -2  -5  231.30    1.03
   0  -2  -5  181.70    0.92
   0  -2  -5  211.78    1.06
   0   2   5  210.29    0.99
   0   2   5  217.13    0.99
   0   2   5  189.67    0.92
   0   2   5  208.34    1.06
   0  -2  -6   28.27    0.50
   0  -2  -6   27.03    0.46
   0  -2  -6   24.38    0.43
   0  -2  -6   23.35    0.43
   0   2   6   33.02    0.50
   0   2   6   23.74    0.43
   0   2   6   27.21    0.46
   0   2   6   21.97    0.43
   0  -2  -7    2.37    0.39
   0  -2  -7    2.91    0.35
   0  -2  -7    1.95    0.25
   0  -2  -7    2.73    0.28
   0   2   7    2.69    0.32
   0   2   7    2.80    0.28
   0   2   7    2.76    0.35
   0   2   7    3.15    0.28
   0  -2  -8   69.80    0.85
   0   2   8   65.48    0.81
   0  -2  -9   56.09    0.85
   0   2   9   49.68    0.81
   0  -2 -10    2.66    0.57
   0   2  10    0.74    0.43
   0  -2 -11    2.09    0.67
   0   2  11    1.67    0.53
   0  -3   9    8.04    0.67
   0   3  -9    9.89    0.53
   0  -3   8    6.80    0.71
   0   3  -8    5.21    0.46
   0  -3   7   14.42    0.53
   0   3  -7   19.20    0.57
   0  -3   6    5.56    0.39
   0   3  -6    7.65    0.46
   0  -3   5    1.81    0.32
   0  -3   5    2.37    0.28
   0  -3   5    1.77    0.28
   0   3  -5    1.42    0.39
   0   3  -5    2.06    0.25
   0  -3   4   17.79    0.43
   0  -3   4   21.72    0.43
   0  -3   4   22.78    0.43
   0   3  -4   25.30    0.46
   0  -3   3  120.79    0.96
   0  -3   3  153.60    0.89
   0  -3   3  168.06    0.96
   0   3  -3  190.17    0.96
   0   3  -3  157.71    0.96
   0  -3   2    1.24    0.28
   0  -3   2    0.07    0.21
   0  -3   2    0.28    0.14
   0   3  -2    0.39    0.25
   0   3  -2   -0.11    0.14
   0  -3   1  278.29    1.03
   0  -3   1  360.63    1.13
   0  -3   1  353.83    1.17
   0   3  -1  402.65    1.17
   0   3  -1  376.57    1.06
   0   3  -1  350.21    1.20
   0  -3   0   73.13    0.53
   0  -3   0   88.76    0.53
   0  -3   0   85.32    0.57
   0  -3   0   65.48    0.50
   0   3   0   94.07    0.57
   0  -3  -1 1184.11    1.88
   0  -3  -1 1360.53    1.98
   0  -3  -1 1032.60    1.84
   0   3   1 1373.99    1.95
   0   3   1  867.21    1.74
   0  -3  -2 1334.38    2.06
   0  -3  -2 1397.70    2.13
   0  -3  -2 1615.08    2.91
   0  -3  -2 1046.25    1.77
   0  -3  -2 1263.23    2.09
   0   3   2 1524.48    2.76
   0   3   2 1482.24    2.02
   0   3   2 1164.80    2.02
   0  -3  -3   72.57    0.53
   0   3   3   71.04    0.50
   0   3   3   54.32    0.50
   0  -3  -4  178.05    0.89
   0  -3  -4  192.75    0.92
   0  -3  -4  150.16    0.81
   0  -3  -4  177.87    0.92
   0   3   4  184.04    0.89
   0   3   4  186.73    0.85
   0   3   4  141.16    0.74
   0   3   4  179.68    0.64
   0   3   4  146.65    0.85
   0  -3  -5  418.85    1.59
   0  -3  -5  427.21    1.45
   0  -3  -5   34.51    0.43
   0  -3  -5  364.42    1.42
   0   3   5  390.85    1.38
   0   3   5  381.22    1.31
   0   3   5  303.37    1.17
   0   3   5  318.39    1.35
   0  -3  -6  257.34    1.28
   0  -3  -6  276.97    1.28
   0  -3  -6  205.93    1.10
   0  -3  -6  237.33    1.28
   0   3   6  239.31    1.17
   0   3   6  249.98    1.17
   0   3   6  200.97    1.06
   0   3   6  230.98    1.28
   0  -3  -7    4.04    0.43
   0  -3  -7    3.40    0.32
   0  -3  -7    3.86    0.39
   0  -3  -7    3.65    0.28
   0   3   7    3.22    0.32
   0   3   7    2.94    0.28
   0   3   7    2.41    0.28
   0  -3  -8    0.43    0.43
   0   3   8    1.56    0.39
   0  -3  -9   68.46    0.96
   0   3   9   53.22    0.78
   0  -3 -10    3.65    0.64
   0   3  10    2.80    0.50
   0  -3 -11   11.34    0.81
   0   3  11    3.90    0.57
   0  -4   8   -0.99    0.50
   0   4  -8   -0.53    0.39
   0  -4   7    8.86    0.60
   0   4  -7   13.15    0.53
   0  -4   6   -0.11    0.39
   0   4  -6    0.64    0.43
   0  -4   5    2.80    0.46
   0  -4   5    3.30    0.46
   0   4  -5    3.86    0.46
   0  -4   4   34.40    0.60
   0  -4   4   43.76    0.60
   0  -4   4   48.93    0.67
   0   4  -4   54.60    0.67
   0   4  -4   42.91    0.60
   0  -4   3    6.45    0.35
   0  -4   3    7.80    0.32
   0  -4   3    6.73    0.28
   0   4  -3    9.89    0.39
   0   4  -3    7.83    0.32
   0  -4   2  148.67    0.92
   0  -4   2  189.35    1.03
   0  -4   2  195.76    1.06
   0   4  -2  217.52    1.03
   0   4  -2  173.12    1.03
   0  -4   1  168.69    0.92
   0  -4   1  223.15    1.03
   0  -4   1  216.63    1.06
   0  -4   1  159.34    0.92
   0   4  -1  232.97    0.99
   0   4  -1  200.41    1.03
   0  -4   0   21.33    0.39
   0  -4   0   26.01    0.39
   0  -4   0   23.21    0.35
   0  -4   0   18.28    0.32
   0   4   0   26.65    0.43
   0  -4  -1  561.21    1.52
   0  -4  -1  696.03    1.67
   0  -4  -1  621.70    1.67
   0  -4  -1  529.47    1.56
   0   4   1  698.48    1.59
   0   4   1  436.77    1.42
   0  -4  -2    1.56    0.28
   0  -4  -2    1.42    0.25
   0  -4  -2    1.42    0.25
   0  -4  -2    1.45    0.21
   0   4   2    1.13    0.25
   0   4   2    1.56    0.21
   0  -4  -3    1.67    0.18
   0   4   3    1.56    0.21
   0  -4  -4  619.96    1.81
   0  -4  -4  670.27    1.81
   0  -4  -4  487.37    1.52
   0   4   4  660.78    1.74
   0   4   4  426.36    1.35
   0   4   4  433.20    1.56
   0  -4  -5   13.78    0.39
   0  -4  -5   15.59    0.39
   0  -4  -5   13.00    0.35
   0  -4  -5   13.18    0.35
   0   4   5   18.04    0.39
   0   4   5   10.88    0.32
   0   4   5   13.64    0.25
   0   4   5    9.60    0.32
   0  -4  -6   27.35    0.53
   0  -4  -6   29.23    0.50
   0  -4  -6    5.56    0.21
   0  -4  -6   24.48    0.46
   0   4   6   28.03    0.50
   0   4   6   19.24    0.39
   0   4   6   19.03    0.43
   0  -4  -7   -0.81    0.35
   0  -4  -7    0.74    0.35
   0   4   7   -0.32    0.32
   0   4   7    0.18    0.21
   0  -4  -8   35.43    0.71
   0   4   8   32.17    0.60
   0  -4  -9    6.91    0.64
   0   4   9    5.28    0.43
   0  -4 -10    1.49    0.60
   0   4  10    2.13    0.46
   0  -4 -11    6.70    0.81
   0   4  11    0.46    0.46
   0  -5   7    5.63    0.67
   0   5  -7    8.26    0.57
   0  -5   6    4.11    0.57
   0   5  -6    4.18    0.46
   0  -5   5   40.46    0.74
   0   5  -5   56.09    0.78
   0  -5   4    0.25    0.39
   0   5  -4    1.52    0.43
   0  -5   3  129.40    1.06
   0  -5   3  154.20    1.10
   0   5  -3  187.90    1.13
   0   5  -3  147.75    1.13
   0  -5   2  237.75    1.31
   0  -5   2  282.11    1.38
   0  -5   2  291.75    1.52
   0   5  -2  262.70    1.42
   0  -5   1   59.60    0.67
   0  -5   1   67.00    0.67
   0  -5   1   65.90    0.67
   0  -5   1   51.27    0.64
   0   5  -1   78.31    0.71
   0  -5   0  322.75    1.38
   0  -5   0  376.26    1.45
   0  -5   0  374.80    1.52
   0  -5   0  291.79    1.35
   0   5   0  415.83    1.42
   0  -5  -1  129.65    0.89
   0  -5  -1  159.62    0.92
   0  -5  -1  143.68    0.92
   0  -5  -1  118.73    0.85
   0   5   1  177.98    0.96
   0  -5  -2    9.74    0.35
   0  -5  -2   10.63    0.32
   0  -5  -2    6.66    0.28
   0  -5  -2   10.52    0.32
   0   5   2   11.16    0.35
   0   5   2    5.88    0.25
   0  -5  -3  211.03    1.10
   0  -5  -3  248.77    1.17
   0  -5  -3  159.59    0.96
   0   5   3  248.24    1.13
   0   5   3  143.25    0.96
   0  -5  -4    6.52    0.35
   0  -5  -4    8.86    0.39
   0  -5  -4    8.47    0.32
   0  -5  -4    6.55    0.28
   0  -5  -4    5.53    0.25
   0   5   4    7.12    0.32
   0   5   4    5.31    0.28
   0  -5  -5    7.16    0.46
   0  -5  -5    5.24    0.35
   0  -5  -5    3.79    0.25
   0  -5  -5    4.07    0.28
   0   5   5    6.38    0.35
   0   5   5    5.17    0.25
   0   5   5    3.33    0.25
   0  -5  -6    9.71    0.50
   0  -5  -6    9.85    0.43
   0  -5  -6    6.98    0.35
   0   5   6    9.53    0.39
   0   5   6    7.65    0.28
   0   5   6    7.09    0.32
   0  -5  -7    4.15    0.50
   0   5   7    3.30    0.46
   0   5   7    1.63    0.25
   0  -5  -8    3.86    0.57
   0   5   8    4.46    0.43
   0  -5  -9   13.78    0.71
   0   5   9   13.22    0.53
   0  -5 -10    0.89    0.64
   0   5  10    1.67    0.46
   0  -5 -11    3.26    0.78
   0   5  11    1.28    0.50
   0  -6   6    3.19    0.60
   0  -6   5   35.15    0.81
   0   6  -5   49.04    0.78
   0  -6   4   17.79    0.64
   0   6  -4   22.57    0.57
   0  -6   3    5.74    0.60
   0   6  -3    5.53    0.46
   0  -6   2   95.77    0.99
   0  -6   2  116.96    1.03
   0   6  -2  136.56    0.99
   0  -6   1   13.29    0.50
   0  -6   1   16.09    0.46
   0   6  -1   19.98    0.50
   0  -6   0    5.07    0.39
   0  -6   0    6.45    0.39
   0   6   0    5.39    0.67
   0  -6  -1    2.80    0.39
   0  -6  -1    2.34    0.35
   0  -6  -2   11.41    0.43
   0  -6  -2   14.67    0.43
   0  -6  -2   10.31    0.35
   0  -6  -2    9.00    0.43
   0   6   2    7.94    0.32
   0  -6  -3   10.63    0.43
   0  -6  -3   11.30    0.39
   0  -6  -3    8.36    0.35
   0   6   3    8.26    0.67
   0   6   3    7.65    0.32
   0  -6  -4    0.92    0.35
   0  -6  -4   -0.67    0.32
   0  -6  -4   -0.25    0.25
   0   6   4    0.25    0.21
   0  -6  -5  252.56    1.42
   0  -6  -5  257.20    1.42
   0   6   5  280.84    1.38
   0   6   5  175.07    1.24
   0  -6  -6  485.88    2.02
   0  -6  -6  545.13    2.20
   0  -6  -6  603.91    2.66
   0   6   6  590.30    2.06
   0   6   6  526.38    1.63
   0   6   6  380.40    1.88
   0  -6  -7   27.85    0.78
   0   6   7   26.33    0.60
   0  -6  -8    7.41    0.67
   0   6   8    6.24    0.46
   0  -6  -9    0.78    0.67
   0   6   9    4.00    0.50
   0  -6 -10    2.41    0.71
   0   6  10    0.64    0.50
   0  -7   4    3.93    0.64
   0  -7   3    5.42    0.67
   0   7  -3    6.55    0.78
   0  -7   2   18.89    0.71
   0   7  -2   25.83    0.57
   0  -7   1   22.46    0.67
   0   7  -1   32.81    0.60
   0  -7   0   36.18    0.71
   0  -7   0   37.59    0.99
   0   7   0   44.36    0.64
   0  -7  -1   23.35    0.60
   0  -7  -1   26.11    0.60
   0   7   1   29.34    0.57
   0  -7  -2    0.96    0.39
   0  -7  -2    0.89    0.39
   0   7   2    3.61    0.43
   0  -7  -3   12.12    0.53
   0  -7  -3   12.19    0.46
   0   7   3   12.58    0.50
   0   7   3    6.27    0.35
   0  -7  -4    5.67    0.50
   0  -7  -4    9.07    0.46
   0   7   4    8.33    0.46
   0   7   4    4.36    0.32
   0  -7  -5   43.05    0.78
   0   7   5   51.94    0.74
   0   7   5   30.68    0.81
   0  -7  -6   47.27    0.81
   0   7   6   55.59    0.78
   0   7   6   48.08    0.64
   0  -7  -7   21.33    0.71
   0  -7  -7   27.14    0.81
   0   7   7   25.33    0.64
   0  -7  -8    1.70    0.60
   0  -7  -8    3.90    0.74
   0   7   8    3.83    0.53
   0  -7  -9   -1.38    0.71
   0   7   9    0.99    0.53
   0  -7 -10   14.56    0.99
   0   7  10   12.05    0.67
   0  -8   3    1.10    0.64
   0  -8   2    3.58    0.74
   0  -8   1   29.83    0.85
   0  -8   0   75.72    1.10
   0  -8  -1   10.45    0.64
   0   8   1   13.43    0.50
   0  -8  -2    6.63    0.57
   0   8   2    5.42    0.43
   0  -8  -3   42.70    0.81
   0   8   3   46.27    0.67
   0  -8  -4   36.18    0.81
   0   8   4   37.27    0.67
   0  -8  -5   18.25    0.67
   0   8   5   19.98    0.57
   0  -8  -6   27.89    0.78
   0   8   6   28.63    0.67
   0   8   6   26.29    0.74
   0  -8  -7    1.13    0.57
   0   8   7    3.33    0.53
   0  -8  -8    6.87    0.71
   0   8   8    8.89    0.60
   0  -8  -9    2.48    0.67
   0   8   9    3.86    0.85
   0  -9   0    3.05    0.74
   0  -9  -1    5.74    0.78
   0  -9  -2    6.80    0.81
   0  -9  -3   24.77    0.81
   0  -9  -4   23.46    0.81
   0  -9  -5    6.09    0.71
   0  -9  -6   11.41    0.78
   0  -9  -7    2.98    0.71
   1  -9  -5    1.95    0.60
   1  -9  -4    7.62    0.71
   1  -9  -3    3.08    0.64
   1  -9  -2    5.95    0.71
   1  -8  -7    0.04    0.57
  -1   8   6    4.75    0.46
   1  -8  -6    5.10    0.67
  -1   8   5    0.25    0.43
   1  -8  -5    0.57    0.50
   1  -8  -4    7.69    0.60
   1  -8  -3    4.96    0.60
   1  -8  -2    9.21    0.60
   1  -8  -1  108.78    1.20
   1  -8   0   16.02    0.74
   1  -8   1   18.71    0.85
   1  -8   2    6.41    0.78
   1  -7  -9   25.58    1.10
   1  -7  -8    1.42    0.85
   1  -7  -7   39.86    0.85
   1  -7  -7   50.21    1.13
  -1   7   6   20.20    0.60
  -1   7   6   16.37    0.50
   1  -7  -6   15.52    0.64
   1  -7  -6   16.90    0.71
  -1   7   5    5.63    0.39
  -1   7   5    2.76    0.53
  -1   7   5    3.51    0.53
   1  -7  -5    4.50    0.57
  -1   7   4    2.37    0.28
   1  -7  -4    6.31    0.64
   1  -7  -4    5.60    0.46
  -1   7   3   22.89    0.53
   1  -7  -3   32.49    0.71
   1  -7  -3   39.15    0.67
   1  -7  -2   54.71    0.81
   1  -7  -2   58.78    0.78
   1  -7  -1   48.68    0.78
   1  -7  -1   57.90    0.78
   1  -7   0   31.85    0.71
   1  -7   0   36.39    0.67
   1  -7   1   11.55    0.60
   1  -7   2    4.15    0.64
   1  -7   3  107.54    1.31
   1  -7   4    8.26    0.81
   1  -6 -10   18.67    0.99
  -1   6   9   18.42    0.60
   1  -6  -9   21.68    0.96
  -1   6   8    6.70    0.46
   1  -6  -8    7.97    0.81
  -1   6   7   20.48    0.53
   1  -6  -7   22.07    0.81
  -1   6   6    5.46    0.39
  -1   6   6    4.39    0.35
  -1   6   6    3.97    0.39
   1  -6  -6    7.55    0.67
  -1   6   5  136.41    1.13
  -1   6   5  133.65    0.99
  -1   6   5   76.36    1.06
   1  -6  -5  146.05    1.24
   1  -6  -5  155.12    1.17
  -1   6   4   19.52    0.46
  -1   6   4   19.63    0.50
  -1   6   4   11.76    0.43
   1  -6  -4   19.24    0.57
   1  -6  -4   13.96    0.43
  -1   6   3   57.51    0.60
  -1   6   3   29.83    0.53
   1  -6  -3   42.52    0.67
   1  -6  -3   53.04    0.67
   1  -6  -3   35.36    0.57
  -1   6   2    0.74    0.21
   1  -6  -2    2.16    0.43
   1  -6  -2    1.98    0.39
   1  -6  -2    2.20    0.35
   1  -6  -1   51.66    0.71
  -1   6   0    2.48    0.32
   1  -6   0    2.41    0.39
   1  -6   0    0.89    0.39
  -1   6  -1    5.00    0.32
   1  -6   1    5.74    0.46
   1  -6   1    5.81    0.43
   1  -6   2   22.61    0.64
   1  -6   2   26.61    0.60
   1  -6   3   87.52    1.06
   1  -6   3   96.45    1.03
   1  -6   4    9.35    0.78
   1  -6   5    1.91    0.60
   1  -6   6    3.72    0.64
  -1   5  10   18.11    0.60
   1  -5 -10   24.13    0.96
  -1   5   9   27.03    0.64
   1  -5  -9   24.80    0.89
  -1   5   8    0.89    0.39
   1  -5  -8    1.35    0.57
  -1   5   7    3.08    0.43
  -1   5   7    2.98    0.32
   1  -5  -7    5.31    0.57
  -1   5   6   18.89    0.46
  -1   5   6   12.19    0.35
  -1   5   6   11.16    0.39
   1  -5  -6   16.69    0.57
   1  -5  -6   16.26    0.50
  -1   5   5   23.07    0.50
  -1   5   5   21.37    0.43
  -1   5   5   13.92    0.39
   1  -5  -5   23.85    0.60
   1  -5  -5   24.06    0.53
   1  -5  -5   16.19    0.39
  -1   5   4  282.29    1.17
  -1   5   4  264.25    1.24
  -1   5   4  179.36    1.13
   1  -5  -4  281.86    1.38
   1  -5  -4  290.93    1.35
   1  -5  -4  197.71    1.10
  -1   5   3   19.10    0.39
  -1   5   3   12.01    0.32
   1  -5  -3   14.95    0.43
   1  -5  -3   17.75    0.46
   1  -5  -3   18.42    0.43
   1  -5  -3   13.46    0.35
  -1   5   2   96.77    0.67
  -1   5   2   46.84    0.57
   1  -5  -2   77.77    0.71
   1  -5  -2   91.95    0.74
   1  -5  -2   61.69    0.60
  -1   5   1   26.18    0.39
  -1   5   1   15.17    0.35
   1  -5  -1   21.22    0.43
   1  -5  -1   26.04    0.46
   1  -5   0    3.72    0.32
   1  -5   0    4.82    0.32
  -1   5  -1   56.69    0.53
   1  -5   1   44.61    0.60
   1  -5   1   53.33    0.64
   1  -5   2   36.32    0.60
   1  -5   2   46.31    0.64
  -1   5  -3   20.55    0.43
   1  -5   3   16.02    0.57
  -1   5  -4   14.92    0.64
  -1   5  -4   10.63    0.43
   1  -5   4   12.51    0.57
  -1   5  -5   70.01    0.99
   1  -5   5   51.31    0.85
   1  -5   6    5.31    0.57
   1  -5   7   29.41    0.85
  -1   4  10    4.89    0.46
   1  -4 -10    7.37    0.78
  -1   4   9    3.65    0.50
   1  -4  -9    6.31    0.67
  -1   4   8   64.63    0.78
   1  -4  -8   73.17    0.99
  -1   4   7   40.29    0.60
  -1   4   7   36.18    0.64
   1  -4  -7   48.19    0.78
   1  -4  -7   48.72    0.74
  -1   4   6    3.12    0.32
  -1   4   6    2.83    0.35
   1  -4  -6    4.18    0.46
   1  -4  -6    3.01    0.39
   1  -4  -6    2.87    0.32
  -1   4   5   10.63    0.35
  -1   4   5   10.45    0.28
  -1   4   5    7.55    0.32
   1  -4  -5   10.77    0.39
   1  -4  -5   10.88    0.39
   1  -4  -5    8.86    0.32
  -1   4   4    2.37    0.25
  -1   4   4    2.94    0.25
  -1   4   4    1.77    0.21
   1  -4  -4    4.39    0.32
   1  -4  -4    4.07    0.35
   1  -4  -4    3.26    0.25
  -1   4   3   26.89    0.39
  -1   4   3   21.33    0.39
  -1   4   3   16.76    0.35
   1  -4  -3   24.98    0.46
   1  -4  -3   28.06    0.43
   1  -4  -3   18.39    0.35
  -1   4   2  253.16    0.92
  -1   4   2  163.17    0.89
   1  -4  -2  219.61    0.99
   1  -4  -2  237.22    1.06
   1  -4  -2  254.51    1.06
   1  -4  -2  164.76    0.85
  -1   4   1  679.10    1.45
  -1   4   1  398.08    1.38
   1  -4  -1  572.59    1.56
   1  -4  -1  636.40    1.59
   1  -4  -1  541.87    1.56
  -1   4   0    0.85    0.25
   1  -4   0    1.03    0.28
   1  -4   0   -0.07    0.25
  -1   4  -1   70.09    0.53
   1  -4   1   48.97    0.53
   1  -4   1   64.31    0.57
  -1   4  -2   67.39    0.53
  -1   4  -2   55.59    0.60
   1  -4   2   60.77    0.81
   1  -4   2   62.50    0.60
  -1   4  -3  110.27    0.74
  -1   4  -3   83.41    0.78
   1  -4   3   77.84    0.78
   1  -4   3   86.24    0.74
  -1   4  -4  341.78    1.31
  -1   4  -4  287.21    1.49
   1  -4   4  232.05    1.31
   1  -4   4  283.78    1.38
  -1   4  -5  143.61    1.13
   1  -4   5  126.67    1.06
   1  -4   5  138.61    1.06
  -1   4  -6    2.37    0.35
   1  -4   6    1.20    0.46
   1  -4   7   11.05    0.60
   1  -4   8    0.39    0.57
  -1   3  11    0.67    0.46
   1  -3 -11    1.38    0.74
  -1   3  10    0.85    0.39
   1  -3 -10    1.81    0.64
  -1   3   9    6.80    0.46
   1  -3  -9    7.65    0.64
  -1   3   8    2.16    0.35
   1  -3  -8   -0.74    0.46
  -1   3   7   38.73    0.60
  -1   3   7   34.65    0.60
   1  -3  -7   42.55    0.71
   1  -3  -7   42.98    0.64
  -1   3   6   95.03    0.78
  -1   3   6   77.31    0.78
   1  -3  -6   98.01    0.85
   1  -3  -6   99.95    0.85
   1  -3  -6   81.53    0.74
   1  -3  -6   92.12    0.85
  -1   3   5   25.87    0.43
  -1   3   5   22.32    0.43
   1  -3  -5   27.99    0.50
   1  -3  -5   28.49    0.46
   1  -3  -5   23.42    0.43
   1  -3  -5   26.82    0.46
  -1   3   4  300.54    1.10
  -1   3   4  302.59    1.03
  -1   3   4  253.16    1.17
   1  -3  -4  301.74    1.20
   1  -3  -4  329.84    1.24
   1  -3  -4  249.94    1.06
   1  -3  -4  280.02    1.20
  -1   3   3  543.85    1.35
  -1   3   3  491.48    1.31
  -1   3   3  410.73    1.35
   1  -3  -3  542.75    1.49
   1  -3  -3  542.75    1.42
   1  -3  -3  403.26    1.24
   1  -3  -3  468.24    1.42
  -1   3   2    2.41    0.21
  -1   3   2    1.81    0.18
   1  -3  -2    2.30    0.28
   1  -3  -2    2.41    0.21
   1  -3  -2    1.95    0.21
   1  -3  -2    1.31    0.14
  -1   3   1  403.86    0.96
  -1   3   1  248.17    0.92
   1  -3  -1  378.98    1.10
   1  -3  -1  413.78    1.10
   1  -3  -1  351.31    1.06
  -1   3   0   33.06    0.32
   1  -3   0   27.71    0.35
   1  -3   0   32.95    0.35
   1  -3   0   29.23    0.32
   1  -3   0   24.59    0.32
  -1   3  -1   20.76    0.32
   1  -3   1   18.50    0.32
   1  -3   1   21.86    0.32
   1  -3   1   21.65    0.32
   1  -3   1   15.17    0.28
  -1   3  -2  107.43    0.60
  -1   3  -2   86.24    0.64
   1  -3   2   79.83    0.60
   1  -3   2   97.65    0.64
   1  -3   2   95.88    0.64
  -1   3  -3   75.93    0.57
  -1   3  -3   61.48    0.60
   1  -3   3   55.10    0.57
   1  -3   3   62.40    0.57
   1  -3   3   68.31    0.60
  -1   3  -4  115.83    0.74
  -1   3  -4   96.13    0.81
   1  -3   4   74.09    0.71
   1  -3   4   94.43    0.74
  -1   3  -5   13.00    0.39
  -1   3  -5    9.28    0.35
   1  -3   5    8.18    0.39
   1  -3   5   10.63    0.35
  -1   3  -6    0.67    0.35
  -1   3  -6    0.99    0.21
   1  -3   6    0.89    0.39
   1  -3   6    1.35    0.35
  -1   3  -7    5.46    0.35
   1  -3   7    4.85    0.46
  -1   3  -8    9.67    0.43
   1  -3   8    7.62    0.57
   1  -3   9   -0.07    0.50
  -1   2  10    0.21    0.39
   1  -2 -10    0.89    0.57
  -1   2   9   69.98    0.89
   1  -2  -9   82.81    1.06
  -1   2   8   94.68    0.92
   1  -2  -8  111.40    1.10
  -1   2   7    3.37    0.35
  -1   2   7    4.36    0.35
   1  -2  -7    4.36    0.43
   1  -2  -7    3.15    0.35
  -1   2   6  233.25    1.17
  -1   2   6  185.03    1.03
  -1   2   6  222.62    1.28
   1  -2  -6  256.03    1.31
   1  -2  -6  247.10    1.24
   1  -2  -6  218.48    1.17
   1  -2  -6  237.15    1.31
  -1   2   5   93.40    0.71
  -1   2   5   80.54    0.64
  -1   2   5   92.66    0.74
   1  -2  -5   94.18    0.96
   1  -2  -5   99.00    0.74
   1  -2  -5   83.48    0.67
   1  -2  -5  102.54    0.78
  -1   2   4    3.51    0.25
  -1   2   4    4.00    0.21
  -1   2   4    3.40    0.25
   1  -2  -4    3.93    0.28
   1  -2  -4    3.15    0.21
   1  -2  -4    3.90    0.25
   1  -2  -4    3.86    0.21
  -1   2   3 1122.00    1.81
  -1   2   3 1085.61    1.95
  -1   2   3  867.60    1.52
  -1   2   3 1126.39    1.74
  -1   2   3 1032.89    1.98
   1  -2  -3 1190.56    2.02
   1  -2  -3 1149.46    1.91
   1  -2  -3  959.51    1.77
   1  -2  -3 1020.42    1.95
  -1   2   2  680.65    1.20
  -1   2   2  577.72    1.45
  -1   2   2  634.31    1.10
  -1   2   2  628.11    1.31
  -1   2   2  611.88    1.35
   1  -2  -2  703.12    1.35
   1  -2  -2  682.60    1.28
   1  -2  -2  502.43    1.10
   1  -2  -2  667.83    0.89
   1  -2  -2  628.78    1.35
  -1   2   1   21.19    0.25
   1  -2  -1   28.77    0.28
   1  -2  -1   28.56    0.32
   1  -2  -1   25.90    0.25
   1  -2  -1   22.71    0.25
  -1   2   0  223.33    0.71
   1  -2   0  286.47    0.74
   1  -2   0  305.96    0.78
   1  -2   0  325.84    0.74
   1  -2   0  292.78    0.78
   1  -2   0  261.67    0.74
  -1   2  -1  339.02    0.92
   1  -2   1  317.97    0.85
   1  -2   1  407.58    0.96
   1  -2   1  381.04    0.89
   1  -2   1  370.06    0.96
   1  -2   1  280.98    0.85
  -1   2  -2    0.78    0.21
  -1   2  -2    0.25    0.11
   1  -2   2    0.00    0.18
   1  -2   2    0.25    0.18
   1  -2   2    0.53    0.14
  -1   2  -3  330.73    0.99
  -1   2  -3  284.80    1.10
   1  -2   3  215.36    0.92
   1  -2   3  272.01    0.99
   1  -2   3  294.55    1.10
  -1   2  -4  496.76    1.38
  -1   2  -4  431.64    1.49
   1  -2   4  334.02    1.28
   1  -2   4  393.62    1.35
   1  -2   4  408.61    1.42
  -1   2  -5   63.39    0.60
  -1   2  -5   55.74    0.64
   1  -2   5   43.83    0.57
   1  -2   5   53.29    0.60
   1  -2   5   60.34    0.64
  -1   2  -6    5.85    0.50
  -1   2  -6    5.92    0.32
   1  -2   6    4.46    0.35
   1  -2   6    5.78    0.32
   1  -2   6    7.76    0.43
  -1   2  -7   16.33    0.46
   1  -2   7   11.98    0.46
   1  -2   7   14.49    0.46
  -1   2  -8   53.40    0.71
   1  -2   8   39.12    0.74
  -1   2  -9    1.17    0.39
   1  -2   9    1.45    0.53
   1  -2  10    1.98    0.64
  -1   1  10    6.94    0.64
   1  -1 -10    7.94    0.67
  -1   1   9   45.28    0.81
   1  -1  -9   46.35    0.85
  -1   1   8    2.16    0.43
   1  -1  -8    0.74    0.46
  -1   1   7   65.09    0.74
  -1   1   7   64.52    0.78
   1  -1  -7   74.41    0.85
   1  -1  -7   74.62    0.81
  -1   1   6  148.92    0.99
  -1   1   6  142.05    0.92
  -1   1   6  172.77    1.13
   1  -1  -6  182.97    1.13
   1  -1  -6  169.79    1.03
   1  -1  -6  152.89    0.99
   1  -1  -6  168.20    1.10
  -1   1   5  187.68    0.99
  -1   1   5  172.80    0.92
  -1   1   5  194.03    1.06
   1  -1  -5  203.91    1.03
   1  -1  -5  137.73    0.85
   1  -1  -5  202.14    1.10
  -1   1   4  221.56    0.92
  -1   1   4  210.96    0.89
  -1   1   4  228.29    1.03
   1  -1  -4  263.79    1.06
   1  -1  -4  224.29    0.96
   1  -1  -4  219.18    0.96
   1  -1  -4  236.33    1.06
  -1   1   3  143.18    0.67
  -1   1   3  129.75    0.60
  -1   1   3  145.91    0.74
   1  -1  -3  155.37    0.74
   1  -1  -3  142.62    0.67
   1  -1  -3  134.61    0.64
   1  -1  -3  145.95    0.71
  -1   1   2  262.87    0.71
  -1   1   2  213.94    0.64
  -1   1   2  268.83    0.74
  -1   1   2  242.57    0.78
   1  -1  -2  266.52    0.78
   1  -1  -2  289.52    0.81
   1  -1  -2  248.98    0.71
   1  -1  -2  226.45    0.71
   1  -1  -2  251.92    0.78
  -1   1   1  528.97    1.03
  -1   1   1  498.28    0.74
  -1   1   1  524.36    0.92
   1  -1  -1  576.98    0.85
   1  -1  -1  610.53    0.89
   1  -1  -1  497.47    0.78
   1  -1  -1  394.15    0.67
   1  -1  -1  562.24    0.81
   1  -1  -1  522.27    0.89
  -1   1   0 1672.55    2.83
   1  -1   0 1761.59    2.41
  -1   1  -1  796.31    1.06
   1  -1   1  757.01    1.13
   1  -1   1 1001.92    1.03
   1  -1   1  828.48    1.03
  -1   1  -2  108.32    0.43
  -1   1  -2   99.35    0.39
  -1   1  -2   88.65    0.46
   1  -1   2   70.72    0.39
   1  -1   2  111.04    0.50
   1  -1   2   86.88    0.43
   1  -1   2   92.87    0.46
  -1   1  -3    5.92    0.21
  -1   1  -3    4.89    0.18
  -1   1  -3    5.35    0.21
  -1   1  -3    4.54    0.18
   1  -1   3    4.11    0.21
   1  -1   3    4.85    0.21
   1  -1   3    3.72    0.18
  -1   1  -4   31.50    0.39
  -1   1  -4   27.81    0.35
  -1   1  -4   28.13    0.39
   1  -1   4   21.01    0.35
   1  -1   4   26.15    0.35
   1  -1   4   27.03    0.39
  -1   1  -5  250.86    1.06
  -1   1  -5  219.18    1.10
   1  -1   5  172.45    0.99
   1  -1   5  203.35    0.99
   1  -1   5  224.85    1.10
  -1   1  -6  246.86    1.17
  -1   1  -6  218.62    1.24
   1  -1   6  175.04    1.06
   1  -1   6  204.20    1.10
   1  -1   6  212.24    1.20
  -1   1  -7   28.42    0.53
  -1   1  -7   25.69    0.53
   1  -1   7   24.13    0.53
   1  -1   7   23.03    0.46
  -1   1  -8   16.79    0.50
   1  -1   8   12.26    0.53
  -1   1  -9   96.45    0.96
   1  -1   9   83.55    1.06
  -1   1 -10    3.93    0.46
   1  -1  10    3.93    0.64
  -1   0  10   -1.13    0.50
   1   0 -10    1.49    0.57
  -1   0   9   17.22    0.60
   1   0  -9   21.79    0.67
  -1   0   8    1.70    0.43
   1   0  -8    3.33    0.53
  -1   0   7  317.30    1.59
  -1   0   7  370.09    1.95
   1   0  -7  372.15    1.74
  -1   0   6   41.03    0.57
  -1   0   6   37.24    0.53
  -1   0   6   44.72    0.60
   1   0  -6   50.35    0.67
   1   0  -6   43.83    0.57
   1   0  -6   45.92    0.57
   1   0  -6   44.79    0.60
  -1   0   5   20.52    0.39
  -1   0   5   23.00    0.39
  -1   0   5   23.63    0.43
   1   0  -5   26.26    0.46
   1   0  -5   24.73    0.43
   1   0  -5   22.89    0.39
   1   0  -5   24.16    0.43
  -1   0   4    1.84    0.25
  -1   0   4    2.23    0.25
  -1   0   4    1.10    0.18
   1   0  -4    2.20    0.32
   1   0  -4    0.92    0.21
   1   0  -4    0.18    0.07
   1   0  -4    1.56    0.18
  -1   0   3  778.98    1.56
  -1   0   3  820.86    1.56
  -1   0   3  881.41    1.81
   1   0  -3 1005.46    1.84
   1   0  -3  781.57    1.56
   1   0  -3  839.46    1.63
   1   0  -3  913.76    1.84
  -1   0   2    1.20    0.18
  -1   0   2    1.24    0.21
  -1   0   2    0.04    0.18
  -1   0   2    0.14    0.14
   1   0  -2    0.92    0.21
   1   0  -2    0.14    0.14
   1   0  -2    0.32    0.14
  -1   0   1  374.56    0.67
  -1   0   1  448.08    0.74
  -1   0   1  359.21    0.64
  -1   0   1  369.52    0.74
   1   0  -1  380.83    0.71
   1   0  -1  450.34    0.78
   1   0  -1  379.34    0.67
   1   0  -1  400.28    0.78
  -1   0   0  247.07    0.57
  -1   0   0  221.95    0.32
   1   0   0  217.77    0.32
  -1   0  -1   17.75    0.18
  -1   0  -1   16.76    0.18
  -1   0  -1   16.23    0.11
   1   0   1   16.90    0.18
   1   0   1   15.94    0.11
  -1   0  -2  132.98    0.39
  -1   0  -2  189.21    0.46
  -1   0  -2  198.78    0.46
  -1   0  -2  157.50    0.39
  -1   0  -2  177.52    0.53
   1   0   2  133.08    0.43
   1   0   2  198.00    0.53
   1   0   2  179.04    0.50
   1   0   2  152.68    0.43
   1   0   2  165.33    0.53
  -1   0  -3  419.52    0.96
  -1   0  -3  430.54    0.92
  -1   0  -3  359.39    0.85
  -1   0  -3  399.89    1.03
   1   0   3  315.52    0.89
   1   0   3  241.58    0.92
   1   0   3  367.93    0.92
   1   0   3  367.22    0.92
   1   0   3  363.36    0.99
  -1   0  -4   13.75    0.28
  -1   0  -4   12.93    0.25
  -1   0  -4   12.65    0.25
  -1   0  -4   12.44    0.28
   1   0   4    9.57    0.25
   1   0   4   10.91    0.25
   1   0   4   10.84    0.25
   1   0   4   11.83    0.25
  -1   0  -5  385.82    1.24
  -1   0  -5  402.69    1.24
  -1   0  -5  385.72    1.38
   1   0   5  303.51    1.17
   1   0   5  338.91    1.20
   1   0   5  333.63    1.20
   1   0   5  362.37    1.35
  -1   0  -6  283.18    1.20
  -1   0  -6  279.38    1.17
  -1   0  -6  265.03    1.28
   1   0   6  228.40    1.17
   1   0   6  230.38    1.13
   1   0   6  256.96    1.28
  -1   0  -7    4.15    0.35
  -1   0  -7    2.83    0.25
   1   0   7    3.44    0.39
   1   0   7    3.44    0.28
   1   0   7    1.70    0.28
  -1   0  -8  145.38    1.06
   1   0   8  121.39    1.06
  -1   0  -9    8.57    0.50
   1   0   9    4.75    0.50
  -1   0 -10    5.28    0.50
   1   0  10    2.23    0.53
  -1   0 -11    9.96    0.60
   1   0  11   12.08    0.78
  -1  -1  10    6.52    0.71
   1   1 -10    2.98    0.60
  -1  -1   9    1.28    0.50
   1   1  -9   -0.39    0.50
  -1  -1   8    6.77    0.50
   1   1  -8   11.13    0.57
  -1  -1   7  160.86    1.20
   1   1  -7  205.33    1.35
  -1  -1   6    0.57    0.32
  -1  -1   6   -0.07    0.25
  -1  -1   6   -0.39    0.25
   1   1  -6    1.28    0.39
   1   1  -6    0.35    0.25
   1   1  -6    1.31    0.25
  -1  -1   5    7.05    0.32
  -1  -1   5    9.07    0.28
  -1  -1   5    9.42    0.32
   1   1  -5   11.55    0.39
   1   1  -5    8.15    0.28
   1   1  -5    9.00    0.32
   1   1  -5    9.85    0.32
  -1  -1   4  307.48    1.20
  -1  -1   4  329.66    1.24
  -1  -1   4  347.20    1.38
   1   1  -4  406.41    1.42
   1   1  -4  337.60    1.24
   1   1  -4  359.64    1.28
   1   1  -4  367.79    1.42
  -1  -1   3  631.26    1.52
  -1  -1   3  706.52    1.59
  -1  -1   3  739.47    1.77
   1   1  -3  847.43    1.77
   1   1  -3  750.85    1.67
   1   1  -3  769.94    1.81
  -1  -1   2  524.61    1.20
  -1  -1   2  609.26    1.28
  -1  -1   2  648.77    1.42
   1   1  -2  686.71    1.38
   1   1  -2    0.04    0.04
   1   1  -2  635.94    1.42
  -1  -1   1  130.36    0.50
  -1  -1   1  179.89    0.60
  -1  -1   1  152.11    0.53
  -1  -1   1  154.98    0.60
   1   1  -1  133.97    0.53
   1   1  -1  180.00    0.60
   1   1  -1  152.08    0.53
   1   1  -1  156.72    0.60
  -1  -1   0    0.85    0.11
  -1  -1   0    1.13    0.11
  -1  -1   0    0.96    0.11
  -1  -1   0    0.60    0.07
   1   1   0    0.89    0.11
   1   1   0    1.28    0.14
   1   1   0    0.71    0.11
   1   1   0    0.99    0.11
  -1  -1  -1   14.88    0.14
  -1  -1  -1   19.66    0.14
  -1  -1  -1   18.64    0.14
  -1  -1  -1   16.16    0.14
  -1  -1  -1   14.63    0.14
   1   1   1   16.97    0.14
   1   1   1   19.49    0.18
   1   1   1   18.60    0.14
   1   1   1   14.60    0.14
   1   1   1   13.43    0.14
  -1  -1  -2 2675.32    3.83
  -1  -1  -2 2815.20    4.32
  -1  -1  -2 3357.32    4.61
  -1  -1  -2 2705.12    4.00
  -1  -1  -2 2936.42    4.50
  -1  -1  -2 2766.02    4.85
   1   1   2 2717.94    4.39
   1   1   2 3153.33    4.39
   1   1   2 3202.94    4.75
   1   1   2 2621.46    3.86
   1   1   2 3002.04    4.00
   1   1   2 2652.29    4.39
  -1  -1  -3 3160.24    4.61
  -1  -1  -3 3385.63    5.10
  -1  -1  -3 2682.37    3.93
  -1  -1  -3 2955.52    5.31
   1   1   3 2686.62    4.93
   1   1   3 1325.27    2.48
   1   1   3 3170.77    5.35
   1   1   3 2781.37    4.46
   1   1   3 2910.94    4.43
  -1  -1  -4  104.31    0.60
  -1  -1  -4  116.15    0.60
  -1  -1  -4   97.86    0.53
  -1  -1  -4  104.60    0.64
   1   1   4   92.34    0.57
   1   1   4  106.16    0.60
   1   1   4   91.84    0.57
   1   1   4   98.04    0.60
  -1  -1  -5  132.02    0.74
  -1  -1  -5  139.64    0.74
  -1  -1  -5  112.96    0.67
  -1  -1  -5  131.10    0.81
   1   1   5  110.12    0.71
   1   1   5  122.60    0.74
   1   1   5  111.47    0.71
   1   1   5  126.49    0.78
  -1  -1  -6  164.02    0.92
  -1  -1  -6  171.71    0.92
  -1  -1  -6  156.26    0.96
  -1  -1  -6  169.15    1.03
   1   1   6  146.83    1.45
   1   1   6   84.26    0.67
   1   1   6  139.39    0.85
   1   1   6  148.14    0.96
  -1  -1  -7    1.74    0.35
  -1  -1  -7    1.74    0.32
  -1  -1  -7    0.78    0.25
   1   1   7    1.52    0.32
   1   1   7    0.18    0.14
   1   1   7    1.91    0.32
   1   1   7    1.42    0.25
  -1  -1  -8    0.92    0.39
   1   1   8    1.06    0.35
   1   1   8    2.80    0.35
  -1  -1  -9    1.95    0.46
   1   1   9    2.30    0.50
  -1  -1 -10    2.02    0.53
   1   1  10    2.09    0.50
  -1  -1 -11    7.16    0.60
   1   1  11    8.33    0.81
  -1  -2   9    9.53    0.60
   1   2  -9    9.14    0.67
  -1  -2   8    2.98    0.50
   1   2  -8    3.54    0.53
  -1  -2   7    4.96    0.46
   1   2  -7    5.39    0.50
  -1  -2   6   24.27    0.53
   1   2  -6   33.48    0.64
  -1  -2   5  282.71    1.38
  -1  -2   5  333.95    1.45
  -1  -2   5  370.52    1.67
   1   2  -5  393.97    1.63
   1   2  -5  333.99    1.45
   1   2  -5  355.28    1.49
   1   2  -5   -0.04    0.07
  -1  -2   4  296.89    1.24
  -1  -2   4  328.21    1.42
   1   2  -4  318.82    1.28
   1   2  -4   -0.11    0.07
  -1  -2   3  816.71    1.91
  -1  -2   3  976.41    2.06
  -1  -2   3 1010.74    2.23
   1   2  -3 1180.39    2.30
   1   2  -3  989.23    2.06
  -1  -2   2 1724.10    2.48
  -1  -2   2 2049.23    3.54
  -1  -2   2 2138.98    2.94
   1   2  -2 2418.04    3.72
   1   2  -2 2101.77    2.69
  -1  -2   1   43.16    0.39
  -1  -2   1   52.79    0.39
  -1  -2   1   54.18    0.43
   1   2  -1   64.17    0.46
   1   2  -1   52.58    0.43
   1   2  -1   16.19    0.25
  -1  -2   0   26.89    0.28
  -1  -2   0   25.69    0.28
   1   2   0   24.87    0.28
   1   2   0   30.54    0.28
  -1  -2  -1    6.98    0.21
  -1  -2  -1    8.68    0.21
  -1  -2  -1    7.87    0.18
  -1  -2  -1    6.94    0.18
  -1  -2  -1    3.26    0.14
   1   2   1    7.58    0.18
   1   2   1    7.87    0.21
   1   2   1    0.28    0.07
   1   2   1    5.81    0.18
  -1  -2  -2  285.55    0.78
  -1  -2  -2  332.21    0.85
  -1  -2  -2  339.34    0.85
  -1  -2  -2  246.36    0.71
  -1  -2  -2  273.01    0.81
   1   2   2  323.99    0.85
   1   2   2  311.34    0.85
   1   2   2    0.07    0.04
   1   2   2  248.70    0.74
   1   2   2  222.34    0.74
  -1  -2  -3   21.93    0.32
  -1  -2  -3   23.99    0.32
  -1  -2  -3   20.41    0.28
  -1  -2  -3   21.76    0.18
  -1  -2  -3   20.16    0.28
   1   2   3   20.30    0.28
   1   2   3    0.11    0.07
   1   2   3   18.42    0.28
   1   2   3   18.81    0.28
  -1  -2  -4   28.24    0.39
  -1  -2  -4   32.46    0.39
  -1  -2  -4   25.65    0.32
  -1  -2  -4   28.56    0.35
   1   2   4   28.10    0.35
   1   2   4    0.57    0.11
   1   2   4   25.65    0.35
   1   2   4   21.40    0.32
   1   2   4   26.29    0.35
  -1  -2  -5  166.43    0.85
  -1  -2  -5  179.36    0.85
  -1  -2  -5  140.60    0.74
  -1  -2  -5  156.26    0.89
   1   2   5  140.17    0.81
   1   2   5   89.01    0.60
   1   2   5  136.56    0.78
   1   2   5  140.28    0.85
  -1  -2  -6    8.43    0.35
  -1  -2  -6    7.62    0.28
  -1  -2  -6    6.98    0.25
  -1  -2  -6    8.89    0.28
   1   2   6    7.97    0.28
   1   2   6    6.34    0.28
   1   2   6    5.24    0.28
  -1  -2  -7   13.75    0.43
  -1  -2  -7   14.17    0.39
  -1  -2  -7   12.12    0.32
  -1  -2  -7   14.46    0.39
   1   2   7   11.48    0.39
   1   2   7   12.58    0.35
   1   2   7   11.48    0.35
   1   2   7   10.10    0.35
  -1  -2  -8   92.76    0.89
  -1  -2  -8  102.93    1.38
   1   2   8   70.90    0.81
   1   2   8   70.44    0.78
   1   2   8   70.16    1.24
  -1  -2  -9    8.43    0.53
   1   2   9   14.10    0.57
  -1  -2 -10   24.52    0.71
   1   2  10   18.60    0.67
  -1  -2 -11   44.29    0.92
   1   2  11   38.55    0.92
  -1  -3   9    9.00    0.71
   1   3  -9   13.04    0.71
  -1  -3   8    1.91    0.53
   1   3  -8    3.61    0.60
  -1  -3   7    3.15    0.46
   1   3  -7    6.77    0.53
  -1  -3   6  126.39    1.10
   1   3  -6  174.72    1.28
  -1  -3   5   95.21    0.89
  -1  -3   5  114.98    0.96
  -1  -3   5  120.75    1.03
   1   3  -5  131.99    1.03
   1   3  -5  111.04    1.13
  -1  -3   4   44.18    0.57
  -1  -3   4   46.20    0.57
  -1  -3   4   52.48    0.64
   1   3  -4   57.61    0.67
   1   3  -4   50.21    0.57
   1   3  -4   50.74    0.64
  -1  -3   3    2.09    0.21
  -1  -3   3    0.67    0.18
   1   3  -3    0.14    0.21
   1   3  -3    0.71    0.18
  -1  -3   2   45.71    0.50
  -1  -3   2   55.42    0.53
  -1  -3   2   59.42    0.57
   1   3  -2   66.26    0.60
   1   3  -2   56.94    0.53
   1   3  -2   55.31    0.57
  -1  -3   1   97.55    0.67
  -1  -3   1  120.43    0.67
  -1  -3   1  126.07    0.74
   1   3  -1  139.67    0.74
   1   3  -1  122.67    0.67
   1   3  -1  109.03    0.71
  -1  -3   0   26.01    0.35
  -1  -3   0   31.00    0.35
  -1  -3   0   29.73    0.35
  -1  -3   0   22.85    0.32
   1   3   0   53.11    0.46
   1   3   0   36.64    0.39
   1   3   0   18.60    0.28
  -1  -3  -1    0.85    0.21
  -1  -3  -1    1.42    0.21
  -1  -3  -1    1.28    0.18
  -1  -3  -1    1.20    0.14
   1   3   1    1.56    0.25
   1   3   1    1.17    0.21
   1   3   1    0.35    0.14
  -1  -3  -2   37.13    0.39
  -1  -3  -2   43.83    0.39
  -1  -3  -2   31.92    0.35
  -1  -3  -2   33.34    0.35
   1   3   2   42.41    0.43
   1   3   2   43.83    0.39
   1   3   2   27.28    0.32
  -1  -3  -3  332.85    1.06
  -1  -3  -3  340.29    1.10
  -1  -3  -3  386.35    1.13
  -1  -3  -3  284.24    0.96
  -1  -3  -3  211.71    0.89
   1   3   3  370.94    1.13
   1   3   3  390.92    1.13
   1   3   3  268.97    0.92
   1   3   3  262.52    0.99
  -1  -3  -4   63.92    0.57
  -1  -3  -4   69.38    0.57
  -1  -3  -4   53.22    0.50
   1   3   4   64.84    0.57
   1   3   4   62.75    0.53
   1   3   4   48.44    0.46
   1   3   4   49.43    0.50
  -1  -3  -5   54.03    0.57
  -1  -3  -5   60.91    0.57
  -1  -3  -5   48.26    0.50
  -1  -3  -5    2.52    0.14
   1   3   5   53.08    0.53
   1   3   5   58.46    0.57
   1   3   5   43.94    0.50
   1   3   5   41.77    0.50
  -1  -3  -6  192.36    1.03
  -1  -3  -6  142.72    0.89
  -1  -3  -6    0.96    0.11
   1   3   6  169.97    1.03
   1   3   6  167.28    0.96
   1   3   6  140.74    0.89
   1   3   6  142.15    0.96
  -1  -3  -7   45.88    0.60
  -1  -3  -7   52.44    0.64
  -1  -3  -7   38.59    0.53
  -1  -3  -7    0.07    0.11
   1   3   7   44.68    0.60
   1   3   7   43.23    0.57
   1   3   7   38.69    0.57
   1   3   7   38.37    0.57
  -1  -3  -8    1.24    0.39
   1   3   8    0.74    0.32
   1   3   8    0.92    0.35
  -1  -3  -9   35.50    0.71
   1   3   9   30.90    0.67
  -1  -3 -10    7.69    0.60
   1   3  10    7.05    0.53
  -1  -3 -11   18.00    0.81
   1   3  11   13.78    0.67
  -1  -4   8   17.11    0.71
   1   4  -8   24.27    0.78
  -1  -4   7   11.41    0.60
   1   4  -7   17.04    0.67
  -1  -4   6    9.89    0.53
   1   4  -6   11.76    0.57
  -1  -4   5    8.75    0.43
   1   4  -5   10.17    0.50
  -1  -4   4   51.24    0.67
  -1  -4   4   67.32    0.74
  -1  -4   4   53.82    0.81
   1   4  -4   78.20    0.81
   1   4  -4   62.54    0.74
  -1  -4   3   12.90    0.39
  -1  -4   3   15.66    0.39
  -1  -4   3   18.42    0.43
   1   4  -3   16.69    0.46
   1   4  -3   18.50    0.43
  -1  -4   2  169.47    1.03
  -1  -4   2  205.05    1.06
  -1  -4   2  222.59    1.20
   1   4  -2  218.72    1.10
   1   4  -2  202.92    1.13
  -1  -4   1  238.96    1.10
  -1  -4   1  290.79    1.20
  -1  -4   1  281.65    1.24
   1   4  -1  314.64    1.24
   1   4  -1  298.91    1.17
   1   4  -1  271.77    1.24
  -1  -4   0    2.91    0.32
  -1  -4   0    2.73    0.25
  -1  -4   0    2.27    0.21
  -1  -4   0    1.45    0.18
   1   4   0    4.61    0.32
   1   4   0    3.30    0.25
  -1  -4  -1  276.16    1.10
  -1  -4  -1  332.25    1.17
  -1  -4  -1  315.28    1.20
  -1  -4  -1  253.02    1.10
   1   4   1  348.90    1.20
   1   4   1  351.24    1.17
  -1  -4  -2  179.93    0.89
  -1  -4  -2  224.68    0.96
  -1  -4  -2    0.04    0.07
  -1  -4  -2  173.41    0.89
   1   4   2  228.29    0.99
   1   4   2  228.15    0.96
   1   4   2  134.18    0.78
  -1  -4  -3  659.54    1.70
  -1  -4  -3  749.78    1.77
  -1  -4  -3  246.15    0.99
  -1  -4  -3  579.92    1.67
   1   4   3  749.96    1.77
   1   4   3  495.45    1.56
  -1  -4  -4  495.17    1.52
  -1  -4  -4  497.89    1.56
  -1  -4  -4  594.06    1.63
  -1  -4  -4  426.32    1.38
  -1  -4  -4  420.26    1.49
   1   4   4  551.04    1.59
   1   4   4  579.96    1.59
   1   4   4  384.87    1.31
   1   4   4  375.23    1.42
  -1  -4  -5  224.18    1.10
  -1  -4  -5  170.22    0.96
  -1  -4  -5  179.00    1.03
   1   4   5  202.64    1.13
   1   4   5  203.77    1.03
   1   4   5  152.32    0.89
   1   4   5  143.00    0.92
   1   4   6   16.26    0.39
   1   4   6   15.63    0.39
  -1  -4  -7   45.18    0.64
  -1  -4  -7   48.29    0.64
  -1  -4  -7   35.47    0.53
  -1  -4  -7   43.94    0.60
   1   4   7   46.13    0.64
   1   4   7   42.91    0.64
   1   4   7   34.76    0.53
   1   4   7   34.16    0.57
  -1  -4  -8    4.22    0.46
   1   4   8    4.75    0.46
  -1  -4  -9   79.01    0.96
   1   4   9   80.04    0.92
  -1  -4 -10    3.79    0.60
   1   4  10   -0.07    0.39
  -1  -4 -11    6.70    0.74
   1   4  11    3.15    0.57
  -1  -5   7    3.37    0.64
   1   5  -7    5.46    0.60
  -1  -5   6    4.82    0.60
   1   5  -6    9.50    0.71
  -1  -5   5   30.58    0.71
   1   5  -5   40.68    0.74
  -1  -5   4    0.85    0.39
   1   5  -4    0.00    0.43
  -1  -5   3  165.50    1.20
  -1  -5   3  204.91    1.28
   1   5  -3  243.03    1.38
  -1  -5   2  121.46    0.99
  -1  -5   2  138.97    0.99
  -1  -5   2  150.41    1.10
   1   5  -2  173.90    1.10
   1   5  -2  135.00    1.03
  -1  -5   1    0.00    0.28
  -1  -5   1   -0.11    0.25
  -1  -5   1    0.25    0.18
   1   5  -1    0.78    0.35
   1   5  -1    0.78    0.18
  -1  -5   0  127.10    0.89
  -1  -5   0  159.02    0.96
  -1  -5   0  152.22    0.99
  -1  -5   0  113.88    0.85
  -1  -5  -1  243.46    1.38
  -1  -5  -1  275.49    1.20
  -1  -5  -1  265.42    1.28
  -1  -5  -1  203.24    1.10
   1   5   1  291.01    1.24
   1   5   1  243.28    1.49
  -1  -5  -2   61.48    0.60
  -1  -5  -2   26.08    0.39
  -1  -5  -2   60.80    0.64
  -1  -5  -2   44.08    0.53
   1   5   2   60.31    0.60
   1   5   2   39.33    0.50
  -1  -5  -3  196.33    1.03
  -1  -5  -3    1.49    0.14
  -1  -5  -3  145.91    0.96
   1   5   3  192.61    1.03
   1   5   3  110.58    0.81
  -1  -5  -4    0.18    0.28
  -1  -5  -4    1.13    0.25
  -1  -5  -4    1.28    0.14
  -1  -5  -4    0.11    0.14
   1   5   4    0.28    0.25
   1   5   4    0.07    0.18
  -1  -5  -5    2.41    0.35
  -1  -5  -5    0.53    0.35
  -1  -5  -5    2.20    0.28
  -1  -5  -5    1.67    0.25
  -1  -5  -5    1.67    0.25
   1   5   5    1.70    0.32
   1   5   5    0.32    0.25
   1   5   5    0.71    0.25
   1   5   5    0.64    0.18
  -1  -5  -6  218.65    1.28
  -1  -5  -6  240.66    1.28
  -1  -5  -6  180.24    1.10
  -1  -5  -6  184.67    1.20
   1   5   6  225.10    1.24
   1   5   6  191.51    1.20
   1   5   6  143.32    0.96
   1   5   6  155.26    1.10
  -1  -5  -7  293.10    1.52
  -1  -5  -7  327.11    2.30
   1   5   7  286.68    1.49
   1   5   7  207.63    1.35
  -1  -5  -8    3.65    0.53
   1   5   8    4.11    0.50
  -1  -5  -9    2.23    0.57
   1   5   9    2.91    0.50
  -1  -5 -10    7.94    0.71
   1   5  10    8.93    0.53
  -1  -5 -11    5.10    0.78
   1   5  11    4.78    0.64
  -1  -6   6   30.29    0.89
   1   6  -6   34.19    0.81
  -1  -6   5   23.81    0.74
   1   6  -5   37.63    0.81
  -1  -6   4   21.61    0.67
   1   6  -4   35.18    0.74
  -1  -6   3   45.67    0.78
   1   6  -3   59.49    0.81
  -1  -6   2  138.68    1.17
   1   6  -2  187.08    1.24
  -1  -6   1  440.67    1.88
  -1  -6   1  509.52    1.95
   1   6  -1  592.78    2.06
  -1  -6   0   58.43    0.74
  -1  -6   0   73.59    0.78
  -1  -6   0   68.56    0.78
  -1  -6   0   46.77    0.64
   1   6   0   79.01    0.81
  -1  -6  -1  135.35    0.99
  -1  -6  -1  156.61    1.06
  -1  -6  -1  140.52    1.03
  -1  -6  -1  110.09    0.92
   1   6   1  180.53    1.10
  -1  -6  -2   17.82    0.46
  -1  -6  -2   21.01    0.46
  -1  -6  -2   14.49    0.35
  -1  -6  -2   18.53    0.43
  -1  -6  -2   14.60    0.35
   1   6   2   20.98    0.50
  -1  -6  -3  135.46    0.99
  -1  -6  -3  165.86    1.06
  -1  -6  -3  105.84    0.85
  -1  -6  -3  128.90    0.99
   1   6   3  171.88    1.06
   1   6   3  100.63    0.89
  -1  -6  -4   16.19    0.46
  -1  -6  -4   19.77    0.46
  -1  -6  -4    0.25    0.11
  -1  -6  -4   13.11    0.35
   1   6   4   20.02    0.50
   1   6   4   11.48    0.35
  -1  -6  -5    0.53    0.35
  -1  -6  -5    0.21    0.28
  -1  -6  -5    0.18    0.21
  -1  -6  -5    0.11    0.07
   1   6   5    1.17    0.39
   1   6   5    0.11    0.21
  -1  -6  -6   32.21    0.64
  -1  -6  -6   39.37    0.64
   1   6   6   34.76    0.64
   1   6   6   25.83    0.53
  -1  -6  -7   35.29    0.67
  -1  -6  -7   39.26    0.74
   1   6   7   36.25    0.67
  -1  -6  -8    0.11    0.53
   1   6   8    0.64    0.39
  -1  -6  -9    8.22    0.74
   1   6   9    6.87    0.53
  -1  -6 -10   -0.85    0.64
   1   6  10   -0.07    0.43
  -1  -6 -11    4.96    0.81
   1   6  11    1.45    0.50
  -1  -7   4    5.81    0.64
   1   7  -4    6.73    0.57
  -1  -7   3    4.61    0.60
   1   7  -3    5.00    0.53
  -1  -7   2  131.81    1.28
   1   7  -2  174.75    1.31
  -1  -7   1   19.52    0.64
   1   7  -1   29.23    0.64
  -1  -7   0   13.82    0.57
   1   7   0   17.86    0.53
  -1  -7  -1    5.14    0.46
   1   7   1    5.56    0.43
  -1  -7  -2    4.78    0.43
  -1  -7  -2    6.17    0.43
   1   7   2    9.39    0.60
  -1  -7  -3    4.54    0.50
  -1  -7  -3    5.63    0.39
   1   7   3    5.70    0.50
   1   7   3    2.55    0.28
  -1  -7  -4   14.85    0.53
   1   7   4   18.89    0.57
   1   7   4    7.83    0.35
  -1  -7  -5    8.01    0.50
   1   7   5   10.03    0.53
  -1  -7  -6   16.44    0.60
   1   7   6   17.29    0.57
  -1  -7  -7    2.55    0.53
   1   7   7    1.95    0.46
  -1  -7  -8    1.35    0.50
   1   7   8    3.08    0.53
  -1  -7  -9   53.93    0.99
  -1  -7  -9   63.07    1.17
   1   7   9   62.82    0.96
  -1  -7 -10    0.14    0.71
  -1  -7 -10    2.69    0.81
   1   7  10    2.30    0.60
  -1  -8   3    1.28    0.57
  -1  -8   2    0.14    0.57
   1   8  -2    1.13    0.53
  -1  -8   1   -0.78    0.50
   1   8  -1   -1.06    0.43
  -1  -8   0   12.37    0.67
   1   8   0   13.75    0.57
  -1  -8  -1    9.28    0.60
   1   8   1    6.84    0.50
  -1  -8  -2    6.20    0.60
   1   8   2    6.45    0.50
  -1  -8  -3  230.56    1.56
   1   8   3  303.62    1.63
  -1  -8  -4    6.73    0.57
   1   8   4    9.46    0.53
  -1  -8  -5    1.63    0.53
   1   8   5    3.37    0.50
  -1  -8  -6    3.83    0.57
   1   8   6    0.64    0.50
  -1  -8  -7    1.20    0.53
   1   8   7    1.10    0.53
  -1  -8  -8   22.68    0.81
   1   8   8   28.13    0.78
  -1  -8  -9   11.34    0.78
   1   8   9   22.85    0.85
  -1  -9   1   11.09    0.85
  -1  -9   0   15.02    0.78
   1   9   0   11.76    0.92
  -1  -9  -1   48.15    0.99
   1   9   1   61.26    0.89
  -1  -9  -2   38.94    0.96
   1   9   2   48.37    0.81
  -1  -9  -3   18.21    0.78
   1   9   3   16.12    0.60
  -1  -9  -4    1.28    0.57
   1   9   4    0.99    0.50
  -1  -9  -5   11.30    0.74
   1   9   5   13.89    0.67
  -1  -9  -6   14.31    0.78
   1   9   6   13.68    0.64
  -1  -9  -7    2.44    0.71
   1   9   7    5.00    0.60
  -1  -9  -8    6.77    0.78
   1   9   8    3.58    0.67
  -2   8   6    8.36    0.71
   2  -8  -6    5.70    0.67
  -2   8   5    3.05    0.53
   2  -8  -5    4.85    0.60
  -2   8   4    1.31    0.53
   2  -8  -4    1.67    0.53
  -2   8   3    0.25    0.50
   2  -8  -3    0.14    0.50
   2  -8  -2   10.13    0.64
   2  -8  -1   13.50    0.67
   2  -8   0    2.62    0.64
   2  -8   1    7.55    0.74
   2  -7  -7    1.91    0.85
  -2   7   6    3.72    0.46
   2  -7  -6    3.08    0.57
   2  -7  -6    2.62    0.64
  -2   7   5    5.24    0.50
   2  -7  -5    6.27    0.64
   2  -7  -5    5.70    0.60
  -2   7   4    1.63    0.43
  -2   7   4    0.60    0.25
   2  -7  -4    2.30    0.50
   2  -7  -4    1.03    0.46
  -2   7   3   45.14    0.81
  -2   7   3   23.81    0.53
   2  -7  -3   44.82    0.81
   2  -7  -3   53.40    0.78
   2  -7  -2   22.04    0.64
   2  -7  -2   21.79    0.57
   2  -7  -1    4.32    0.57
   2  -7  -1    6.17    0.46
   2  -7   0    2.66    0.53
   2  -7   0    5.81    0.57
   2  -7   1   19.20    0.67
   2  -7   1   24.80    0.67
   2  -7   2   66.58    1.03
   2  -7   4   20.41    0.92
   2  -6  -8    1.42    0.74
   2  -6  -7    0.32    0.71
  -2   6   6   13.36    0.50
  -2   6   6    7.26    0.39
   2  -6  -6   12.01    0.78
  -2   6   5    4.93    0.43
  -2   6   5    4.54    0.35
   2  -6  -5    6.98    0.67
   2  -6  -5    8.11    0.50
  -2   6   4  366.80    1.77
   2  -6  -4  558.34    2.16
   2  -6  -4  611.81    2.30
   2  -6  -4  657.23    2.27
  -2   6   3   21.83    0.67
  -2   6   3   14.53    0.43
   2  -6  -3   24.27    0.60
   2  -6  -3   24.94    0.57
  -2   6   2    2.59    0.28
   2  -6  -2    5.28    0.53
   2  -6  -2    4.15    0.46
   2  -6  -2    1.38    0.50
   2  -6  -1   35.96    0.64
   2  -6  -1   38.73    0.64
   2  -6   0   13.96    0.50
   2  -6   0   15.91    0.50
   2  -6   1   50.10    0.74
   2  -6   1   54.42    0.74
   2  -6   2   21.12    0.64
   2  -6   2   23.10    0.60
   2  -6   3    7.05    0.67
   2  -6   3    8.22    0.50
   2  -6   4    0.60    0.60
   2  -6   5   10.81    0.78
   2  -5  -9    4.57    0.81
   2  -5  -8   10.13    0.81
  -2   5   7   27.07    0.53
   2  -5  -7   27.03    0.81
  -2   5   6   51.62    0.64
  -2   5   6   50.07    0.64
  -2   5   6   37.13    0.64
   2  -5  -6   52.30    0.85
  -2   5   5   48.86    0.67
  -2   5   5   34.97    0.60
   2  -5  -5   58.43    0.81
   2  -5  -5   48.72    0.71
   2  -5  -5   39.44    0.60
  -2   5   4   36.03    0.60
  -2   5   4   26.18    0.50
   2  -5  -4   44.25    0.71
   2  -5  -4   39.37    0.60
   2  -5  -4   27.64    0.50
  -2   5   3   20.02    0.50
  -2   5   3   12.58    0.35
   2  -5  -3   23.99    0.60
   2  -5  -3   19.66    0.46
   2  -5  -3   16.51    0.43
  -2   5   2   77.14    0.71
   2  -5  -2  121.64    0.89
   2  -5  -2  131.99    0.96
   2  -5  -2  146.16    0.92
   2  -5  -2   98.01    0.78
  -2   5   1    0.28    0.18
   2  -5  -1   -0.71    0.28
   2  -5  -1    0.81    0.28
   2  -5   0   14.28    0.43
   2  -5   0   16.19    0.43
   2  -5   1   53.22    0.64
   2  -5   1   58.39    0.64
   2  -5   2   45.42    0.64
   2  -5   2   53.18    0.67
  -2   5  -3    0.96    0.28
   2  -5   3    1.06    0.43
   2  -5   3    0.32    0.39
  -2   5  -4    6.84    0.39
   2  -5   4    7.05    0.57
   2  -5   4    4.68    0.43
   2  -5   5   26.89    0.74
   2  -5   5   27.74    0.64
   2  -5   6    5.00    0.57
   2  -5   7    4.71    0.60
   2  -4 -10    1.95    0.78
  -2   4   9   17.29    0.53
   2  -4  -9   21.72    0.89
  -2   4   8   52.19    0.71
   2  -4  -8   59.42    0.99
  -2   4   7    0.50    0.28
  -2   4   7    0.89    0.28
   2  -4  -7    0.71    0.50
  -2   4   6   60.27    0.67
  -2   4   6   44.11    0.74
   2  -4  -6   62.68    0.85
   2  -4  -6   60.87    0.74
  -2   4   5   12.54    0.35
  -2   4   5    8.75    0.35
  -2   4   5    8.40    0.39
   2  -4  -5    8.40    0.46
   2  -4  -5   13.04    0.43
   2  -4  -5    9.42    0.35
  -2   4   4   12.76    0.39
  -2   4   4    8.65    0.35
   2  -4  -4   11.80    0.43
   2  -4  -4   12.15    0.39
   2  -4  -4    7.87    0.32
  -2   4   3   97.05    0.78
  -2   4   3   64.66    0.67
   2  -4  -3   81.21    0.96
   2  -4  -3  101.62    0.85
   2  -4  -3   78.73    0.64
  -2   4   2    0.25    0.25
  -2   4   2    0.81    0.18
   2  -4  -2    1.06    0.35
   2  -4  -2    0.78    0.25
  -2   4   1    7.12    0.25
   2  -4  -1   12.58    0.32
   2  -4  -1   14.60    0.39
   2  -4  -1   14.85    0.39
   2  -4   0   70.79    0.60
   2  -4   0   80.50    0.60
   2  -4   1   55.17    0.57
   2  -4   1   63.92    0.57
   2  -4   2   22.07    0.43
  -2   4  -3   58.39    0.64
   2  -4   3   55.03    0.64
   2  -4   3   65.05    0.67
  -2   4  -4   72.81    0.74
   2  -4   4   64.77    0.78
   2  -4   4   73.45    0.74
  -2   4  -5   19.45    0.46
   2  -4   5   21.01    0.60
   2  -4   5   18.81    0.53
   2  -4   6    5.46    0.50
   2  -4   6    6.73    0.43
   2  -4   7    7.90    0.60
   2  -4   8    3.08    0.60
  -2   3  10    2.30    0.43
   2  -3 -10    1.35    0.67
  -2   3   9    1.20    0.39
   2  -3  -9    2.23    0.64
  -2   3   8    3.47    0.43
   2  -3  -8    5.03    0.67
  -2   3   7   43.90    0.60
  -2   3   7   34.79    0.64
   2  -3  -7   47.55    0.78
  -2   3   6    2.83    0.32
   2  -3  -6    4.22    0.43
   2  -3  -6    2.80    0.32
   2  -3  -6    4.50    0.32
  -2   3   5   20.48    0.39
  -2   3   5   18.78    0.43
   2  -3  -5   24.24    0.53
   2  -3  -5   22.43    0.46
   2  -3  -5   18.21    0.43
  -2   3   4  114.48    0.78
  -2   3   4   90.71    0.74
   2  -3  -4  108.64    0.92
   2  -3  -4  115.23    0.78
   2  -3  -4   84.90    0.67
  -2   3   3  222.69    1.06
  -2   3   3  182.26    0.96
   2  -3  -3  238.07    1.03
   2  -3  -3  235.77    0.99
   2  -3  -3  173.90    0.85
  -2   3   2  140.84    0.85
  -2   3   2  109.95    0.67
   2  -3  -2  150.98    0.78
   2  -3  -2  149.35    0.74
   2  -3  -2  111.29    0.64
  -2   3   1    4.43    0.28
  -2   3   1    2.48    0.18
   2  -3  -1    5.53    0.28
   2  -3  -1    4.50    0.21
  -2   3   0  206.96    0.85
   2  -3   0  294.48    0.96
   2  -3   0  312.87    0.99
   2  -3   0  328.21    0.96
   2  -3   1  721.69    1.52
   2  -3   1  841.77    1.56
  -2   3  -2  228.89    0.99
   2  -3   2  221.91    0.92
  -2   3  -3    4.89    0.32
   2  -3   3    4.43    0.28
  -2   3  -4    6.77    0.35
   2  -3   4    8.29    0.39
   2  -3   4    7.76    0.32
  -2   3  -5   40.25    0.57
   2  -3   5   29.52    0.53
   2  -3   5   34.48    0.53
  -2   3  -6   86.53    0.89
   2  -3   6   72.10    0.81
   2  -3   6   81.46    0.81
   2  -3   7   31.61    0.67
   2  -3   7   33.20    0.64
   2  -3   8    0.71    0.50
   2  -3   9    3.83    0.67
  -2   2  10   -0.04    0.35
   2  -2 -10    1.13    0.67
  -2   2   9    0.99    0.39
   2  -2  -9    2.16    0.60
  -2   2   8    3.33    0.43
   2  -2  -8    3.30    0.57
  -2   2   7   30.61    0.53
  -2   2   7   32.14    0.60
   2  -2  -7   35.72    0.71
  -2   2   6  119.58    0.99
  -2   2   6  102.90    0.92
   2  -2  -6  116.68    0.99
   2  -2  -6  111.51    0.92
   2  -2  -6   98.15    0.85
  -2   2   5   31.82    0.43
  -2   2   5   28.31    0.50
   2  -2  -5   32.49    0.53
   2  -2  -5   34.94    0.50
   2  -2  -5   27.64    0.46
  -2   2   4    5.78    0.25
  -2   2   4    4.61    0.25
   2  -2  -4    4.68    0.32
   2  -2  -4    3.76    0.25
   2  -2  -4    3.12    0.25
  -2   2   3  559.19    1.52
  -2   2   3  514.62    0.99
  -2   2   3  538.43    1.52
   2  -2  -3  615.71    1.56
   2  -2  -3  544.03    1.42
   2  -2  -3  465.01    1.31
  -2   2   2  130.11    0.74
  -2   2   2  116.93    0.53
  -2   2   2  117.42    0.64
   2  -2  -2  147.19    0.67
   2  -2  -2  128.41    0.60
   2  -2  -2  102.79    0.53
  -2   2   1  159.27    0.64
   2  -2  -1  196.93    0.60
  -2   2   0 1007.34    1.52
  -2   2  -2    6.59    0.18
   2  -2   2    7.33    0.21
   2  -2   2    7.58    0.21
  -2   2  -3   23.49    0.32
   2  -2   3   18.25    0.32
   2  -2   3   21.68    0.32
  -2   2  -4   31.32    0.43
   2  -2   4   23.17    0.39
   2  -2   4   31.04    0.43
  -2   2  -5    9.99    0.32
   2  -2   5    8.82    0.32
   2  -2   5   10.17    0.32
  -2   2  -6    0.89    0.21
   2  -2   6    1.84    0.35
   2  -2   6    2.02    0.39
  -2   2  -7    2.44    0.28
  -2   2  -7    1.70    0.35
   2  -2   7    1.13    0.39
  -2   2  -8    0.78    0.32
   2  -2   8    0.92    0.43
   2  -2   9   15.20    0.67
   2  -2  10    4.57    0.74
  -2   1  10    1.10    0.46
   2  -1 -10    2.13    0.67
  -2   1   9    2.94    0.46
   2  -1  -9    4.22    0.64
  -2   1   8   47.27    0.71
   2  -1  -8   53.54    0.89
  -2   1   7  103.18    0.92
  -2   1   7   99.07    0.99
   2  -1  -7  119.58    1.10
  -2   1   6  107.04    0.85
  -2   1   6  111.90    0.99
   2  -1  -6  119.55    0.99
   2  -1  -6  116.64    0.92
   2  -1  -6  104.21    0.89
   2  -1  -6  121.50    1.03
  -2   1   5   23.07    0.39
  -2   1   5   25.37    0.46
   2  -1  -5   28.70    0.50
   2  -1  -5   23.78    0.43
   2  -1  -5   23.63    0.43
   2  -1  -5   25.51    0.43
  -2   1   4  201.29    0.89
  -2   1   4  205.58    1.06
   2  -1  -4  230.66    1.06
   2  -1  -4  192.96    0.96
   2  -1  -4  200.55    0.96
   2  -1  -4  206.50    1.03
  -2   1   3  435.64    1.10
  -2   1   3  436.99    1.35
   2  -1  -3  484.25    1.35
   2  -1  -3  397.44    1.17
   2  -1  -3  371.54    1.13
   2  -1  -3  367.68    1.20
  -2   1   2   43.16    0.32
  -2   1   2   42.73    0.39
   2  -1  -2   48.68    0.39
   2  -1  -2   36.57    0.32
   2  -1  -2   37.35    0.35
   2  -1  -2   40.18    0.35
  -2   1   1  955.15    1.77
  -2   1   1  944.70    1.45
  -2   1   1  943.24    1.38
   2  -1  -1  848.07    1.24
  -2   1   0  486.13    1.24
  -2   1   0  461.12    1.10
  -2   1   0  445.70    0.74
  -2   1  -1   53.33    0.46
  -2   1  -1   51.66    0.25
  -2   1  -2  495.27    0.96
   2  -1   2  404.57    0.78
  -2   1  -3    0.71    0.14
   2  -1   3    0.74    0.18
   2  -1   3   -0.57    0.21
   2  -1   3    0.25    0.14
   2  -1   3    0.50    0.18
   2  -1   3    0.81    0.14
  -2   1  -4   14.28    0.28
   2  -1   4   10.56    0.28
   2  -1   4   12.37    0.28
   2  -1   4   14.21    0.28
  -2   1  -5  120.61    0.78
   2  -1   5   98.61    0.71
   2  -1   5  114.52    0.71
  -2   1  -6    2.23    0.25
  -2   1  -6    2.48    0.25
   2  -1   6    1.84    0.32
   2  -1   6    2.80    0.25
  -2   1  -7    2.30    0.32
  -2   1  -7    0.74    0.25
   2  -1   7    1.98    0.35
   2  -1   7    1.31    0.28
  -2   1  -8   79.30    0.74
   2  -1   8   66.12    0.85
   2  -1   8   64.24    0.78
  -2   1  -9   21.61    0.50
   2  -1   9   18.04    0.67
   2  -1  10   42.06    0.99
  -2   0  10    8.40    0.64
   2   0 -10   10.63    0.74
  -2   0   9   31.36    0.74
   2   0  -9   40.04    0.89
  -2   0   8    8.57    0.50
   2   0  -8   11.69    0.60
  -2   0   7   21.86    0.53
   2   0  -7   28.42    0.67
  -2   0   6   98.08    0.85
  -2   0   6  108.39    0.96
   2   0  -6  121.04    1.03
   2   0  -6  106.16    0.92
  -2   0   5   43.40    0.64
  -2   0   5   55.31    0.78
  -2   0   5   50.77    0.60
   2   0  -5   60.38    0.67
   2   0  -5   46.63    0.57
   2   0  -5   47.41    0.57
   2   0  -5   48.86    0.60
  -2   0   4   69.20    0.57
  -2   0   4   58.57    0.53
  -2   0   4   72.03    0.64
   2   0  -4   81.99    0.67
   2   0  -4   65.62    0.60
   2   0  -4   65.94    0.60
   2   0  -4   74.27    0.64
  -2   0   3   36.21    0.39
  -2   0   3   27.85    0.35
  -2   0   3   32.81    0.39
  -2   0   2  132.16    0.57
  -2   0   2  120.51    0.50
  -2   0   2  133.44    0.67
   2   0  -2  152.00    0.67
   2   0  -2  124.15    0.60
   2   0  -2  118.80    0.60
  -2   0   1  113.95    0.50
   2   0  -1  108.60    0.43
   2   0  -1  102.51    0.43
   2   0  -1  102.79    0.46
  -2   0   0   22.07    0.28
  -2   0   0   23.31    0.25
  -2   0   0   20.62    0.18
   2   0   0   20.48    0.14
  -2   0  -1 2557.29    4.07
  -2   0  -1 2503.43    4.39
  -2   0  -2 9999.00   12.44
  -2   0  -2 9538.38   13.39
  -2   0  -3   50.42    0.35
   2   0   3   35.08    0.28
   2   0   3   51.70    0.32
   2   0   3   42.38    0.28
   2   0   3   48.37    0.32
  -2   0  -4    0.67    0.14
   2   0   4    0.99    0.18
   2   0   4    0.50    0.18
   2   0   4    0.85    0.18
   2   0   4   -0.25    0.14
  -2   0  -5   41.92    0.39
  -2   0  -5   41.21    0.46
   2   0   5   35.72    0.43
   2   0   5   38.76    0.43
   2   0   5   38.05    0.43
   2   0   5   37.52    0.43
  -2   0  -6    4.04    0.25
  -2   0  -6    4.71    0.25
   2   0   6    3.19    0.32
   2   0   6    3.76    0.28
   2   0   6    1.98    0.21
   2   0   6    4.04    0.25
  -2   0  -7   28.91    0.46
  -2   0  -7   25.55    0.46
   2   0   7   20.94    0.46
   2   0   7   24.41    0.46
   2   0   7   22.18    0.43
  -2   0  -8   74.27    0.74
  -2   0  -8   70.79    0.81
   2   0   8   62.43    0.78
   2   0   8   69.80    0.78
  -2   0  -9    9.28    0.43
   2   0   9   10.91    0.57
  -2   0 -10    5.81    0.43
   2   0  10    5.56    0.67
   2   0  11    6.87    0.78
  -2  -1   9    4.54    0.60
   2   1  -9    5.10    0.74
  -2  -1   8    1.06    0.43
   2   1  -8    1.98    0.57
  -2  -1   7    6.13    0.43
   2   1  -7    8.08    0.53
  -2  -1   6  297.84    1.49
  -2  -1   6  330.44    1.70
   2   1  -6  380.30    1.77
  -2  -1   5  100.91    0.81
  -2  -1   5  105.84    0.81
  -2  -1   5  110.66    0.92
   2   1  -5  124.08    0.96
   2   1  -5   99.85    0.81
   2   1  -5    6.09    0.25
   2   1  -5  117.95    0.92
  -2  -1   4   24.66    0.43
  -2  -1   4   25.58    0.39
  -2  -1   4   26.89    0.43
   2   1  -4   29.34    0.46
   2   1  -4   24.55    0.39
   2   1  -4   29.44    0.46
  -2  -1   2    8.65    0.25
  -2  -1   2   11.69    0.25
  -2  -1   2   10.52    0.25
   2   1  -2   13.46    0.32
   2   1  -2   11.27    0.25
   2   1  -2   11.62    0.25
  -2  -1   1   40.32    0.32
  -2  -1   1   48.29    0.35
  -2  -1   1   43.33    0.32
  -2  -1   1   44.68    0.35
   2   1  -1   46.52    0.43
   2   1  -1   50.95    0.39
   2   1  -1   44.82    0.35
   2   1  -1   42.24    0.35
  -2  -1   0  264.47    0.67
   2   1   0  242.68    0.60
   2   1   0  282.08    0.64
   2   1   0  269.04    0.60
   2   1   0  275.77    0.67
  -2  -1  -1  525.35    0.78
  -2  -1  -2 1029.66    1.38
  -2  -1  -2 1017.47    1.59
  -2  -1  -2  891.44    1.13
  -2  -1  -3  300.82    0.74
  -2  -1  -3  290.40    0.92
  -2  -1  -3  298.55    0.81
   2   1   3  255.15    0.71
   2   1   3  308.40    0.78
   2   1   3  328.81    0.78
   2   1   3  270.14    0.67
   2   1   3  247.07    0.74
  -2  -1  -4  168.09    0.64
  -2  -1  -4  198.81    0.67
  -2  -1  -4  170.96    0.57
  -2  -1  -4  168.94    0.74
   2   1   4  153.28    0.67
   2   1   4  182.26    0.71
   2   1   4  157.35    0.67
   2   1   4  156.61    0.71
  -2  -1  -5   21.44    0.32
  -2  -1  -5   23.95    0.35
   2   1   5   18.99    0.35
   2   1   5   23.95    0.35
   2   1   5   21.44    0.32
   2   1   5   20.27    0.32
  -2  -1  -6  262.80    1.06
  -2  -1  -6  272.55    1.24
   2   1   6  246.54    1.17
   2   1   6  269.57    1.13
   2   1   6  233.46    1.06
   2   1   6  235.06    1.13
  -2  -1  -7   23.53    0.43
  -2  -1  -7   21.83    0.46
   2   1   7   17.22    0.43
   2   1   7   22.53    0.43
   2   1   7   18.21    0.43
   2   1   7   21.65    0.43
  -2  -1  -8   44.72    0.60
  -2  -1  -8   43.01    0.64
   2   1   8   41.63    0.64
   2   1   8   42.41    0.64
  -2  -1  -9   11.91    0.46
   2   1   9    9.53    0.50
  -2  -1 -10    0.04    0.39
   2   1  10    1.06    0.50
   2   1  11    2.13    0.64
  -2  -2   9    8.86    0.64
   2   2  -9    8.86    0.71
  -2  -2   8    2.55    0.50
   2   2  -8    6.17    0.71
  -2  -2   7   10.74    0.53
   2   2  -7   14.03    0.60
  -2  -2   6   20.05    0.53
   2   2  -6   23.10    0.60
  -2  -2   5   59.53    0.71
  -2  -2   5   61.62    0.67
  -2  -2   5   66.44    0.78
   2   2  -5   74.27    0.81
   2   2  -5   59.77    0.67
   2   2  -5   76.29    0.89
  -2  -2   4  277.36    1.28
  -2  -2   4  313.89    1.31
  -2  -2   4  331.43    1.49
   2   2  -4  372.61    1.52
   2   2  -4  313.65    1.35
   2   2  -4  322.08    1.49
  -2  -2   3    1.35    0.21
  -2  -2   3    0.28    0.18
  -2  -2   3    0.81    0.18
   2   2  -3    0.74    0.28
   2   2  -3    0.00    0.07
   2   2  -3    1.56    0.21
  -2  -2   2  540.02    1.42
  -2  -2   2  632.22    1.52
  -2  -2   2  665.91    1.74
   2   2  -2  765.69    1.77
   2   2  -2  672.36    1.63
   2   2  -2  678.88    1.74
  -2  -2   1  212.84    0.81
  -2  -2   1  266.45    0.89
  -2  -2   1  276.05    0.99
   2   2  -1  303.65    0.99
   2   2  -1  262.84    0.92
   2   2  -1  283.25    0.99
  -2  -2   0  693.84    1.24
  -2  -2   0  796.73    1.31
  -2  -2   0  858.95    1.56
   2   2   0 1006.74    1.59
   2   2   0  854.56    1.45
   2   2   0  883.54    1.56
  -2  -2  -1  716.37    1.13
  -2  -2  -1  967.87    1.31
  -2  -2  -1  805.38    1.17
  -2  -2  -1  704.82    1.10
  -2  -2  -1  894.42    1.45
  -2  -2  -1  589.81    1.17
   2   2   1  698.90    1.20
   2   2   1  983.03    1.42
   2   2   1  857.46    1.31
  -2  -2  -2 1056.20    1.35
  -2  -2  -2 1289.88    1.49
  -2  -2  -2 1232.80    2.13
  -2  -2  -2 1021.62    1.56
   2   2   2 1136.81    1.52
   2   2   2 1415.59    2.09
   2   2   2 1333.60    1.63
   2   2   2 1014.82    1.38
   2   2   2  909.12    1.45
  -2  -2  -3  415.09    0.96
  -2  -2  -3  630.13    1.70
  -2  -2  -3  504.70    0.99
  -2  -2  -3  410.27    0.89
  -2  -2  -3  488.79    1.10
  -2  -2  -3  434.68    1.10
   2   2   3  461.47    1.06
   2   2   3  502.32    1.10
   2   2   3  404.03    0.96
   2   2   3  371.65    1.03
  -2  -2  -4 1126.57    1.77
  -2  -2  -4 1091.71    1.74
  -2  -2  -4 1331.12    1.84
  -2  -2  -4  970.28    1.56
  -2  -2  -4 1098.93    1.74
  -2  -2  -4 1146.09    2.02
   2   2   4 1091.03    1.84
   2   2   4 1255.15    1.95
   2   2   4 1009.75    1.74
   2   2   4  932.22    1.77
  -2  -2  -5   48.29    0.46
  -2  -2  -5   51.62    0.46
  -2  -2  -5   47.34    0.50
   2   2   5   43.19    0.46
   2   2   5   49.75    0.46
   2   2   5   37.95    0.43
   2   2   5   39.47    0.46
  -2  -2  -6   59.77    0.57
  -2  -2  -6   71.33    0.60
  -2  -2  -6   61.69    0.60
   2   2   6   56.37    0.57
   2   2   6   62.18    0.60
   2   2   6   51.98    0.53
   2   2   6   52.48    0.57
  -2  -2  -7   15.24    0.39
  -2  -2  -7   15.20    0.39
   2   2   7   11.30    0.35
   2   2   7   14.14    0.35
   2   2   7   12.37    0.39
   2   2   7   12.83    0.35
  -2  -2  -8   20.66    0.50
  -2  -2  -8   17.50    0.43
   2   2   8   15.38    0.46
   2   2   8   18.81    0.53
   2   2   8   17.11    0.46
   2   2   8   15.34    0.43
  -2  -2  -9    1.42    0.39
   2   2   9   -0.18    0.35
  -2  -2 -10    1.24    0.46
   2   2  10    0.60    0.46
  -2  -2 -11   11.37    0.60
   2   2  11   10.45    0.74
  -2  -2 -12    6.38    0.67
   2   2  12    3.01    0.71
  -2  -3   8   32.21    0.81
   2   3  -8   46.63    0.99
  -2  -3   7   47.44    0.81
   2   3  -7   54.88    0.92
  -2  -3   6   45.00    0.74
   2   3  -6   59.14    0.85
  -2  -3   5    1.74    0.35
   2   3  -5    3.40    0.43
  -2  -3   4   19.13    0.46
  -2  -3   4   24.20    0.46
  -2  -3   4   23.81    0.50
   2   3  -4   26.82    0.53
   2   3  -4   27.85    0.53
   2   3  -4   22.11    0.46
  -2  -3   3   27.60    0.46
  -2  -3   3   33.20    0.46
  -2  -3   3   32.77    0.50
   2   3  -3   45.81    0.60
   2   3  -3   32.85    0.46
   2   3  -3   34.05    0.50
  -2  -3   2  213.16    1.03
  -2  -3   2  245.16    1.06
  -2  -3   2  261.88    1.20
   2   3  -2  289.30    1.20
   2   3  -2  251.68    1.10
   2   3  -2  258.23    1.20
  -2  -3   1  567.41    1.52
  -2  -3   1  683.67    1.63
  -2  -3   1  720.59    1.84
   2   3  -1  797.86    1.84
   2   3  -1   39.44    0.43
   2   3  -1  704.29    1.81
  -2  -3   0  265.42    0.96
  -2  -3   0  309.01    1.03
  -2  -3   0  316.59    1.13
   2   3   0  370.94    1.17
   2   3   0  220.50    0.89
   2   3   0  321.12    1.13
  -2  -3  -1  604.65    1.35
  -2  -3  -1  712.69    1.45
  -2  -3  -1  528.79    1.24
  -2  -3  -1  721.12    1.59
  -2  -3  -1  542.29    1.38
   2   3   1  792.76    1.59
   2   3   1  734.48    1.52
  -2  -3  -2   39.65    0.39
  -2  -3  -2   49.85    0.43
  -2  -3  -2   37.17    0.35
  -2  -3  -2   35.82    0.39
   2   3   2   45.46    0.43
   2   3   2   48.90    0.43
   2   3   2   34.87    0.35
   2   3   2   31.53    0.35
  -2  -3  -3  120.65    0.64
  -2  -3  -3  111.40    0.60
  -2  -3  -3  118.06    0.60
  -2  -3  -3  127.02    0.71
   2   3   3  149.03    0.71
   2   3   3  143.54    0.71
   2   3   3  102.82    0.60
   2   3   3   96.84    0.60
  -2  -3  -4   90.99    0.60
  -2  -3  -4  110.87    0.64
  -2  -3  -4   84.82    0.57
  -2  -3  -4   98.43    0.53
  -2  -3  -4   86.92    0.60
   2   3   4   95.74    0.64
   2   3   4  101.94    0.64
   2   3   4   74.20    0.53
   2   3   4   74.44    0.57
  -2  -3  -5    3.22    0.32
  -2  -3  -5    2.16    0.21
  -2  -3  -5    3.05    0.21
  -2  -3  -5    2.80    0.14
  -2  -3  -5    4.00    0.25
   2   3   5    2.73    0.25
   2   3   5    3.12    0.25
   2   3   5    2.69    0.25
   2   3   5    2.59    0.18
  -2  -3  -6    7.02    0.35
  -2  -3  -6    6.09    0.28
  -2  -3  -6    6.77    0.28
   2   3   6    6.98    0.32
   2   3   6    6.20    0.28
   2   3   6    3.86    0.25
  -2  -3  -7   53.25    0.64
  -2  -3  -7   53.15    0.60
  -2  -3  -7   48.22    0.60
   2   3   7   44.61    0.57
   2   3   7   32.77    0.50
   2   3   7   39.47    0.57
   2   3   7   37.70    0.53
  -2  -3  -8   56.76    0.71
  -2  -3  -8   54.57    0.71
   2   3   8   51.48    0.67
   2   3   8   40.25    0.60
   2   3   8   42.09    0.64
  -2  -3  -9   14.14    0.53
   2   3   9   11.02    0.50
  -2  -3 -10   11.41    0.57
   2   3  10   11.34    0.60
  -2  -3 -11   31.57    0.78
   2   3  11   26.47    0.81
  -2  -3 -12    4.61    0.67
   2   3  12    7.41    0.78
  -2  -4   7    2.06    0.50
   2   4  -7    2.02    0.60
  -2  -4   6   -0.11    0.39
   2   4  -6    2.73    0.53
  -2  -4   5    4.04    0.43
   2   4  -5    3.05    0.50
  -2  -4   4   12.37    0.43
   2   4  -4   17.61    0.53
  -2  -4   3  145.34    1.03
  -2  -4   3  163.66    1.06
  -2  -4   3  188.36    1.20
   2   4  -3  196.61    1.20
   2   4  -3  241.36    1.67
   2   4  -3  175.67    1.17
  -2  -4   2   54.85    0.60
  -2  -4   2   65.62    0.64
  -2  -4   2   70.65    0.71
   2   4  -2   74.41    0.74
   2   4  -2   66.15    0.64
   2   4  -2   74.55    0.74
  -2  -4   1    4.89    0.32
  -2  -4   1    5.92    0.25
  -2  -4   1    6.06    0.25
   2   4  -1    7.05    0.28
   2   4  -1    7.09    0.28
  -2  -4   0    4.15    0.28
  -2  -4   0    3.08    0.25
  -2  -4   0    3.76    0.25
  -2  -4   0    0.14    0.07
   2   4   0    6.80    0.32
   2   4   0    4.32    0.25
   2   4   0    4.11    0.21
  -2  -4  -1   11.76    0.32
  -2  -4  -1   12.22    0.32
  -2  -4  -1   12.58    0.28
  -2  -4  -1    7.69    0.25
   2   4   1   14.81    0.35
   2   4   1   13.68    0.32
  -2  -4  -2  122.95    0.74
  -2  -4  -2  156.47    0.81
  -2  -4  -2  106.40    0.67
  -2  -4  -2  109.95    0.71
   2   4   2  153.78    0.81
   2   4   2  136.24    0.74
   2   4   2   91.20    0.67
  -2  -4  -3  405.27    1.31
  -2  -4  -3  497.72    1.42
  -2  -4  -3  369.74    1.20
  -2  -4  -3  380.54    1.35
   2   4   3  474.72    1.42
   2   4   3  339.02    1.17
   2   4   3  335.01    1.17
   2   4   3  313.72    1.20
  -2  -4  -4    1.28    0.25
  -2  -4  -4    1.70    0.25
  -2  -4  -4    0.71    0.21
  -2  -4  -4    0.04    0.07
   2   4   4    1.17    0.28
   2   4   4    0.57    0.18
   2   4   4    1.42    0.21
   2   4   4    0.28    0.14
  -2  -4  -5  131.60    0.81
  -2  -4  -5  150.20    0.85
  -2  -4  -5  114.41    0.74
  -2  -4  -5  134.71    0.60
  -2  -4  -5  110.44    0.78
   2   4   5  139.46    0.89
   2   4   5  114.09    0.74
   2   4   5  103.64    0.74
   2   4   5   92.48    0.74
  -2  -4  -6  365.17    1.38
  -2  -4  -6  265.64    1.17
  -2  -4  -6  291.64    0.85
  -2  -4  -6  316.45    1.42
   2   4   6  325.80    1.38
   2   4   6  316.41    1.35
   2   4   6  261.95    1.20
   2   4   6  248.84    1.28
  -2  -4  -7  108.39    0.89
  -2  -4  -7  120.72    0.89
  -2  -4  -7  104.03    0.89
   2   4   7  103.78    0.89
   2   4   7  114.80    0.89
   2   4   7   78.38    0.74
   2   4   7   78.87    0.78
  -2  -4  -8   14.21    0.50
  -2  -4  -8   13.43    0.46
   2   4   8   11.73    0.46
   2   4   8   11.27    0.43
  -2  -4  -9    1.45    0.46
   2   4   9    2.80    0.46
  -2  -4 -10   13.43    0.64
   2   4  10    8.47    0.53
  -2  -4 -11    1.52    0.57
   2   4  11   -0.46    0.46
  -2  -4 -12    2.16    0.64
   2   4  12    3.08    0.64
  -2  -5   7    8.15    0.78
   2   5  -7    7.48    0.74
  -2  -5   6    3.54    0.60
   2   5  -6    6.63    0.67
  -2  -5   5    7.94    0.57
   2   5  -5    6.55    0.57
  -2  -5   4    4.75    0.50
   2   5  -4    4.25    0.57
  -2  -5   3   68.10    0.81
   2   5  -3   99.64    0.99
  -2  -5   2    3.72    0.39
  -2  -5   2    7.48    0.35
  -2  -5   2    7.37    0.35
   2   5  -2    6.31    0.46
   2   5  -2    0.07    0.11
  -2  -5   1   67.75    0.74
  -2  -5   1   77.92    0.74
  -2  -5   1   80.89    0.78
   2   5  -1   91.10    0.81
   2   5  -1   84.29    0.74
  -2  -5   0  180.85    1.06
  -2  -5   0  202.81    1.10
  -2  -5   0  209.02    1.20
  -2  -5   0  147.40    0.99
   2   5   0  240.76    1.20
   2   5   0  209.37    1.10
  -2  -5  -1   22.53    0.43
  -2  -5  -1   23.99    0.43
  -2  -5  -1   18.89    0.39
   2   5   1   27.96    0.50
   2   5   1   26.50    0.43
  -2  -5  -2  543.14    1.88
  -2  -5  -2  624.07    1.77
  -2  -5  -2  445.38    1.49
  -2  -5  -2  589.52    1.88
  -2  -5  -2  427.85    1.59
   2   5   2  637.75    1.81
  -2  -5  -3    2.66    0.28
  -2  -5  -3    3.26    0.28
  -2  -5  -3    4.39    0.25
   2   5   3    7.26    0.28
   2   5   3    0.39    0.11
  -2  -5  -4    3.12    0.25
  -2  -5  -4    2.48    0.25
  -2  -5  -4    0.14    0.07
   2   5   4    3.51    0.32
   2   5   4    3.58    0.25
   2   5   4    3.19    0.21
  -2  -5  -5  181.48    1.06
  -2  -5  -5  210.96    1.10
  -2  -5  -5  155.19    0.92
  -2  -5  -5    0.21    0.07
   2   5   5  194.42    1.10
   2   5   5  197.07    1.06
   2   5   5  134.36    0.89
   2   5   5  133.65    0.96
  -2  -5  -6  230.27    1.24
  -2  -5  -6  250.51    1.24
  -2  -5  -6  205.29    1.13
  -2  -5  -6  221.20    0.74
  -2  -5  -6    0.11    0.07
   2   5   6  242.25    1.28
   2   5   6  243.53    1.24
   2   5   6  166.07    1.03
   2   5   6  165.89    1.10
  -2  -5  -7   20.13    0.53
  -2  -5  -7   18.78    0.53
  -2  -5  -7   19.56    0.46
  -2  -5  -7    0.07    0.11
   2   5   7   19.13    0.50
   2   5   7   14.28    0.43
   2   5   7   12.97    0.39
  -2  -5  -8    3.51    0.53
   2   5   8    4.43    0.46
  -2  -5  -9    3.97    0.57
   2   5   9    1.31    0.43
  -2  -5 -10    6.45    0.71
   2   5  10    5.03    0.53
  -2  -5 -11    6.13    0.74
   2   5  11    4.32    0.64
  -2  -5 -12    3.68    0.74
   2   5  12    1.81    0.60
  -2  -6   6   40.11    0.99
   2   6  -6   56.59    1.06
  -2  -6   5    6.34    0.64
   2   6  -5   11.27    0.71
  -2  -6   4    1.84    0.50
   2   6  -4    4.46    0.60
  -2  -6   3   24.55    0.64
   2   6  -3   32.35    0.71
  -2  -6   2   32.53    0.67
   2   6  -2   42.98    0.74
  -2  -6   1    2.37    0.50
   2   6  -1    4.36    0.53
  -2  -6   0  625.06    2.16
  -2  -6   0  701.91    2.23
  -2  -6   0  728.42    2.44
  -2  -6   0  516.82    2.06
   2   6   0  825.04    2.44
  -2  -6  -1   11.91    0.43
  -2  -6  -1   14.21    0.43
  -2  -6  -1   13.11    0.39
  -2  -6  -1    8.93    0.32
   2   6   1   16.37    0.50
   2   6   1   14.92    0.39
  -2  -6  -2   26.61    0.53
  -2  -6  -2   32.03    0.53
  -2  -6  -2   23.56    0.43
  -2  -6  -2   30.40    0.50
  -2  -6  -2   23.53    0.46
   2   6   2   33.13    0.57
   2   6   2   29.90    0.50
  -2  -6  -3   22.39    0.50
  -2  -6  -3   28.74    0.50
  -2  -6  -3   19.31    0.39
  -2  -6  -3   18.35    0.39
   2   6   3   29.05    0.53
   2   6   3   17.04    0.39
  -2  -6  -4   83.02    0.81
  -2  -6  -4  102.54    0.85
  -2  -6  -4   69.84    0.71
  -2  -6  -4   72.18    0.74
   2   6   4   96.34    0.85
   2   6   4   54.18    0.67
  -2  -6  -5   18.07    0.50
  -2  -6  -5   21.22    0.46
  -2  -6  -5   17.82    0.39
   2   6   5   23.17    0.57
   2   6   5   23.70    0.53
   2   6   5   14.21    0.39
  -2  -6  -6  117.39    0.99
  -2  -6  -6  129.89    1.06
   2   6   6  120.72    1.03
   2   6   6   64.59    1.06
   2   6   6   84.40    0.89
  -2  -6  -7  219.96    1.38
   2   6   7  230.42    1.42
  -2  -6  -8  105.20    1.03
   2   6   8  112.46    1.10
  -2  -6  -9    9.04    0.60
  -2  -6  -9   11.94    0.74
   2   6   9    7.90    0.53
  -2  -6 -10    5.49    0.71
  -2  -6 -10    3.93    0.74
   2   6  10    4.61    0.60
  -2  -6 -11    1.10    0.71
   2   6  11    0.28    0.53
  -2  -7   4   18.14    0.74
   2   7  -4   23.21    0.78
  -2  -7   3   38.87    0.81
   2   7  -3   52.94    0.89
  -2  -7   2   59.74    0.92
   2   7  -2   76.75    0.99
  -2  -7   1   15.31    0.64
   2   7  -1   21.79    0.64
  -2  -7   0  115.01    1.10
   2   7   0  153.95    1.20
  -2  -7  -1   39.40    0.71
   2   7   1   52.76    0.78
  -2  -7  -2   40.11    0.67
   2   7   2   50.56    0.74
   2   7   3   16.02    0.53
  -2  -7  -4   68.92    0.81
   2   7   4   81.74    0.89
   2   7   4   56.09    0.85
  -2  -7  -5   31.36    0.64
   2   7   5   39.54    0.71
  -2  -7  -6    1.17    0.43
   2   7   6    1.06    0.46
  -2  -7  -7    1.91    0.46
   2   7   7    2.87    0.50
  -2  -7  -8   22.57    0.67
   2   7   8   24.48    0.71
  -2  -7  -9   11.73    0.64
   2   7   9   10.31    0.64
  -2  -7 -10    1.10    0.60
   2   7  10   -0.78    0.50
  -2  -7 -11    1.88    0.81
   2   7  11    0.00    0.57
  -2  -8   3    0.57    0.57
   2   8  -3    0.53    0.57
  -2  -8   2    4.18    0.64
   2   8  -2    5.35    0.64
  -2  -8   1   11.48    0.67
   2   8  -1   14.10    0.67
  -2  -8   0   -0.71    0.46
   2   8   0   -0.46    0.46
  -2  -8  -1    8.33    0.57
   2   8   1    9.50    0.57
  -2  -8  -2   23.21    0.67
   2   8   2   33.80    0.74
  -2  -8  -3    9.60    0.57
   2   8   3    8.36    0.57
  -2  -8  -4    2.16    0.46
   2   8   4    1.63    0.46
  -2  -8  -5   13.75    0.60
   2   8   5   15.98    0.64
  -2  -8  -6    5.92    0.57
   2   8   6    8.86    0.60
  -2  -8  -7   10.38    0.64
   2   8   7    8.72    0.67
  -2  -8  -8   44.50    0.92
   2   8   8   48.15    0.99
  -2  -8  -9   10.77    0.71
   2   8   9    8.54    0.74
  -2  -8 -10   10.06    0.74
   2   8  10   15.24    0.81
  -2  -9   1    0.92    0.53
   2   9  -1    0.50    0.53
  -2  -9   0    8.82    0.67
   2   9   0    9.00    0.64
  -2  -9  -1    7.09    0.71
   2   9   1   14.21    0.64
  -2  -9  -2    3.90    0.67
   2   9   2    6.77    0.60
  -2  -9  -3    6.52    0.71
   2   9   3    6.87    0.71
  -2  -9  -4    9.96    0.71
   2   9   4   16.72    0.78
  -2  -9  -5   24.87    0.81
   2   9   5   27.53    0.81
  -2  -9  -6   58.22    1.06
   2   9   6   66.58    1.03
  -2  -9  -7    4.18    0.71
   2   9   7    1.98    0.71
  -2  -9  -8    7.69    0.81
   2   9   8    7.76    0.78
  -2  -9  -9    6.55    0.81
   2   9   9    4.89    0.78
  -2 -10  -3   17.86    0.92
   2  10   3   19.20    0.74
  -2 -10  -4   29.09    0.99
   2  10   4   30.58    0.89
  -2 -10  -5   17.61    0.89
   2  10   5   15.59    0.85
  -2 -10  -6    6.91    0.85
   2  10   6    3.37    0.67
  -3   7   6    6.02    0.53
   3  -7  -6    6.45    0.92
  -3   7   5    2.55    0.50
   3  -7  -5    1.84    0.53
   3  -7  -5    0.74    0.53
  -3   7   4    2.09    0.50
  -3   7   4    1.67    0.28
   3  -7  -4    6.52    0.64
  -3   7   3    6.98    0.57
  -3   7   3    3.79    0.35
   3  -7  -3    6.38    0.57
   3  -7  -3    4.46    0.53
  -3   7   2    4.75    0.57
   3  -7  -2    4.75    0.50
   3  -7  -2    6.20    0.46
  -3   7   1    3.01    0.53
   3  -7  -1    4.61    0.50
   3  -7  -1    3.72    0.53
   3  -7   0   19.45    0.64
   3  -7   0   19.17    0.60
   3  -7   1   14.49    0.64
   3  -7   1   21.72    0.64
   3  -7   2   20.37    0.74
   3  -7   3    2.41    0.64
   3  -6  -7   17.96    0.89
  -3   6   6    5.35    0.50
   3  -6  -6    9.25    0.89
  -3   6   5    4.25    0.50
  -3   6   5    2.66    0.35
   3  -6  -5    4.43    0.74
   3  -6  -5    4.22    0.50
  -3   6   4    6.31    0.50
  -3   6   4    3.47    0.32
   3  -6  -4    6.73    0.71
   3  -6  -4    7.12    0.50
  -3   6   3   30.68    0.71
  -3   6   3   20.59    0.46
   3  -6  -3   30.83    0.67
   3  -6  -3   34.09    0.71
   3  -6  -3   35.15    0.64
   3  -6  -3   24.31    0.57
  -3   6   2    9.67    0.53
  -3   6   2    5.35    0.32
   3  -6  -2    6.87    0.50
   3  -6  -2    8.72    0.50
   3  -6  -2    5.88    0.43
  -3   6   1   39.05    0.78
   3  -6  -1   38.66    0.67
   3  -6  -1   44.40    0.67
   3  -6   0   15.55    0.53
   3  -6   0   20.80    0.53
   3  -6   1   20.59    0.57
   3  -6   1   21.86    0.57
   3  -6   2    5.21    0.50
   3  -6   2    6.41    0.50
   3  -6   3   11.23    0.64
   3  -6   3   10.31    0.53
   3  -6   4   52.51    0.99
   3  -6   4   48.65    0.89
   3  -6   5    3.08    0.71
   3  -5  -8   16.62    0.92
   3  -5  -7   37.24    0.99
  -3   5   6   11.62    0.46
   3  -5  -6   19.03    0.81
   3  -5  -6   19.28    0.81
  -3   5   5    1.59    0.28
   3  -5  -5    3.61    0.64
   3  -5  -5    1.24    0.39
  -3   5   4   25.40    0.53
   3  -5  -4   31.36    0.60
   3  -5  -4   26.08    0.50
  -3   5   3   12.05    0.74
  -3   5   3    9.89    0.35
   3  -5  -3   22.43    0.64
   3  -5  -3   17.96    0.50
   3  -5  -3   13.50    0.43
  -3   5   2  249.16    1.56
  -3   5   2  153.03    1.03
   3  -5  -2  268.61    1.38
   3  -5  -2  287.43    1.35
   3  -5  -2  180.67    1.06
  -3   5   1   82.59    0.92
  -3   5   1   50.85    0.60
   3  -5  -1   82.03    0.78
   3  -5  -1   91.45    0.78
   3  -5   0   27.11    0.53
   3  -5   0   27.25    0.50
   3  -5   1   -0.71    0.32
   3  -5   1   -0.18    0.32
   3  -5   2   11.02    0.46
   3  -5   2   12.33    0.46
   3  -5   3    6.45    0.50
   3  -5   3    5.56    0.46
   3  -5   4    9.67    0.57
   3  -5   4    7.69    0.50
  -3   5  -5    1.28    0.35
   3  -5   5    2.87    0.57
   3  -5   5    2.66    0.50
   3  -5   6    0.57    0.60
   3  -4  -9   27.96    1.06
   3  -4  -8   25.30    0.92
   3  -4  -7   27.07    0.81
  -3   4   6   75.83    0.89
   3  -4  -6  119.19    1.13
   3  -4  -6  103.32    0.99
  -3   4   5    2.73    0.32
   3  -4  -5    4.68    0.53
   3  -4  -5    4.18    0.43
   3  -4  -5    3.72    0.39
  -3   4   4   21.44    0.53
  -3   4   4   15.63    0.39
   3  -4  -4   27.99    0.60
   3  -4  -4   22.92    0.50
   3  -4  -4   16.44    0.43
  -3   4   3   43.12    0.64
  -3   4   3   29.80    0.46
   3  -4  -3   47.76    0.64
   3  -4  -3   46.84    0.57
   3  -4  -3   33.80    0.50
  -3   4   2   36.50    0.60
  -3   4   2   23.63    0.39
   3  -4  -2   39.26    0.50
   3  -4  -2   28.98    0.43
  -3   4   1    2.62    0.39
  -3   4   1    1.67    0.18
   3  -4  -1    4.68    0.43
   3  -4  -1    3.76    0.28
  -3   4   0    4.71    0.35
   3  -4   0    5.46    0.28
   3  -4   1   28.70    0.43
   3  -4   1   29.62    0.43
   3  -4   2    0.21    0.28
   3  -4   3    0.92    0.32
   3  -4   3   -0.32    0.28
  -3   4  -4    6.55    0.35
   3  -4   4    5.39    0.43
   3  -4   4    4.82    0.39
  -3   4  -5    0.43    0.25
   3  -4   5    1.42    0.46
   3  -4   5    0.28    0.39
  -3   4  -6   18.96    0.50
   3  -4   6   23.07    0.64
   3  -4   6   26.54    0.64
   3  -4   7   24.66    0.71
   3  -4   8    5.42    0.67
   3  -3  -9   15.52    0.92
   3  -3  -8    6.55    0.78
  -3   3   7    3.97    0.43
   3  -3  -7    5.31    0.60
  -3   3   6   62.15    0.78
   3  -3  -6   83.48    0.96
   3  -3  -6   70.30    0.81
  -3   3   5   11.27    0.39
   3  -3  -5   16.30    0.53
   3  -3  -5   15.45    0.43
   3  -3  -5   11.02    0.39
  -3   3   4   44.25    0.60
  -3   3   4   34.97    0.53
   3  -3  -4   48.54    0.64
   3  -3  -4   44.96    0.57
   3  -3  -4   35.54    0.50
  -3   3   3    1.56    0.32
  -3   3   3    2.87    0.25
   3  -3  -3    2.09    0.25
  -3   3   2  127.10    0.92
  -3   3   2   95.42    0.67
   3  -3  -2  140.35    0.78
   3  -3  -2  124.47    0.71
   3  -3  -2   86.70    0.64
  -3   3   1   69.38    0.71
  -3   3   1   46.84    0.43
   3  -3  -1   76.00    0.57
  -3   3   0   26.43    0.50
  -3   3   0   15.98    0.28
   3  -3   2   78.09    0.53
  -3   3  -3    0.53    0.18
   3  -3   3    0.64    0.25
   3  -3   3    0.25    0.25
  -3   3  -4   12.47    0.32
   3  -3   4   14.49    0.43
   3  -3   4   13.89    0.39
  -3   3  -5   27.64    0.50
   3  -3   5   28.38    0.57
   3  -3   5   32.92    0.53
  -3   3  -6   57.83    0.71
   3  -3   6   50.85    0.71
   3  -3   6   55.03    0.71
  -3   3  -7   15.52    0.46
   3  -3   7   14.42    0.57
   3  -3   7   16.79    0.53
   3  -3   8    0.35    0.50
   3  -3   9    6.41    0.71
   3  -2  -9   -0.50    0.64
  -3   2   8    5.60    0.35
   3  -2  -8    9.78    0.71
  -3   2   7    0.25    0.25
  -3   2   7    0.64    0.39
   3  -2  -7    1.35    0.50
  -3   2   6   18.00    0.39
  -3   2   6   16.97    0.46
   3  -2  -6   21.76    0.60
   3  -2  -6   16.55    0.46
  -3   2   5   32.88    0.35
  -3   2   5   30.08    0.53
   3  -2  -5   35.93    0.60
   3  -2  -5   36.32    0.57
   3  -2  -5   33.52    0.53
  -3   2   4    5.81    0.18
  -3   2   4    4.04    0.28
   3  -2  -4    6.45    0.35
   3  -2  -4    5.39    0.28
  -3   2   3  131.67    0.89
  -3   2   3  112.99    0.60
  -3   2   3  115.72    0.78
   3  -2  -3  139.50    0.81
   3  -2  -3  108.17    0.71
  -3   2   2    9.39    0.32
  -3   2   2    7.83    0.21
  -3   2   2    7.94    0.25
   3  -2  -2    9.71    0.28
   3  -2  -2    9.32    0.25
   3  -2  -2    7.37    0.25
  -3   2   1  564.93    1.74
  -3   2   1  515.47    1.42
  -3   2   1  446.62    1.13
  -3   2   0  456.16    1.59
  -3   2   0  313.75    0.85
  -3   2  -1    8.57    0.32
  -3   2  -2  134.29    0.60
  -3   2  -3  188.29    0.81
  -3   2  -4   19.88    0.35
   3  -2   4   17.11    0.35
   3  -2   4   20.94    0.35
  -3   2  -5  131.52    0.85
   3  -2   5  127.88    1.31
   3  -2   5  127.63    0.81
  -3   2  -6    2.48    0.28
   3  -2   6    3.76    0.43
   3  -2   6    3.58    0.32
  -3   2  -7    8.04    0.35
   3  -2   7    6.77    0.43
   3  -2   7    7.33    0.39
   3  -2   8    4.11    0.53
   3  -2   8    3.47    0.43
   3  -2   9   21.79    0.78
   3  -2  10    9.74    0.81
  -3   1   9   16.83    0.53
   3  -1  -9   19.35    0.89
  -3   1   8    5.03    0.39
   3  -1  -8    5.74    0.67
  -3   1   7   55.24    0.67
   3  -1  -7   67.75    0.92
  -3   1   6    7.55    0.35
  -3   1   6    7.30    0.35
   3  -1  -6    8.57    0.50
   3  -1  -6    7.90    0.39
  -3   1   5   29.44    0.46
  -3   1   5   35.08    0.57
   3  -1  -5   35.86    0.60
   3  -1  -5   30.72    0.53
   3  -1  -5   32.21    0.53
  -3   1   4  205.61    1.10
   3  -1  -4  230.95    1.13
   3  -1  -4  190.31    0.99
   3  -1  -4  193.25    1.03
  -3   1   3  542.01    1.59
   3  -1  -3  618.29    1.63
   3  -1  -3  496.48    1.42
   3  -1  -3  479.43    1.38
  -3   1   2    7.09    0.21
  -3   1   2    8.26    0.21
   3  -1  -2    8.89    0.28
   3  -1  -2    5.56    0.21
  -3   1   1  132.13    0.81
  -3   1   1  135.28    0.71
  -3   1   1  129.04    0.57
  -3   1   0    7.05    0.28
  -3   1   0    7.05    0.21
  -3   1   0    6.48    0.14
  -3   1   0    6.52    0.14
  -3   1  -1   76.60    0.64
  -3   1  -1   71.54    0.57
  -3   1  -2  208.73    0.99
  -3   1  -4   -0.14    0.14
   3  -1   4   -0.14    0.18
   3  -1   4    0.35    0.18
   3  -1   4   -0.25    0.18
  -3   1  -5    0.25    0.18
   3  -1   5    0.39    0.21
   3  -1   5    1.24    0.25
   3  -1   5   -0.32    0.21
  -3   1  -6    0.11    0.21
   3  -1   6    0.71    0.28
   3  -1   6    0.81    0.25
  -3   1  -7    3.54    0.28
   3  -1   7    4.96    0.35
   3  -1   7    4.96    0.35
  -3   1  -8    7.30    0.35
   3  -1   8    6.84    0.50
   3  -1   8    4.85    0.35
   3  -1   9    0.46    0.46
   3  -1  10   10.28    0.78
  -3   0   9   12.19    0.53
   3   0  -9   18.64    0.92
  -3   0   8    2.98    0.43
   3   0  -8    3.08    0.60
  -3   0   7   36.42    0.60
   3   0  -7   43.87    0.81
  -3   0   6   59.92    0.67
  -3   0   6   60.27    0.78
   3   0  -6   67.85    0.85
   3   0  -6   57.93    0.74
  -3   0   5 1117.11    2.44
  -3   0   5 1178.51    2.98
   3   0  -5 1322.40    3.05
   3   0  -5 1068.89    2.66
   3   0  -5 1116.40    2.73
  -3   0   4  156.89    0.81
  -3   0   4  164.41    1.03
   3   0  -4  182.02    1.06
   3   0  -4  144.21    0.89
   3   0  -4  154.84    0.92
  -3   0   3   93.26    0.71
   3   0  -3  102.72    0.71
   3   0  -3   85.78    0.64
  -3   0   2  141.34    0.74
   3   0  -2  158.31    0.74
   3   0  -2  134.71    0.67
  -3   0   1  241.19    0.81
  -3   0   0   17.50    0.32
  -3   0   0   16.69    0.28
  -3   0   0   15.55    0.18
  -3   0  -1   38.34    0.43
  -3   0  -1   37.38    0.39
  -3   0  -2  184.35    0.85
  -3   0  -2  180.07    0.85
  -3   0  -3   10.42    0.28
  -3   0  -3    9.96    0.25
  -3   0  -3    9.57    0.18
  -3   0  -4    0.89    0.21
  -3   0  -4    0.67    0.14
  -3   0  -5    0.35    0.14
   3   0   5   -0.32    0.18
   3   0   5   -0.14    0.18
   3   0   5    0.39    0.21
  -3   0  -6    4.32    0.25
   3   0   6    3.58    0.28
   3   0   6    4.18    0.28
  -3   0  -7    8.08    0.50
   3   0   7    7.09    0.35
   3   0   7    8.47    0.35
   3   0   7    6.48    0.32
  -3   0  -8   73.98    0.78
   3   0   8   66.01    0.78
   3   0   8   73.31    0.78
   3   0   8   68.31    0.74
   3   0   9    3.40    0.50
   3   0   9    3.12    0.35
   3   0  10   30.29    0.85
   3   0  11   -0.04    0.67
  -3  -1   9    6.38    0.60
   3   1  -9    8.04    0.81
  -3  -1   8    9.81    0.53
   3   1  -8   12.08    0.71
  -3  -1   7   14.00    0.50
   3   1  -7   16.16    0.64
  -3  -1   6  147.82    1.06
  -3  -1   6  171.53    1.52
   3   1  -6  179.15    1.31
  -3  -1   5    1.31    0.28
  -3  -1   5    1.70    0.28
   3   1  -5    1.74    0.39
   3   1  -5    0.78    0.32
   3   1  -5    1.13    0.46
  -3  -1   4   28.31    0.43
  -3  -1   4   30.05    0.50
   3   1  -4   33.73    0.53
   3   1  -4   30.19    0.50
   3   1  -4   32.35    0.50
  -3  -1   3   14.70    0.32
  -3  -1   3   15.63    0.35
   3   1  -3   18.00    0.46
   3   1  -3   13.61    0.35
   3   1  -3   13.57    0.32
  -3  -1   2    4.25    0.21
  -3  -1   2    4.96    0.21
   3   1  -2    6.48    0.28
   3   1  -2    4.68    0.25
   3   1  -2    5.56    0.21
  -3  -1   1   13.32    0.25
   3   1  -1   16.76    0.32
   3   1  -1   14.81    0.25
   3   1  -1   15.45    0.25
  -3  -1   0  565.15    1.13
   3   1   0  577.02    1.06
  -3  -1  -1   22.89    0.21
  -3  -1  -2    8.15    0.25
  -3  -1  -2    9.71    0.25
  -3  -1  -2    7.33    0.14
  -3  -1  -3   15.77    0.28
  -3  -1  -3   16.30    0.28
  -3  -1  -3   14.24    0.21
   3   1   3   10.35    0.18
  -3  -1  -4  185.74    0.78
  -3  -1  -4  173.97    0.89
  -3  -1  -4  174.36    0.71
   3   1   4  203.24    0.67
   3   1   4  154.91    0.57
  -3  -1  -5  692.17    1.49
  -3  -1  -5  713.85    1.67
   3   1   5  577.76    1.42
   3   1   5  760.09    1.59
   3   1   5  603.84    1.38
  -3  -1  -6    5.53    0.21
  -3  -1  -6    6.17    0.28
   3   1   6    6.34    0.32
   3   1   6    8.15    0.28
   3   1   6    5.92    0.25
  -3  -1  -7   66.26    0.53
  -3  -1  -7   66.01    0.67
   3   1   7   59.67    0.67
   3   1   7   66.44    0.67
   3   1   7   62.25    0.64
  -3  -1  -8    6.34    0.32
  -3  -1  -8    6.63    0.35
   3   1   8    6.63    0.43
   3   1   8    4.82    0.35
   3   1   8    4.18    0.35
  -3  -1  -9    4.46    0.43
   3   1   9    6.20    0.60
   3   1   9    3.68    0.39
  -3  -1 -10   15.45    0.50
   3   1  10   14.31    0.67
   3   1  11    4.75    0.71
  -3  -2   8    6.80    0.53
   3   2  -8    8.82    0.74
  -3  -2   7   -0.14    0.39
   3   2  -7    1.17    0.57
  -3  -2   6   -0.53    0.32
   3   2  -6    2.30    0.50
  -3  -2   5    4.00    0.35
  -3  -2   5    4.96    0.32
   3   2  -5    4.68    0.43
  -3  -2   4    4.78    0.32
  -3  -2   4    6.38    0.32
   3   2  -4    6.17    0.39
   3   2  -4    6.73    0.32
   3   2  -4    5.46    0.28
  -3  -2   3  112.89    0.78
  -3  -2   3  130.50    0.92
   3   2  -3  153.46    0.96
   3   2  -3  128.34    0.85
   3   2  -3  137.09    0.92
  -3  -2   2   87.73    0.60
  -3  -2   2   98.71    0.74
   3   2  -2  109.73    0.74
   3   2  -2   94.57    0.67
   3   2  -2   93.75    0.71
  -3  -2   1 1620.25    2.16
  -3  -2   1 1802.90    2.73
   3   2  -1 2135.15    2.80
   3   2  -1 1883.87    2.59
   3   2  -1 1921.07    2.76
  -3  -2   0  769.45    1.24
  -3  -2   0  913.37    1.74
   3   2   0 1082.95    1.74
   3   2   0  917.41    1.59
   3   2   0  975.81    1.74
  -3  -2  -1   15.87    0.25
   3   2   1   13.75    0.21
   3   2   1   18.18    0.25
   3   2   1   16.05    0.25
  -3  -2  -2    2.20    0.14
   3   2   2    2.27    0.14
   3   2   2    3.47    0.18
   3   2   2    3.12    0.18
   3   2   2    1.98    0.14
  -3  -2  -3   22.39    0.32
  -3  -2  -3   20.16    0.28
   3   2   3   21.19    0.25
   3   2   3   23.46    0.28
   3   2   3   23.81    0.28
   3   2   3   17.54    0.25
   3   2   3   16.90    0.25
  -3  -2  -4  542.40    1.45
  -3  -2  -4  480.67    1.24
   3   2   4  512.88    1.20
   3   2   4  596.72    1.28
   3   2   4  453.57    1.10
   3   2   4  420.94    1.13
  -3  -2  -5  146.34    0.81
  -3  -2  -5  151.44    0.81
   3   2   5  138.86    0.74
   3   2   5  163.80    0.78
   3   2   5  135.74    0.71
   3   2   5  130.14    0.71
  -3  -2  -6    1.38    0.25
  -3  -2  -6    2.06    0.25
   3   2   6    1.77    0.28
   3   2   6    2.20    0.28
   3   2   6    2.44    0.25
   3   2   6    1.98    0.21
  -3  -2  -7    2.41    0.28
  -3  -2  -7    2.52    0.28
   3   2   7    2.73    0.32
   3   2   7    2.30    0.32
   3   2   7    2.55    0.28
  -3  -2  -8    2.66    0.32
  -3  -2  -8    3.37    0.28
   3   2   8    3.44    0.39
   3   2   8    4.22    0.32
   3   2   8    3.12    0.35
  -3  -2  -9   32.10    0.57
  -3  -2  -9   32.70    0.60
   3   2   9   31.57    0.67
   3   2   9   30.44    0.60
  -3  -2 -10    1.10    0.39
   3   2  10    1.35    0.50
  -3  -2 -11    5.78    0.46
   3   2  11    6.13    0.74
   3   2  12    4.29    0.81
  -3  -3   8   14.00    0.64
   3   3  -8   19.63    0.85
  -3  -3   7   10.31    0.53
   3   3  -7   18.39    0.74
  -3  -3   6    6.80    0.46
   3   3  -6    9.74    0.57
  -3  -3   5    2.94    0.35
   3   3  -5    3.86    0.50
  -3  -3   4  144.53    1.03
  -3  -3   4  170.96    1.20
   3   3  -4  199.24    1.28
  -3  -3   3  432.63    1.59
  -3  -3   3  472.77    1.63
  -3  -3   3  553.38    1.98
   3   3  -3  594.63    1.98
   3   3  -3  495.24    1.77
   3   3  -3  529.93    1.95
  -3  -3   2  318.01    1.24
  -3  -3   2  370.06    1.31
  -3  -3   2  405.88    1.59
   3   3  -2  465.16    1.63
   3   3  -2  386.53    1.45
   3   3  -2  419.27    1.59
  -3  -3   1   55.88    0.50
  -3  -3   1   67.89    0.53
  -3  -3   1   68.10    0.60
   3   3  -1   76.29    0.64
   3   3  -1   66.75    0.57
   3   3  -1   75.29    0.64
  -3  -3   0  194.03    0.81
  -3  -3   0  228.01    0.85
  -3  -3   0  242.99    1.03
   3   3   0  278.89    1.06
   3   3   0  251.29    0.99
   3   3   0  247.07    1.03
  -3  -3  -1  611.49    1.31
  -3  -3  -1  706.24    1.38
  -3  -3  -1  761.90    1.70
  -3  -3  -1  554.41    1.45
   3   3   1  836.17    1.70
   3   3   1  756.44    1.59
  -3  -3  -2   32.03    0.35
  -3  -3  -2   32.10    0.32
  -3  -3  -2   27.28    0.35
   3   3   2   38.69    0.43
   3   3   2   40.64    0.39
   3   3   2   27.53    0.32
  -3  -3  -3   30.76    0.32
  -3  -3  -3   42.77    0.43
  -3  -3  -3   28.06    0.35
   3   3   3   32.95    0.39
   3   3   3   38.90    0.39
   3   3   3   22.04    0.32
   3   3   3   18.25    0.28
  -3  -3  -4  242.61    0.85
  -3  -3  -4  280.45    1.03
  -3  -3  -4  235.41    0.96
   3   3   4  276.87    0.99
   3   3   4  296.25    1.03
   3   3   4  214.90    0.85
   3   3   4  191.02    0.85
  -3  -3  -5  155.87    0.74
  -3  -3  -5  167.91    0.81
  -3  -3  -5  152.86    0.85
   3   3   5  169.19    0.85
   3   3   5  180.03    0.89
   3   3   5  143.82    0.78
   3   3   5  126.74    0.78
  -3  -3  -6   66.08    0.57
  -3  -3  -6   61.97    0.53
  -3  -3  -6   70.37    0.64
   3   3   6   67.82    0.81
   3   3   6   70.97    0.64
   3   3   6   62.50    0.60
   3   3   6   52.26    0.57
  -3  -3  -7   75.47    0.67
  -3  -3  -7   71.50    0.64
  -3  -3  -7   74.37    0.74
   3   3   7   67.04    0.67
   3   3   7   72.92    0.71
   3   3   7   67.92    0.67
   3   3   7   54.71    0.60
  -3  -3  -8    4.61    0.32
   3   3   8    5.00    0.35
   3   3   8    4.85    0.32
   3   3   8    3.86    0.35
   3   3   8    3.83    0.28
  -3  -3  -9    5.88    0.50
   3   3   9    5.21    0.53
   3   3   9    4.89    0.43
  -3  -3 -10    4.00    0.46
   3   3  10    3.68    0.53
  -3  -3 -11    5.88    0.53
   3   3  11    7.19    0.74
  -3  -3 -12    6.17    0.71
   3   3  12    1.31    0.71
  -3  -4   7    7.37    0.57
   3   4  -7   11.59    0.78
  -3  -4   6   76.82    0.99
   3   4  -6   99.39    1.17
  -3  -4   5   82.56    0.96
   3   4  -5  116.93    1.17
  -3  -4   4   94.36    0.92
   3   4  -4  126.78    1.13
  -3  -4   3   47.20    0.64
  -3  -4   3   53.79    0.71
   3   4  -3   62.11    0.78
  -3  -4   2    4.78    0.32
  -3  -4   2    5.56    0.28
  -3  -4   2    4.85    0.28
   3   4  -2    7.80    0.39
   3   4  -2    3.51    0.25
   3   4  -2    4.61    0.28
  -3  -4   1   91.56    0.74
  -3  -4   1  103.64    0.74
  -3  -4   1  109.34    0.85
   3   4  -1  121.53    0.89
   3   4  -1  110.90    0.85
  -3  -4   0   99.35    0.71
  -3  -4   0  114.38    0.74
  -3  -4   0  116.68    0.81
   3   4   0  125.29    0.81
   3   4   0  113.28    0.81
  -3  -4  -1    7.87    0.32
  -3  -4  -1    9.81    0.28
  -3  -4  -1    5.07    0.28
  -3  -4  -1    9.71    0.28
  -3  -4  -1    6.80    0.25
   3   4   1    8.36    0.32
   3   4   1    8.75    0.32
  -3  -4  -2   68.28    0.57
  -3  -4  -2   79.51    0.57
  -3  -4  -2   71.47    0.67
  -3  -4  -2   88.58    0.67
  -3  -4  -2   65.27    0.57
   3   4   2   90.88    0.67
   3   4   2   86.56    0.64
  -3  -4  -3  398.51    1.24
  -3  -4  -3  479.61    1.31
  -3  -4  -3  362.05    1.31
   3   4   3  485.32    1.45
   3   4   3  522.17    1.49
   3   4   3  320.52    1.17
   3   4   3  293.06    1.17
  -3  -4  -4  143.04    0.78
  -3  -4  -4  165.68    0.81
  -3  -4  -4  130.99    0.81
   3   4   4  158.28    0.89
   3   4   4  163.17    0.85
   3   4   4  116.75    0.74
   3   4   4  102.68    0.71
  -3  -4  -5   84.47    0.64
  -3  -4  -5  112.14    0.81
  -3  -4  -5   99.35    0.64
  -3  -4  -5   84.12    0.71
   3   4   5   96.02    0.74
   3   4   5  100.31    0.71
   3   4   5   76.46    0.64
   3   4   5   69.91    0.64
  -3  -4  -6   33.02    0.46
  -3  -4  -6   33.80    0.39
  -3  -4  -6   29.87    0.46
   3   4   6   33.70    0.53
   3   4   6   36.50    0.53
   3   4   6   29.69    0.46
   3   4   6   24.06    0.43
  -3  -4  -7   21.54    0.35
  -3  -4  -7   23.53    0.46
   3   4   7   25.51    0.50
   3   4   7   24.52    0.46
   3   4   7   20.34    0.43
   3   4   7   19.56    0.43
  -3  -4  -8   -0.11    0.32
  -3  -4  -8    0.50    0.35
  -3  -4  -8    0.50    0.21
   3   4   8    1.38    0.35
   3   4   8    0.78    0.32
   3   4   8    1.20    0.32
  -3  -4  -9    8.93    0.50
   3   4   9    9.04    0.50
  -3  -4 -10   -0.32    0.43
   3   4  10   -0.18    0.46
  -3  -4 -11   14.67    0.64
   3   4  11   13.92    0.74
  -3  -4 -12    0.92    0.53
   3   4  12    3.05    0.74
  -3  -5   6   16.48    0.64
   3   5  -6   27.71    0.85
  -3  -5   5   67.75    0.96
   3   5  -5   92.51    1.13
  -3  -5   4    5.70    0.50
   3   5  -4   10.52    0.57
  -3  -5   3   22.00    0.57
   3   5  -3   27.00    0.67
  -3  -5   2   82.45    0.85
  -3  -5   2   99.92    0.96
   3   5  -2  110.83    0.99
  -3  -5   1    5.14    0.35
  -3  -5   1    5.99    0.32
  -3  -5   1    7.80    0.35
   3   5  -1    6.52    0.43
   3   5  -1    7.48    0.35
   3   5  -1    7.05    0.32
  -3  -5   0   14.21    0.43
  -3  -5   0   16.16    0.35
  -3  -5   0   15.48    0.39
  -3  -5   0   11.69    0.35
   3   5   0   20.83    0.50
   3   5   0   16.87    0.39
  -3  -5  -1    2.13    0.28
  -3  -5  -1    1.67    0.25
  -3  -5  -1    0.99    0.18
  -3  -5  -1    1.03    0.21
   3   5   1    1.03    0.28
   3   5   1    0.74    0.21
  -3  -5  -2   18.85    0.43
  -3  -5  -2   24.70    0.43
  -3  -5  -2   20.73    0.39
  -3  -5  -2   23.46    0.43
  -3  -5  -2   17.26    0.35
   3   5   2   23.95    0.46
  -3  -5  -3   55.49    0.57
  -3  -5  -3   66.72    0.60
  -3  -5  -3   51.45    0.53
  -3  -5  -3   48.61    0.57
   3   5   3   66.29    0.67
   3   5   3   42.41    0.50
   3   5   3   39.72    0.50
  -3  -5  -4   19.70    0.43
  -3  -5  -4   23.60    0.43
  -3  -5  -4   19.49    0.39
   3   5   4   23.74    0.46
   3   5   4   20.09    0.39
   3   5   4   17.18    0.39
   3   5   4   13.39    0.32
  -3  -5  -5   52.05    0.67
  -3  -5  -5   48.40    0.53
  -3  -5  -5   33.34    0.50
   3   5   5   51.02    0.64
   3   5   5   45.21    0.53
   3   5   5   33.59    0.50
   3   5   5   31.36    0.50
  -3  -5  -6   37.45    0.57
  -3  -5  -6   41.31    0.53
  -3  -5  -6   38.05    0.43
   3   5   6   44.72    0.64
   3   5   6   33.34    0.50
   3   5   6   29.41    0.50
   3   5   6   27.96    0.50
  -3  -5  -7   39.61    0.60
  -3  -5  -7   36.78    0.43
  -3  -5  -7   33.55    0.57
   3   5   7   44.61    0.67
   3   5   7    9.89    0.32
   3   5   7   30.05    0.53
   3   5   7   32.17    0.53
  -3  -5  -8  207.42    1.28
   3   5   8  199.52    1.31
   3   5   8  155.62    1.17
  -3  -5  -9  151.79    1.17
   3   5   9  143.54    1.20
  -3  -5 -10   11.48    0.64
  -3  -5 -10   10.63    0.64
   3   5  10    9.00    0.57
  -3  -5 -11    7.19    0.67
  -3  -5 -11    8.01    0.67
   3   5  11    7.62    0.74
  -3  -5 -12    3.19    0.71
  -3  -5 -12    1.91    0.64
   3   5  12    3.68    0.71
  -3  -6   5    9.60    0.67
   3   6  -5    7.51    0.71
  -3  -6   4    0.46    0.46
   3   6  -4    1.35    0.57
  -3  -6   3    2.34    0.46
   3   6  -3    2.83    0.57
  -3  -6   2    5.07    0.46
   3   6  -2   10.03    0.57
  -3  -6   1   26.54    0.60
   3   6  -1   35.89    0.67
  -3  -6   0  561.99    2.06
  -3  -6   0  655.32    2.37
  -3  -6   0    0.14    0.11
   3   6   0  735.68    2.41
  -3  -6  -1  386.71    1.67
  -3  -6  -1  439.25    1.70
  -3  -6  -1  337.74    1.59
  -3  -6  -1  439.75    1.88
  -3  -6  -1  106.72    0.92
   3   6   1  493.75    1.91
  -3  -6  -2   82.59    0.81
  -3  -6  -2  103.07    0.85
  -3  -6  -2   73.13    0.71
  -3  -6  -2  100.31    0.89
  -3  -6  -2   70.16    0.74
   3   6   2  113.53    0.92
   3   6   2  109.98    0.89
  -3  -6  -3  381.39    1.56
  -3  -6  -3  468.06    1.70
  -3  -6  -3  326.40    1.42
  -3  -6  -3  433.30    1.81
  -3  -6  -3  326.01    1.56
   3   6   3  465.08    1.77
   3   6   3  453.32    1.70
  -3  -6  -4   28.13    0.53
  -3  -6  -4   35.08    0.53
  -3  -6  -4   24.55    0.46
  -3  -6  -4   25.02    0.46
   3   6   4   32.49    0.57
   3   6   4   33.70    0.53
   3   6   4   20.59    0.43
  -3  -6  -5   93.68    0.85
  -3  -6  -5  107.86    0.85
   3   6   5  114.77    0.96
   3   6   5   65.69    0.74
  -3  -6  -6    7.05    0.43
  -3  -6  -6    5.03    0.28
   3   6   6    9.89    0.50
   3   6   6    6.31    0.35
   3   6   6    5.85    0.32
  -3  -6  -7   -0.67    0.35
  -3  -6  -7    0.00    0.18
   3   6   7    0.99    0.43
  -3  -6  -8   78.41    0.89
  -3  -6  -8   65.20    0.50
   3   6   8   82.31    0.96
  -3  -6  -9    5.03    0.50
   3   6   9    7.51    0.57
  -3  -6 -10    4.29    0.57
   3   6  10    5.00    0.64
  -3  -6 -11    2.59    0.57
   3   6  11    2.55    0.60
  -3  -6 -12    0.39    0.71
   3   6  12   -0.60    0.64
  -3  -7   4   43.16    0.92
   3   7  -4   64.17    1.10
  -3  -7   3   59.35    0.96
   3   7  -3   81.18    1.10
  -3  -7   2    4.39    0.50
   3   7  -2    2.06    0.50
  -3  -7   1    7.90    0.50
   3   7  -1    8.57    0.57
  -3  -7   0  130.64    1.17
   3   7   0  180.99    1.35
  -3  -7  -1    8.08    0.46
   3   7   1   11.91    0.57
  -3  -7  -2  134.96    1.10
   3   7   2  172.34    1.24
  -3  -7  -3   41.49    0.67
   3   7   3   49.46    0.74
  -3  -7  -4    1.95    0.43
  -3  -7  -4    0.53    0.32
   3   7   4    0.96    0.43
  -3  -7  -5    8.04    0.46
   3   7   5   10.24    0.53
  -3  -7  -6    1.67    0.43
   3   7   6    0.81    0.46
  -3  -7  -7    3.40    0.53
  -3  -7  -7    2.34    0.21
   3   7   7    5.17    0.60
  -3  -7  -8    1.24    0.46
   3   7   8    0.67    0.50
  -3  -7  -9    8.18    0.57
   3   7   9    6.63    0.64
  -3  -7 -10    5.21    0.60
   3   7  10    2.37    0.64
  -3  -7 -11    8.40    0.71
   3   7  11   13.92    0.78
  -3  -8   3   21.58    0.78
  -3  -8   2   16.83    0.67
   3   8  -2   23.07    0.81
  -3  -8   1   23.35    0.71
   3   8  -1   32.35    0.85
  -3  -8   0   17.04    0.64
   3   8   0   28.24    0.74
  -3  -8  -1   61.33    0.92
   3   8   1   84.79    1.03
  -3  -8  -2    2.62    0.57
   3   8   2    2.30    0.57
  -3  -8  -3    0.46    0.46
   3   8   3   -0.11    0.46
  -3  -8  -4   28.42    0.71
   3   8   4   36.28    0.78
  -3  -8  -5   89.22    1.03
   3   8   5  110.16    1.17
  -3  -8  -6   12.26    0.60
   3   8   6    8.86    0.60
  -3  -8  -7   11.23    0.64
   3   8   7   12.37    0.71
  -3  -8  -8    3.54    0.60
   3   8   8    2.62    0.67
  -3  -8  -9    9.00    0.67
   3   8   9    7.19    0.78
  -3  -8 -10    8.79    0.74
   3   8  10   11.48    0.85
  -3  -9   1    7.26    0.60
   3   9  -1    9.04    0.74
  -3  -9   0    2.09    0.50
   3   9   0    0.74    0.57
  -3  -9  -1   17.72    0.67
   3   9   1   27.39    0.81
  -3  -9  -2    1.10    0.60
   3   9   2    1.67    0.64
  -3  -9  -3   18.14    0.78
   3   9   3   29.09    0.92
  -3  -9  -4   16.55    0.78
   3   9   4   17.01    0.74
  -3  -9  -5   18.96    0.74
   3   9   5   17.43    0.74
  -3  -9  -6    4.04    0.71
   3   9   6    1.95    0.60
  -3  -9  -7    9.85    0.81
   3   9   7    8.47    0.81
  -3  -9  -8   10.45    0.89
   3   9   8    9.32    0.85
  -3  -9  -9    3.90    0.81
   3   9   9    3.58    0.78
  -3 -10  -2   12.05    0.81
  -3 -10  -3    7.51    0.81
   3  10   3   13.89    0.81
  -3 -10  -4   19.42    0.96
   3  10   4   25.02    0.99
  -3 -10  -5    2.30    0.74
   3  10   5    4.57    0.74
  -3 -10  -6   10.98    0.85
   3  10   6    8.82    0.81
  -3 -10  -7   28.63    1.06
   3  10   7   22.53    0.92
  -4   7   3    2.66    0.60
  -4   7   3    1.98    0.32
   4  -7  -3    2.20    0.57
  -4   7   2   27.28    0.85
   4  -7  -2   23.07    0.71
   4  -7  -2   26.50    0.67
  -4   7   1    0.57    0.57
   4  -7  -1    0.43    0.50
   4  -7  -1    2.59    0.50
  -4   7   0    2.48    0.67
   4  -7   0    4.57    0.53
   4  -7   0    4.11    0.53
  -4   6   5    1.24    0.50
  -4   6   5    1.95    0.35
   4  -6  -5    7.72    0.85
  -4   6   4    4.64    0.57
  -4   6   4    4.46    0.35
   4  -6  -4    5.49    0.74
   4  -6  -4    4.54    0.50
  -4   6   3   16.23    0.67
  -4   6   3    7.83    0.35
   4  -6  -3   12.47    0.57
   4  -6  -3   15.09    0.71
   4  -6  -3   17.11    0.57
  -4   6   2  110.48    1.28
  -4   6   2   61.79    0.74
   4  -6  -2  101.94    1.03
   4  -6  -2  112.50    1.03
   4  -6  -2   72.96    0.89
  -4   6   1    2.27    0.57
   4  -6  -1    0.96    0.50
   4  -6  -1    3.97    0.46
   4  -6  -1    0.74    0.43
  -4   6   0    2.91    0.57
   4  -6   0    1.74    0.50
   4  -6   0    3.33    0.50
  -4   6  -1    3.93    0.67
   4  -6   1    2.30    0.46
   4  -6   1    2.66    0.46
   4  -6   2    9.99    0.53
   4  -6   2    9.42    0.53
   4  -6   3   24.77    0.71
   4  -6   3   25.48    0.71
   4  -6   4   16.23    0.78
   4  -6   4   15.63    0.64
   4  -5  -7    1.70    0.74
  -4   5   6    2.16    0.35
   4  -5  -6    5.74    0.74
  -4   5   5    9.60    0.57
  -4   5   5    5.56    0.39
   4  -5  -5   10.20    0.81
   4  -5  -5    6.34    0.50
  -4   5   4   29.87    0.71
  -4   5   4   18.39    0.50
   4  -5  -4   34.05    0.78
   4  -5  -4   31.57    0.64
   4  -5  -4   23.39    0.57
  -4   5   3   24.73    0.67
  -4   5   3   16.65    0.43
   4  -5  -3   31.46    0.71
   4  -5  -3   24.38    0.57
   4  -5  -3   21.44    0.50
  -4   5   2   24.09    0.67
  -4   5   2   12.22    0.35
   4  -5  -2   28.06    0.67
   4  -5  -2   27.60    0.57
   4  -5  -2   20.87    0.50
  -4   5   1    0.92    0.46
  -4   5   1    0.25    0.21
   4  -5  -1    1.52    0.39
   4  -5  -1    1.74    0.43
   4  -5  -1   -0.07    0.32
   4  -5  -1   -0.18    0.35
  -4   5   0   40.53    0.78
   4  -5   0   42.63    0.64
   4  -5   0   43.90    0.60
  -4   5  -1    9.46    0.53
   4  -5   1    6.48    0.43
   4  -5   1    9.11    0.43
   4  -5   2   41.07    0.64
   4  -5   2   48.40    0.67
   4  -5   3    0.64    0.43
   4  -5   4   13.04    0.60
   4  -5   4   13.04    0.57
   4  -5   5    5.56    0.67
   4  -5   5    0.28    0.50
   4  -5   6    9.67    0.74
   4  -4  -7    7.94    0.81
  -4   4   6   46.20    0.74
   4  -4  -6   67.75    1.06
   4  -4  -6   55.45    0.96
  -4   4   5    9.18    0.43
   4  -4  -5   12.40    0.67
   4  -4  -5   11.44    0.50
  -4   4   4   47.05    0.78
  -4   4   4   32.17    0.57
   4  -4  -4   52.12    0.81
   4  -4  -4   43.62    0.64
   4  -4  -4   34.69    0.57
  -4   4   3   32.35    0.67
  -4   4   3   20.59    0.43
   4  -4  -3   34.65    0.64
   4  -4  -3   34.19    0.53
   4  -4  -3   25.40    0.50
  -4   4   2   10.03    0.50
  -4   4   2    6.77    0.28
   4  -4  -2   16.65    0.50
   4  -4  -2   11.16    0.39
   4  -4  -2    9.42    0.35
  -4   4   1   87.45    0.96
  -4   4   1   53.75    0.53
   4  -4  -1   90.67    0.71
   4  -4  -1   70.62    0.64
  -4   4   0  170.82    1.31
   4  -4   0  179.18    0.92
  -4   4  -1   27.71    0.64
  -4   4  -2   24.84    0.60
   4  -4   3    0.00    0.32
   4  -4   3   -0.60    0.32
   4  -4   4    0.57    0.39
   4  -4   4    1.13    0.35
  -4   4  -5   -0.14    0.25
   4  -4   5    0.57    0.43
   4  -4   5    0.14    0.39
  -4   4  -6   -0.21    0.28
   4  -4   6    4.22    0.57
   4  -4   6    1.70    0.53
   4  -4   7   -0.64    0.46
   4  -4   7    3.51    0.57
   4  -3  -8   13.82    0.89
   4  -3  -7   20.55    0.81
  -4   3   6   29.09    0.60
   4  -3  -6   44.47    0.85
   4  -3  -6   37.59    0.67
  -4   3   5   47.59    0.67
   4  -3  -5   64.10    0.85
   4  -3  -5   56.34    0.71
   4  -3  -5   49.89    0.67
  -4   3   4   -0.07    0.28
   4  -3  -4   -0.07    0.39
   4  -3  -4    0.39    0.28
   4  -3  -4    0.43    0.28
  -4   3   3   40.68    0.67
  -4   3   3   32.74    0.50
   4  -3  -3   44.33    0.60
   4  -3  -3   40.22    0.53
   4  -3  -3   32.42    0.46
  -4   3   2    2.55    0.39
  -4   3   2    1.03    0.21
   4  -3  -2    1.81    0.35
   4  -3  -2    2.06    0.28
   4  -3  -2    2.06    0.28
  -4   3   1    1.56    0.35
  -4   3   1    3.05    0.21
  -4   3   0    5.85    0.39
  -4   3   0    3.47    0.18
  -4   3  -1    0.14    0.32
  -4   3  -3   41.81    0.67
  -4   3  -4   27.32    0.43
   4  -3   4   27.60    0.46
  -4   3  -5   15.31    0.39
   4  -3   5   17.08    0.50
   4  -3   5   17.79    0.46
  -4   3  -6    6.91    0.35
   4  -3   6    6.73    0.46
   4  -3   6    7.55    0.46
  -4   3  -7   13.78    0.46
   4  -3   7   12.76    0.53
   4  -3   7   16.12    0.57
   4  -3   8    6.77    0.57
   4  -3   8    9.28    0.71
   4  -2  -8   14.56    0.85
   4  -2  -7   35.75    0.85
  -4   2   6   19.31    0.53
   4  -2  -6   22.82    0.67
   4  -2  -6   21.54    0.53
  -4   2   5    0.14    0.25
   4  -2  -5    0.07    0.43
   4  -2  -5    0.96    0.35
  -4   2   4    1.77    0.21
  -4   2   4    1.56    0.32
   4  -2  -4   -0.89    0.35
   4  -2  -4    1.59    0.32
   4  -2  -4   -0.32    0.25
  -4   2   3    1.63    0.21
  -4   2   3    2.16    0.25
   4  -2  -3    1.03    0.39
   4  -2  -3    2.66    0.32
   4  -2  -3    2.09    0.28
  -4   2   2   17.54    0.43
  -4   2   2   12.19    0.28
  -4   2   2   14.63    0.32
   4  -2  -2   16.69    0.32
   4  -2  -2   14.39    0.28
  -4   2   1  157.18    1.06
  -4   2   1  142.54    0.85
  -4   2   1  117.00    0.64
  -4   2   0   47.83    0.64
  -4   2   0   50.70    0.57
  -4   2   0   34.26    0.32
  -4   2  -2  121.50    0.96
  -4   2  -3   86.74    0.85
  -4   2  -3   72.64    0.50
  -4   2  -4   23.74    0.53
  -4   2  -4   23.42    0.35
  -4   2  -6    2.13    0.28
   4  -2   6    2.34    0.35
   4  -2   6    2.66    0.39
  -4   2  -7    6.31    0.35
   4  -2   7    5.35    0.46
   4  -2   7    8.15    0.46
  -4   2  -8    8.11    0.39
   4  -2   8    7.51    0.53
   4  -2   8    8.61    0.50
   4  -2   9    8.96    0.67
   4  -1  -8    4.61    0.74
   4  -1  -7    7.87    0.60
  -4   1   6   21.65    0.53
   4  -1  -6   27.00    0.67
   4  -1  -6   20.66    0.53
  -4   1   5   66.58    0.78
   4  -1  -5   75.22    0.85
   4  -1  -5   63.46    0.74
   4  -1  -5   62.72    0.74
  -4   1   4   10.13    0.28
  -4   1   4    9.14    0.35
   4  -1  -4    9.96    0.46
   4  -1  -4    9.78    0.35
   4  -1  -4    9.71    0.39
  -4   1   3   13.92    0.32
  -4   1   3   15.41    0.35
   4  -1  -3   14.07    0.35
  -4   1   2  170.25    0.89
  -4   1   2  168.20    0.85
   4  -1  -2  205.12    0.89
   4  -1  -2  153.88    0.74
  -4   1   1   20.98    0.43
  -4   1   1   19.74    0.35
  -4   1   1   20.09    0.28
  -4   1   0   49.92    0.60
  -4   1   0   47.48    0.53
  -4   1   0   41.10    0.28
  -4   1  -1  438.69    1.63
  -4   1  -1  403.47    1.49
  -4   1  -2  401.27    1.56
  -4   1  -2  364.63    1.45
  -4   1  -3  171.81    1.06
  -4   1  -4  131.81    0.96
  -4   1  -4  122.03    0.60
  -4   1  -5   33.02    0.57
  -4   1  -5   34.26    0.43
   4  -1   5   32.95    0.39
  -4   1  -6   14.31    0.35
   4  -1   6   12.97    0.39
   4  -1   6   12.72    0.35
   4  -1   6   13.36    0.39
  -4   1  -7    3.01    0.28
   4  -1   7    2.06    0.35
   4  -1   7    2.55    0.35
  -4   1  -8    3.93    0.32
   4  -1   8    4.82    0.53
   4  -1   8    4.82    0.50
  -4   1  -9   -0.07    0.32
   4  -1   9   -0.21    0.46
   4  -1   9   -0.04    0.35
   4  -1  10   11.69    0.78
   4   0  -8   11.83    0.78
   4   0  -7   48.12    0.89
  -4   0   6   45.39    0.57
  -4   0   6   45.78    0.74
   4   0  -6   49.46    0.81
  -4   0   5   24.41    0.53
   4   0  -5   30.15    0.64
  -4   0   4  177.45    1.13
   4   0  -4  223.37    1.24
   4   0  -4  175.39    1.13
   4   0  -4  185.24    1.10
  -4   0   3    7.23    0.28
   4   0  -3    8.75    0.39
   4   0  -3    8.01    0.32
  -4   0   2  171.00    0.89
   4   0  -2  182.09    0.85
  -4   0   1   46.06    0.50
  -4   0   1   43.94    0.39
  -4   0   0  207.39    0.99
  -4   0   0  186.73    0.64
  -4   0  -1   76.75    0.67
  -4   0  -1   76.60    0.64
  -4   0  -2  271.27    1.20
  -4   0  -2  252.49    1.17
  -4   0  -3  755.35    1.98
  -4   0  -3  687.49    1.98
  -4   0  -4  319.63    1.31
  -4   0  -4  287.82    1.35
  -4   0  -4  297.45    0.85
  -4   0  -5    3.83    0.28
  -4   0  -5    3.51    0.18
  -4   0  -6    6.98    0.32
  -4   0  -6    7.26    0.25
   4   0   6    4.89    0.28
   4   0   6    5.99    0.28
   4   0   6    6.59    0.28
  -4   0  -7    0.57    0.28
  -4   0  -7    1.24    0.21
   4   0   7    0.25    0.28
   4   0   7    0.46    0.28
   4   0   7   -0.74    0.25
  -4   0  -8    2.69    0.35
  -4   0  -8    1.20    0.28
   4   0   8    1.98    0.43
   4   0   8    3.08    0.35
   4   0   8    1.74    0.35
  -4   0  -9    3.37    0.39
  -4   0  -9    2.94    0.28
   4   0   9    3.30    0.50
   4   0   9    2.59    0.43
   4   0  10    6.48    0.71
   4   0  11   -1.13    0.64
   4   1  -8   44.68    1.06
  -4  -1   7   33.70    0.60
   4   1  -7   43.19    0.92
  -4  -1   6   42.06    0.60
   4   1  -6   48.01    0.81
   4   1  -5    2.16    0.46
   4   1  -5    1.13    0.32
  -4  -1   4  265.99    1.10
  -4  -1   4  234.63    1.49
   4   1  -4  307.91    1.49
   4   1  -4  279.42    1.38
  -4  -1   3  209.33    1.17
   4   1  -3  241.01    1.20
   4   1  -3  211.32    1.10
  -4  -1   2  330.48    1.31
   4   1  -2  369.52    1.31
   4   1  -2  325.09    1.20
  -4  -1   1   70.09    0.60
   4   1  -1   97.08    0.60
   4   1  -1   81.81    0.53
  -4  -1   0  134.86    0.81
  -4  -1  -1  112.36    0.74
  -4  -1  -2   17.86    0.35
  -4  -1  -3    2.30    0.25
  -4  -1  -3    2.09    0.21
  -4  -1  -3    1.74    0.14
  -4  -1  -4   12.93    0.32
  -4  -1  -4   12.30    0.32
  -4  -1  -4   11.83    0.21
  -4  -1  -5   34.02    0.43
  -4  -1  -5   28.42    0.46
  -4  -1  -5   35.79    0.39
   4   1   5   31.92    0.35
  -4  -1  -6    3.26    0.21
  -4  -1  -6    4.07    0.25
   4   1   6    3.47    0.25
   4   1   6    3.37    0.21
  -4  -1  -7    0.32    0.21
  -4  -1  -7    0.18    0.21
   4   1   7    1.31    0.32
   4   1   7    0.92    0.28
  -4  -1  -8   51.80    0.57
  -4  -1  -8   48.51    0.64
   4   1   8   49.43    0.71
   4   1   8   53.86    0.78
   4   1   8   49.99    0.64
  -4  -1  -9    0.99    0.28
   4   1   9    0.35    0.35
   4   1  10    7.76    0.71
   4   1  11    0.46    0.71
  -4  -2   7    6.94    0.46
   4   2  -7   10.03    0.71
  -4  -2   6    2.06    0.35
   4   2  -6   -0.28    0.50
  -4  -2   5    2.16    0.35
  -4  -2   5    1.42    0.28
   4   2  -5    4.00    0.46
  -4  -2   4    3.61    0.39
   4   2  -4    3.72    0.46
  -4  -2   3   32.70    0.43
  -4  -2   3   35.43    0.53
   4   2  -3   39.01    0.60
   4   2  -3   36.28    0.53
  -4  -2   2    9.39    0.25
  -4  -2   2    8.33    0.28
   4   2  -2   12.40    0.43
   4   2  -2    9.42    0.32
  -4  -2   1   12.30    0.28
   4   2  -1   14.56    0.39
   4   2  -1   12.83    0.32
  -4  -2   0   61.05    0.50
   4   2   0   74.69    0.53
   4   2   0   61.86    0.46
  -4  -2  -1   16.44    0.25
   4   2   1   18.18    0.25
  -4  -2  -2   56.55    0.39
  -4  -2  -2   36.85    0.32
  -4  -2  -3  244.94    1.10
  -4  -2  -3  192.33    0.71
  -4  -2  -4  471.96    1.56
  -4  -2  -4  412.54    1.13
  -4  -2  -5    0.11    0.18
  -4  -2  -5    0.92    0.18
   4   2   5    2.23    0.25
   4   2   5    0.78    0.25
  -4  -2  -6  399.64    1.20
  -4  -2  -6  348.48    1.45
   4   2   6  373.74    1.28
   4   2   6  438.86    1.35
   4   2   6  340.26    1.24
  -4  -2  -7   90.32    0.60
  -4  -2  -7   86.99    0.74
   4   2   7   88.62    0.74
   4   2   7   93.05    0.74
   4   2   7   83.69    0.71
  -4  -2  -8    4.43    0.21
  -4  -2  -8    3.30    0.32
   4   2   8    3.68    0.43
   4   2   8    3.65    0.35
   4   2   8    3.19    0.35
  -4  -2  -9    0.99    0.28
   4   2   9    1.20    0.43
   4   2   9    2.16    0.43
   4   2  10    9.28    0.74
   4   2  11    3.08    0.67
   4   2  12    1.35    0.74
  -4  -3   7    2.48    0.50
   4   3  -7    4.15    0.71
  -4  -3   6    2.80    0.46
   4   3  -6    6.41    0.71
  -4  -3   5   15.94    0.50
   4   3  -5   22.22    0.67
  -4  -3   4   43.01    0.60
  -4  -3   4   49.25    0.71
   4   3  -4   50.88    0.78
  -4  -3   3   10.84    0.39
   4   3  -3   14.10    0.50
  -4  -3   2   41.74    0.50
  -4  -3   2   48.58    0.60
   4   3  -2   56.90    0.67
   4   3  -2   48.90    0.60
  -4  -3   1    0.18    0.18
  -4  -3   1    0.25    0.18
   4   3  -1   -0.21    0.43
   4   3  -1    0.71    0.25
  -4  -3   0  154.20    0.89
   4   3   0  187.54    0.92
   4   3   0  156.89    0.85
  -4  -3  -1  321.26    1.17
   4   3   1  346.81    1.13
   4   3   1  332.57    1.10
  -4  -3  -2  422.07    1.28
  -4  -3  -2  327.36    1.10
   4   3   2  490.88    1.28
   4   3   2  452.58    1.20
   4   3   2  303.58    0.96
  -4  -3  -3   27.07    0.35
   4   3   3   39.83    0.43
   4   3   3   47.30    0.43
  -4  -3  -4   32.42    0.43
  -4  -3  -4   27.53    0.35
   4   3   4   33.02    0.39
   4   3   4   36.14    0.43
   4   3   4   27.00    0.35
  -4  -3  -5    0.64    0.18
  -4  -3  -5    0.67    0.18
   4   3   5    2.06    0.28
   4   3   5    0.04    0.25
   4   3   5    1.59    0.25
  -4  -3  -6   44.04    0.53
  -4  -3  -6   41.56    0.53
   4   3   6   41.31    0.53
   4   3   6   47.98    0.53
   4   3   6   39.44    0.50
  -4  -3  -7   36.18    0.50
  -4  -3  -7   41.92    0.57
   4   3   7   39.37    0.57
   4   3   7   46.59    0.57
   4   3   7   37.63    0.53
   4   3   8    3.51    0.39
   4   3   8    0.18    0.32
   4   3   8    1.31    0.35
   4   3   9    3.15    0.46
   4   3   9   -0.11    0.35
  -4  -3 -10    0.46    0.35
   4   3  10    1.59    0.50
   4   3  11    7.30    0.78
   4   3  12   18.21    0.99
  -4  -4   6   52.37    0.85
   4   4  -6   63.88    1.06
  -4  -4   5   14.07    0.53
   4   4  -5   14.60    0.67
  -4  -4   4    0.46    0.35
   4   4  -4   -0.67    0.46
  -4  -4   3   13.61    0.43
  -4  -4   3   15.41    0.46
   4   4  -3   21.76    0.60
  -4  -4   2   11.87    0.39
  -4  -4   2   12.47    0.39
   4   4  -2   17.33    0.53
   4   4  -2   16.41    0.46
  -4  -4   1  242.43    1.13
  -4  -4   1  317.12    1.49
   4   4  -1  363.22    1.56
   4   4  -1  314.60    1.38
   4   4  -1  321.94    1.49
  -4  -4   0  580.20    1.59
  -4  -4   0  704.54    2.09
   4   4   0  816.82    2.13
   4   4   0  709.64    1.95
   4   4   0  694.93    2.02
  -4  -4  -1  124.33    0.71
  -4  -4  -1  147.93    0.92
  -4  -4  -1  111.75    0.78
   4   4   1  191.55    1.10
   4   4   1  155.23    0.89
  -4  -4  -2   12.08    0.28
  -4  -4  -2   14.95    0.32
  -4  -4  -2   13.46    0.32
   4   4   2   17.04    0.39
   4   4   2   17.15    0.35
  -4  -4  -3    8.11    0.25
  -4  -4  -3    7.90    0.25
   4   4   3   11.41    0.35
   4   4   3   10.49    0.32
   4   4   3    7.87    0.28
  -4  -4  -4  242.50    0.89
  -4  -4  -4  220.50    1.06
   4   4   4  313.89    1.20
   4   4   4  308.58    1.17
   4   4   4  216.67    0.99
   4   4   4  195.59    0.96
  -4  -4  -5   17.65    0.32
  -4  -4  -5   19.17    0.35
  -4  -4  -5   16.55    0.35
   4   4   5   19.49    0.43
   4   4   5   21.37    0.43
   4   4   5   16.37    0.35
   4   4   5    8.54    0.35
  -4  -4  -6   72.85    0.60
  -4  -4  -6   76.82    0.67
  -4  -4  -6   67.50    0.64
   4   4   6   87.59    0.74
   4   4   6   84.90    0.71
   4   4   6   64.84    0.64
  -4  -4  -7   23.95    0.43
  -4  -4  -7   23.14    0.39
  -4  -4  -7   22.57    0.46
   4   4   7   25.79    0.50
   4   4   7   28.03    0.50
   4   4   7   21.26    0.46
  -4  -4  -8    0.25    0.28
  -4  -4  -8   -0.46    0.18
  -4  -4  -8    1.13    0.25
   4   4   8    1.45    0.35
   4   4   8    0.00    0.28
   4   4   8    0.78    0.35
  -4  -4  -9   33.06    0.57
  -4  -4  -9   31.64    0.60
   4   4   9   28.63    0.64
   4   4   9   27.99    0.60
  -4  -4 -10   -0.50    0.35
   4   4  10    3.05    0.57
  -4  -4 -11    1.52    0.43
   4   4  11    2.91    0.67
   4   4  12    0.14    0.78
  -4  -5   6   23.21    0.67
   4   5  -6   25.62    0.89
  -4  -5   5    5.03    0.46
   4   5  -5    6.27    0.74
  -4  -5   4   40.71    0.71
   4   5  -4   57.93    0.96
  -4  -5   3   71.25    0.85
   4   5  -3   98.50    1.06
  -4  -5   2   90.95    0.85
  -4  -5   2  109.73    1.06
   4   5  -2  123.62    1.10
  -4  -5   1    0.21    0.35
  -4  -5   1    0.11    0.21
   4   5  -1    0.78    0.43
  -4  -5   0    7.19    0.35
  -4  -5   0    6.45    0.32
   4   5   0    7.97    0.46
   4   5   0    9.57    0.39
  -4  -5  -1   68.60    0.64
  -4  -5  -1   78.91    0.74
  -4  -5  -1   55.91    0.64
   4   5   1   91.49    0.81
   4   5   1   86.56    0.78
  -4  -5  -2   16.69    0.39
  -4  -5  -2   19.45    0.43
  -4  -5  -2   12.68    0.32
   4   5   2   21.05    0.46
   4   5   2   18.92    0.43
  -4  -5  -3   81.81    0.67
  -4  -5  -3   90.57    0.78
  -4  -5  -3   73.52    0.67
   4   5   3   99.53    0.78
   4   5   3  105.41    0.81
  -4  -5  -4   40.07    0.50
  -4  -5  -4   32.07    0.46
   4   5   4   48.97    0.60
   4   5   4   49.25    0.60
   4   5   4   30.79    0.46
   4   5   4   26.68    0.43
  -4  -5  -5   31.46    0.46
  -4  -5  -5   26.96    0.46
   4   5   5   35.43    0.57
   4   5   5   39.15    0.53
   4   5   5   23.95    0.43
   4   5   5   24.91    0.43
  -4  -5  -6    0.74    0.28
  -4  -5  -6    0.14    0.18
  -4  -5  -6    0.14    0.18
   4   5   6    0.18    0.32
   4   5   6    0.21    0.28
   4   5   6   -0.04    0.25
   4   5   6    0.64    0.21
  -4  -5  -7   14.21    0.35
  -4  -5  -7   12.54    0.39
   4   5   7   15.87    0.50
   4   5   7   14.78    0.43
   4   5   7   11.55    0.39
   4   5   7    9.50    0.35
  -4  -5  -8   73.84    0.74
  -4  -5  -8   65.05    0.64
  -4  -5  -8   67.50    0.81
   4   5   8   77.53    0.89
   4   5   8   54.03    0.71
  -4  -5  -9   12.26    0.46
   4   5   9   10.77    0.57
  -4  -5 -10    1.52    0.43
   4   5  10    3.33    0.57
  -4  -5 -11    2.06    0.43
   4   5  11    1.13    0.60
  -4  -5 -12    2.13    0.78
   4   5  12    3.72    0.78
  -4  -6   5   13.04    0.64
   4   6  -5   18.96    0.85
  -4  -6   4    4.57    0.57
   4   6  -4    5.35    0.64
  -4  -6   3    3.19    0.50
   4   6  -3    5.78    0.57
  -4  -6   2   14.63    0.50
   4   6  -2   13.50    0.60
  -4  -6   1    4.85    0.43
   4   6  -1    8.11    0.53
  -4  -6   0   33.59    0.60
  -4  -6   0   42.27    0.67
   4   6   0   49.50    0.78
  -4  -6  -1  120.82    0.96
  -4  -6  -1  146.30    1.13
  -4  -6  -1  102.65    0.92
   4   6   1  164.55    1.17
  -4  -6  -2  253.23    1.31
  -4  -6  -2  294.94    1.56
  -4  -6  -2  211.18    1.28
   4   6   2  329.17    1.56
   4   6   2  308.51    1.56
  -4  -6  -3   16.37    0.46
  -4  -6  -3   18.81    0.46
  -4  -6  -3   12.22    0.35
   4   6   3   18.96    0.50
   4   6   3   19.81    0.46
  -4  -6  -4    6.77    0.43
  -4  -6  -4    4.61    0.28
   4   6   4    5.31    0.39
   4   6   4    7.02    0.35
  -4  -6  -5    5.21    0.39
  -4  -6  -5    3.54    0.28
   4   6   5    5.53    0.43
   4   6   5    3.93    0.35
   4   6   5    2.41    0.21
  -4  -6  -6   18.78    0.50
  -4  -6  -6   16.94    0.43
   4   6   6   23.46    0.60
   4   6   6   18.18    0.46
   4   6   6   16.12    0.46
  -4  -6  -7   13.64    0.50
  -4  -6  -7   14.10    0.35
  -4  -6  -7   11.23    0.39
   4   6   7   11.69    0.57
   4   6   7    7.76    0.39
  -4  -6  -8  123.77    1.03
  -4  -6  -8  112.14    0.78
   4   6   8  124.86    1.13
  -4  -6  -9   34.48    0.67
  -4  -6  -9   27.74    0.43
   4   6   9   39.54    0.81
  -4  -6 -10    6.17    0.50
   4   6  10    7.69    0.67
  -4  -6 -11    1.84    0.46
   4   6  11    2.80    0.71
  -4  -6 -12    6.91    0.57
   4   6  12    6.94    0.85
  -4  -7   4   11.05    0.71
  -4  -7   3    3.79    0.60
   4   7  -3    6.13    0.74
  -4  -7   2    2.91    0.50
   4   7  -2    3.58    0.67
  -4  -7   1    9.32    0.53
   4   7  -1   11.30    0.60
  -4  -7   0   36.81    0.71
   4   7   0   49.36    0.85
  -4  -7  -1   28.66    0.60
   4   7   1   39.72    0.78
  -4  -7  -2  167.21    1.20
   4   7   2  212.17    1.42
  -4  -7  -3   13.25    0.53
  -4  -7  -3    6.38    0.39
   4   7   3   11.52    0.53
  -4  -7  -4  102.26    0.96
  -4  -7  -4  111.90    1.03
   4   7   4  112.11    1.03
  -4  -7  -5    8.22    0.50
   4   7   5    9.81    0.53
  -4  -7  -6  175.82    1.24
   4   7   6  206.71    1.42
  -4  -7  -7    4.39    0.50
   4   7   7    5.07    0.57
  -4  -7  -8    3.54    0.53
  -4  -7  -8    2.20    0.25
   4   7   8    1.06    0.53
  -4  -7  -9    5.81    0.57
   4   7   9    6.73    0.71
  -4  -7 -10    2.20    0.50
   4   7  10    0.67    0.60
  -4  -7 -11    7.55    0.64
   4   7  11    3.37    0.74
  -4  -8   2  190.06    1.63
   4   8  -2  258.16    1.91
  -4  -8   1   12.01    0.60
   4   8  -1   21.86    0.81
  -4  -8   0   18.32    0.60
   4   8   0   26.01    0.78
  -4  -8  -1    4.46    0.46
   4   8   1    7.23    0.64
  -4  -8  -2   19.13    0.60
   4   8   2   27.21    0.78
  -4  -8  -3   46.17    0.85
   4   8   3   57.68    0.92
  -4  -8  -4   27.74    0.74
   4   8   4   27.18    0.74
  -4  -8  -5   14.24    0.60
   4   8   5   16.12    0.71
  -4  -8  -6    5.28    0.53
   4   8   6    5.88    0.64
  -4  -8  -7    2.48    0.57
   4   8   7    2.20    0.60
  -4  -8  -8    2.02    0.57
   4   8   8    1.98    0.60
  -4  -8  -9    0.89    0.57
   4   8   9    2.52    0.71
  -4  -8 -10   11.55    0.78
   4   8  10    8.01    0.85
  -4  -8 -11   13.50    0.81
   4   8  11    5.31    0.85
  -4  -9   0    1.95    0.50
   4   9   0    2.16    0.64
  -4  -9  -1    8.29    0.53
   4   9   1   11.13    0.74
  -4  -9  -2    4.54    0.50
   4   9   2    7.65    0.78
  -4  -9  -3    3.47    0.64
   4   9   3    3.90    0.67
  -4  -9  -4    8.22    0.67
   4   9   4    9.46    0.71
  -4  -9  -5    7.41    0.67
   4   9   5    3.22    0.64
  -4  -9  -6    1.91    0.64
   4   9   6    0.57    0.64
  -4  -9  -7    0.96    0.53
   4   9   7    0.67    0.67
  -4  -9  -8   22.43    0.92
   4   9   8   18.21    0.92
  -4  -9  -9    9.46    0.89
   4   9   9   11.09    0.96
  -4  -9 -10    9.32    0.92
   4   9  10    9.21    0.96
  -4 -10  -3   16.48    0.78
   4  10   3   20.27    0.99
  -4 -10  -4    2.59    0.74
   4  10   4    0.43    0.67
  -4 -10  -5    4.82    0.85
   4  10   5    3.15    0.71
  -4 -10  -6   25.87    0.92
   4  10   6   20.73    0.89
  -4 -10  -7   21.65    0.92
   4  10   7   18.85    0.92
  -5   6   3    6.84    0.74
  -5   6   3    3.37    0.32
   5  -6  -3    3.33    0.57
   5  -6  -3   10.42    0.74
   5  -6  -3    6.09    0.53
  -5   6   2    3.05    0.60
   5  -6  -2    1.52    0.50
   5  -6  -2    1.56    0.46
  -5   6   1    5.17    0.67
   5  -6  -1    3.76    0.53
   5  -6  -1    5.92    0.50
   5  -6  -1    2.62    0.64
  -5   6   0    2.76    0.64
   5  -6   0    5.00    0.57
   5  -6   0    4.15    0.53
  -5   6  -1   -1.24    0.50
   5  -6   1    1.70    0.53
   5  -6   1    0.11    0.43
  -5   5   5    1.31    0.32
   5  -5  -5    0.74    0.64
   5  -5  -5   -0.43    0.46
  -5   5   4   12.79    0.67
  -5   5   4    7.97    0.39
   5  -5  -4   10.95    0.64
   5  -5  -4    8.96    0.57
  -5   5   3    0.71    0.50
  -5   5   3    1.74    0.28
   5  -5  -3    0.99    0.57
   5  -5  -3    0.32    0.43
   5  -5  -3    1.74    0.39
  -5   5   2    4.00    0.64
  -5   5   2    3.61    0.28
   5  -5  -2    5.92    0.60
   5  -5  -2    5.60    0.46
   5  -5  -2    7.30    0.46
  -5   5   1    1.06    0.50
   5  -5  -1   -0.14    0.39
   5  -5  -1   -0.18    0.43
   5  -5  -1    0.25    0.39
   5  -5  -1    1.70    0.39
  -5   5   0   41.28    0.89
   5  -5   0   40.71    0.64
   5  -5   0   41.95    0.64
  -5   5  -1   25.26    0.78
   5  -5   1   27.53    0.57
   5  -5   1   28.88    0.57
  -5   5  -2   -0.32    0.46
   5  -5   2    1.10    0.39
   5  -5   2   -0.18    0.39
   5  -5   3    2.48    0.46
   5  -5   3    0.43    0.46
  -5   5  -4    6.17    0.74
   5  -5   4    4.50    0.57
   5  -5   4    6.13    0.53
  -5   4   6    2.44    0.39
   5  -4  -6    4.82    0.74
  -5   4   5   24.06    0.57
   5  -4  -5   35.47    0.89
   5  -4  -5   33.63    0.71
  -5   4   4   10.38    0.39
   5  -4  -4   21.22    0.74
   5  -4  -4   12.61    0.50
   5  -4  -4   11.05    0.46
  -5   4   3    7.55    0.57
  -5   4   3    4.15    0.32
   5  -4  -3    8.22    0.57
   5  -4  -3    5.85    0.43
   5  -4  -3    7.12    0.39
  -5   4   2   21.37    0.67
  -5   4   2   13.68    0.35
   5  -4  -2   23.70    0.50
   5  -4  -2   17.08    0.46
  -5   4   1   37.17    0.78
  -5   4   1   22.78    0.39
  -5   4   0   41.07    0.81
  -5   4  -1    1.98    0.50
  -5   4  -2    9.28    0.57
  -5   4  -3    0.14    0.46
   5  -4   3   -0.28    0.32
  -5   4  -4    5.21    0.57
   5  -4   4    5.63    0.46
  -5   4  -5    5.21    0.71
   5  -4   5    6.77    0.53
   5  -4   5    5.95    0.50
  -5   4  -6    3.15    0.71
  -5   4  -6    5.35    0.35
   5  -4   6    7.02    0.64
   5  -4   6    5.35    0.64
   5  -3  -7   23.10    0.96
  -5   3   6    8.11    0.46
   5  -3  -6   11.16    0.78
  -5   3   5    1.03    0.28
   5  -3  -5    5.07    0.60
   5  -3  -5    0.11    0.35
  -5   3   4   49.68    0.67
   5  -3  -4   67.71    0.78
   5  -3  -4   58.25    0.71
  -5   3   3   59.38    0.67
   5  -3  -3   80.71    0.74
   5  -3  -3   61.51    0.67
  -5   3   2    9.21    0.50
  -5   3   2    7.90    0.28
   5  -3  -2    9.21    0.35
   5  -3  -2    8.57    0.35
  -5   3   1    5.46    0.46
  -5   3   1    3.68    0.21
  -5   3   0   62.72    0.85
  -5   3   0   36.35    0.39
  -5   3  -1    0.21    0.43
  -5   3  -2   66.08    0.89
  -5   3  -3   17.18    0.57
  -5   3  -4    7.83    0.50
  -5   3  -5    0.85    0.50
  -5   3  -5    1.81    0.25
   5  -3   5    1.63    0.39
  -5   3  -6   -0.28    0.53
  -5   3  -6    0.18    0.25
   5  -3   6    1.42    0.46
   5  -3   6    1.13    0.46
  -5   3  -7    1.81    0.64
  -5   3  -7    1.59    0.32
   5  -3   7    0.96    0.46
   5  -3   7    3.12    0.57
  -5   3  -8    7.44    0.78
  -5   3  -8    2.55    0.43
   5  -3   8    2.16    0.53
   5  -3   8    3.65    0.60
   5  -2  -7    0.78    0.64
  -5   2   6    3.93    0.43
   5  -2  -6   10.10    0.64
  -5   2   5   38.94    0.64
   5  -2  -5   51.38    0.81
   5  -2  -5   49.75    0.71
  -5   2   4   43.16    0.57
  -5   2   4   38.23    0.60
   5  -2  -4   54.67    0.74
   5  -2  -4   48.05    0.64
   5  -2  -4   44.08    0.64
  -5   2   3    5.14    0.28
  -5   2   3    4.46    0.28
   5  -2  -3    4.36    0.39
   5  -2  -3    4.11    0.32
   5  -2  -3    3.72    0.32
  -5   2   2    7.87    0.32
  -5   2   2    6.84    0.28
   5  -2  -2    7.16    0.28
   5  -2  -2    5.78    0.28
  -5   2   1   19.98    0.64
  -5   2   1   15.59    0.39
  -5   2   1   14.17    0.28
  -5   2   0    1.63    0.35
  -5   2  -2    9.07    0.46
  -5   2  -3    5.60    0.53
  -5   2  -4    8.68    0.50
  -5   2  -4    6.02    0.25
  -5   2  -5    7.05    0.50
  -5   2  -5    7.94    0.28
  -5   2  -6    5.14    0.53
  -5   2  -6    4.64    0.28
   5  -2   6    5.24    0.39
   5  -2   6    5.03    0.43
  -5   2  -7   13.07    0.64
  -5   2  -7   14.92    0.43
   5  -2   7   12.30    0.50
   5  -2   7   16.02    0.57
  -5   2  -8   -0.60    0.50
  -5   2  -8    1.03    0.28
   5  -2   8    0.89    0.43
   5  -2   8    1.06    0.50
  -5   2  -9    8.40    0.67
  -5   2  -9    3.22    0.46
   5  -2   9    5.56    0.60
   5  -2   9    5.49    0.67
   5  -1  -7    7.12    0.78
  -5   1   6    8.86    0.43
   5  -1  -6   10.49    0.60
  -5   1   5    4.11    0.35
   5  -1  -5    4.75    0.50
   5  -1  -5    2.06    0.39
  -5   1   4    9.25    0.32
  -5   1   4    6.63    0.35
   5  -1  -4    6.02    0.46
   5  -1  -4    7.02    0.39
   5  -1  -4    7.23    0.39
  -5   1   3    0.92    0.25
  -5   1   3   -0.14    0.25
   5  -1  -3   -0.07    0.39
   5  -1  -3    1.88    0.28
   5  -1  -3    0.07    0.32
  -5   1   2    1.77    0.25
  -5   1   2    1.24    0.21
   5  -1  -2    1.95    0.28
  -5   1   1   57.93    0.64
  -5   1   1   57.05    0.46
  -5   1   0   40.22    0.64
  -5   1   0   40.92    0.57
  -5   1  -1   33.16    0.57
  -5   1  -1   27.42    0.50
  -5   1  -2    3.51    0.32
  -5   1  -2    5.28    0.43
  -5   1  -3   81.88    0.85
  -5   1  -4   77.70    0.85
  -5   1  -5  203.77    1.35
  -5   1  -5  172.41    0.78
  -5   1  -6   10.84    0.32
   5  -1   6   11.66    0.39
  -5   1  -7    3.51    0.46
  -5   1  -7    1.67    0.25
   5  -1   7    2.73    0.43
   5  -1   7    2.34    0.43
   5  -1   7    2.59    0.39
  -5   1  -8   -0.35    0.43
  -5   1  -8   -0.14    0.25
   5  -1   8   -0.81    0.39
   5  -1   8    0.53    0.43
  -5   1  -9   -0.43    0.25
   5  -1   9    2.16    0.46
   5  -1  10    1.42    0.57
   5   0  -7    4.32    0.67
   5   0  -6    1.45    0.57
  -5   0   5    4.18    0.35
   5   0  -5    4.50    0.50
   5   0  -5    5.67    0.39
  -5   0   4  149.56    1.10
   5   0  -4  180.74    1.20
   5   0  -4  142.93    1.03
   5   0  -4  156.47    1.10
  -5   0   3  469.55    1.74
   5   0  -3  604.58    1.91
   5   0  -3  531.13    1.77
  -5   0   2  117.14    0.89
  -5   0   2  112.14    0.78
   5   0  -2  155.37    0.99
   5   0  -2  114.77    0.74
  -5   0   1  189.49    1.10
  -5   0   1  174.65    0.81
  -5   0   0    2.23    0.25
  -5   0   0    3.54    0.18
  -5   0  -1   37.03    0.57
  -5   0  -1   35.11    0.50
  -5   0  -2    6.06    0.35
  -5   0  -2    4.96    0.28
  -5   0  -3   61.55    0.71
  -5   0  -3   50.38    0.85
  -5   0  -4  179.18    1.13
  -5   0  -4  149.21    1.06
  -5   0  -5   47.80    0.64
  -5   0  -5   42.94    0.39
  -5   0  -6    0.74    0.18
  -5   0  -7   10.63    0.43
  -5   0  -7   13.07    0.35
   5   0   7   11.30    0.43
   5   0   7   13.36    0.43
   5   0   7   11.23    0.39
  -5   0  -8    1.03    0.39
  -5   0  -8    1.67    0.28
   5   0   8    0.89    0.39
   5   0   8    1.03    0.35
   5   0   8    0.74    0.35
  -5   0  -9    3.12    0.32
   5   0   9    1.38    0.50
   5   0   9    2.06    0.43
   5   0  10    4.22    0.71
   5   0  10    3.72    0.67
   5   1  -7   14.35    0.81
   5   1  -6   -0.53    0.53
  -5  -1   5    7.12    0.39
   5   1  -5    8.47    0.57
  -5  -1   4  175.60    1.24
   5   1  -4  206.78    1.31
  -5  -1   3   82.59    0.78
   5   1  -3  109.63    0.92
  -5  -1   2  167.77    0.99
   5   1  -2  231.94    1.17
   5   1  -2  183.22    0.99
  -5  -1   1    4.82    0.21
   5   1  -1    6.17    0.35
   5   1  -1    5.00    0.25
  -5  -1   0   38.20    0.53
  -5  -1   0   37.98    0.39
  -5  -1  -1  144.39    0.96
  -5  -1  -1  130.39    0.57
  -5  -1  -2   41.00    0.53
  -5  -1  -3   16.69    0.39
  -5  -1  -3   15.02    0.39
  -5  -1  -4   14.46    0.39
  -5  -1  -4   11.34    0.35
  -5  -1  -5   15.45    0.39
  -5  -1  -5   10.74    0.35
  -5  -1  -5   12.08    0.25
  -5  -1  -6    1.10    0.28
  -5  -1  -6    1.81    0.21
  -5  -1  -7   21.08    0.43
  -5  -1  -7   20.34    0.39
   5   1   7   21.76    0.50
   5   1   7   24.31    0.46
   5   1   7   20.76    0.43
  -5  -1  -8   10.59    0.39
  -5  -1  -8    9.89    0.35
   5   1   8   11.34    0.50
   5   1   8   10.59    0.43
   5   1   8    9.81    0.43
  -5  -1  -9    9.25    0.43
  -5  -1  -9    7.83    0.35
   5   1   9   10.31    0.57
   5   1   9    9.14    0.46
   5   1   9   10.91    0.50
  -5  -1 -10    0.96    0.28
   5   1  10    2.69    0.60
   5   1  10    2.16    0.46
   5   1  11    0.78    0.71
   5   2  -7    2.48    0.71
   5   2  -6   43.44    0.92
   5   2  -5   43.55    0.81
  -5  -2   4   37.81    0.64
   5   2  -4   48.15    0.78
  -5  -2   3  162.32    1.13
   5   2  -3  180.88    1.20
   5   2  -3  154.80    1.06
  -5  -2   2    8.54    0.32
   5   2  -2   11.87    0.46
   5   2  -2    9.96    0.39
  -5  -2   1    7.55    0.28
   5   2  -1   10.38    0.57
   5   2  -1    9.35    0.35
  -5  -2   0  159.09    0.85
   5   2   0  193.43    1.20
  -5  -2  -1  217.98    0.89
  -5  -2  -2   70.44    0.71
  -5  -2  -2   63.14    0.43
  -5  -2  -2   43.94    0.35
  -5  -2  -3   28.31    0.46
  -5  -2  -3   23.42    0.28
  -5  -2  -4    0.81    0.21
  -5  -2  -4    0.99    0.14
  -5  -2  -5    0.92    0.21
  -5  -2  -5    1.59    0.21
  -5  -2  -6   35.79    0.50
  -5  -2  -6   32.21    0.57
  -5  -2  -6   33.27    0.43
   5   2   6   32.95    0.46
   5   2   6   39.12    0.46
   5   2   6   30.26    0.39
  -5  -2  -7   22.29    0.43
  -5  -2  -7   19.03    0.39
   5   2   7   18.35    0.46
   5   2   7   23.00    0.46
   5   2   7   18.50    0.39
  -5  -2  -8    7.41    0.32
  -5  -2  -8    5.74    0.32
   5   2   8    7.09    0.46
   5   2   8    7.26    0.43
   5   2   8    5.99    0.39
  -5  -2  -9    0.14    0.25
   5   2   9    0.57    0.43
   5   2   9    0.18    0.35
   5   2   9    2.30    0.46
  -5  -2 -10    1.35    0.32
   5   2  10   -0.25    0.50
   5   2  10    0.39    0.43
   5   2  11    6.77    0.81
   5   3  -6  141.80    1.45
  -5  -3   5   15.06    0.43
   5   3  -5   17.75    0.71
  -5  -3   4    8.57    0.35
   5   3  -4   13.32    0.60
  -5  -3   3   29.69    0.46
  -5  -3   3   34.23    0.60
   5   3  -3   36.25    0.71
  -5  -3   2    8.33    0.35
   5   3  -2    9.67    0.50
   5   3  -2    8.57    0.35
  -5  -3   1  116.40    0.89
   5   3  -1  130.21    0.96
   5   3  -1  111.51    0.81
  -5  -3   0   58.89    0.60
   5   3   0   67.75    0.60
  -5  -3  -1   47.20    0.50
   5   3   1   59.88    0.57
   5   3   1   49.89    0.50
  -5  -3  -2    6.63    0.25
  -5  -3  -2    5.21    0.21
   5   3   2    6.80    0.28
   5   3   2    6.66    0.25
  -5  -3  -3  155.65    0.78
  -5  -3  -3  119.58    0.67
   5   3   3  165.79    0.74
   5   3   3  110.23    0.60
  -5  -3  -4   62.57    0.67
  -5  -3  -4   53.75    0.50
   5   3   4   49.00    0.43
  -5  -3  -5    0.53    0.21
  -5  -3  -5    0.53    0.18
   5   3   5    0.92    0.28
   5   3   5    0.07    0.35
   5   3   5    1.13    0.25
  -5  -3  -6  107.08    0.89
  -5  -3  -6  105.94    0.74
   5   3   6  124.47    0.81
   5   3   6  135.42    0.85
   5   3   6  108.88    0.71
  -5  -3  -7   20.91    0.46
  -5  -3  -7   25.05    0.46
   5   3   7   25.30    0.53
   5   3   7   28.10    0.60
   5   3   7   23.92    0.46
  -5  -3  -8    9.92    0.39
   5   3   8   11.27    0.50
   5   3   8    8.96    0.53
   5   3   8   10.10    0.43
  -5  -3  -9   30.76    0.57
   5   3   9   37.06    0.74
   5   3   9   26.93    0.57
   5   3  10    0.64    0.50
   5   3  10    0.74    0.39
   5   3  11    0.14    0.64
   5   3  12    1.59    0.81
   5   4  -6    1.10    0.67
  -5  -4   5    2.13    0.39
   5   4  -5    1.03    0.64
  -5  -4   4   14.67    0.46
   5   4  -4   17.65    0.71
  -5  -4   3   32.39    0.53
  -5  -4   3   41.95    1.06
   5   4  -3   42.16    0.78
  -5  -4   2   89.15    0.92
   5   4  -2  105.02    1.03
  -5  -4   1   43.69    0.50
  -5  -4   1   50.85    0.67
   5   4  -1   61.30    0.78
   5   4  -1   52.09    0.64
  -5  -4   0   46.81    0.46
  -5  -4   0   52.12    0.64
   5   4   0   63.96    0.71
   5   4   0   52.37    0.60
  -5  -4  -1   41.60    0.60
   5   4   1   44.18    0.60
   5   4   1   40.04    0.53
  -5  -4  -2  141.59    0.89
   5   4   2  201.04    1.10
   5   4   2  197.00    0.99
  -5  -4  -3  236.83    1.74
  -5  -4  -3  158.52    0.89
   5   4   3  230.70    1.06
   5   4   3  233.00    1.06
  -5  -4  -4   30.97    0.50
   5   4   4   50.31    0.57
   5   4   4   51.45    0.53
   5   4   4   36.53    0.71
  -5  -4  -5  149.56    0.99
   5   4   5  169.40    1.03
   5   4   5  171.92    0.96
   5   4   5  123.84    0.81
  -5  -4  -6    6.73    0.32
  -5  -4  -6    5.24    0.28
   5   4   6    8.93    0.39
   5   4   6    7.90    0.35
   5   4   6    4.07    0.32
  -5  -4  -7   10.13    0.35
  -5  -4  -7   10.81    0.35
   5   4   7    9.96    0.43
   5   4   7    8.96    0.39
   5   4   7    8.36    0.39
  -5  -4  -8    7.19    0.35
  -5  -4  -8    8.08    0.39
   5   4   8    9.04    0.50
   5   4   8    7.33    0.39
   5   4   8    6.70    0.43
  -5  -4  -9    4.39    0.35
   5   4   9    4.39    0.53
   5   4   9    4.43    0.43
   5   4  10    8.33    0.71
   5   4  11    0.21    0.67
   5   4  12    3.79    0.85
  -5  -5   5   14.56    0.57
   5   5  -5   18.18    0.81
  -5  -5   4   22.07    0.57
   5   5  -4   33.80    0.85
  -5  -5   3  179.85    1.24
   5   5  -3  263.33    1.74
  -5  -5   2    5.67    0.35
   5   5  -2    9.04    0.57
  -5  -5   1   63.39    0.67
  -5  -5   1   73.63    0.85
   5   5  -1   84.61    0.96
  -5  -5   0   61.97    0.64
  -5  -5   0   77.63    0.81
   5   5   0   87.34    0.92
   5   5   0   87.13    0.89
  -5  -5  -1   78.34    0.67
  -5  -5  -1   92.55    0.85
  -5  -5  -1   69.52    0.74
   5   5   1  103.89    0.92
   5   5   1   96.16    0.85
  -5  -5  -2   64.03    0.57
  -5  -5  -2   71.36    0.74
  -5  -5  -2   53.18    0.60
   5   5   2   81.99    0.78
   5   5   2   80.86    0.74
  -5  -5  -3   74.83    0.57
  -5  -5  -3   89.01    0.78
  -5  -5  -3   74.87    0.71
   5   5   3  108.74    0.85
   5   5   3  106.90    0.81
  -5  -5  -4    2.20    0.25
  -5  -5  -4    2.23    0.21
   5   5   4    3.12    0.39
   5   5   4    4.07    0.32
   5   5   4    2.69    0.28
  -5  -5  -5    3.15    0.28
  -5  -5  -5    2.59    0.25
   5   5   5    3.58    0.39
   5   5   5    4.71    0.43
   5   5   5    2.98    0.35
  -5  -5  -6    3.44    0.28
  -5  -5  -6    2.83    0.28
   5   5   6    3.65    0.43
   5   5   6    2.94    0.35
   5   5   6    3.72    0.39
  -5  -5  -7    0.74    0.28
  -5  -5  -7    0.11    0.21
  -5  -5  -7   -0.43    0.18
   5   5   7    0.43    0.39
   5   5   7   -0.07    0.28
   5   5   7    0.25    0.32
  -5  -5  -8   10.56    0.35
  -5  -5  -8    7.97    0.46
   5   5   8    9.32    0.53
   5   5   8    5.74    0.50
  -5  -5  -9   89.86    0.96
  -5  -5  -9   71.47    0.78
  -5  -5  -9   78.91    1.20
   5   5   9   94.89    1.06
   5   5  10   91.98    1.17
   5   5  11   20.52    0.92
   5   5  12    5.53    0.96
  -5  -6   4   52.16    0.85
   5   6  -4   72.74    1.17
  -5  -6   3    3.61    0.43
   5   6  -3   -0.04    0.57
  -5  -6   2   17.22    0.53
   5   6  -2   25.16    0.74
  -5  -6   1   24.13    0.53
   5   6  -1   34.58    0.78
  -5  -6   0   17.96    0.50
  -5  -6   0   18.67    0.50
   5   6   0   20.48    0.64
  -5  -6  -1   61.01    0.71
  -5  -6  -1   65.27    0.81
  -5  -6  -1   50.74    0.71
   5   6   1   74.97    0.89
  -5  -6  -2  275.52    1.38
  -5  -6  -2  337.85    1.67
  -5  -6  -2  233.36    1.38
   5   6   2  374.45    1.74
  -5  -6  -3  179.18    1.20
  -5  -6  -3  120.47    0.99
   5   6   3  183.82    1.20
   5   6   3  180.63    1.17
  -5  -6  -4    1.06    0.35
  -5  -6  -4    2.41    0.32
  -5  -6  -4    0.18    0.21
   5   6   4    0.18    0.35
   5   6   4    3.19    0.35
  -5  -6  -5   85.11    0.74
  -5  -6  -5   72.78    0.78
   5   6   5  100.20    0.96
   5   6   5   98.64    0.89
  -5  -6  -6   15.80    0.50
  -5  -6  -6   11.23    0.39
   5   6   6   15.52    0.50
   5   6   6    9.28    0.39
  -5  -6  -7    4.11    0.53
  -5  -6  -7    3.72    0.39
   5   6   7    5.49    0.57
   5   6   7    4.29    0.43
  -5  -6  -8    2.98    0.43
  -5  -6  -8    3.93    0.43
   5   6   8    2.91    0.53
   5   6   8    3.08    0.46
  -5  -6  -9    2.02    0.39
   5   6   9    1.24    0.57
  -5  -6 -10   20.27    0.57
   5   6  10   16.79    0.81
   5   6  11   11.41    0.85
   5   6  12    4.39    0.81
  -5  -7   3   -0.07    0.43
   5   7  -3    0.04    0.64
  -5  -7   2    1.06    0.43
   5   7  -2    0.00    0.60
  -5  -7   1    1.38    0.39
   5   7  -1    0.96    0.57
  -5  -7   0    1.06    0.39
   5   7   0    1.10    0.53
  -5  -7  -1   14.85    0.50
   5   7   1   16.05    0.67
  -5  -7  -2   23.88    0.53
   5   7   2   29.94    0.71
  -5  -7  -3    6.87    0.43
  -5  -7  -3    7.26    0.43
   5   7   3   10.42    0.57
  -5  -7  -4   47.76    0.71
  -5  -7  -4   51.45    0.74
   5   7   4   54.21    0.81
  -5  -7  -5   35.61    0.64
   5   7   5   40.11    0.78
  -5  -7  -7   10.49    0.50
  -5  -7  -7    9.25    0.39
   5   7   7   10.74    0.64
  -5  -7  -8    1.20    0.43
  -5  -7  -8    0.28    0.28
   5   7   8   -0.64    0.53
  -5  -7  -9    7.05    0.53
   5   7   9    7.51    0.74
  -5  -7 -10    1.63    0.46
   5   7  10    1.67    0.67
  -5  -7 -11   10.31    0.67
   5   7  11   13.25    1.06
  -5  -8   1   42.45    0.81
   5   8  -1   66.68    1.17
  -5  -8   0    4.46    0.50
   5   8   0    7.37    0.67
  -5  -8  -1   10.17    0.53
   5   8   1   13.39    0.71
  -5  -8  -2    4.32    0.46
   5   8   2    8.57    0.67
  -5  -8  -3   79.97    0.89
   5   8   3  113.77    1.20
  -5  -8  -4   43.37    0.78
   5   8   4   55.10    0.96
  -5  -8  -5    7.02    0.57
   5   8   5    5.39    0.67
  -5  -8  -6   50.67    0.85
   5   8   6   61.26    1.03
  -5  -8  -7    6.13    0.57
   5   8   7    6.98    0.78
  -5  -8  -8    1.49    0.28
   5   8   8    1.74    0.67
  -5  -8  -9   16.05    0.74
   5   8   9   17.61    0.92
  -5  -8 -10    7.37    0.67
   5   8  10    3.33    0.78
  -5  -8 -11    3.40    0.67
   5   8  11    8.65    0.96
  -5  -9   0   52.83    0.96
  -5  -9  -1   58.71    0.92
   5   9   1   88.44    1.28
  -5  -9  -2    9.53    0.53
   5   9   2   15.06    0.81
  -5  -9  -3    4.85    0.46
   5   9   3    9.28    0.71
  -5  -9  -4    5.03    0.57
   5   9   4    0.81    0.57
  -5  -9  -5    8.01    0.67
   5   9   5   10.77    0.74
  -5  -9  -6    6.80    0.71
   5   9   6    3.22    0.67
  -5  -9  -7    3.61    0.64
   5   9   7    1.74    0.64
  -5  -9  -8   -0.74    0.50
   5   9   8    2.41    0.78
   5   9   9    5.49    0.92
  -5  -9 -10   11.20    0.92
   5   9  10    4.25    0.96
  -5 -10  -3    0.04    0.46
  -5 -10  -4   -0.43    0.53
   5  10   4    0.60    0.67
  -5 -10  -5    2.13    0.67
   5  10   5    4.22    0.78
  -5 -10  -6    9.04    0.78
   5  10   6    5.92    0.81
  -5 -10  -7   11.23    0.85
   5  10   7    3.26    0.74
  -6   5   2    3.37    0.64
  -6   5   2    1.70    0.25
   6  -5  -2    4.11    0.46
  -6   5   1    1.31    0.57
   6  -5  -1    0.18    0.39
   6  -5  -1    1.70    0.46
  -6   5   0    1.67    0.57
   6  -5   0    1.17    0.43
  -6   5  -1    0.74    0.57
   6  -5   1    1.24    0.43
   6  -5   2   -0.14    0.39
  -6   4   4    3.33    0.35
   6  -4  -4    8.36    0.71
   6  -4  -4    5.67    0.53
  -6   4   3    1.10    0.28
   6  -4  -3    2.73    0.57
   6  -4  -3    1.28    0.43
   6  -4  -3    3.54    0.46
  -6   4   2    8.54    0.64
  -6   4   2    5.46    0.32
   6  -4  -2    7.30    0.74
   6  -4  -2    9.57    0.46
   6  -4  -2   10.42    0.46
  -6   4   1    6.38    0.57
  -6   4   1    4.46    0.25
  -6   4   0    6.45    0.57
  -6   4  -1    4.75    0.57
  -6   4  -2   38.73    0.89
  -6   4  -3   21.93    0.78
  -6   4  -4    0.39    0.53
  -6   4  -5    1.13    0.71
   6  -4   5    0.18    0.46
  -6   3   5    5.56    0.43
   6  -3  -5    5.92    0.71
   6  -3  -5    5.78    0.60
  -6   3   4    6.31    0.39
   6  -3  -4   12.05    0.64
   6  -3  -4    9.14    0.50
  -6   3   3   24.13    0.46
   6  -3  -3   34.51    0.60
   6  -3  -3   29.20    0.57
  -6   3   2    5.99    0.67
  -6   3   2    3.90    0.28
   6  -3  -2    3.97    0.35
  -6   3   1    6.80    0.53
  -6   3   1    4.25    0.25
  -6   3   0    8.29    0.53
  -6   3  -1   15.02    0.60
  -6   3  -2   28.88    0.71
  -6   3  -3    8.93    0.57
  -6   3  -4    2.73    0.60
  -6   3  -5    0.78    0.57
  -6   3  -6    0.81    0.60
   6  -3   6    0.67    0.50
  -6   3  -7    2.91    0.32
   6  -3   7    3.54    0.67
  -6   2   5   33.52    0.64
   6  -2  -5   44.29    0.85
   6  -2  -5   41.63    0.74
  -6   2   4   33.09    0.60
   6  -2  -4   43.01    0.74
   6  -2  -4   38.30    0.67
   6  -2  -4   36.89    0.67
  -6   2   3    2.59    0.32
  -6   2   3    1.70    0.28
   6  -2  -3    5.21    0.43
   6  -2  -3    1.88    0.39
   6  -2  -3    3.44    0.35
  -6   2   2   14.17    0.43
  -6   2   2   15.70    0.35
   6  -2  -2   17.43    0.43
   6  -2  -2   14.46    0.43
  -6   2   1   11.48    0.53
  -6   2   1   12.44    0.43
  -6   2   1    9.99    0.25
  -6   2   0   42.98    0.78
  -6   2   0   41.42    0.67
  -6   2  -1    0.39    0.39
  -6   2  -2   44.68    0.78
  -6   2  -3    0.00    0.43
  -6   2  -4   11.91    0.57
  -6   2  -5    1.03    0.46
  -6   2  -6    4.68    0.57
  -6   2  -6    2.94    0.25
  -6   2  -7   -0.96    0.53
  -6   2  -7    0.35    0.25
   6  -2   7    0.57    0.50
  -6   2  -8   -0.64    0.60
   6  -2   8    2.06    0.60
   6  -1  -6   23.28    0.78
  -6   1   5   -0.53    0.25
   6  -1  -5   -0.04    0.46
   6  -1  -5    0.50    0.43
  -6   1   4    1.95    0.35
  -6   1   4    1.88    0.32
   6  -1  -4    4.29    0.50
   6  -1  -4    0.25    0.39
   6  -1  -4    2.87    0.46
  -6   1   3    9.71    0.39
  -6   1   3   10.03    0.35
   6  -1  -3   14.49    0.50
   6  -1  -3   10.24    0.39
   6  -1  -3   14.07    0.46
  -6   1   2   52.48    0.67
  -6   1   2   48.08    0.53
   6  -1  -2   49.07    0.57
  -6   1   1   10.98    0.39
  -6   1   1   11.80    0.28
  -6   1   0   20.37    0.57
  -6   1   0   17.11    0.46
  -6   1  -1    0.00    0.35
  -6   1  -2    6.98    0.43
  -6   1  -2    6.34    0.35
  -6   1  -3   32.17    0.67
  -6   1  -4   21.08    0.57
  -6   1  -5   34.97    0.71
  -6   1  -6    5.70    0.50
  -6   1  -7    3.01    0.53
  -6   1  -7    3.54    0.28
   6  -1   7    7.30    0.46
  -6   1  -8    3.19    0.57
  -6   1  -8    2.62    0.32
   6  -1   8    2.83    0.46
   6  -1   8    4.50    0.53
  -6   1  -9    1.59    0.53
  -6   1  -9    1.74    0.32
   6  -1   9    3.12    0.57
   6  -1   9    1.95    0.57
   6   0  -6    4.50    0.71
  -6   0   5   11.48    0.46
   6   0  -5   10.52    0.60
  -6   0   4   14.07    0.46
  -6   0   4   14.56    0.46
   6   0  -4   17.33    0.57
   6   0  -4   15.38    0.50
  -6   0   3    6.59    0.39
  -6   0   3    7.44    0.35
   6   0  -3    8.01    0.46
   6   0  -3    6.70    0.43
  -6   0   2   11.91    0.43
  -6   0   2   12.33    0.35
   6   0  -2   13.04    0.46
   6   0  -2   12.22    0.39
  -6   0   1    0.25    0.25
  -6   0   1   -0.04    0.21
   6   0  -1   -0.46    0.25
  -6   0   0    9.07    0.39
  -6   0   0    9.60    0.25
  -6   0   0    9.81    0.25
  -6   0  -1    8.96    0.39
  -6   0  -2   33.20    0.60
  -6   0  -3   38.66    0.64
  -6   0  -4   70.76    0.85
  -6   0  -6   11.94    0.50
  -6   0  -6    8.22    0.25
  -6   0  -7    7.80    0.50
  -6   0  -7    5.81    0.28
   6   0   7    7.94    0.43
  -6   0  -8   13.11    0.53
  -6   0  -8    8.93    0.35
   6   0   8   10.17    0.50
   6   0   8   11.34    0.50
   6   0   8    9.50    0.46
  -6   0  -9    0.53    0.46
  -6   0  -9    0.39    0.25
   6   0   9    0.57    0.46
   6   0   9    1.24    0.50
   6   0   9    1.10    0.46
  -6   0 -10   -0.35    0.28
   6   0  10    1.77    0.64
   6   0  10    3.68    0.57
   6   1  -6    6.24    0.78
   6   1  -5   24.41    0.71
  -6  -1   4   35.40    0.64
   6   1  -4   48.75    0.81
  -6  -1   3    1.74    0.32
   6   1  -3    3.65    0.50
   6   1  -3    3.76    0.39
  -6  -1   2   89.01    0.78
   6   1  -2  119.65    0.96
   6   1  -2  101.66    0.81
  -6  -1   1   35.40    0.60
  -6  -1   1   31.68    0.46
   6   1  -1   34.69    0.50
  -6  -1   0  219.33    1.31
  -6  -1   0  209.62    0.92
  -6  -1  -1   41.56    0.64
  -6  -1  -1   37.27    0.35
  -6  -1  -2  167.24    1.17
  -6  -1  -3    0.99    0.28
  -6  -1  -4    3.44    0.43
  -6  -1  -4    3.30    0.32
  -6  -1  -5   13.15    0.46
  -6  -1  -5   12.83    0.43
  -6  -1  -6   22.82    0.57
  -6  -1  -6   16.23    0.50
  -6  -1  -6   15.13    0.28
  -6  -1  -7    6.70    0.46
  -6  -1  -7    2.44    0.25
   6   1   7    4.15    0.39
  -6  -1  -8    3.76    0.43
  -6  -1  -8    0.89    0.25
   6   1   8    1.67    0.43
   6   1   8    1.98    0.39
   6   1   8    1.20    0.39
  -6  -1  -9    4.78    0.53
  -6  -1  -9    2.55    0.32
   6   1   9    2.83    0.50
   6   1   9    4.82    0.46
   6   1   9    5.35    0.50
  -6  -1 -10    2.98    0.35
   6   1  10    5.00    0.64
   6   1  10    4.96    0.57
   6   2  -6  171.56    1.63
   6   2  -5    4.64    0.71
  -6  -2   4   -0.14    0.21
   6   2  -4    2.13    0.57
  -6  -2   3    5.35    0.32
   6   2  -3   11.27    0.60
  -6  -2   2    1.20    0.25
   6   2  -2    0.04    0.46
   6   2  -2    0.64    0.32
  -6  -2   1  107.36    0.81
   6   2  -1  138.36    0.96
   6   2  -1  121.25    0.85
  -6  -2   0  101.94    0.74
   6   2   0  151.61    0.89
   6   2   0  120.40    0.78
  -6  -2  -1   14.78    0.46
  -6  -2  -1   13.32    0.28
  -6  -2  -2    1.06    0.25
  -6  -2  -2    0.43    0.14
  -6  -2  -2    1.74    0.14
  -6  -2  -3    1.84    0.28
  -6  -2  -3    1.74    0.18
  -6  -2  -3    1.24    0.14
  -6  -2  -4    3.72    0.35
  -6  -2  -4    2.83    0.18
  -6  -2  -5    0.99    0.25
  -6  -2  -5    0.64    0.18
  -6  -2  -6   15.24    0.46
  -6  -2  -6   15.13    0.32
  -6  -2  -7    3.90    0.39
  -6  -2  -7    0.60    0.28
  -6  -2  -7    2.94    0.28
   6   2   7    4.15    0.64
   6   2   7    2.87    0.39
   6   2   7    1.56    0.32
  -6  -2  -8   26.50    0.57
  -6  -2  -8   19.91    0.43
   6   2   8   24.41    0.57
   6   2   8   29.23    0.57
   6   2   8   20.69    0.53
  -6  -2  -9   12.68    0.43
   6   2   9   14.28    0.60
   6   2   9   14.35    0.53
   6   2   9   12.51    0.53
  -6  -2 -10    0.89    0.32
   6   2  10    4.89    0.64
   6   2  10    4.50    0.60
   6   2  11   -0.28    0.64
   6   3  -5    7.65    0.71
   6   3  -4   15.34    0.71
  -6  -3   3   13.36    0.46
   6   3  -3   21.05    0.67
  -6  -3   2    0.18    0.25
   6   3  -2    0.14    0.46
  -6  -3   1   31.50    0.53
   6   3  -1   39.47    0.67
   6   3  -1   34.33    0.57
  -6  -3   0  125.57    0.89
   6   3   0  159.73    0.99
   6   3   0  137.55    0.89
  -6  -3  -1    0.21    0.18
   6   3   1    2.23    0.35
   6   3   1    0.67    0.28
  -6  -3  -2    6.41    0.25
  -6  -3  -2    5.70    0.21
   6   3   2    9.81    0.35
   6   3   2   10.24    0.32
  -6  -3  -3    2.13    0.28
  -6  -3  -3    0.64    0.18
  -6  -3  -3    1.03    0.18
  -6  -3  -4   42.94    0.64
  -6  -3  -4   47.48    0.46
  -6  -3  -4   32.77    0.39
  -6  -3  -5    4.18    0.32
  -6  -3  -5    3.37    0.21
  -6  -3  -6   10.20    0.39
  -6  -3  -6   10.49    0.32
   6   3   6   11.44    0.39
   6   3   6   13.11    0.39
   6   3   6   12.90    0.43
  -6  -3  -7    0.00    0.25
  -6  -3  -7   -0.39    0.25
   6   3   7    1.45    0.39
   6   3   7    0.57    0.32
   6   3   7   -0.07    0.32
  -6  -3  -8   11.20    0.46
  -6  -3  -8   12.33    0.39
   6   3   8   17.33    0.57
   6   3   8   17.43    0.50
   6   3   8   13.25    0.46
  -6  -3  -9   12.40    0.43
   6   3   9   16.26    0.64
   6   3   9   16.62    0.53
   6   3   9   12.90    0.50
  -6  -3 -10    0.04    0.28
   6   3  10    0.78    0.57
   6   3  10    1.42    0.46
   6   3  11    2.87    0.67
   6   4  -5    7.41    0.85
   6   4  -4    2.80    0.71
   6   4  -3    2.66    0.64
  -6  -4   2    3.65    0.35
   6   4  -2    4.82    0.60
  -6  -4   1   16.16    0.46
   6   4  -1   21.83    0.64
  -6  -4   0    4.25    0.28
   6   4   0   10.56    0.53
   6   4   0    5.70    0.35
  -6  -4  -1   32.00    0.50
   6   4   1   39.44    0.60
  -6  -4  -2  150.73    0.96
  -6  -4  -2  107.68    0.78
   6   4   2  184.46    1.03
   6   4   2  157.00    0.92
  -6  -4  -3   68.14    0.64
  -6  -4  -3   55.42    0.57
   6   4   3   80.61    0.67
  -6  -4  -4    1.35    0.28
  -6  -4  -4    0.85    0.25
  -6  -4  -4    0.14    0.18
   6   4   4    2.16    0.35
   6   4   4    2.41    0.35
   6   4   4    1.31    0.28
  -6  -4  -5   -0.43    0.21
  -6  -4  -5    0.71    0.21
   6   4   5    2.76    0.35
   6   4   5   -0.28    0.28
  -6  -4  -6   64.49    0.78
  -6  -4  -6   47.09    0.57
   6   4   6   66.86    0.71
   6   4   6   72.28    0.71
   6   4   6   48.79    0.57
  -6  -4  -7    0.04    0.25
  -6  -4  -7    2.09    0.32
   6   4   7   -0.07    0.39
   6   4   7   -0.18    0.32
   6   4   7    0.32    0.32
  -6  -4  -8   35.04    0.64
  -6  -4  -8   37.70    0.60
   6   4   8   43.37    0.74
   6   4   8   48.33    0.67
   6   4   8   34.76    0.60
  -6  -4  -9    6.02    0.43
  -6  -4  -9    6.02    0.39
   6   4   9    9.81    0.67
   6   4   9    6.66    0.46
  -6  -4 -10   16.44    0.50
   6   4  10   24.66    0.85
   6   4  10   16.90    0.60
   6   4  11   11.02    0.85
   6   4  12    1.67    0.89
   6   5  -4   16.02    0.81
   6   5  -3   -0.71    0.64
   6   5  -2   20.62    0.74
  -6  -5   1   40.96    0.67
   6   5  -1   47.98    0.85
  -6  -5   0   96.77    0.96
   6   5   0  112.71    1.10
  -6  -5  -1   17.57    0.46
  -6  -5  -1   13.22    0.39
   6   5   1   23.49    0.60
   6   5   1   21.54    0.50
  -6  -5  -2    1.52    0.28
  -6  -5  -2    0.25    0.18
   6   5   2    2.37    0.46
   6   5   2    1.88    0.39
  -6  -5  -3  162.21    1.06
  -6  -5  -3  116.93    0.89
   6   5   3  189.03    1.13
   6   5   3  186.69    1.13
  -6  -5  -4   50.10    0.60
  -6  -5  -4   39.47    0.53
   6   5   4   65.34    0.74
   6   5   4   60.80    0.74
  -6  -5  -5   68.56    0.81
  -6  -5  -5   54.46    0.64
   6   5   5   83.97    0.81
   6   5   5   53.75    0.64
  -6  -5  -6   13.64    0.43
  -6  -5  -6   12.44    0.39
   6   5   6   20.76    0.60
   6   5   6   13.96    0.46
  -6  -5  -7    4.64    0.35
  -6  -5  -7    4.25    0.32
   6   5   7    6.27    0.53
   6   5   7    5.63    0.53
   6   5   7    3.15    0.39
  -6  -5  -9    0.96    0.28
  -6  -5  -9   -0.25    0.28
   6   5   9    2.48    0.57
   6   5   9    1.88    0.43
   6   5  10    9.96    0.85
   6   5  12    1.74    0.89
   6   6  -3   21.86    0.85
   6   6  -2   79.12    1.17
  -6  -6   1   20.23    0.46
   6   6  -1   26.43    0.78
  -6  -6   0   46.49    0.60
   6   6   0   71.96    0.99
  -6  -6  -1    7.16    0.35
  -6  -6  -1    4.64    0.39
   6   6   1    8.08    0.60
  -6  -6  -2   78.09    0.67
  -6  -6  -2   93.47    0.92
  -6  -6  -2   75.83    0.92
   6   6   2  120.61    1.10
  -6  -6  -3  180.21    1.24
  -6  -6  -3  135.28    1.06
   6   6   3  208.20    1.31
  -6  -6  -4    0.07    0.25
  -6  -6  -4    0.85    0.21
   6   6   4    2.48    0.46
   6   6   4    0.67    0.35
  -6  -6  -5    7.97    0.39
  -6  -6  -5    5.53    0.28
   6   6   5   11.80    0.57
   6   6   5   12.68    0.46
  -6  -6  -6    3.15    0.35
  -6  -6  -6    3.08    0.28
   6   6   6    5.39    0.57
   6   6   6    5.17    0.43
   6   6   6    2.94    0.43
  -6  -6  -7    1.84    0.32
  -6  -6  -7    0.67    0.25
   6   6   7    0.39    0.50
   6   6   7    0.04    0.32
  -6  -6  -8   -0.32    0.28
  -6  -6  -8    0.18    0.28
   6   6   8    0.39    0.53
   6   6   8    0.60    0.39
  -6  -6  -9    1.06    0.28
   6   6   9   -1.59    0.57
  -6  -6 -10   19.10    0.53
   6   6  10   27.11    0.96
   6   6  11    9.35    0.96
   6   7  -2   26.47    0.96
  -6  -7   1    5.39    0.43
   6   7  -1    7.09    0.71
  -6  -7   0    3.30    0.35
   6   7   0    1.56    0.60
  -6  -7  -1    3.22    0.39
   6   7   1    4.46    0.64
  -6  -7  -2    1.17    0.32
   6   7   2    0.78    0.50
  -6  -7  -3    4.64    0.35
  -6  -7  -3    3.40    0.39
   6   7   3    4.39    0.57
  -6  -7  -4    9.46    0.39
  -6  -7  -4   12.47    0.46
   6   7   4   17.36    0.67
  -6  -7  -5    4.54    0.32
  -6  -7  -5    5.67    0.39
   6   7   5    6.31    0.64
  -6  -7  -6   31.64    0.60
   6   7   6   54.99    0.96
  -6  -7  -7    9.46    0.46
  -6  -7  -7    7.65    0.43
   6   7   7    8.08    0.74
  -6  -7  -8   50.95    0.74
   6   7   8   64.27    1.03
  -6  -7  -9    1.31    0.32
   6   7   9    0.43    0.67
  -6  -7 -10    1.03    0.28
   6   7  10    4.78    0.85
   6   7  11    5.35    0.89
  -6  -8   1   13.89    0.60
  -6  -8   0   77.74    0.96
   6   8   0  114.77    1.38
  -6  -8  -1    0.74    0.39
   6   8   1    1.35    0.64
  -6  -8  -2    7.72    0.46
   6   8   2    7.83    0.74
  -6  -8  -3    6.84    0.46
   6   8   3    5.14    0.64
  -6  -8  -4   22.71    0.53
   6   8   4   33.06    0.85
  -6  -8  -5    5.60    0.39
   6   8   5    6.66    0.74
  -6  -8  -6   29.55    0.64
   6   8   6   33.09    0.92
  -6  -8  -7   17.54    0.57
   6   8   7   21.01    0.96
  -6  -8  -8    1.67    0.43
   6   8   8   -0.21    0.71
  -6  -8  -9    1.77    0.32
   6   8   9    1.84    0.78
   6   8  10   -0.32    0.81
  -6  -9  -1   26.93    0.71
  -6  -9  -2    5.56    0.50
   6   9   2    3.37    0.71
  -6  -9  -3    5.17    0.53
   6   9   3    7.55    0.78
  -6  -9  -4    4.32    0.43
   6   9   4    5.35    0.78
  -6  -9  -5    4.75    0.43
   6   9   5    9.25    0.78
  -6  -9  -6   31.43    0.74
   6   9   6   37.31    1.06
  -6  -9  -7    6.80    0.60
   6   9   7    4.22    0.78
  -6  -9  -8    2.20    0.39
   6   9   8   -0.81    0.74
   6   9   9    6.73    0.99
  -6 -10  -5    5.31    0.46
  -6 -10  -6   20.44    0.74
   6  10   6   20.20    0.96
  -7   3   2    3.68    0.28
   7  -3  -2    4.39    0.46
   7  -3  -2    3.61    0.43
  -7   3   1   18.85    0.78
  -7   3   0   12.19    0.67
  -7   3  -1    0.35    0.50
  -7   3  -2   21.08    0.74
  -7   3  -3    1.98    0.57
  -7   3  -4   16.51    0.78
  -7   3  -5   12.90    0.81
  -7   2   3    9.60    0.39
   7  -2  -3   15.77    0.57
   7  -2  -3   14.07    0.53
   7  -2  -3   14.28    0.57
  -7   2   2   34.12    0.67
  -7   2   2   25.55    0.43
   7  -2  -2   29.05    0.57
  -7   2   1   24.77    0.60
  -7   2   0    1.52    0.53
  -7   2  -1    5.28    0.53
  -7   2  -2    1.67    0.53
  -7   2  -3   -0.96    0.43
  -7   2  -4    9.89    0.64
  -7   2  -5   -0.96    0.53
  -7   2  -6    3.68    0.71
  -7   2  -7    0.21    0.64
  -7   1   4   11.66    0.46
   7  -1  -4   21.65    0.64
   7  -1  -4   19.42    0.60
  -7   1   3   30.72    0.67
  -7   1   3   28.91    0.53
   7  -1  -3   41.77    0.71
   7  -1  -3   37.81    0.64
   7  -1  -3   41.81    0.71
  -7   1   2   43.16    0.71
  -7   1   2   37.63    0.53
   7  -1  -2   47.34    0.64
   7  -1  -2   51.13    0.67
  -7   1   1    4.64    0.43
  -7   1   1    4.64    0.25
  -7   1   0    3.54    0.39
  -7   1  -1    2.83    0.53
  -7   1  -1    3.79    0.43
  -7   1  -2    0.43    0.43
  -7   1  -2    0.00    0.32
  -7   1  -3    1.06    0.46
  -7   1  -4    1.45    0.50
  -7   1  -5   43.48    0.89
  -7   1  -6   40.71    0.89
  -7   1  -7   12.83    0.71
  -7   1  -8    1.91    0.60
  -7   1  -8    2.06    0.28
   7  -1   8    3.40    0.57
  -7   0   4    7.05    0.39
   7   0  -4   11.76    0.57
   7   0  -4    8.11    0.50
  -7   0   3   21.68    0.57
  -7   0   3   21.83    0.50
   7   0  -3   30.12    0.64
   7   0  -3   22.46    0.57
  -7   0   2   54.49    0.78
  -7   0   2   45.99    0.60
   7   0  -2   63.60    0.74
   7   0  -2   53.68    0.71
  -7   0   1   68.67    0.85
  -7   0   1   61.55    0.57
  -7   0   0    0.85    0.32
  -7   0  -1    5.24    0.39
  -7   0  -2    2.83    0.35
  -7   0  -3    5.21    0.53
  -7   0  -3    3.19    0.39
  -7   0  -4    0.99    0.46
  -7   0  -4    0.35    0.32
  -7   0  -5    8.15    0.57
  -7   0  -6   21.68    0.71
  -7   0  -7    9.67    0.60
  -7   0  -8    5.85    0.60
  -7   0  -8    1.28    0.25
   7   0   8    2.16    0.46
  -7   0  -9    7.30    0.64
  -7   0  -9    3.05    0.32
   7   0   9    5.85    0.60
   7   0   9    6.27    0.60
  -7  -1   4    0.85    0.35
  -7  -1   4    0.78    0.32
   7   1  -4   -1.20    0.53
  -7  -1   3    0.99    0.35
  -7  -1   3    1.49    0.28
   7   1  -3    3.26    0.57
  -7  -1   2   44.15    0.74
  -7  -1   2   33.77    0.57
   7   1  -2   55.03    0.78
   7   1  -2   37.95    0.64
  -7  -1   1   12.86    0.50
  -7  -1   1   10.91    0.32
   7   1  -1   13.32    0.46
  -7  -1   0   31.53    0.64
  -7  -1   0   29.69    0.39
  -7  -1  -1    3.65    0.39
  -7  -1  -2    6.45    0.43
  -7  -1  -3   36.71    0.67
  -7  -1  -4   -0.35    0.28
  -7  -1  -5   11.30    0.57
  -7  -1  -5    8.82    0.46
  -7  -1  -6    9.78    0.57
  -7  -1  -6    7.23    0.46
  -7  -1  -7    1.52    0.53
  -7  -1  -7    0.89    0.18
  -7  -1  -8    5.21    0.57
  -7  -1  -8   -0.32    0.18
   7   1   8    0.11    0.43
   7   1   8    0.11    0.39
  -7  -1  -9    1.67    0.57
  -7  -1  -9    1.42    0.28
   7   1   9   -0.78    0.43
   7   1   9    0.81    0.50
  -7  -1 -10    3.40    0.35
   7   1  10    8.36    0.67
   7   1  10   11.05    0.67
   7   2  -4   11.66    0.89
  -7  -2   3   14.31    0.46
   7   2  -3   20.44    0.74
  -7  -2   2   24.24    0.50
   7   2  -2   30.26    0.74
   7   2  -2   29.34    0.60
  -7  -2   1  111.90    0.89
   7   2  -1  148.43    1.06
   7   2  -1  128.41    0.96
  -7  -2   0   50.92    0.78
  -7  -2   0   42.31    0.53
   7   2   0   57.75    0.67
  -7  -2  -1    5.39    0.39
  -7  -2  -1    4.36    0.25
  -7  -2  -2  143.96    1.20
  -7  -2  -2  137.09    0.67
  -7  -2  -2   97.76    0.57
  -7  -2  -3   -0.18    0.28
  -7  -2  -4    9.96    0.43
  -7  -2  -5   18.99    0.53
  -7  -2  -6    5.00    0.39
  -7  -2  -7    1.63    0.35
  -7  -2  -7    1.42    0.25
  -7  -2  -8   -0.39    0.21
   7   2   8    0.78    0.43
   7   2   8   -0.53    0.39
   7   2   8    1.38    0.43
  -7  -2  -9   -0.07    0.25
   7   2   9    0.99    0.46
   7   2   9    2.02    0.46
   7   2   9    2.87    0.50
  -7  -2 -10   -0.14    0.28
   7   2  10    3.61    0.60
   7   2  10    1.77    0.60
   7   3  -4  125.01    1.38
  -7  -3   3   69.87    0.89
   7   3  -3  102.58    1.24
  -7  -3   2    4.04    0.35
   7   3  -2    6.98    0.64
  -7  -3   1    8.15    0.35
   7   3  -1    9.74    0.57
   7   3  -1   11.37    0.46
  -7  -3   0   -0.53    0.21
   7   3   0   -0.46    0.32
  -7  -3  -1    2.30    0.25
   7   3   1    1.31    0.35
  -7  -3  -2   19.56    0.53
  -7  -3  -2   19.35    0.35
  -7  -3  -2   13.39    0.32
  -7  -3  -3    1.74    0.35
  -7  -3  -3    1.88    0.21
  -7  -3  -3    1.38    0.18
  -7  -3  -4   -0.14    0.25
  -7  -3  -4    0.07    0.18
  -7  -3  -4    0.50    0.21
  -7  -3  -5    3.54    0.39
  -7  -3  -5    2.30    0.21
  -7  -3  -5    2.55    0.21
  -7  -3  -6   15.94    0.53
  -7  -3  -6   16.51    0.35
  -7  -3  -7    4.46    0.39
  -7  -3  -7    4.57    0.32
   7   3   7    7.41    0.43
   7   3   7    4.07    0.43
  -7  -3  -8    9.11    0.50
  -7  -3  -8   11.02    0.39
   7   3   8   13.89    0.57
   7   3   8   15.20    0.53
   7   3   8   12.22    0.53
  -7  -3  -9    0.25    0.28
   7   3   9    2.06    0.50
   7   3   9    0.21    0.43
   7   3   9    4.25    0.53
  -7  -3 -10    1.17    0.35
   7   3  10    6.17    0.71
   7   3  10    5.99    0.57
   7   3  11    3.12    0.71
   7   4  -3    8.72    0.81
  -7  -4   2    0.00    0.32
   7   4  -2    0.07    0.60
  -7  -4   1    2.13    0.32
   7   4  -1    3.08    0.60
  -7  -4   0    7.62    0.35
   7   4   0    9.18    0.60
   7   4   0    9.39    0.43
  -7  -4  -1    5.74    0.32
  -7  -4  -1    3.97    0.28
   7   4   1    6.70    0.50
   7   4   1    5.99    0.39
  -7  -4  -2    0.46    0.21
  -7  -4  -2    0.43    0.18
   7   4   2    0.71    0.39
   7   4   2    1.95    0.35
  -7  -4  -3   -0.25    0.28
  -7  -4  -3    0.14    0.21
  -7  -4  -3    0.50    0.21
   7   4   3   -0.46    0.32
  -7  -4  -4   17.04    0.50
  -7  -4  -4   15.31    0.35
  -7  -4  -4   10.84    0.32
   7   4   4   16.55    0.46
   7   4   4   17.26    0.50
   7   4   4   11.16    0.39
  -7  -4  -5   40.53    0.71
  -7  -4  -5   44.54    0.53
  -7  -4  -5   32.81    0.50
   7   4   5   52.37    0.64
   7   4   5   33.73    0.53
  -7  -4  -6    4.57    0.39
  -7  -4  -6    5.49    0.28
   7   4   6    7.30    0.46
   7   4   6    9.11    0.46
   7   4   6    6.63    0.43
  -7  -4  -7   13.85    0.50
  -7  -4  -7   12.44    0.39
   7   4   7   15.98    0.53
   7   4   7   15.41    0.53
   7   4   7   10.42    0.46
  -7  -4  -8    3.15    0.43
   7   4   8    4.68    0.53
   7   4   8    4.29    0.46
   7   4   8    6.41    0.50
  -7  -4  -9    0.85    0.39
  -7  -4  -9    0.89    0.35
   7   4   9    2.91    0.53
   7   4   9    5.14    0.53
   7   4   9    3.79    0.53
  -7  -4 -10    2.66    0.39
   7   4  10    1.70    0.67
   7   4  10    1.24    0.53
   7   4  11    3.15    0.78
   7   5  -3    6.52    0.85
   7   5  -2   11.62    0.78
  -7  -5   1   40.32    0.74
   7   5  -1   49.64    0.92
  -7  -5   0    4.39    0.39
   7   5   0    4.89    0.60
  -7  -5  -1   46.77    0.67
  -7  -5  -1   33.91    0.57
   7   5   1   55.91    0.85
  -7  -5  -2    2.94    0.32
  -7  -5  -2    2.62    0.32
   7   5   2    5.21    0.50
   7   5   2    2.98    0.46
  -7  -5  -3   56.87    0.67
  -7  -5  -3   46.20    0.60
   7   5   3   78.38    0.85
   7   5   3   67.00    0.78
  -7  -5  -4   25.09    0.50
  -7  -5  -4   18.57    0.43
   7   5   4   35.47    0.64
   7   5   4   34.58    0.64
  -7  -5  -5   34.30    0.67
  -7  -5  -5   36.67    0.57
  -7  -5  -5   30.40    0.50
   7   5   5   47.73    0.71
   7   5   5   45.67    0.64
   7   5   5   28.59    0.57
  -7  -5  -6    3.65    0.39
  -7  -5  -6    2.59    0.32
   7   5   6    4.57    0.50
   7   5   6    5.00    0.46
   7   5   6    4.32    0.43
  -7  -5  -7    5.17    0.50
  -7  -5  -7    3.68    0.32
   7   5   7    5.21    0.60
   7   5   7    6.13    0.50
   7   5   7    4.85    0.50
  -7  -5  -8   -0.21    0.28
  -7  -5  -8    0.67    0.32
   7   5   8    0.21    0.50
   7   5   8    0.32    0.39
   7   5   8    0.32    0.43
  -7  -5  -9    2.06    0.35
  -7  -5  -9    1.67    0.35
   7   5   9    3.76    0.64
   7   5   9    4.43    0.50
  -7  -5 -10    2.62    0.39
   7   5  10    6.84    0.85
   7   5  10    4.96    0.60
   7   5  11   53.89    1.20
   7   6  -2   57.61    1.13
   7   6  -1   19.88    0.85
   7   6   0    8.57    0.67
  -7  -6  -1   15.20    0.50
   7   6   1   21.05    0.74
  -7  -6  -2    7.33    0.39
  -7  -6  -2    4.57    0.32
   7   6   2    8.01    0.60
  -7  -6  -3  119.27    1.06
  -7  -6  -3   92.30    0.92
   7   6   3  154.66    1.24
  -7  -6  -4   33.16    0.60
  -7  -6  -4   25.83    0.50
   7   6   4   51.70    0.85
  -7  -6  -5   46.27    0.67
  -7  -6  -5   38.44    0.60
   7   6   5   66.58    0.92
   7   6   5   65.90    0.81
  -7  -6  -6    1.52    0.35
  -7  -6  -6    3.12    0.32
   7   6   6    3.68    0.57
   7   6   6    1.35    0.71
   7   6   6    2.83    0.43
  -7  -6  -7    1.98    0.35
   7   6   7   -1.31    0.50
   7   6   7    0.04    0.35
  -7  -6  -8    1.49    0.35
  -7  -6  -8   -0.64    0.25
   7   6   8    2.73    0.64
   7   6   8    0.71    0.39
  -7  -6  -9    1.17    0.35
   7   6   9    1.03    0.64
   7   6   9    2.48    0.53
  -7  -6 -10    0.46    0.35
   7   6  10   -0.57    0.71
   7   6  11    3.58    0.85
   7   7  -1    2.69    0.74
   7   7   0   11.69    0.78
   7   7   1   57.47    1.06
   7   7   2   11.73    0.71
  -7  -7  -3    6.77    0.46
  -7  -7  -4    5.24    0.39
   7   7   4    5.21    0.64
  -7  -7  -5   -0.07    0.28
   7   7   5    2.41    0.57
  -7  -7  -6    0.39    0.32
   7   7   6    2.23    0.60
  -7  -7  -7    0.57    0.35
   7   7   7    1.56    0.67
  -7  -7  -8    0.21    0.35
   7   7   8    1.20    0.67
  -7  -7  -9    2.09    0.39
   7   7   9    2.91    0.78
  -7  -7 -10    0.07    0.32
   7   7  10   -0.28    0.74
   7   7  11    2.76    0.92
   7   8   1    7.55    0.85
   7   8   2    1.56    0.67
   7   8   3    0.92    0.64
   7   8   4    1.28    0.64
   7   8   5   15.52    0.81
   7   8   6   21.58    0.89
  -7  -8  -7    4.22    0.50
   7   8   7    5.21    0.78
  -7  -8  -8   16.97    0.60
   7   8   8   24.20    1.06
  -7  -8  -9   -0.18    0.35
   7   8   9    1.67    0.81
  -7  -8 -10    1.49    0.35
   7   8  10    0.96    0.81
   7   9   3   36.00    1.03
   7   9   4    9.53    0.78
   7   9   5   -0.43    0.67
   7   9   6    8.40    0.89
   7   9   7    4.00    0.81
  -7  -9  -8    4.15    0.50
   7   9   8   11.16    1.03
  -8   2  -2   12.86    0.71
  -8   2  -3    0.78    0.60
  -8   2  -4   12.72    0.78
  -8   1   2    3.93    0.57
  -8   1   2    3.54    0.28
   8  -1  -2    3.79    0.46
   8  -1  -2    7.23    0.57
  -8   1   1    8.26    0.53
  -8   1   0   30.08    0.71
  -8   1  -1   13.43    0.60
  -8   1  -2    2.69    0.46
  -8   1  -3    1.35    0.60
  -8   1  -4    1.42    0.57
  -8   1  -5    1.67    0.64
  -8   0   2    4.93    0.46
  -8   0   2    2.76    0.28
   8   0  -2    5.81    0.53
  -8   0   1   34.62    0.74
  -8   0   1   23.14    0.39
  -8   0   0   13.18    0.53
  -8   0  -1    8.11    0.50
  -8   0  -2    0.25    0.39
  -8   0  -4    2.66    0.60
  -8   0  -4    0.18    0.35
  -8   0  -5    3.58    0.64
  -8   0  -6    7.80    0.71
  -8   0  -7   13.22    0.74
  -8  -1   3    0.14    0.35
  -8  -1   2    1.49    0.39
  -8  -1   2    2.23    0.28
   8   1  -2    3.51    0.57
  -8  -1   1    4.75    0.43
  -8  -1   1    2.73    0.28
   8   1  -1    6.77    0.50
  -8  -1   0    5.17    0.46
  -8  -1   0    3.86    0.25
  -8  -1  -1    4.32    0.46
  -8  -1  -2   20.98    0.64
  -8  -1  -3   -0.39    0.35
  -8  -1  -4   23.63    0.64
  -8  -1  -5    0.85    0.39
  -8  -1  -6   -0.39    0.35
  -8  -1  -7    6.48    0.67
  -8  -1  -8    6.59    0.67
  -8  -1  -9    2.55    0.28
  -8  -2   3   -0.25    0.43
  -8  -2   2    1.49    0.43
  -8  -2   2   -0.32    0.25
  -8  -2   1    5.74    0.46
  -8  -2   1    4.18    0.32
   8   2  -1    8.86    0.60
   8   2  -1    9.74    0.53
  -8  -2   0    0.92    0.35
  -8  -2   0    0.99    0.25
   8   2   0    1.63    0.46
  -8  -2  -1   19.20    0.60
  -8  -2  -1   15.91    0.35
  -8  -2  -1   10.67    0.28
  -8  -2  -2   38.83    0.78
  -8  -2  -3    9.81    0.53
  -8  -2  -4    2.06    0.39
  -8  -2  -5    1.06    0.39
  -8  -2  -6    1.35    0.39
  -8  -2  -7    7.05    0.50
  -8  -2  -8   -0.04    0.21
  -8  -2  -9    0.92    0.25
   8   2   9    0.39    0.53
   8   2   9    3.58    0.57
  -8  -3   2    3.54    0.39
   8   3  -2    9.18    0.74
  -8  -3   1    9.64    0.39
   8   3  -1   15.13    0.71
  -8  -3   0    3.76    0.50
  -8  -3   0    2.62    0.28
   8   3   0    3.19    0.53
   8   3   0    4.54    0.46
  -8  -3  -1   38.05    0.78
  -8  -3  -1   34.51    0.53
  -8  -3  -1   25.87    0.43
   8   3   1   48.37    0.71
  -8  -3  -2   69.94    0.96
  -8  -3  -2   64.42    0.60
  -8  -3  -2   47.20    0.53
  -8  -3  -3    5.28    0.46
  -8  -3  -3    3.44    0.25
  -8  -3  -4   13.68    0.57
  -8  -3  -4   14.17    0.28
  -8  -3  -5   10.42    0.50
  -8  -3  -5    6.80    0.25
  -8  -3  -6    0.11    0.35
  -8  -3  -6    0.11    0.18
  -8  -3  -6    0.85    0.25
  -8  -3  -7    1.42    0.43
  -8  -3  -7    1.03    0.25
  -8  -3  -8    4.25    0.50
  -8  -3  -8    5.28    0.32
   8   3   8    5.56    0.53
   8   3   8    4.61    0.53
  -8  -3  -9   -0.39    0.25
   8   3   9    1.24    0.50
   8   3   9    0.96    0.57
  -8  -3 -10    0.60    0.28
   8   3  10    2.66    0.60
   8   3  10    1.77    0.67
   8   4  -2   53.79    1.06
  -8  -4   1    5.49    0.39
   8   4  -1   13.89    0.74
  -8  -4   0   18.71    0.50
   8   4   0   25.72    0.71
  -8  -4  -1    3.68    0.32
  -8  -4  -1    1.77    0.28
   8   4   1    2.37    0.50
   8   4   1    4.46    0.43
  -8  -4  -2    8.43    0.53
  -8  -4  -2    5.17    0.32
  -8  -4  -2    7.02    0.32
   8   4   2    7.97    0.50
   8   4   2    9.21    0.46
  -8  -4  -3    0.32    0.35
  -8  -4  -3   -0.32    0.21
  -8  -4  -3    0.78    0.21
   8   4   3    2.06    0.43
   8   4   3   -0.43    0.35
  -8  -4  -4   -0.35    0.32
  -8  -4  -4    0.43    0.21
  -8  -4  -4    0.57    0.21
   8   4   4    0.46    0.46
  -8  -4  -5    2.73    0.43
  -8  -4  -5    1.88    0.25
  -8  -4  -5    3.19    0.28
   8   4   5    7.97    0.53
   8   4   5    4.54    0.39
  -8  -4  -6    0.25    0.39
  -8  -4  -6    0.35    0.21
  -8  -4  -6    1.45    0.28
   8   4   6    1.91    0.46
  -8  -4  -7    0.21    0.35
  -8  -4  -7    1.10    0.32
   8   4   7    1.59    0.43
   8   4   7    2.13    0.50
   8   4   7    4.82    0.50
  -8  -4  -8    5.63    0.50
  -8  -4  -8    3.30    0.32
   8   4   8    7.30    0.57
   8   4   8    9.42    0.57
   8   4   8    6.84    0.57
  -8  -4  -9    2.48    0.50
  -8  -4  -9   -0.18    0.28
   8   4   9    1.17    0.50
   8   4   9    0.71    0.50
   8   4   9    0.39    0.53
  -8  -4 -10    0.04    0.28
   8   4  10    5.39    0.71
   8   4  10    3.72    0.67
   8   5  -1   10.77    0.78
  -8  -5   0    1.49    0.35
  -8  -5   0    1.56    0.28
   8   5   0    1.95    0.64
  -8  -5  -1    1.98    0.32
  -8  -5  -1    3.22    0.32
   8   5   1    4.36    0.64
  -8  -5  -2    9.71    0.43
  -8  -5  -2    9.28    0.39
   8   5   2   14.28    0.64
  -8  -5  -3    5.35    0.35
  -8  -5  -3    5.78    0.32
   8   5   3    9.42    0.57
   8   5   3    9.67    0.57
  -8  -5  -4   26.15    0.71
  -8  -5  -4   26.47    0.53
  -8  -5  -4   21.54    0.46
   8   5   4   33.24    0.71
   8   5   4   39.22    0.78
  -8  -5  -5   55.06    0.89
  -8  -5  -5   52.94    0.67
  -8  -5  -5   42.48    0.60
   8   5   5   74.59    0.85
   8   5   5   76.11    0.85
  -8  -5  -6    7.65    0.53
  -8  -5  -6    8.82    0.39
  -8  -5  -6    7.30    0.35
   8   5   6   11.09    0.57
   8   5   6   14.35    0.57
   8   5   6    8.26    0.50
  -8  -5  -7    7.19    0.53
  -8  -5  -7    7.58    0.39
   8   5   7   11.09    0.64
   8   5   7    8.47    0.57
   8   5   7    5.31    0.53
  -8  -5  -8    6.55    0.50
  -8  -5  -8    9.04    0.43
   8   5   8    8.68    0.67
   8   5   8    6.77    0.53
   8   5   8    9.04    0.60
  -8  -5  -9    0.14    0.39
   8   5   9    1.42    0.60
   8   5   9    1.17    0.53
  -8  -5 -10    1.24    0.46
  -8  -5 -10    1.31    0.39
   8   5  10    0.32    0.67
   8   5  10    2.44    0.60
   8   6   0   25.33    0.89
  -8  -6  -1    4.07    0.39
   8   6   1    7.41    0.74
  -8  -6  -2   18.32    0.53
  -8  -6  -2   12.79    0.43
   8   6   2   23.42    0.78
  -8  -6  -3    1.74    0.32
  -8  -6  -3    2.41    0.35
   8   6   3    2.02    0.57
  -8  -6  -4   47.23    0.71
  -8  -6  -4   36.39    0.60
   8   6   4   67.25    0.96
  -8  -6  -5   39.61    0.81
  -8  -6  -5   32.14    0.60
  -8  -6  -5   27.53    0.53
   8   6   5   62.82    0.96
  -8  -6  -6    5.17    0.50
  -8  -6  -6    3.54    0.35
  -8  -6  -6    5.42    0.35
   8   6   6    6.91    0.71
   8   6   6    5.74    0.50
  -8  -6  -7    8.89    0.57
  -8  -6  -7    9.25    0.43
   8   6   7   13.96    0.74
   8   6   7    8.65    0.53
  -8  -6  -8    2.16    0.50
  -8  -6  -8    2.48    0.39
   8   6   8    5.49    0.67
   8   6   8    2.27    0.46
  -8  -6  -9    1.38    0.46
  -8  -6  -9    0.00    0.35
   8   6   9    1.45    0.67
   8   6   9    1.49    0.50
  -8  -6 -10    1.63    0.50
   8   6  10    1.42    0.78
   8   7   1   14.03    0.85
   8   7   2    0.67    0.60
   8   7   3    1.74    0.64
  -8  -7  -4    2.34    0.39
   8   7   4    2.13    0.64
  -8  -7  -5    1.17    0.35
   8   7   5    2.59    0.64
  -8  -7  -6    1.59    0.46
  -8  -7  -6    3.68    0.43
   8   7   6    7.05    0.81
  -8  -7  -7    1.35    0.46
  -8  -7  -7    0.60    0.32
   8   7   7    2.02    0.74
  -8  -7  -8   13.61    0.60
   8   7   8   23.00    0.96
  -8  -7  -9   14.07    0.60
   8   7   9   19.84    0.99
  -8  -7 -10    4.75    0.57
   8   7  10    8.26    0.99
   8   8   3    6.73    0.81
   8   8   4   -1.06    0.60
   8   8   5   12.72    0.81
   8   8   6    6.02    0.78
  -8  -8  -7    0.14    0.46
   8   8   7    3.47    0.81
  -8  -8  -8    5.17    0.53
   8   8   8   11.83    1.03
  -8  -8  -9    3.68    0.53
   8   8   9   10.17    1.06
  -9   0  -1    9.39    0.60
  -9   0  -2    3.86    0.57
  -9   0  -3    6.17    0.64
  -9   0  -4    1.06    0.50
  -9  -1   0    7.05    0.53
  -9  -1  -1    3.12    0.53
  -9  -1  -2    1.95    0.46
  -9  -1  -3    0.92    0.43
  -9  -1  -4    1.63    0.46
  -9  -1  -5    1.91    0.46
  -9  -1  -6    2.87    0.57
  -9  -2   0    0.99    0.43
  -9  -2   0    0.46    0.21
   9   2   0    1.10    0.57
  -9  -2  -1   11.73    0.60
  -9  -2  -2    8.11    0.57
  -9  -2  -3    4.32    0.50
  -9  -2  -4   20.41    0.71
  -9  -2  -5   -0.67    0.39
  -9  -2  -6    2.06    0.57
  -9  -2  -7    3.93    0.57
  -9  -3   0    5.92    0.53
  -9  -3   0    5.92    0.35
   9   3   0    8.36    0.78
  -9  -3  -1    1.84    0.46
  -9  -3  -1    1.10    0.25
  -9  -3  -1    2.23    0.25
   9   3   1    6.13    0.60
  -9  -3  -2   -0.74    0.39
  -9  -3  -2    0.07    0.18
  -9  -3  -2    0.71    0.21
  -9  -3  -3    2.52    0.50
  -9  -3  -4    8.26    0.57
  -9  -3  -5    5.70    0.53
  -9  -3  -6    0.32    0.43
  -9  -3  -7   -1.10    0.39
  -9  -3  -8    4.15    0.57
  -9  -4   0    5.07    0.60
  -9  -4   0    0.99    0.28
  -9  -4   0    3.37    0.32
   9   4   0    4.82    0.71
  -9  -4  -1    5.56    0.57
  -9  -4  -1    4.57    0.35
  -9  -4  -1    3.51    0.28
   9   4   1    7.09    0.60
  -9  -4  -2    4.50    0.53
  -9  -4  -2    1.17    0.25
  -9  -4  -2    0.99    0.25
   9   4   2   -0.04    0.46
   9   4   2    1.81    0.53
  -9  -4  -3   14.28    0.64
  -9  -4  -3   14.78    0.43
  -9  -4  -3   11.41    0.35
   9   4   3   17.96    0.64
  -9  -4  -4   17.04    0.67
  -9  -4  -4   15.02    0.39
  -9  -4  -4   12.33    0.35
   9   4   4   21.83    0.67
  -9  -4  -5    2.34    0.46
  -9  -4  -5    3.26    0.28
  -9  -4  -5    2.30    0.32
  -9  -4  -6   -0.04    0.43
  -9  -4  -6    0.64    0.25
  -9  -4  -6    1.63    0.28
  -9  -4  -7    1.10    0.50
  -9  -4  -7    2.34    0.28
  -9  -4  -7    1.06    0.28
   9   4   7    3.65    0.60
   9   4   7    7.62    0.60
  -9  -4  -8    1.03    0.50
  -9  -4  -8    2.80    0.32
   9   4   8    1.59    0.53
   9   4   8    7.23    0.57
  -9  -4  -9    2.06    0.50
  -9  -4  -9    1.38    0.32
   9   4   9    5.92    0.67
  -9  -5  -1    1.91    0.35
  -9  -5  -1    1.42    0.32
   9   5   1    2.94    0.64
  -9  -5  -2    2.55    0.53
  -9  -5  -2    5.46    0.39
  -9  -5  -2    3.19    0.32
  -9  -5  -3    5.03    0.57
  -9  -5  -3    3.33    0.35
  -9  -5  -3    2.87    0.32
   9   5   3    4.61    0.57
  -9  -5  -4    1.77    0.46
  -9  -5  -4    0.39    0.28
  -9  -5  -4    0.53    0.25
   9   5   4    4.43    0.53
   9   5   4   -0.04    0.53
  -9  -5  -5   15.31    0.67
  -9  -5  -5   13.39    0.43
  -9  -5  -5   12.22    0.43
   9   5   5   20.69    0.67
   9   5   5   25.12    0.74
  -9  -5  -6    0.92    0.50
  -9  -5  -6    0.50    0.28
   9   5   6    2.06    0.50
   9   5   6    7.23    0.60
   9   5   6    4.32    0.53
  -9  -5  -7    3.33    0.50
  -9  -5  -7    1.63    0.28
  -9  -5  -7    2.09    0.32
   9   5   7    2.87    0.53
   9   5   7    7.90    0.64
   9   5   7    2.80    0.50
  -9  -5  -8    1.13    0.50
  -9  -5  -8    0.64    0.32
   9   5   8    5.63    0.67
   9   5   8    0.25    0.53
  -9  -5  -9    0.81    0.50
  -9  -5  -9    3.44    0.39
   9   5   9    0.71    0.60
   9   5   9    3.37    0.71
  -9  -6  -2    1.28    0.35
   9   6   2    4.11    0.71
  -9  -6  -3    2.69    0.39
  -9  -6  -3    3.22    0.35
   9   6   3    0.46    0.60
  -9  -6  -4   -0.46    0.46
  -9  -6  -4    0.85    0.32
  -9  -6  -4    0.64    0.28
  -9  -6  -5   29.09    0.81
  -9  -6  -5   24.24    0.57
  -9  -6  -5   23.99    0.53
   9   6   5   41.53    0.89
  -9  -6  -6    7.83    0.60
  -9  -6  -6    6.02    0.43
  -9  -6  -6    8.40    0.43
   9   6   6   10.03    0.74
  -9  -6  -7    5.99    0.57
  -9  -6  -7    5.74    0.43
  -9  -6  -7    8.72    0.43
   9   6   7   14.99    0.81
   9   6   7    7.48    0.60
  -9  -6  -8    3.08    0.57
  -9  -6  -8    2.23    0.35
  -9  -6  -8    1.52    0.39
   9   6   8    4.25    0.67
   9   6   8    5.95    0.60
  -9  -6  -9    4.46    0.64
  -9  -6  -9    3.72    0.43
  -9  -7  -4    4.04    0.43
   9   7   4    9.07    0.81
  -9  -7  -5    2.23    0.53
  -9  -7  -5    3.68    0.43
   9   7   5    6.24    0.74
  -9  -7  -6    3.05    0.57
  -9  -7  -6    1.56    0.35
   9   7   6    3.58    0.78
  -9  -7  -7   -0.64    0.46
  -9  -7  -7    0.99    0.35
   9   7   7    0.99    0.71
  -9  -7  -8    1.77    0.53
  -9  -7  -8    1.98    0.35
   9   7   8    6.84    0.96

_computing_structure_solution     'SHELXT 2014/4 (Sheldrick, 2014)'
;
_shelx_hkl_checksum              4010
loop_
_space_group_symop_operation_xyz
'x, y, z'
'-x, -y, -z'
loop_
_atom_site_label
_atom_site_type_symbol
_atom_site_fract_x
_atom_site_fract_y
_atom_site_fract_z
_atom_site_U_iso_or_equiv
_atom_site_adp_type
_atom_site_occupancy
_atom_site_site_symmetry_order
_atom_site_calc_flag
S1 S 0.73393(17) 0.51968(17) 0.06506(15) 0.0505(4) Uani 1 1 d
S2 S 0.5261(2) 0.75222(16) 0.12173(16) 0.0588(4) Uani 1 1 d
F2 F 0.4269(4) 0.1096(4) 0.2747(3) 0.0524(7) Uani 1 1 d
F3 F 0.2096(4) -0.1049(4) 0.5013(3) 0.0525(7) Uani 1 1 d
F6 F 0.2226(5) 0.5144(4) 0.5784(3) 0.0573(8) Uani 1 1 d
F5 F 0.0088(5) 0.2948(5) 0.8039(3) 0.0612(8) Uani 1 1 d
N1 N 0.6178(5) 0.3682(5) 0.2023(4) 0.0426(9) Uani 1 1 d
N2 N 0.3822(6) 0.6305(5) 0.2636(5) 0.0493(10) Uani 1 1 d
C1 C 0.3320(5) 0.3238(5) 0.4163(4) 0.0306(8) Uani 1 1 d
C0 C 0.4504(6) 0.4470(5) 0.2876(4) 0.0305(8) Uani 1 1 d
C3 C 0.2139(6) 0.0464(5) 0.5205(5) 0.0339(8) Uani 1 1 d
C2 C 0.3255(6) 0.1600(6) 0.4033(5) 0.0336(8) Uani 1 1 d
C4 C 0.1030(6) 0.0881(6) 0.6598(5) 0.0361(9) Uani 1 1 d
C6 C 0.2216(6) 0.3637(6) 0.5549(5) 0.0361(9) Uani 1 1 d
N3 N -0.1144(6) -0.1198(6) 0.8710(6) 0.0622(13) Uani 1 1 d
C5 C 0.1105(6) 0.2501(6) 0.6732(5) 0.0377(9) Uani 1 1 d
C7 C -0.0168(6) -0.0280(7) 0.7786(5) 0.0436(10) Uani 1 1 d
loop_
_atom_site_aniso_label
_atom_site_aniso_U_11
_atom_site_aniso_U_22
_atom_site_aniso_U_33
_atom_site_aniso_U_23
_atom_site_aniso_U_13
_atom_site_aniso_U_12
S1 0.0434(6) 0.0410(6) 0.0484(7) -0.0109(5) 0.0123(5) -0.0198(5)
S2 0.0582(8) 0.0287(6) 0.0565(8) -0.0013(5) 0.0119(6) -0.0181(5)
F2 0.0681(18) 0.0513(16) 0.0422(14) -0.0269(12) 0.0096(12) -0.0311(14)
F3 0.0653(18) 0.0355(14) 0.0616(18) -0.0163(12) -0.0082(14) -0.0260(13)
F6 0.084(2) 0.0483(16) 0.0486(16) -0.0252(13) 0.0064(14) -0.0398(15)
F5 0.0722(19) 0.074(2) 0.0372(15) -0.0264(14) 0.0119(13) -0.0356(17)
N1 0.0424(19) 0.0310(18) 0.044(2) -0.0109(15) 0.0053(15) -0.0172(15)
N2 0.045(2) 0.0315(18) 0.048(2) -0.0096(16) 0.0110(17) -0.0130(16)
C1 0.0310(18) 0.0281(18) 0.0307(19) -0.0053(15) -0.0067(15) -0.0118(15)
C0 0.0351(19) 0.0270(18) 0.0264(17) -0.0055(14) -0.0038(15) -0.0127(15)
C3 0.040(2) 0.0269(18) 0.038(2) -0.0090(16) -0.0104(17) -0.0125(16)
C2 0.037(2) 0.0301(19) 0.0317(19) -0.0102(16) -0.0052(16) -0.0099(16)
C4 0.0334(19) 0.034(2) 0.031(2) 0.0003(16) -0.0039(16) -0.0152(16)
C6 0.045(2) 0.032(2) 0.0310(19) -0.0094(16) -0.0025(16) -0.0183(17)
N3 0.049(2) 0.051(3) 0.060(3) 0.007(2) 0.000(2) -0.027(2)
C5 0.042(2) 0.043(2) 0.0287(19) -0.0143(17) -0.0029(16) -0.0148(18)
C7 0.038(2) 0.041(2) 0.045(2) -0.0054(19) -0.0080(18) -0.0140(18)
loop_
_atom_type_symbol
_atom_type_description
_atom_type_scat_dispersion_real
_atom_type_scat_dispersion_imag
_atom_type_scat_source
C C 0.0033 0.0016 'International Tables Vol C Tables 4.2.6.8 and 6.1.1.4'
N N 0.0061 0.0033 'International Tables Vol C Tables 4.2.6.8 and 6.1.1.4'
F F 0.0171 0.0103 'International Tables Vol C Tables 4.2.6.8 and 6.1.1.4'
S S 0.1246 0.1234 'International Tables Vol C Tables 4.2.6.8 and 6.1.1.4'
loop_
_geom_angle_atom_site_label_1
_geom_angle_atom_site_label_2
_geom_angle_atom_site_label_3
_geom_angle
N1 S1 S2 94.73(19)
N2 S2 S1 94.39(19)
C0 N1 S1 113.4(3)
C0 N2 S2 113.9(3)
C6 C1 C2 116.4(4)
C6 C1 C0 122.1(4)
C2 C1 C0 121.5(4)
N2 C0 N1 123.5(4)
N2 C0 C1 118.0(4)
N1 C0 C1 118.5(4)
F3 C3 C2 119.8(4)
F3 C3 C4 119.2(4)
C2 C3 C4 121.0(4)
F2 C2 C3 117.0(4)
F2 C2 C1 120.9(4)
C3 C2 C1 122.1(4)
C3 C4 C5 117.0(4)
C3 C4 C7 120.4(4)
C5 C4 C7 122.6(4)
F6 C6 C5 117.7(4)
F6 C6 C1 120.4(4)
C5 C6 C1 121.9(4)
F5 C5 C6 119.2(4)
F5 C5 C4 119.2(4)
C6 C5 C4 121.6(4)
N3 C7 C4 178.5(5)
loop_
_geom_bond_atom_site_label_1
_geom_bond_atom_site_label_2
_geom_bond_distance
S1 N1 1.640(4)
S1 S2 2.079(3)
S2 N2 1.636(4)
F2 C2 1.335(5)
F3 C3 1.332(5)
F6 C6 1.339(5)
F5 C5 1.331(5)
N1 C0 1.328(5)
N2 C0 1.327(6)
C1 C6 1.389(6)
C1 C2 1.410(6)
C1 C0 1.486(5)
C3 C2 1.376(6)
C3 C4 1.401(6)
C4 C5 1.401(6)
C4 C7 1.429(6)
C6 C5 1.378(6)
N3 C7 1.140(6)
