#------------------------------------------------------------------------------
#$Date: 2017-06-05 03:27:40 +0300 (Mon, 05 Jun 2017) $
#$Revision: 197439 $
#$URL: file:///home/coder/svn-repositories/cod/cif/4/12/59/4125982.cif $
#------------------------------------------------------------------------------
#
# This file is available in the Crystallography Open Database (COD),
# http://www.crystallography.net/
#
# All data on this site have been placed in the public domain by the
# contributors.
#
data_4125982
loop_
_publ_author_name
'Tan, Yu'
'Luo, Shilong'
'Li, Dongmei'
'Zhang, Nan'
'Jia, Shiqi'
'Liu, Yidong'
'Qin, Wenling'
'Song, Choong Eui'
'Yan, Hailong'
_publ_section_title
;
 Enantioselective Synthesis of anti-syn-Trihalides and
 anti-syn-anti-Tetrahalides via Asymmetric \b-Elimination.
;
_journal_issue                   18
_journal_name_full               'Journal of the American Chemical Society'
_journal_page_first              6431
_journal_page_last               6436
_journal_paper_doi               10.1021/jacs.7b02076
_journal_volume                  139
_journal_year                    2017
_chemical_absolute_configuration ad
_chemical_formula_moiety         'C16 H13 Br3 O'
_chemical_formula_sum            'C16 H13 Br3 O'
_chemical_formula_weight         460.99
_space_group_crystal_system      monoclinic
_space_group_IT_number           4
_space_group_name_Hall           'P 2yb'
_space_group_name_H-M_alt        'P 1 21 1'
_symmetry_space_group_name_Hall  'P 2yb'
_symmetry_space_group_name_H-M   'P 1 21 1'
_atom_sites_solution_hydrogens   geom
_audit_creation_date             2016-04-06
_audit_creation_method
;
Olex2 1.2-alpha
(compiled 2015.09.16 svn.r3215 for OlexSys, GUI svn.r5097)
;
_cell_angle_alpha                90
_cell_angle_beta                 100.264(5)
_cell_angle_gamma                90
_cell_formula_units_Z            2
_cell_length_a                   6.7844(4)
_cell_length_b                   7.0774(6)
_cell_length_c                   17.2752(10)
_cell_measurement_reflns_used    1041
_cell_measurement_temperature    292(2)
_cell_measurement_theta_max      24.5200
_cell_measurement_theta_min      4.1840
_cell_volume                     816.21(10)
_computing_molecular_graphics    'Olex2 (Dolomanov et al., 2009)'
_computing_publication_material  'Olex2 (Dolomanov et al., 2009)'
_computing_structure_refinement  'ShelXL (Sheldrick, 2015)'
_computing_structure_solution    'ShelXT (Sheldrick, 2015)'
_diffrn_ambient_temperature      292(2)
_diffrn_detector_area_resol_mean 16.0892
_diffrn_measured_fraction_theta_full 0.997
_diffrn_measured_fraction_theta_max 0.856
_diffrn_measurement_device_type  'SuperNova, Single source at offset, Eos'
_diffrn_measurement_method       '\w scans'
_diffrn_radiation_type           MoK\a
_diffrn_radiation_wavelength     0.71073
_diffrn_reflns_av_R_equivalents  0.0288
_diffrn_reflns_av_unetI/netI     0.0670
_diffrn_reflns_Laue_measured_fraction_full 0.997
_diffrn_reflns_Laue_measured_fraction_max 0.856
_diffrn_reflns_limit_h_max       8
_diffrn_reflns_limit_h_min       -6
_diffrn_reflns_limit_k_max       7
_diffrn_reflns_limit_k_min       -8
_diffrn_reflns_limit_l_max       21
_diffrn_reflns_limit_l_min       -15
_diffrn_reflns_number            3524
_diffrn_reflns_point_group_measured_fraction_full 0.728
_diffrn_reflns_point_group_measured_fraction_max 0.609
_diffrn_reflns_theta_full        26.000
_diffrn_reflns_theta_max         28.971
_diffrn_reflns_theta_min         3.472
_diffrn_source                   'micro-focus sealed X-ray tube'
_exptl_absorpt_coefficient_mu    7.406
_exptl_absorpt_correction_T_max  1.00000
_exptl_absorpt_correction_T_min  0.42797
_exptl_absorpt_correction_type   multi-scan
_exptl_absorpt_process_details
;
CrysAlisPro 1.171.38.41k (Rigaku Oxford Diffraction, 2015)
Empirical absorption correction using spherical harmonics,
 implemented in SCALE3 ABSPACK scaling algorithm.
;
_exptl_crystal_colour            colorless
_exptl_crystal_density_diffrn    1.876
_exptl_crystal_description       block
_exptl_crystal_F_000             444
_exptl_crystal_size_max          0.2
_exptl_crystal_size_mid          0.2
_exptl_crystal_size_min          0.2
_refine_diff_density_max         1.170
_refine_diff_density_min         -0.643
_refine_diff_density_rms         0.135
_refine_ls_abs_structure_details
;
 Flack x determined using 437 quotients [(I+)-(I-)]/[(I+)+(I-)]
 (Parsons, Flack and Wagner, Acta Cryst. B69 (2013) 249-259).
;
_refine_ls_abs_structure_Flack   -0.01(3)
_refine_ls_extinction_method     none
_refine_ls_goodness_of_fit_ref   1.123
_refine_ls_hydrogen_treatment    constr
_refine_ls_matrix_type           full
_refine_ls_number_parameters     181
_refine_ls_number_reflns         2654
_refine_ls_number_restraints     1
_refine_ls_restrained_S_all      1.123
_refine_ls_R_factor_all          0.0716
_refine_ls_R_factor_gt           0.0584
_refine_ls_shift/su_max          0.000
_refine_ls_shift/su_mean         0.000
_refine_ls_structure_factor_coef Fsqd
_refine_ls_weighting_details
'w=1/[\s^2^(Fo^2^)+(0.0526P)^2^+0.8125P] where P=(Fo^2^+2Fc^2^)/3'
_refine_ls_weighting_scheme      calc
_refine_ls_wR_factor_gt          0.1273
_refine_ls_wR_factor_ref         0.1421
_reflns_Friedel_coverage         0.320
_reflns_Friedel_fraction_full    0.408
_reflns_Friedel_fraction_max     0.320
_reflns_number_gt                2222
_reflns_number_total             2654
_reflns_threshold_expression     'I > 2\s(I)'
_cod_data_source_file            ja7b02076_si_002.cif
_cod_data_source_block           20160406-yanhailong-ty770-2
_cod_depositor_comments
'Adding full bibliography for 4125981--4125982.cif.'
_cod_original_cell_volume        816.22(9)
_cod_database_code               4125982
_shelx_space_group_comment
;
The symmetry employed for this shelxl refinement is uniquely defined
by the following loop, which should always be used as a source of
symmetry information in preference to the above space-group names.
They are only intended as comments.
;
_olex2_refinement_description
;
1. Fixed Uiso
 At 1.2 times of:
  All C(H) groups
2.a Ternary CH refined with riding coordinates:
 C8(H8), C9(H9), C10(H10)
2.b Aromatic/amide H refined with riding coordinates:
 C5(H5), C2(H2), C1(H1), C4(H4), C12(H12), C3(H3), C16(H16), C13(H13),
 C14(H14), C15(H15)
;
_shelx_res_file
;
    20160406-yanhailong-ty770-2.res created by SHELXL-2014/7

TITL 20160406-yanhailong-ty770-2_a.res in P2(1)
REM Old TITL 20160406-Yan Hailong-TY770-2 in P21 #4
REM SHELXT solution in P2(1)
REM R1 0.118, Rweak 0.082, Alpha 0.012, Orientation as input
REM Flack x = -0.011 ( 0.023 ) from Parsons' quotients
REM Formula found by SHELXT: C16 O Br3
CELL 0.71073 6.784428 7.077441 17.275207 90 100.2645 90
ZERR 2 0.000418 0.00056 0.000972 0 0.0053 0
LATT -1
SYMM -X,0.5+Y,-Z
SFAC C H Br O
UNIT 32 26 6 2

L.S. 30
PLAN  20
BOND $H
LIST 6
MORE -1
CONF
fmap 2
acta 52
REM <olex2.extras>
REM <HklSrc "%.\\20160406-Yan%20Hailong-TY770-2.hkl">
REM </olex2.extras>

WGHT    0.052600    0.812500
FVAR       0.70406
BR1   3    0.370018    0.679109    0.203517    11.00000    0.04536    0.04613 =
         0.05468    0.00358    0.00345    0.00353
BR2   3    0.958913    0.348311    0.282169    11.00000    0.04232    0.07254 =
         0.05241    0.00621    0.01231    0.00992
BR3   3    0.482551    0.148641    0.275391    11.00000    0.07130    0.05474 =
         0.03750   -0.00076    0.00395   -0.01608
O1    4    0.874479    0.793674    0.224623    11.00000    0.06786    0.08796 =
         0.04172   -0.01453   -0.00285   -0.03316
C7    1    0.762320    0.699703    0.177582    11.00000    0.04385    0.03175 =
         0.03835    0.00391   -0.00235   -0.00474
C11   1    0.666315    0.332417    0.418254    11.00000    0.03698    0.06955 =
         0.02731    0.00598    0.00485    0.00249
C6    1    0.752078    0.721459    0.092006    11.00000    0.03703    0.03070 =
         0.03686    0.00472   -0.00127    0.00223
C8    1    0.627516    0.554342    0.208005    11.00000    0.03627    0.04307 =
         0.03459   -0.00620    0.01292   -0.01384
AFIX  13
H8    2    0.611024    0.444158    0.173089    11.00000   -1.20000
AFIX   0
C5    1    0.633352    0.612096    0.036861    11.00000    0.04233    0.06674 =
         0.03327    0.00583    0.00675   -0.01684
AFIX  43
H5    2    0.546513    0.525509    0.053446    11.00000   -1.20000
AFIX   0
C9    1    0.713105    0.491555    0.291448    11.00000    0.03456    0.04999 =
         0.04767    0.00807    0.00578   -0.01502
AFIX  13
H9    2    0.754415    0.605329    0.322457    11.00000   -1.20000
AFIX   0
C2    1    0.889571    0.864681   -0.014442    11.00000    0.06426    0.08350 =
         0.04466    0.01648    0.00968   -0.02426
AFIX  43
H2    2    0.975872    0.951939   -0.030940    11.00000   -1.20000
AFIX   0
C1    1    0.882776    0.844429    0.066166    11.00000    0.05097    0.04018 =
         0.04892   -0.00246    0.00416   -0.00576
AFIX  43
H1    2    0.968828    0.916029    0.102714    11.00000   -1.20000
AFIX   0
C4    1    0.638713    0.626770   -0.044670    11.00000    0.06577    0.03233 =
         0.04338    0.01213   -0.00657    0.00188
AFIX  43
H4    2    0.557131    0.552032   -0.081471    11.00000   -1.20000
AFIX   0
C12   1    0.772785    0.170749    0.442241    11.00000    0.04700    0.07780 =
         0.04089    0.01888    0.01183    0.00233
AFIX  43
H12   2    0.791763    0.081664    0.404680    11.00000   -1.20000
AFIX   0
C3    1    0.770360    0.756917   -0.067338    11.00000    0.06406    0.04745 =
         0.03651    0.01742    0.00717    0.00512
AFIX  43
H3    2    0.776305    0.769950   -0.120442    11.00000   -1.20000
AFIX   0
C10   1    0.577402    0.377535    0.335436    11.00000    0.03579    0.05550 =
         0.04149   -0.00648    0.00625   -0.00795
AFIX  13
H10   2    0.458980    0.455661    0.337119    11.00000   -1.20000
AFIX   0
C16   1    0.647359    0.469591    0.472912    11.00000    0.05926    0.08036 =
         0.04005   -0.01663    0.01266    0.01955
AFIX  43
H16   2    0.579479    0.580922    0.456773    11.00000   -1.20000
AFIX   0
C13   1    0.854482    0.135675    0.522408    11.00000    0.05976    0.09759 =
         0.03526    0.01778    0.01159    0.01002
AFIX  43
H13   2    0.919346    0.022777    0.538370    11.00000   -1.20000
AFIX   0
C14   1    0.833003    0.279842    0.576997    11.00000    0.04175    0.20572 =
         0.03819    0.04130    0.00642    0.02884
AFIX  43
H14   2    0.889996    0.262814    0.629611    11.00000   -1.20000
AFIX   0
C15   1    0.731543    0.442808    0.554998    11.00000    0.06835    0.14483 =
         0.04849   -0.01024    0.01435    0.00319
AFIX  43
H15   2    0.716833    0.534735    0.592013    11.00000   -1.20000
AFIX   0
HKLF 4

REM  20160406-yanhailong-ty770-2_a.res in P2(1)
REM R1 =  0.0584 for    2222 Fo > 4sig(Fo)  and  0.0716 for all    2654 data
REM    181 parameters refined using      1 restraints

END

WGHT      0.0526      0.8125

REM Highest difference peak  1.170,  deepest hole -0.643,  1-sigma level  0.135
Q1    1   0.5193  0.6751  0.1974  11.00000  0.05    1.17
Q2    1   0.2253  0.6791  0.2090  11.00000  0.05    0.99
Q3    1   0.3183  0.1621  0.2776  11.00000  0.05    0.98
Q4    1   0.8082  0.3423  0.2885  11.00000  0.05    0.92
Q5    1   1.0977  0.3588  0.2801  11.00000  0.05    0.85
Q6    1   0.6278  0.1384  0.2643  11.00000  0.05    0.65
Q7    1   0.9959  0.6827  0.2327  11.00000  0.05    0.57
Q8    1   0.8961  1.1383  0.1615  11.00000  0.05    0.54
Q9    1   1.0204  1.1347  0.1707  11.00000  0.05    0.50
Q10   1   0.9577  1.1734  0.1690  11.00000  0.05    0.48
Q11   1   0.5115  0.4847  0.4705  11.00000  0.05    0.46
Q12   1   0.4204  0.3923  0.1513  11.00000  0.05    0.45
Q13   1   0.5775  0.4532 -0.1414  11.00000  0.05    0.45
Q14   1   0.6467  0.4882  0.6406  11.00000  0.05    0.44
Q15   1   0.4290  0.3263  0.1588  11.00000  0.05    0.44
Q16   1   0.9683  0.5820  0.2243  11.00000  0.05    0.43
Q17   1   0.6249  0.7618  0.4769  11.00000  0.05    0.42
Q18   1   1.0939  0.2861  0.6477  11.00000  0.05    0.41
Q19   1   0.3996  0.3078  0.3677  11.00000  0.05    0.41
Q20   1   0.5788  0.4533  0.5610  11.00000  0.05    0.40
;
_shelx_res_checksum              90071
_shelx_hkl_file
;
   0  -8   0   10.15    4.17
   0  -8  -1    8.18   11.90
   0  -8   1   14.72   12.70
   0  -8   2   81.71   23.52
   0  -8   3  106.11   26.51
   0  -8   4   27.08   13.26
   0  -8   5  136.92   31.43
   0  -8   6   12.82    4.03
   0  -8   7   48.86   20.41
   0  -8   8   19.48   12.32
   0  -8   9   70.91   22.70
   0  -7   0   23.92   12.85
   0  -7   1   55.45   17.62
   0  -7  -1   99.89   24.28
   0  -7  -2  143.84   29.02
   0  -7   2  101.91   22.76
   0  -7   3   19.08    9.33
   0  -7   4  121.25   25.78
   0  -7   5   31.78   16.42
   0  -7   6  218.16   36.31
   0  -7   7   58.21   20.66
   0  -7   8  102.30   26.34
   0  -7   9   41.36   18.65
   0  -7  10   46.65   16.69
   0  -7  11    8.32    4.87
   0  -7  12   13.85    4.92
   0  -7  13   23.59   17.58
   0  -6   0 1232.76   74.70
   0  -6  -1   23.30    9.73
   0  -6   1   10.99    5.62
   0  -6   2  821.24   62.18
   0  -6  -2  822.88   60.11
   0  -6   3   34.31   10.32
   0  -6  -3   46.16   14.13
   0  -6   4  457.73   46.39
   0  -6   5   50.49   16.58
   0  -6   6   50.24   16.19
   0  -6   7  138.20   28.48
   0  -6   8  100.44   24.41
   0  -6   9  178.80   32.42
   0  -6  10  199.34   34.16
   0  -6  11  156.34   30.59
   0  -6  12  152.38   32.29
   0  -6  13  145.18   31.67
   0  -6  14   89.93   26.23
   0  -6  15   52.40   22.53
   0  -5   0    5.82    5.46
   0  -5  -1 1016.23   59.54
   0  -5   1  977.99   59.62
   0  -5   2  602.50   46.99
   0  -5  -2  588.79   45.02
   0  -5   3  523.26   44.29
   0  -5  -3  554.51   44.44
   0  -5   4  825.15   57.72
   0  -5   5  435.09   43.00
   0  -5   6 1366.69   78.25
   0  -5   7  231.95   33.12
   0  -5   8 1060.07   71.65
   0  -5   9  170.64   28.50
   0  -5  10  264.75   36.25
   0  -5  11   62.65   18.80
   0  -5  12  343.19   44.05
   0  -5  13   80.84   22.96
   0  -5  14   31.90   14.13
   0  -5  15  108.35   25.77
   0  -5  16    2.04    3.08
   0  -5  17  126.78   29.93
   0  -4   0 2861.41   88.73
   0  -4   1   23.31    8.05
   0  -4  -1   25.91    6.98
   0  -4   2 1108.79   56.21
   0  -4  -2 1167.54   55.98
   0  -4  -3 1202.24   58.16
   0  -4   3 1211.35   60.41
   0  -4   4 1020.75   56.72
   0  -4   5  450.53   39.25
   0  -4   6  137.67   21.74
   0  -4   7  823.26   55.86
   0  -4   8  129.17   22.01
   0  -4   9  563.28   47.68
   0  -4  10  128.45   23.61
   0  -4  11  379.57   42.50
   0  -4  12  241.60   34.35
   0  -4  13  414.74   46.70
   0  -4  14  132.01   27.90
   0  -4  15  141.34   28.56
   0  -4  16  117.59   27.22
   0  -4  17   82.38   25.90
   0  -4  18   75.92   21.35
   0  -4  19  -17.33   15.75
   0  -3   0   -2.27    3.92
   0  -3  -1 1685.93   58.33
   0  -3   1 1685.54   58.49
   0  -3  -2  246.51   22.58
   0  -3   2  248.68   23.19
   0  -3   3  618.56   37.95
   0  -3   4  662.39   39.50
   0  -3   5  198.31   22.79
   0  -3   6  648.00   43.03
   0  -3   7  355.46   33.02
   0  -3   8  308.26   32.20
   0  -3   9  608.30   45.41
   0  -3  10  110.99   20.15
   0  -3  11  473.12   43.26
   0  -3  12  119.00   22.76
   0  -3  13   36.40   11.30
   0  -3  14   28.68   11.54
   0  -3  15  111.57   24.49
   0  -3  16   -4.60    1.27
   0  -3  17   79.72   24.03
   0  -3  18   40.02   17.80
   0  -3  19   62.35   21.35
   0  -3  20   26.38   13.37
   0  -2   0 4872.51   79.28
   0  -2   1  547.85   27.47
   0  -2  -1  565.63   27.08
   0  -2  -2 2079.81   53.92
   0  -2   2 2019.19   54.35
   0  -2   3 1517.74   49.12
   0  -2   4  749.00   37.28
   0  -2   5  826.46   40.95
   0  -2   6  424.45   30.98
   0  -2   7  567.07   36.64
   0  -2   8  194.96   22.08
   0  -2   9   44.28   11.66
   0  -2  10  176.51   23.72
   0  -2  11  187.56   25.68
   0  -2  12  260.79   31.18
   0  -2  13  475.43   44.57
   0  -2  14  143.03   25.18
   0  -2  15  238.02   34.93
   0  -2  16   18.03    5.59
   0  -2  17  296.19   40.45
   0  -2  18   -0.36    9.85
   0  -2  19   64.72   18.98
   0  -2  20   10.97    8.14
   0  -2  21   41.36   19.05
   0  -1   2 4391.38   61.52
   0  -1   3  980.38   32.24
   0  -1   4 7621.06  100.39
   0  -1   5  894.51   36.94
   0  -1   6 6384.79  107.72
   0  -1   7 1230.16   50.16
   0  -1   8 5495.02  113.48
   0  -1   9  575.91   39.75
   0  -1  10 1336.80   62.79
   0  -1  11  598.32   44.14
   0  -1  12  464.71   41.18
   0  -1  13   80.08   17.65
   0  -1  14   62.37   16.96
   0  -1  15  232.82   32.33
   0  -1  16    8.11    5.13
   0  -1  17  289.43   39.42
   0  -1  18   68.81   19.05
   0  -1  19  318.28   44.45
   0  -1  20   19.30   11.11
   0  -1  21  140.33   29.66
   0   0   3   55.14    5.89
   0   0   4 9478.53   90.16
   0   0   5  215.80   15.26
   0   0   6 1519.65   44.06
   0   0   7  688.97   31.86
   0   0   8 1408.07   48.79
   0   0   9 1008.53   43.51
   0   0  10  833.04   41.26
   0   0  11 1452.22   57.16
   0   0  12 1466.89   60.06
   0   0  13 1263.26   57.72
   0   0  13 1253.53   67.92
   0   0  14 1260.72   70.94
   0   0  14 1244.42   59.50
   0   0  15  530.36   48.35
   0   0  15  481.94   38.38
   0   0  16  676.40   46.70
   0   0  16  764.72   60.43
   0   0  17   88.84   17.18
   0   0  17   86.61   20.76
   0   0  18  228.41   34.78
   0   0  19   14.22   10.01
   0   0  20  125.29   28.93
   0   0  21   67.55   20.36
   0   1  -2 4531.70   61.68
   0   1  -3 1182.50   35.34
   0   1  -4 8841.25  107.99
   0   1  -5  988.44   39.17
   0   1  -5  933.34   32.53
   0   1  -6 7639.67  100.80
   0   1  -7 1348.74   45.89
   0   1  -8 6179.74  104.76
   0   1  -9  655.23   17.48
   0   1  -9  711.49   37.60
   0   1 -10 1618.01   59.48
   0   1  10 1424.76   26.51
   0   1  11  650.95   41.69
   0   1  12  450.16   36.46
   0   1  13   65.93   14.19
   0   1  14   69.00   15.66
   0   1  15  248.91   29.02
   0   1  16    2.90    0.70
   0   1  17  292.36   33.10
   0   1  18   58.72   15.23
   0   1  19  321.96   42.75
   0   1  20   17.16    8.51
   0   1  21  148.26   31.85
   0   2   0 4885.95   79.97
   0   2   1  549.10   27.23
   0   2  -1  557.12   26.99
   0   2  -2 2211.47   55.94
   0   2   2 2100.28   56.89
   0   2  -3 1598.77   48.71
   0   2   3 1504.00   49.88
   0   2  -4  676.55   33.15
   0   2  -7  579.15   30.73
   0   2  -8  209.90   19.82
   0   2  -9   39.88    9.09
   0   2  14  237.95   30.66
   0   2  15  242.52   31.62
   0   2  16   32.70   12.54
   0   2  17  180.14   28.44
   0   2  18    9.43    8.16
   0   3  17   57.70   18.39
   0   3  18    4.19    4.76
   0   3  19   70.92   20.81
   0   4  19   -0.55    8.90
  -1  -8   9   30.92   14.25
  -1  -8   8   -5.52    4.64
  -1  -8   7   50.84   17.66
  -1  -8   6   39.57   16.68
  -1  -8   5   75.43   23.41
  -1  -8   4   53.51   20.60
  -1  -8   3   50.49   18.79
  -1  -8   2  154.02   30.97
   1  -8  -1   28.08   12.74
  -1  -8   1   37.13   15.43
   1  -8   0  109.22   29.02
  -1  -8   0  121.34   26.70
  -1  -8  -1   74.74   21.27
   1  -8   1   72.05   21.71
   1  -8   2   55.33   17.97
   1  -8   3   60.80   19.44
   1  -8   4  102.65   28.30
   1  -8   5   27.18   10.01
   1  -8   6   13.68   12.55
   1  -8   7   51.09   17.46
   1  -8   8   22.64   11.91
  -1  -7  13   92.47   28.32
  -1  -7  12   13.77    8.84
  -1  -7  11   35.81   18.18
  -1  -7  10   79.99   24.32
  -1  -7   9   17.32   10.47
  -1  -7   8  208.98   38.74
  -1  -7   7   39.85   20.45
  -1  -7   6  138.26   29.06
  -1  -7   5   70.22   19.73
  -1  -7   4  138.97   29.82
  -1  -7   3  165.16   30.92
  -1  -7   2   75.71   21.96
   1  -7  -2   38.06   17.02
   1  -7  -1  278.20   38.64
  -1  -7   1  226.60   34.39
  -1  -7   0  112.05   24.53
   1  -7   0  100.66   22.98
   1  -7   1  284.78   39.74
  -1  -7  -1  252.33   35.49
   1  -7   2   60.75   20.08
  -1  -7  -2   38.67   14.79
   1  -7   3  308.64   42.41
   1  -7   4   89.96   22.95
   1  -7   5  119.72   26.96
   1  -7   6  107.82   26.60
   1  -7   7   70.97   22.32
   1  -7   8  100.27   26.61
   1  -7   9   59.22   21.14
   1  -7  10   64.02   23.34
   1  -7  11   29.99   15.89
   1  -7  12  114.56   29.50
  -1  -6  15   24.94   13.93
  -1  -6  14   39.37   15.90
  -1  -6  13   30.12   13.74
  -1  -6  12   38.83   16.72
  -1  -6  11  136.62   29.41
  -1  -6  10   29.48   16.11
  -1  -6   9  184.21   33.54
  -1  -6   8   45.34   18.98
  -1  -6   7  318.05   41.71
  -1  -6   6  141.98   28.29
  -1  -6   5  229.24   33.00
  -1  -6   4  187.34   30.62
  -1  -6   3   29.04    9.54
  -1  -6   2  233.41   32.60
   1  -6  -2  256.63   34.15
  -1  -6   1   31.59   12.26
   1  -6  -1   26.21   10.64
   1  -6   0  142.81   23.92
  -1  -6   0  183.36   27.19
  -1  -6  -1   67.73   17.18
   1  -6   1   69.43   19.15
  -1  -6  -2   33.66   12.09
   1  -6   2   17.51   10.32
   1  -6   3  444.91   45.95
   1  -6   4  200.69   30.84
   1  -6   5  238.54   34.62
   1  -6   6  191.53   31.89
   1  -6   7  210.69   34.22
   1  -6   8  122.33   27.80
   1  -6   9  194.50   34.36
   1  -6  10   84.76   23.26
   1  -6  11  132.31   30.13
   1  -6  12    5.36    8.52
   1  -6  13   40.41   16.58
   1  -6  14   12.62    7.16
   1  -6  15   34.48   19.39
  -1  -5  17   33.13   14.48
  -1  -5  16   21.15   10.94
  -1  -5  15   60.53   20.10
  -1  -5  14   73.58   19.67
  -1  -5  13   40.73    9.79
  -1  -5  12   68.47   17.88
  -1  -5  11  133.77   27.65
  -1  -5  10  204.42   31.88
  -1  -5   9   16.40    8.59
  -1  -5   8  284.53   37.48
  -1  -5   7  114.93   22.43
  -1  -5   6  117.70   24.26
  -1  -5   5  320.80   36.11
  -1  -5   4   75.93   16.58
  -1  -5   3  328.00   35.17
   1  -5  -2   49.35   13.19
  -1  -5   2   36.13   10.14
  -1  -5   1  218.78   28.85
   1  -5  -1  256.25   30.73
  -1  -5   0  207.59   25.99
   1  -5   0  229.40   29.03
  -1  -5  -1   42.31   11.82
   1  -5   1   70.65   16.38
  -1  -5  -2  311.19   32.48
   1  -5   2  327.18   35.64
   1  -5   3   43.50   14.70
  -1  -5  -3   30.77   10.53
   1  -5   4  300.59   34.76
   1  -5   5  214.34   29.78
   1  -5   6  111.46   21.73
   1  -5   7  390.48   42.97
   1  -5   8    1.11    3.84
   1  -5   9  341.63   41.00
   1  -5  10   16.49    9.17
   1  -5  11  178.97   31.42
   1  -5  12   71.64   19.91
   1  -5  13   39.06   17.04
   1  -5  14    9.10    6.69
   1  -5  15    4.48    5.77
   1  -5  16   -4.48    8.32
   1  -5  17   21.57    7.13
  -1  -4  19   -8.16   14.12
  -1  -4  18   92.96   25.91
  -1  -4  17   62.39   19.99
  -1  -4  16  216.99   37.73
  -1  -4  15   51.24   15.39
  -1  -4  14  427.99   50.37
  -1  -4  13  173.11   30.37
  -1  -4  12  344.60   42.39
  -1  -4  11   43.85   15.18
  -1  -4  10  110.00   23.27
  -1  -4   9   29.71   11.74
  -1  -4   8   41.18   12.39
  -1  -4   7   28.64   10.99
  -1  -4   6  529.83   43.11
  -1  -4   5  201.68   26.17
  -1  -4   4 1553.18   69.51
  -1  -4   3  536.50   41.05
  -1  -4   2 1933.44   72.60
   1  -4  -2 2055.24   74.93
   1  -4  -1  688.09   45.06
  -1  -4   1  702.73   42.74
  -1  -4   0 1967.24   72.57
   1  -4   0 1939.53   75.24
  -1  -4  -1  886.17   48.15
   1  -4   1  835.57   49.59
  -1  -4  -2 1035.42   52.72
   1  -4   2 1036.41   54.13
   1  -4   3  583.24   41.39
   1  -4   4  173.71   24.53
   1  -4   5   80.01   19.51
   1  -4   6   43.22   11.53
   1  -4   7   85.21   18.03
   1  -4   8  135.93   23.27
   1  -4   9  381.41   38.90
   1  -4  10  212.47   30.42
   1  -4  11  658.98   55.74
   1  -4  12   96.31   21.10
   1  -4  13  580.55   54.97
   1  -4  14   24.49   11.07
   1  -4  15  260.24   39.48
   1  -4  16   19.61   11.65
   1  -4  17   78.66   24.14
   1  -4  18   -2.26    8.89
   1  -4  19   10.14   10.63
  -1  -3  20  100.52   27.71
  -1  -3  19  136.91   32.45
  -1  -3  18   63.97   19.13
  -1  -3  17  134.50   28.03
  -1  -3  16   46.03   14.57
  -1  -3  15   64.85   16.84
  -1  -3  14  181.85   30.97
  -1  -3  13  163.35   28.39
  -1  -3  12  996.91   65.65
  -1  -3  11  187.91   28.85
  -1  -3  10 2448.11   96.57
  -1  -3   9  154.09   27.17
  -1  -3   8 3680.07  110.55
  -1  -3   7  277.10   32.48
  -1  -3   6 4617.83  115.21
  -1  -3   5  373.37   38.96
  -1  -3   4 1537.59   63.49
  -1  -3   3  145.26   18.03
  -1  -3   2  480.03   31.75
   1  -3  -2  477.28   31.70
   1  -3  -1  842.90   41.47
  -1  -3   1  904.10   42.06
   1  -3   0  412.35   31.00
  -1  -3   0  478.60   30.84
   1  -3   1  964.68   44.69
  -1  -3  -1  983.11   43.84
  -1  -3  -2 1266.96   49.38
   1  -3   2 1216.82   51.21
   1  -3   3 3701.99   92.80
   1  -3   4 3737.51   95.85
   1  -3   5 2704.31   84.99
   1  -3   6 2553.40   85.10
   1  -3   7 1916.20   77.32
   1  -3   8 1297.55   65.27
   1  -3   9 1045.01   60.75
   1  -3  10  717.43   51.21
   1  -3  11  109.32   20.97
   1  -3  12  129.65   23.74
   1  -3  13   36.48   12.72
   1  -3  14   72.43   19.17
   1  -3  15  349.15   42.59
   1  -3  16   25.61   10.46
   1  -3  17  352.52   45.56
   1  -3  18   18.15    9.77
   1  -3  19  172.33   35.85
   1  -3  20   11.64   11.34
  -1  -2  21   32.77   17.90
  -1  -2  20   34.32   18.19
  -1  -2  19   25.41   13.94
  -1  -2  18  239.70   36.94
  -1  -2  17  121.49   26.62
  -1  -2  16  506.48   51.77
  -1  -2  15   53.34   16.46
  -1  -2  14 1638.97   86.75
  -1  -2  13  286.93   35.78
  -1  -2  12  989.05   63.04
  -1  -2  11  431.33   39.28
  -1  -2  10  832.47   52.20
  -1  -2   9  815.45   49.69
  -1  -2   8  110.98   17.99
  -1  -2   7 1162.93   53.70
  -1  -2   6 1537.11   58.77
  -1  -2   5 1216.91   50.87
  -1  -2   4 4652.39   92.61
  -1  -2   3 2746.13   66.31
  -1  -2   2 6219.84   93.83
   1  -2  -1  236.06   17.96
  -1  -2   1  254.61   18.36
  -1  -2   0 9442.29  108.12
   1  -2   0 9390.28  112.33
  -1  -2  -1 3022.73   62.30
   1  -2   1 3056.52   64.91
  -1  -2  -2 4403.89   77.14
   1  -2   2 4409.18   81.78
   1  -2   3  475.11   34.44
   1  -2   4 3154.56   75.55
   1  -2   5  482.53   31.07
   1  -2   6  599.30   37.21
   1  -2   7  991.96   48.59
   1  -2   8  211.69   24.24
   1  -2   9 2053.92   76.22
   1  -2  10  232.63   26.49
   1  -2  11 1709.26   76.89
   1  -2  12  764.62   53.99
   1  -2  13 1172.05   70.15
   1  -2  14  163.07   26.86
   1  -2  15  501.80   49.48
   1  -2  16  232.34   34.63
   1  -2  17   92.97   23.82
   1  -2  18   76.46   21.40
   1  -2  19   15.34   12.37
   1  -2  20   54.13   20.21
  -1  -1  21  129.76   30.20
  -1  -1  20   41.29   16.27
  -1  -1  19   53.62   16.57
  -1  -1  18   29.88   15.99
  -1  -1  17   50.32   15.93
  -1  -1  16   16.49    8.63
  -1  -1  15  142.64   25.25
  -1  -1  14  121.50   22.28
  -1  -1  13  620.10   49.89
  -1  -1  12  376.98   36.66
  -1  -1  11  687.68   47.76
  -1  -1  10 1555.55   68.48
  -1  -1   9  168.34   22.17
  -1  -1   8 1878.48   67.87
  -1  -1   7  565.09   35.23
  -1  -1   6 2840.70   73.17
  -1  -1   5  371.03   26.21
  -1  -1   4 2082.36   53.49
  -1  -1   3 2008.53   47.04
  -1  -1   2  388.67   23.58
  -1  -1   1 1142.12   27.67
   1  -1   0  636.34   20.83
  -1  -1   0  631.23   19.36
   1  -1   1 4245.22   55.86
  -1  -1  -1 4300.55   52.05
   1  -1   2 1836.56   39.55
   1  -1   3 2040.85   47.14
   1  -1   4 1747.53   46.64
   1  -1   5 2268.15   57.85
   1  -1   6 1559.94   51.56
   1  -1   7 1361.00   51.88
   1  -1   7 1393.16   55.85
   1  -1   8 1671.44   61.16
   1  -1   8 1647.22   62.38
   1  -1   9 1064.39   52.57
   1  -1   9 1090.36   52.46
   1  -1  10  560.68   40.05
   1  -1  10  504.70   36.87
   1  -1  11  322.36   30.65
   1  -1  11  344.96   33.46
   1  -1  12  443.09   39.77
   1  -1  12  442.09   36.55
   1  -1  13   37.17   11.03
   1  -1  14   38.68   11.33
   1  -1  15  221.49   31.07
   1  -1  16   37.67   13.78
   1  -1  17  241.68   35.26
   1  -1  18   34.28   13.34
   1  -1  19  205.60   34.93
   1  -1  20   29.43   12.28
   1  -1  21  119.02   29.39
  -1   0  21   42.19   17.69
  -1   0  20   36.12   14.70
  -1   0  19  168.39   31.22
  -1   0  18   46.22   15.12
  -1   0  17  482.99   49.40
  -1   0  16  200.90   21.36
  -1   0  16  181.59   29.46
  -1   0  15  372.51   28.20
  -1   0  15  400.04   42.02
  -1   0  14  111.69   20.69
  -1   0  14  117.68   15.63
  -1   0  13  146.30   16.33
  -1   0  12  112.02   13.35
  -1   0  11   22.60    6.21
  -1   0  10   10.88    3.57
  -1   0   9  112.04   11.38
  -1   0   8   13.75    3.70
  -1   0   7  908.77   25.09
   1   0  -7  881.49   23.39
  -1   0   7  861.63   26.14
   1   0  -6  600.65   20.21
  -1   0   6  563.72   20.35
  -1   0   6  571.95   18.66
  -1   0   5  542.86   20.37
   1   0  -5  583.57   20.68
   1   0  -4 1331.88   32.60
  -1   0   4 1245.47   31.35
  -1   0   3  327.68   16.15
   1   0  -3  345.58   16.94
  -1   0   2 1923.47   40.08
   1   0  -2 1926.32   39.98
   1   0   1  252.58   14.94
  -1   0  -1  154.99   12.52
   1   0   1  173.82   11.89
  -1   0  -1  281.62   16.66
   1   0   2  280.43   15.31
   1   0   2  288.06   17.73
  -1   0  -2  265.77   15.02
  -1   0  -2  263.18   17.66
  -1   0  -3  479.88   20.10
   1   0   3  484.08   20.16
  -1   0  -3  528.24   27.65
   1   0   3  483.99   25.59
   1   0   4  240.74   19.58
   1   0   4  226.81   13.29
  -1   0  -4  273.10   20.85
  -1   0  -4  213.18   13.18
  -1   0  -5  626.36   22.62
   1   0   5  636.82   21.49
   1   0   5  642.73   33.66
   1   0   6  824.00   23.57
  -1   0  -6  848.18   25.80
   1   0   6  813.66   40.30
   1   0   7  102.01    8.06
   1   0   7  100.28   14.62
   1   0   8  463.77   33.15
   1   0   9    3.79    4.06
   1   0  10   81.68   14.81
   1   0  11  198.17   24.36
   1   0  11  189.71   23.70
   1   0  12   26.78    8.73
   1   0  12   37.99   11.89
   1   0  13  736.51   50.52
   1   0  13  713.11   51.07
   1   0  14  146.60   24.33
   1   0  14  114.82   21.41
   1   0  15  222.81   29.59
   1   0  15  253.45   32.91
   1   0  16   45.26   15.48
   1   0  16   59.20   15.80
   1   0  17   74.70   17.89
   1   0  17   73.37   19.51
   1   0  18   45.22   16.89
   1   0  18   31.43   11.57
   1   0  19   19.27    8.08
   1   0  19   37.42   15.04
   1   0  20   17.06    7.98
   1   0  21   25.53   14.18
  -1   1  21  104.14   25.78
  -1   1  20   42.14   16.29
  -1   1  17   48.38   11.84
  -1   1  16   20.70    7.39
  -1   1  15  114.35   17.22
  -1   1  14  155.83   19.67
  -1   1  13  621.39   38.45
  -1   1  12  294.08   13.14
  -1   1  12  369.47   28.55
  -1   1  11  608.74   22.07
   1   1 -11  618.45   20.15
  -1   1  10 1438.58   34.93
   1   1 -10 1500.14   35.75
  -1   1   9  119.33   10.47
   1   1  -9  180.73   13.67
   1   1  -8 1903.03   42.13
   1   1  -8 1855.18   42.32
  -1   1   8 1879.43   40.88
  -1   1   7  559.64   22.68
   1   1  -7  600.58   24.58
   1   1  -7  624.90   22.09
  -1   1   6 2914.06   51.74
   1   1  -6 2855.58   43.26
   1   1  -6 2927.84   54.21
   1   1  -5  350.49   26.02
   1   1  -4 2026.55   52.60
   1   1  -3 2167.27   48.85
   1   1  -2  550.06   25.20
  -1   1   1 1586.57   35.07
   1   1  -1 1596.73   33.67
  -1   1   0  876.40   24.27
   1   1   0  833.55   23.24
   1   1   1 3728.77   50.64
  -1   1  -1 3832.97   51.19
  -1   1  -2 1795.66   38.39
  -1   1  -3 1968.28   50.76
  -1   1  -3 1994.85   45.07
  -1   1  -4 1828.23   48.65
  -1   1  -4 1775.57   53.04
  -1   1  -4 1852.94   42.94
  -1   1  -5 2550.11   67.71
  -1   1  -5 2502.36   50.05
  -1   1  -5 2465.97   61.05
  -1   1  -6 1606.83   39.77
   1   1   6 1649.77   42.66
  -1   1  -6 1685.88   58.25
   1   1   7 1233.45   36.73
  -1   1  -7 1160.32   32.96
   1   1   8 1729.10   42.96
   1   1   8 1736.94   68.55
  -1   1  -8 1691.00   40.00
   1   1   9 1062.84   32.57
  -1   1  -9 1136.52   33.34
   1   1   9 1135.50   58.16
   1   1  10  601.59   43.49
   1   1  10  524.83   22.20
   1   1  11  367.96   34.98
   1   1  11  371.11   17.20
   1   1  12  446.27   14.96
   1   1  12  486.51   41.79
   1   1  13   39.19   13.07
   1   1  14   35.57   11.33
   1   1  15  226.30   30.28
   1   1  16   48.52   15.44
   1   1  17  134.50   25.28
   1   1  18   28.58   11.24
   1   1  18   20.15   10.72
   1   1  19  222.71   34.45
   1   1  19  229.36   35.98
   1   1  20   20.82    8.96
   1   1  21   80.02   24.11
  -1   2  17  102.65   19.29
  -1   2  16  448.10   40.08
   1   2 -13  281.98   18.38
   1   2 -12  983.60   36.62
  -1   2  12 1034.63   38.13
   1   2 -12 1074.33   45.49
   1   2 -11  469.01   28.67
   1   2 -11  445.53   25.17
   1   2 -10  856.42   37.10
   1   2  -9  976.13   37.67
   1   2  -8   80.60   11.10
   1   2  -4 4254.84   85.00
  -1   2   3 2954.09   70.61
   1   2  -3 2896.11   66.58
  -1   2   2 6128.47   97.15
   1   2  -2 6073.19   92.82
   1   2  -1  452.49   31.53
  -1   2   1  403.93   37.47
   1   2   0 8896.07  107.12
  -1   2   0 8872.87  109.19
   1   2   1 2722.68   59.45
  -1   2  -1 2789.10   61.02
  -1   2  -2 4264.28   77.14
   1   2   2 4556.36   82.11
   1   2   3  687.48   37.60
  -1   2  -3  447.70   25.46
  -1   2  -4 3340.69   73.24
   1   2   4 3195.45   75.29
  -1   2  -9 3738.01   99.76
  -1   2 -10  336.12   25.98
   1   2  11 2055.04   59.56
  -1   2 -11 2106.83   55.71
   1   2  12  857.58   61.07
   1   2  12  894.37   37.77
   1   2  13 1370.13   78.77
   1   2  13 1337.57   43.47
   1   2  14  155.65   26.37
   1   2  15  547.85   52.22
   1   2  16  179.54   30.27
   1   2  17   71.39   19.98
   1   2  18   45.79   15.38
   1   2  19   -4.17    5.97
   1   2  21   21.54   12.26
   1   3 -10 2195.59   64.24
   1   3  15  467.03   53.62
   1   3  16   25.87   13.51
   1   3  17  236.94   39.41
   1   3  18    7.05    8.47
   1   3  19  180.88   34.39
   1   3  20   -6.32    2.88
   1   4  17  111.87   33.85
   1   4  18   21.44   14.50
   1   4  19   -6.27    9.41
   1   4  20    3.21    7.69
  -2  -8   9   38.03   17.24
  -2  -8   8   14.12    6.10
  -2  -8   7   26.98    8.09
  -2  -8   6   28.31   16.57
  -2  -8   5   13.27    7.92
  -2  -8   4   15.91   12.30
  -2  -8   3    0.90    9.33
  -2  -8   2   17.39   10.27
  -2  -8   1   37.96   15.96
   2  -8  -1   27.93   14.32
   2  -8   0   11.79   11.85
  -2  -8   0   32.94   12.90
   2  -8   1   91.13   26.03
  -2  -8  -1   57.70   21.11
   2  -8   2   71.95   24.65
   2  -8   3   38.74   17.60
   2  -8   4   42.79   19.91
   2  -8   5    7.99   10.09
   2  -8   6   14.02    3.75
   2  -8   7    7.12    7.06
   2  -8   8   35.96   17.87
  -2  -7  13   -5.52   11.47
  -2  -7  12   36.26   18.27
  -2  -7  11    1.52    6.83
  -2  -7  10   53.98   19.87
  -2  -7   9   23.28   12.08
  -2  -7   8   96.38   25.57
  -2  -7   7  132.99   29.70
  -2  -7   6   11.90    7.60
  -2  -7   5   92.44   23.44
  -2  -7   4    3.79    3.28
  -2  -7   3   42.88   14.80
  -2  -7   2   20.36   11.99
  -2  -7   1   11.50    9.01
   2  -7  -1   12.81   11.21
   2  -7   0   78.33   21.28
  -2  -7   0   36.58   14.12
  -2  -7  -1   49.38   15.17
   2  -7   1   52.70   16.75
   2  -7   2   45.29   16.53
  -2  -7  -2   33.06   13.15
   2  -7   3  218.26   35.78
   2  -7   4   -2.08    2.24
   2  -7   5  151.62   32.19
   2  -7   6    0.99    4.29
   2  -7   7   94.53   25.17
   2  -7   8   44.79   16.37
   2  -7   9   18.85   10.85
   2  -7  10    9.52    9.37
   2  -7  11    4.74    6.91
   2  -7  12   11.48    9.09
  -2  -6  15   22.08   12.56
  -2  -6  14  149.93   33.30
  -2  -6  13    0.68    5.93
  -2  -6  12   60.18   21.97
  -2  -6  11  108.12   27.24
  -2  -6  10   26.18   12.58
  -2  -6   9   75.64   21.45
  -2  -6   8   32.71   14.23
  -2  -6   7   81.10   21.38
  -2  -6   6  184.84   31.16
  -2  -6   5  333.49   39.59
  -2  -6   4  193.13   29.59
  -2  -6   3  449.59   45.01
   2  -6  -2  276.28   37.79
  -2  -6   2  281.92   34.57
   2  -6  -1  441.20   43.93
  -2  -6   1  409.18   41.65
   2  -6   0  211.81   32.17
  -2  -6   0  157.58   25.12
  -2  -6  -1  353.26   40.31
   2  -6   1  420.06   43.86
   2  -6   2   73.91   19.86
  -2  -6  -2   69.78   18.00
   2  -6   3   59.22   17.48
   2  -6   4   50.08   14.18
   2  -6   5   59.30   14.44
   2  -6   6   12.85    8.01
   2  -6   7  150.57   29.66
   2  -6   8   27.84   13.90
   2  -6   9  329.00   44.92
   2  -6  10    5.76    6.40
   2  -6  11  243.24   38.49
   2  -6  12   28.68   14.62
   2  -6  13  143.30   33.16
   2  -6  14   14.67   12.85
   2  -6  15   34.10   16.01
  -2  -5  17   52.60   19.73
  -2  -5  16    2.36    2.68
  -2  -5  15   62.14   19.67
  -2  -5  14  133.45   28.72
  -2  -5  13  106.91   25.16
  -2  -5  12  145.94   29.40
  -2  -5  11  102.22   22.17
  -2  -5  10  699.02   60.89
  -2  -5   9  237.42   35.73
  -2  -5   8  828.80   62.91
  -2  -5   7  282.78   38.83
  -2  -5   6  563.68   49.24
  -2  -5   5  260.76   34.27
  -2  -5   4  564.54   45.88
  -2  -5   3  246.95   31.25
  -2  -5   2  111.51   19.28
   2  -5  -2  139.62   22.93
   2  -5  -1  505.18   43.58
  -2  -5   1  481.22   41.85
   2  -5   0  209.89   26.96
  -2  -5   0  196.05   25.63
  -2  -5  -1 1086.46   60.33
   2  -5   1 1175.48   66.41
   2  -5   2  140.57   24.81
  -2  -5  -2  134.84   24.36
   2  -5   3 1310.52   71.28
   2  -5   4  221.95   29.18
   2  -5   5 1213.95   72.12
   2  -5   6  243.88   36.37
   2  -5   7  471.31   46.82
   2  -5   8  246.76   34.90
   2  -5   9  144.58   28.59
   2  -5  10  136.22   26.35
   2  -5  11   19.95   10.94
   2  -5  12  132.36   27.66
   2  -5  13   88.24   24.01
   2  -5  14   36.76   15.43
   2  -5  15  173.09   34.05
   2  -5  16   69.47   21.82
   2  -5  17   90.97   25.73
  -2  -4  19   54.09   20.54
  -2  -4  18  114.21   28.35
  -2  -4  17   22.20   14.61
  -2  -4  16  226.13   38.11
  -2  -4  15   27.51   14.36
  -2  -4  14  294.20   41.68
  -2  -4  13   53.11   19.48
  -2  -4  12  101.54   22.43
  -2  -4  11  447.96   47.67
  -2  -4  10  340.66   39.58
  -2  -4   9  480.55   45.61
  -2  -4   8  246.50   32.08
  -2  -4   7  567.10   45.96
  -2  -4   6  695.98   49.33
  -2  -4   5 1178.97   61.83
  -2  -4   4  789.44   48.84
  -2  -4   3  777.32   46.90
  -2  -4   2 1133.47   56.44
   2  -4  -2 1078.14   54.65
   2  -4  -1  540.40   40.63
  -2  -4   1  559.26   38.99
   2  -4   0 1440.12   63.45
  -2  -4   0 1351.30   61.30
  -2  -4  -1  463.97   34.55
   2  -4   1  415.79   33.86
  -2  -4  -2  678.00   41.84
   2  -4   2  750.17   46.43
   2  -4   3  136.12   19.63
   2  -4   4  930.57   55.55
   2  -4   5  407.52   38.15
   2  -4   6  553.54   46.15
   2  -4   7  596.42   47.48
   2  -4   8   55.63   17.54
   2  -4   9 1023.58   64.81
   2  -4  10   40.39   12.94
   2  -4  11  469.27   46.80
   2  -4  12  102.27   22.34
   2  -4  13  343.92   42.40
   2  -4  14   60.82   18.60
   2  -4  15   52.86   16.81
   2  -4  16  131.63   27.75
   2  -4  17   26.03   16.32
   2  -4  18   70.45   22.78
  -2  -3  20    1.68    3.73
  -2  -3  19   54.53   21.54
  -2  -3  18   18.05   14.58
  -2  -3  17   54.87   19.90
  -2  -3  16   44.97   16.38
  -2  -3  15   85.69   21.74
  -2  -3  14  256.93   36.98
  -2  -3  13  226.70   32.85
  -2  -3  12  478.77   46.65
  -2  -3  11  207.47   29.10
  -2  -3  10  813.43   56.76
  -2  -3   9   -1.95    4.88
  -2  -3   8  188.43   24.93
  -2  -3   7  113.02   18.76
  -2  -3   6  187.48   23.33
  -2  -3   5  474.28   35.30
  -2  -3   4  635.42   38.14
  -2  -3   3  833.91   42.45
  -2  -3   2 2090.73   65.40
   2  -3  -1  542.75   33.39
  -2  -3   1  565.69   32.77
  -2  -3   0  580.11   32.95
   2  -3   0  542.03   33.43
  -2  -3  -1   74.15   12.75
   2  -3   1   73.80   11.82
   2  -3   2  737.06   39.66
  -2  -3  -2  704.51   36.51
   2  -3   3  559.83   36.32
   2  -3   4   41.57   12.45
   2  -3   5  306.06   28.62
   2  -3   6  173.60   22.28
   2  -3   7  276.48   27.90
   2  -3   8  324.34   33.62
   2  -3   9   64.41   16.06
   2  -3  10  318.89   35.18
   2  -3  11   36.54   12.55
   2  -3  12  185.69   28.84
   2  -3  13   25.92   11.56
   2  -3  14   23.07   12.82
   2  -3  15   54.08   16.25
   2  -3  16   58.36   20.10
   2  -3  17   31.40   11.56
   2  -3  18   48.76   20.36
   2  -3  19   11.57   13.25
  -2  -2  21   48.91   20.37
  -2  -2  20   61.54   19.43
  -2  -2  19   75.38   21.14
  -2  -2  18  147.09   28.72
  -2  -2  17   95.38   21.45
  -2  -2  16  236.76   35.11
  -2  -2  15   58.79   17.72
  -2  -2  14  226.77   31.98
  -2  -2  13  119.36   24.30
  -2  -2  12  181.75   27.39
  -2  -2  11  140.77   23.44
  -2  -2  10  417.82   37.74
  -2  -2   9  113.56   19.39
  -2  -2   8  731.34   45.79
  -2  -2   7  123.46   17.22
  -2  -2   6 1686.73   62.05
  -2  -2   5  740.97   39.27
  -2  -2   4 2163.88   62.95
  -2  -2   3 2105.68   57.02
  -2  -2   2 1245.75   41.50
  -2  -2   1 2820.17   60.48
   2  -2  -1 2842.27   63.30
   2  -2   0   70.33    9.83
  -2  -2   0   71.81    9.17
   2  -2   1  728.63   31.39
  -2  -2  -1  754.07   30.21
   2  -2   2   77.52   11.27
   2  -2   3  292.42   22.28
   2  -2   4  443.93   28.81
   2  -2   5   38.47    9.20
   2  -2   6  263.96   26.08
   2  -2   7  721.15   42.32
   2  -2   8   24.34   11.03
   2  -2   9  652.22   42.99
   2  -2  10   31.83   11.28
   2  -2  11  547.63   43.13
   2  -2  12  160.40   24.89
   2  -2  13  232.90   30.52
   2  -2  14   78.37   18.83
   2  -2  15  112.09   23.11
   2  -2  16   32.89   12.94
   2  -2  17   22.32   11.47
   2  -2  18    6.07    6.97
   2  -2  19   36.98   16.02
   2  -2  20   -4.13    5.26
  -2  -1  21   32.84   13.59
  -2  -1  20  107.61   26.44
  -2  -1  19   44.47   12.67
  -2  -1  18   51.94   15.58
  -2  -1  17   93.49   21.68
  -2  -1  16   10.59    9.33
  -2  -1  15   89.40   19.74
  -2  -1  14  385.16   40.35
  -2  -1  13  234.95   31.53
  -2  -1  12  771.90   53.81
  -2  -1  11  647.61   47.07
  -2  -1  10 2644.90   91.42
  -2  -1   9 1261.80   60.17
  -2  -1   8 2509.49   80.51
  -2  -1   7 1284.04   54.41
  -2  -1   6 2277.80   67.07
  -2  -1   5  889.08   42.56
  -2  -1   4 1257.38   41.78
  -2  -1   3  305.13   18.57
  -2  -1   2 1648.83   37.66
   2  -1  -1 1648.52   52.93
  -2  -1   1 1640.84   32.52
   2  -1   0  532.92   19.69
  -2  -1   0  551.44   17.36
   2  -1   1 5740.73   62.75
   2  -1   1 5596.40   97.21
   2  -1   2 1396.85   34.03
   2  -1   3 6093.68   80.10
   2  -1   4  631.55   28.39
   2  -1   5 3584.88   72.40
   2  -1   5 3422.63   92.48
   2  -1   6  684.15   34.77
   2  -1   6  777.74   46.99
   2  -1   7 2075.85   78.23
   2  -1   7 2226.87   65.69
   2  -1   8  450.18   32.82
   2  -1   8  361.57   34.95
   2  -1   9  513.81   36.45
   2  -1   9  442.12   38.42
   2  -1  10  220.98   25.07
   2  -1  10  191.51   27.00
   2  -1  11   72.73   15.60
   2  -1  11   63.45   16.15
   2  -1  12  383.22   39.22
   2  -1  12  337.40   34.15
   2  -1  13   38.31   13.38
   2  -1  13   48.38   12.63
   2  -1  14   37.49   10.01
   2  -1  15  503.89   47.49
   2  -1  16  112.23   23.12
   2  -1  17  302.27   39.44
   2  -1  18   63.93   20.26
   2  -1  19  117.54   25.70
   2  -1  20   -4.67    6.05
   2  -1  21   77.57   23.02
  -2   0  21   12.36    8.99
  -2   0  20  146.74   31.79
  -2   0  19   21.24   12.64
  -2   0  18  375.62   45.55
  -2   0  17   26.72   13.50
  -2   0  16 1069.42   70.68
  -2   0  15   91.21   21.31
  -2   0  14  810.39   56.37
  -2   0  14  797.01   29.01
  -2   0  13   60.69    7.70
  -2   0  12  800.33   25.92
  -2   0  11  204.11   12.21
   2   0 -10  378.43   22.36
  -2   0  10  396.42   23.48
  -2   0  10  328.19   13.62
   2   0  -9  380.06   23.32
  -2   0   9  407.52   24.52
  -2   0   9  342.12   12.25
   2   0  -8  569.99   29.25
  -2   0   8  577.67   29.01
   2   0  -7 2339.10   60.40
  -2   0   7 2334.80   59.38
  -2   0   6 1047.90   40.52
   2   0  -6 1052.91   41.30
  -2   0   5 3690.02   41.71
   2   0  -5 3768.05   78.51
  -2   0   4 2846.58   67.12
   2   0  -4 2777.54   67.83
  -2   0   4 2738.19   41.89
  -2   0   3 9840.43   90.13
   2   0  -3 9724.68  128.63
  -2   0   3 9999.00  126.05
  -2   0   2 9439.32   99.49
   2   0  -2 9553.51   95.95
   2   0  -1 3567.51   65.80
  -2   0   1 3813.92   78.66
   2   0  -1 3576.80   78.18
  -2   0   1 3642.44   68.10
  -2   0   0 1336.39   45.77
   2   0   0 1454.13   51.15
   2   0   0 1496.97   46.39
  -2   0  -1 2825.13   70.11
   2   0   1 2939.92   71.41
   2   0   1 3083.79   71.74
  -2   0  -1 2664.79   68.16
  -2   0  -2 1777.86   55.04
   2   0   2 1889.20   55.95
   2   0   2 1755.60   25.87
   2   0   2 1753.97   56.54
  -2   0  -2 1809.61   59.23
  -2   0  -3  171.65   18.66
   2   0   3  196.49   19.96
  -2   0  -3  112.59   21.11
   2   0   3  135.04   12.37
   2   0   4 1297.68   45.72
  -2   0  -4 1373.49   48.65
   2   0   4 1330.18   54.42
   2   0   4 1253.43   35.08
   2   0   5  816.38   45.16
   2   0   5  759.57   35.22
  -2   0  -5  780.06   36.70
   2   0   5  798.70   31.62
   2   0   6   25.69    7.59
  -2   0  -6   39.93    9.33
   2   0   6   46.19    8.74
  -2   0  -7 1277.68   45.34
   2   0   7 1295.31   42.91
   2   0   7 1286.82   60.67
   2   0   7 1213.56   46.24
  -2   0  -8  259.88   20.43
   2   0   8  246.41   18.63
   2   0   8  257.97   28.65
   2   0   8  238.62   22.42
   2   0   9 3477.11   68.42
   2   0   9 3254.96  106.15
   2   0   9 3314.30   90.22
   2   0  10   70.56   17.53
   2   0  10   47.14   12.03
   2   0  11 1563.02   78.02
   2   0  11 1613.40   71.41
   2   0  12   55.78   16.76
   2   0  12   56.44   17.53
   2   0  13 1638.24   84.95
   2   0  13 1804.10   82.42
   2   0  14   82.43   20.35
   2   0  14   92.11   22.13
   2   0  15  240.83   31.91
   2   0  15  271.59   35.90
   2   0  16   93.94   23.00
   2   0  16   48.81   16.22
   2   0  17   73.48   20.00
   2   0  17   38.75   12.39
   2   0  18  113.87   24.76
   2   0  18   46.90   15.06
   2   0  19   -4.59    7.21
   2   0  19  -13.57   10.59
   2   0  20   75.34   22.07
   2   0  20   83.84   22.09
   2   0  21   34.35   14.92
  -2   1  21   61.49   20.44
  -2   1  20  121.50   27.87
  -2   1  15   47.98   10.14
   2   1 -14  355.59   18.86
  -2   1  14  399.52   27.12
  -2   1  13  226.75   17.44
   2   1 -13  244.56   17.16
   2   1 -12  909.37   36.76
  -2   1  12  928.52   36.56
   2   1 -11  633.97   33.23
  -2   1  11  606.78   30.51
  -2   1  10 2778.77   66.04
   2   1 -10 2692.07   67.93
   2   1  -9 1161.86   45.33
  -2   1   9 1231.21   44.84
  -2   1   8 2602.59   63.83
   2   1  -8 2322.20   62.82
   2   1  -7 1273.19   47.13
  -2   1   7 1291.58   44.86
   2   1  -6 2170.92   61.96
  -2   1   6 2324.19   60.19
  -2   1   5  797.29   35.44
   2   1  -5  671.19   17.74
  -2   1   4 1079.92   41.07
   2   1  -4 1030.78   42.48
   2   1  -4 1031.83   37.42
  -2   1   3  389.69   25.57
   2   1  -3  336.52   21.48
   2   1  -2 1694.36   54.64
  -2   1   2 1676.65   50.69
   2   1  -2 1646.78   38.62
  -2   1   1 1534.01   48.69
  -2   1   1 1544.62   35.27
   2   1  -1 1532.66   51.82
   2   1  -1 1518.40   32.85
  -2   1   0  768.32   23.26
  -2   1   0  815.18   35.85
   2   1   0  758.22   21.49
   2   1   0  815.10   38.40
  -2   1   0  830.87   35.32
   2   1   1 5821.23   57.80
  -2   1  -1 5897.25   96.90
  -2   1  -1 5831.20   96.10
  -2   1  -1 5828.41   63.08
   2   1   1 5673.53  101.06
  -2   1  -2 1449.51   51.24
   2   1   2 1400.11   49.90
  -2   1  -2 1441.00   47.84
   2   1   2 1371.37   31.72
  -2   1  -2 1352.22   32.91
  -2   1  -3 5911.56   98.52
  -2   1  -3 5931.22   76.89
   2   1   3 5929.94  102.54
   2   1   3 5612.98  113.05
   2   1   4  675.98   35.49
  -2   1  -4  683.48   34.39
  -2   1  -4  631.80   29.35
   2   1   5 3653.76   82.31
  -2   1  -5 3736.02   79.65
   2   1   5 3769.43  101.81
   2   1   6  650.71   34.52
  -2   1  -6  654.30   34.56
   2   1   6  716.90   47.32
   2   1   7 2182.12   62.57
   2   1   7 2311.01   86.34
  -2   1  -7 2335.27   64.50
  -2   1  -8  299.75   23.40
   2   1   8  293.04   24.75
  -2   1  -9  506.19   29.67
   2   1   9  517.76   43.60
   2   1   9  520.07   30.50
  -2   1 -10  158.49   16.85
   2   1  10  173.17   17.98
   2   1  10  200.34   28.12
   2   1  11   52.76   14.90
  -2   1 -11   33.80    7.66
   2   1  11   37.88    7.59
   2   1  12  393.73   23.15
   2   1  12  362.43   39.29
   2   1  13   36.30   13.16
   2   1  14   57.04   16.78
   2   1  15  449.21   47.03
   2   1  16   83.02   20.48
   2   1  16   78.28   20.28
   2   1  17  220.12   34.73
   2   1  17  253.78   36.08
   2   1  18   23.39   12.27
   2   1  18   44.85   13.73
   2   1  19   78.81   21.40
   2   1  19  122.58   29.06
   2   1  20   17.20   11.46
   2   1  20   26.20   14.41
   2   1  21   69.22   22.66
   2   2 -14  220.79   19.92
   2   2 -13  103.61   14.27
   2   2 -12  183.54   19.30
   2   2 -11  152.08   19.01
   2   2 -11  123.55   10.07
   2   2 -10  384.24   28.53
   2   2 -10  372.45   17.05
   2   2  -9  106.01   15.71
   2   2  -9   63.29    6.99
   2   2  -8  855.01   41.91
   2   2  -7  117.53   15.91
   2   2  -4 2402.29   65.22
  -2   2   3 2131.97   60.10
   2   2  -3 2248.69   59.23
  -2   2   2 1455.26   47.86
   2   2  -2 1450.35   45.48
  -2   2   1 2879.72   63.24
   2   2  -1 2939.87   61.89
   2   2   0  125.94   12.40
  -2   2   0  114.55   12.33
  -2   2  -1  775.10   31.94
   2   2   1  762.04   30.64
  -2   2  -2   51.11    8.81
   2   2   2   47.19    8.06
  -2   2  -3  313.90   21.39
   2   2   3  326.65   22.76
   2   2   4  357.92   26.11
  -2   2  -4  343.70   23.91
   2   2   5   22.16    6.63
   2   2   6  308.21   26.71
   2   2   7  770.46   41.22
   2   2   8   30.15    9.61
   2   2   9  620.56   38.07
   2   2  10   43.82   16.07
   2   2  10   23.55    7.86
   2   2  11  594.08   36.86
   2   2  11  560.13   51.27
   2   2  12   96.89   23.91
   2   2  12  105.35   14.88
   2   2  13  313.91   40.97
   2   2  14   77.88   20.69
   2   2  15   96.17   23.08
   2   2  16   30.80   15.20
   2   2  17   28.49   13.63
   2   2  18   15.43   13.70
   2   2  19   -7.14    8.94
   2   2  20   39.96   18.44
   2   2  20    7.30    7.71
   2   3 -14  237.06   24.17
   2   3 -13  254.61   25.37
   2   3 -12  567.88   38.08
   2   3  10  307.48   30.65
   2   3  11   31.60   10.20
   2   3  12  239.90   27.55
   2   3  13   30.66   16.31
   2   3  14   63.83   19.51
   2   3  15   90.20   25.27
   2   3  16   58.20   21.95
   2   3  17   32.91   12.40
   2   3  18   59.67   22.10
   2   3  19   45.52   18.75
   2   3  20   86.95   29.01
   2   4 -14  299.81   30.38
   2   4  15   85.25   27.68
   2   4  16  140.02   38.04
   2   4  17   18.26   14.46
   2   4  18   61.57   22.44
   2   4  19    7.39    9.49
   2   5  17  144.63   41.13
  -3  -8   8   11.64    5.20
  -3  -8   7   41.10   16.20
  -3  -8   6   13.19   10.41
  -3  -8   5   65.61   19.30
  -3  -8   4   23.34   10.17
  -3  -8   3   51.66   17.76
  -3  -8   2   28.74   14.32
  -3  -8   1   52.93   18.79
  -3  -8   0   44.68   17.31
   3  -8   0   44.63   18.76
   3  -8   1    6.79    5.87
   3  -8   2   70.31   23.65
   3  -8   3    1.13    6.25
   3  -8   4   21.61   15.85
   3  -8   5   34.56   16.05
   3  -8   6   -9.27    9.50
   3  -8   7   37.66   15.76
  -3  -7  12   33.46   14.24
  -3  -7  11   51.36   20.74
  -3  -7  10   68.50   23.33
  -3  -7   9   39.74   17.49
  -3  -7   8   75.10   20.83
  -3  -7   7   19.34   12.29
  -3  -7   6  123.18   27.30
  -3  -7   5   48.27   16.37
  -3  -7   4  108.79   25.30
  -3  -7   3   36.85   13.79
  -3  -7   2   91.10   20.73
  -3  -7   1  112.34   24.35
  -3  -7   0   48.49   15.12
   3  -7   0   51.76   17.83
   3  -7   1  143.53   28.82
  -3  -7  -1  150.52   27.36
   3  -7   2   18.15   13.02
   3  -7   3  161.07   31.25
   3  -7   4   27.67    6.77
   3  -7   5  126.63   27.45
   3  -7   6  127.18   28.63
   3  -7   7   37.94   18.63
   3  -7   8   95.28   25.22
   3  -7   9    9.28    4.42
   3  -7  10   56.43   19.76
   3  -7  11    7.32    6.80
  -3  -6  15  -14.67   13.39
  -3  -6  14   33.57   14.62
  -3  -6  13   30.92   17.36
  -3  -6  12   43.40   19.51
  -3  -6  11   57.73   19.03
  -3  -6  10  104.13   25.32
  -3  -6   9   50.79   18.18
  -3  -6   8  115.23   24.64
  -3  -6   7   47.43   16.12
  -3  -6   6  102.02   21.92
  -3  -6   5   59.52   16.03
  -3  -6   4   33.22   12.02
  -3  -6   3   58.07   15.31
  -3  -6   2  115.16   22.07
  -3  -6   1   48.42   11.51
   3  -6  -1   61.24   16.30
   3  -6   0  192.41   30.25
  -3  -6   0  173.51   27.90
  -3  -6  -1   55.70   13.88
   3  -6   1   60.57   18.56
   3  -6   2  469.16   46.58
   3  -6   3    8.47    4.80
   3  -6   4  225.64   33.72
   3  -6   5   56.07   15.44
   3  -6   6  104.59   22.94
   3  -6   7   79.25   21.22
   3  -6   8   34.42   13.09
   3  -6   9   44.94   16.42
   3  -6  10   36.28   15.02
   3  -6  11   18.95   12.23
   3  -6  12   32.22   12.11
   3  -6  13   41.10   18.51
   3  -6  14   60.29   20.90
  -3  -5  17   15.03    9.69
  -3  -5  16   69.36   21.39
  -3  -5  15  -12.32   10.41
  -3  -5  14   91.06   23.70
  -3  -5  13  -10.49    7.97
  -3  -5  12  186.90   33.21
  -3  -5  11   41.98   14.60
  -3  -5  10   86.63   20.44
  -3  -5   9  129.08   25.40
  -3  -5   8   14.23    7.90
  -3  -5   7  212.50   30.24
  -3  -5   6    2.79    3.93
  -3  -5   5   51.59   14.60
  -3  -5   4  163.28   24.15
  -3  -5   3   39.58   11.36
  -3  -5   2  316.06   32.78
  -3  -5   1  161.01   22.06
   3  -5  -1  169.79   24.83
   3  -5   0  145.74   22.61
  -3  -5   0  109.34   18.99
   3  -5   1  167.74   24.73
  -3  -5  -1  184.78   24.80
   3  -5   2  103.44   19.23
  -3  -5  -2  115.47   19.21
   3  -5   3  303.61   33.74
   3  -5   4  115.46   22.46
   3  -5   5  114.55   20.96
   3  -5   6  142.90   24.60
   3  -5   7   63.34   17.52
   3  -5   8  167.71   27.97
   3  -5   9   13.11    8.76
   3  -5  10   91.82   21.94
   3  -5  11   11.81    9.22
   3  -5  12   16.60    9.20
   3  -5  13   58.98   19.07
   3  -5  14   21.13   13.25
   3  -5  15    7.05    9.70
   3  -5  16   16.97   13.38
  -3  -4  18   69.58   21.69
  -3  -4  17   52.15   18.69
  -3  -4  16  118.34   26.96
  -3  -4  15  135.41   29.86
  -3  -4  14   86.60   23.19
  -3  -4  13   43.13   15.42
  -3  -4  12   76.56   20.04
  -3  -4  11   80.33   19.09
  -3  -4  10   50.45   16.36
  -3  -4   9   76.98   17.71
  -3  -4   8  242.19   30.25
  -3  -4   7  499.42   42.05
  -3  -4   6  205.46   26.51
  -3  -4   5 1140.11   60.08
  -3  -4   4  265.86   28.34
  -3  -4   3 1230.71   58.71
  -3  -4   2   95.28   15.34
   3  -4  -1 1428.67   63.15
  -3  -4   1 1380.02   60.38
   3  -4   0    0.60    3.82
  -3  -4   0   -2.16    1.65
   3  -4   1  573.82   39.79
  -3  -4  -1  523.98   36.48
   3  -4   2   25.57    8.63
  -3  -4  -2   30.93    7.35
   3  -4   3   21.87    9.34
   3  -4   4   21.57    8.60
   3  -4   5  116.77   19.06
   3  -4   6   41.08   12.22
   3  -4   7  541.81   45.06
   3  -4   8   95.39   19.46
   3  -4   9  545.72   47.45
   3  -4  10  165.43   26.84
   3  -4  11  286.90   36.74
   3  -4  12   97.08   22.23
   3  -4  13  111.44   24.09
   3  -4  14   33.51   11.66
   3  -4  15   33.63   14.72
   3  -4  16    1.00    6.07
   3  -4  17   31.24   15.82
   3  -4  18    9.46   11.06
  -3  -3  20   35.03   15.09
  -3  -3  19    8.31    9.95
  -3  -3  18   54.71   19.64
  -3  -3  17   64.46   21.17
  -3  -3  16   50.45   19.18
  -3  -3  15  180.14   32.37
  -3  -3  14  112.53   24.89
  -3  -3  13  603.58   53.89
  -3  -3  12  288.68   36.58
  -3  -3  11  546.56   47.97
  -3  -3  10  549.74   47.02
  -3  -3   9 1247.83   67.33
  -3  -3   8  586.05   45.00
  -3  -3   7  772.28   47.98
  -3  -3   6  402.80   34.94
  -3  -3   5  173.67   20.50
  -3  -3   4  146.64   18.69
  -3  -3   3  122.88   16.27
  -3  -3   2  136.14   16.48
  -3  -3   1 1336.10   50.02
  -3  -3   0  107.25   14.13
   3  -3   0  127.32   16.52
  -3  -3  -1 3938.51   84.29
   3  -3   1 4000.80   91.58
   3  -3   2   42.32    8.00
   3  -3   3 3371.84   85.65
   3  -3   4   55.67   13.30
   3  -3   5 2462.97   79.39
   3  -3   6   22.72    9.91
   3  -3   7 1264.15   61.04
   3  -3   8  111.43   21.65
   3  -3   9   28.30   10.43
   3  -3  10   15.12   13.13
   3  -3  11   22.18   10.73
   3  -3  12  406.24   41.64
   3  -3  13  135.87   24.47
   3  -3  14  208.99   32.18
   3  -3  15  191.76   31.51
   3  -3  16  162.64   30.00
   3  -3  17   62.52   17.89
   3  -3  18   94.29   24.68
  -3  -2  20   40.89   14.42
  -3  -2  19  118.60   27.62
  -3  -2  18  176.37   32.43
  -3  -2  17  157.78   28.71
  -3  -2  16  365.81   44.50
  -3  -2  15   35.57   14.77
  -3  -2  14  478.64   48.99
  -3  -2  13   14.86    8.09
  -3  -2  12  176.47   27.93
  -3  -2  11  319.71   34.86
  -3  -2  10  303.04   32.86
  -3  -2   9  510.70   40.56
  -3  -2   8  343.73   31.31
  -3  -2   7 1955.33   70.37
  -3  -2   6  268.54   24.88
  -3  -2   5 4200.30   91.81
  -3  -2   4  702.44   35.38
  -3  -2   3 2152.39   57.16
  -3  -2   2  369.40   22.15
  -3  -2   1 4832.14   77.03
  -3  -2   0  337.62   19.61
   3  -2   0  320.62   20.75
  -3  -2  -1  308.67   18.97
   3  -2   1  290.80   19.89
   3  -2   2  780.39   33.36
   3  -2   3   32.66    7.13
   3  -2   4  727.58   35.32
   3  -2   5 1019.43   43.56
   3  -2   6  588.36   35.16
   3  -2   7 2153.10   71.40
   3  -2   8  316.47   29.24
   3  -2   9 1638.97   68.29
   3  -2  10  241.37   27.55
   3  -2  11  810.98   52.52
   3  -2  12  156.90   23.64
   3  -2  13  311.38   35.00
   3  -2  14    6.90    3.36
   3  -2  15   77.61   19.35
   3  -2  16   53.17   17.48
   3  -2  17   17.67    8.74
   3  -2  18   73.74   21.58
  -3  -1  21    5.39    1.70
  -3  -1  20    0.99    7.04
  -3  -1  19   11.54    6.96
  -3  -1  18   40.42   16.98
  -3  -1  17   41.82   13.95
  -3  -1  16  404.18   44.81
  -3  -1  15  265.15   34.90
  -3  -1  14  347.58   38.91
  -3  -1  13  421.63   42.26
  -3  -1  12  468.01   42.38
  -3  -1  11  381.14   36.33
  -3  -1  10  783.22   50.53
  -3  -1   9  577.96   41.01
  -3  -1   8  489.54   35.81
  -3  -1   7  217.93   22.00
   3  -1  -6  463.71   34.87
  -3  -1   6  453.10   30.28
  -3  -1   5   46.13    8.72
   3  -1  -5   70.05   13.23
   3  -1  -4  321.63   30.11
  -3  -1   4  271.40   19.31
   3  -1  -3  453.40   34.31
  -3  -1   3  421.56   21.25
   3  -1  -2 2089.20   73.55
  -3  -1   2 2060.23   41.64
   3  -1  -1 1652.30   65.41
  -3  -1   1 1782.16   33.27
  -3  -1   0  774.55   18.91
   3  -1   0  760.55   43.45
   3  -1   1 2613.76   81.02
   3  -1   1 2765.96   43.16
   3  -1   2  142.78   10.01
   3  -1   2  138.42   18.44
   3  -1   3 2346.48   75.10
   3  -1   3 2360.87   46.38
   3  -1   4   77.21    9.17
   3  -1   4   71.15   13.38
   3  -1   5 1118.58   51.22
   3  -1   5 1171.96   40.13
   3  -1   5 1108.27   59.84
   3  -1   6  316.18   22.50
   3  -1   6  278.15   32.13
   3  -1   7  213.16   20.50
   3  -1   7  231.74   29.33
   3  -1   8  397.67   28.96
   3  -1   8  391.01   38.56
   3  -1   9   72.56   18.41
   3  -1   9   67.43   13.86
   3  -1  10  201.94   23.16
   3  -1  10  227.40   31.90
   3  -1  11  289.04   29.73
   3  -1  11  261.39   35.05
   3  -1  12  172.39   24.72
   3  -1  12  132.33   26.19
   3  -1  13  157.26   24.73
   3  -1  14  128.42   23.09
   3  -1  15  137.59   24.27
   3  -1  16  190.50   30.43
   3  -1  17   45.46   15.78
   3  -1  18   90.69   22.83
   3  -1  19    0.63    7.03
  -3   0  21   27.00   14.00
  -3   0  20  126.46   28.52
  -3   0  19   30.27   10.53
  -3   0  18  252.12   37.24
  -3   0  17   57.36   18.40
  -3   0  16   27.62   11.20
  -3   0  15   13.66    8.42
  -3   0  14    0.87    4.63
  -3   0  13   12.40    6.96
   3   0 -12  199.64   20.48
   3   0 -11    2.56    0.42
   3   0 -10  717.84   40.73
   3   0  -9   12.11    5.05
   3   0  -8 1072.32   50.93
   3   0  -7   88.34   15.70
  -3   0   7   65.10    6.57
   3   0  -6  995.82   49.13
  -3   0   6  956.01   28.95
   3   0  -5  189.39   21.31
  -3   0   5  163.58   13.67
   3   0  -4  484.53   34.55
  -3   0   4  482.44   25.53
   3   0  -3  227.42   23.32
  -3   0   3  223.52   18.71
  -3   0   2    7.72    3.85
   3   0  -2   -1.64    5.20
   3   0  -2    2.10    2.00
   3   0  -1  103.52   15.52
   3   0  -1   97.96   13.60
  -3   0   1  109.92   14.73
   3   0   0  364.62   30.39
   3   0   0  358.43   27.24
  -3   0   0  414.64   30.33
   3   0   1   21.87    9.30
   3   0   1   16.15    8.03
   3   0   2  764.61   43.18
   3   0   2  829.61   45.27
   3   0   3  142.58   19.22
   3   0   3  134.06    8.04
   3   0   3  149.99   22.00
   3   0   4  824.13   45.04
   3   0   4  791.56   24.92
   3   0   4  799.92   49.52
   3   0   5  630.60   38.51
   3   0   5  717.92   27.76
   3   0   5  752.92   49.50
   3   0   6   30.41    8.37
   3   0   6   28.84    6.12
   3   0   6   29.22   10.11
   3   0   7  353.09   27.84
   3   0   7  433.02   40.73
   3   0   7  365.18   24.63
   3   0   8   77.36   12.54
   3   0   8   51.79   10.63
   3   0   8   74.62   15.69
   3   0   9  281.95   24.67
   3   0   9  256.86   33.88
   3   0   9  279.31   25.11
   3   0  10  224.66   22.16
   3   0  10  178.83   21.70
   3   0  10  191.02   28.82
   3   0  11  218.24   32.83
   3   0  11  200.76   23.63
   3   0  12  515.83   51.34
   3   0  12  485.99   39.45
   3   0  13   18.91    6.83
   3   0  13   24.82   10.08
   3   0  14   25.16    9.38
   3   0  14    9.31    9.36
   3   0  15   -2.55    4.42
   3   0  15   -2.56    4.90
   3   0  16   28.40   11.43
   3   0  16    6.43   11.47
   3   0  17   43.02   13.98
   3   0  17    6.86    4.50
   3   0  18   11.81   10.21
   3   0  18   -4.16    5.96
   3   0  19   17.18    9.70
  -3   1  21   -0.10    6.11
  -3   1  20   42.49   15.60
   3   1 -14  301.16   25.52
   3   1 -13  445.42   32.24
   3   1 -12  470.20   34.03
   3   1 -11  337.37   29.34
   3   1 -10  839.99   46.82
   3   1  -9  498.18   35.94
   3   1  -8  421.47   33.00
   3   1  -7  253.90   25.64
   3   1  -6  482.09   35.51
   3   1  -6  503.14   18.72
   3   1  -5   48.62   11.39
   3   1  -5   61.44    7.72
   3   1  -4  376.96   31.68
   3   1  -4  313.39   19.94
   3   1  -3  441.99   33.96
  -3   1   3  418.44   26.44
   3   1  -3  405.63   24.89
   3   1  -2 2073.59   72.67
  -3   1   2 2026.56   45.12
  -3   1   2 1967.90   59.69
   3   1  -2 1933.47   58.75
   3   1  -1 1550.64   64.31
  -3   1   1 1583.71   35.50
   3   1  -1 1531.18   32.55
   3   1  -1 1506.17   55.17
   3   1   0  769.04   44.74
  -3   1   0  758.54   22.63
   3   1   0  736.42   19.22
   3   1   0  794.77   41.71
   3   1   1 2466.50   80.27
   3   1   1 2496.97   33.50
  -3   1  -1 2574.91   40.66
   3   1   1 2531.00   79.54
   3   1   2  135.34   18.85
   3   1   2  126.32    8.04
  -3   1  -2  144.91   10.03
   3   1   2  139.92   19.53
   3   1   3 2434.64   80.00
   3   1   3 2488.29   43.29
   3   1   3 2644.50   88.06
  -3   1  -3 2542.80   47.85
   3   1   4   75.78   16.52
   3   1   4   74.94    8.25
   3   1   4   76.21   14.81
   3   1   5  884.49   49.21
   3   1   5 1045.12   59.35
   3   1   6  310.43   29.09
   3   1   6  343.11   35.99
   3   1   7  221.75   30.01
   3   1   7  242.37   25.76
   3   1   8  376.57   31.70
   3   1   8  377.03   39.35
   3   1   9   35.28   11.04
   3   1   9   40.82   10.27
   3   1  10  199.55   30.89
   3   1  10  192.05   21.99
   3   1  11  237.40   23.47
   3   1  11  269.68   36.54
   3   1  12  201.90   32.06
   3   1  12  214.12   21.52
   3   1  12  198.32   25.92
   3   1  13  159.75   31.31
   3   1  13  165.56   25.18
   3   1  14  140.68   29.50
   3   1  14  119.77   20.85
   3   1  15  141.05   29.86
   3   1  15  135.50   23.87
   3   1  16  239.22   33.44
   3   1  16  204.53   36.59
   3   1  17   47.95   16.39
   3   1  17   41.76   13.33
   3   1  18   66.84   20.14
   3   1  18   48.40   17.28
   3   1  19   22.19   11.97
   3   1  20  -10.81    8.87
   3   2 -14  492.71   37.11
   3   2 -13   18.02    6.00
   3   2 -12  213.67   25.07
   3   2 -11  319.65   30.42
   3   2 -10  312.74   30.48
   3   2  -9  505.76   38.05
   3   2  -8  309.10   29.59
   3   2  -8  263.44   13.18
   3   2  -7 1835.50   71.24
   3   2  -6  271.06   28.53
   3   2  -5 4145.73  108.04
   3   2  -4  841.47   48.74
   3   2  -4  845.62   39.54
   3   2  -3 2070.61   76.92
  -3   2   3 1991.21   59.33
   3   2  -3 2092.48   58.50
  -3   2   2  390.54   25.26
   3   2  -2  415.79   24.65
   3   2  -1 4799.57  117.75
  -3   2   1 4976.85   83.88
   3   2  -1 4988.48   79.74
   3   2   0  424.00   22.44
  -3   2   0  423.18   23.95
   3   2   1  304.46   30.13
   3   2   1  303.47   18.46
  -3   2  -1  294.19   19.45
   3   2   2  858.73   51.32
   3   2   2  779.13   30.39
  -3   2  -2  816.01   33.04
   3   2   3   33.38    6.91
   3   2   3   35.84   10.38
  -3   2  -3   35.43    6.97
   3   2   4  615.38   43.12
  -3   2  -4  644.94   31.90
   3   2   4  639.92   31.83
   3   2   5  960.89   52.82
   3   2   5  942.73   41.11
  -3   2  -5  967.60   41.19
   3   2   5 1056.70   62.84
   3   2   6  578.84   33.23
   3   2   6  637.72   43.13
   3   2   7 2039.32   77.95
   3   2   7 2258.68   98.30
   3   2   8  279.44   29.25
   3   2   8  287.46   36.86
   3   2   9 1530.34   68.05
   3   2   9 1706.72   90.55
   3   2  10  249.15   35.04
   3   2  10  256.53   27.85
   3   2  11  789.27   65.97
   3   2  11  844.83   51.29
   3   2  12  172.45   30.93
   3   2  12  164.19   22.04
   3   2  13  323.90   44.11
   3   2  14   16.42   11.26
   3   2  15   51.09   18.79
   3   2  16   31.73   16.03
   3   2  17    0.43    4.80
   3   2  17    3.06    5.35
   3   2  18   54.10   20.47
   3   2  18   71.21   19.08
   3   2  19   22.59   12.82
   3   3 -14   70.16   15.39
   3   3 -13  599.08   44.80
   3   3 -12  271.26   29.70
   3   3 -11  484.54   39.41
   3   3 -10  553.31   41.84
   3   3  -9 1148.41   59.95
   3   3  -8  613.95   44.60
   3   3  -7  792.74   50.91
   3   3  -6  375.16   37.07
   3   3   3 3292.87  108.67
   3   3   4   46.07   14.66
   3   3   5 2258.48   88.59
   3   3   6   12.77   11.05
   3   3   7 1056.44   61.33
   3   3   8   97.38   18.68
   3   3   9   10.25    6.61
   3   3  10   32.22   16.96
   3   3  10   28.39   11.10
   3   3  11   38.63   16.43
   3   3  11   34.82   13.63
   3   3  12  401.99   39.30
   3   3  12  390.43   51.40
   3   3  13  123.07   27.51
   3   3  14  280.28   45.58
   3   3  15  226.03   42.38
   3   3  16  199.91   40.65
   3   3  17   69.92   23.13
   3   3  18  122.20   33.34
   3   4 -14   81.54   17.15
   3   4 -13   43.15   12.84
   3   4 -12   46.53   12.94
   3   4 -11   69.32   16.47
   3   4 -10   41.12   13.45
   3   4   8   60.90   15.35
   3   4   9  452.09   42.88
   3   4  10  154.51   25.75
   3   4  11  259.43   33.89
   3   4  12  121.66   23.78
   3   4  13  140.63   33.93
   3   4  14   51.84   24.50
   3   4  15    5.57    6.12
   3   4  16  -29.49   15.73
   3   4  17   27.34   16.57
   3   5 -14   87.75   19.34
   3   5 -13   17.08    9.63
   3   5  11   13.34    7.23
   3   5  15    6.70   17.14
  -4  -8   7    4.61    3.61
  -4  -8   6   14.76   10.83
  -4  -8   5   11.42    9.40
  -4  -8   4    5.23    5.76
  -4  -8   3   36.58   15.78
  -4  -8   2   68.24   21.67
  -4  -8   1    4.95    7.97
  -4  -8   0   45.91   17.53
   4  -8   2   54.41   18.13
   4  -8   3   16.25   14.58
   4  -8   4   19.15   13.77
   4  -8   5   43.17   18.73
  -4  -7  12   11.70    8.01
  -4  -7  11   37.18   18.14
  -4  -7  10   38.60   15.94
  -4  -7   9   70.37   22.31
  -4  -7   8   23.37   14.46
  -4  -7   7   28.08   12.20
  -4  -7   6   30.77   13.63
  -4  -7   5    4.98    1.84
  -4  -7   4    4.24    1.04
  -4  -7   3   14.95   10.59
  -4  -7   2    0.83    3.11
  -4  -7   1   38.23   14.69
  -4  -7   0   27.84   12.96
   4  -7   1   81.83   20.95
   4  -7   2   99.02   22.56
   4  -7   3   36.37   14.79
   4  -7   4   66.00   18.47
   4  -7   5   15.74   10.68
   4  -7   6   37.82   14.68
   4  -7   7    3.75    5.44
   4  -7   8   11.38    9.72
   4  -7   9  -10.58    7.96
   4  -7  10    0.28    6.82
  -4  -6  15   48.36   20.22
  -4  -6  14   22.20   12.45
  -4  -6  13   78.04   24.70
  -4  -6  12    6.04    1.85
  -4  -6  11   -2.22    2.55
  -4  -6  10   -2.35    6.16
  -4  -6   9   41.85   15.74
  -4  -6   8   20.73   11.20
  -4  -6   7  253.41   36.95
  -4  -6   6   59.69   17.91
  -4  -6   5  305.63   37.21
  -4  -6   4   42.25   15.32
  -4  -6   3  219.41   32.30
  -4  -6   2   56.91   16.47
  -4  -6   1  183.85   27.85
  -4  -6   0   19.46    9.83
   4  -6   1   11.69    7.38
  -4  -6  -1   11.74    7.46
   4  -6   2   86.44   20.01
   4  -6   3   10.24    7.72
   4  -6   4  112.03   22.57
   4  -6   5   46.25   14.83
   4  -6   6  122.78   23.66
   4  -6   7   86.23   20.42
   4  -6   8  151.76   28.22
   4  -6   9   70.82   19.27
   4  -6  10   91.64   22.63
   4  -6  11   23.63   14.61
  -4  -5  17   18.91   10.17
  -4  -5  16   23.04    3.99
  -4  -5  15   39.52   15.83
  -4  -5  14   20.19   13.59
  -4  -5  13  156.73   31.61
  -4  -5  12   28.12   14.02
  -4  -5  11  240.27   35.50
  -4  -5  10   25.14   11.04
  -4  -5   9  234.91   32.79
  -4  -5   8   82.69   18.95
  -4  -5   7  102.83   22.00
  -4  -5   6  234.80   31.50
  -4  -5   5   20.04    9.49
  -4  -5   4  155.19   23.20
  -4  -5   3  137.03   21.73
  -4  -5   2  228.37   28.12
  -4  -5   1  343.63   33.65
  -4  -5   0  155.47   22.98
   4  -5   0  167.81   25.36
  -4  -5  -1  478.79   39.82
   4  -5   1  482.47   41.79
   4  -5   2  173.66   25.33
   4  -5   3  318.32   34.17
   4  -5   4  111.20   21.28
   4  -5   5  187.91   26.79
   4  -5   6   45.68   13.75
   4  -5   7  107.96   21.37
   4  -5   8   56.31   14.92
   4  -5   9   12.94    9.59
   4  -5  10  153.98   27.29
   4  -5  11   27.61   13.31
   4  -5  12  144.96   28.03
  -4  -4  18   49.17   19.31
  -4  -4  17   15.61   14.09
  -4  -4  16   42.10   17.23
  -4  -4  15   18.44    9.09
  -4  -4  14   69.84   20.06
  -4  -4  13    2.68    2.66
  -4  -4  12  176.54   29.21
  -4  -4  11   40.87   12.44
  -4  -4  10  205.22   29.80
  -4  -4   9  169.25   26.41
  -4  -4   8   89.74   19.47
  -4  -4   7  602.80   45.63
  -4  -4   6   75.30   16.89
  -4  -4   5  434.59   37.12
  -4  -4   4   38.69   10.25
  -4  -4   3  298.76   28.79
  -4  -4   2  215.89   23.44
  -4  -4   1  307.89   28.68
  -4  -4   0   52.93   11.39
   4  -4   0   50.56   11.97
   4  -4   1  101.46   16.71
  -4  -4  -1   86.17   14.01
   4  -4   2  474.71   36.71
   4  -4   3   76.63   14.97
   4  -4   4  241.34   26.92
   4  -4   5  195.92   24.13
   4  -4   6  265.00   28.68
   4  -4   7  199.33   25.99
   4  -4   8  248.21   30.83
   4  -4   9   66.88   16.45
   4  -4  10  119.55   21.91
   4  -4  11   96.35   20.65
   4  -4  12   23.68   10.25
  -4  -3  19    7.88   10.45
  -4  -3  18   79.48   23.71
  -4  -3  17   11.03   12.10
  -4  -3  16  124.95   27.83
  -4  -3  15   52.25   16.93
  -4  -3  14  206.52   32.22
  -4  -3  13   14.13    8.77
  -4  -3  12  218.10   31.32
  -4  -3  11   89.91   19.28
  -4  -3  10   56.36   11.98
  -4  -3   9    8.07    6.42
  -4  -3   8   93.51   16.68
  -4  -3   7   24.98    8.67
  -4  -3   6  337.08   29.88
  -4  -3   5  158.21   19.57
  -4  -3   4  417.79   31.43
  -4  -3   3  431.51   30.41
  -4  -3   2   60.73   10.93
  -4  -3   1  490.52   29.89
  -4  -3   0   13.13    4.58
   4  -3   1  332.57   25.64
   4  -3   2    0.82    2.12
   4  -3   3  156.73   18.33
   4  -3   4  122.57   16.60
   4  -3   5   10.51    5.54
   4  -3   6   50.68   11.06
   4  -3   7  145.84   20.59
   4  -3   8  103.00   17.70
   4  -3   9   84.48   16.33
   4  -3  10   77.12   15.92
   4  -3  11   84.66   18.44
   4  -3  12  100.06   20.06
  -4  -2  20   65.46   20.76
  -4  -2  19   25.56   12.16
  -4  -2  18   55.80   17.58
  -4  -2  17   15.89    5.51
  -4  -2  16    8.98    4.05
  -4  -2  15   62.69   16.95
  -4  -2  14    6.22    1.33
  -4  -2  13   59.30   16.61
  -4  -2  12  399.57   40.95
  -4  -2  11  286.52   32.94
  -4  -2  10  361.71   35.13
  -4  -2   9  352.33   32.78
  -4  -2   8  541.21   38.24
  -4  -2   7  497.48   34.51
  -4  -2   6  314.58   26.25
  -4  -2   5  724.47   37.76
  -4  -2   4   90.57   12.47
  -4  -2   3  247.82   19.56
  -4  -2   2  178.70   15.42
  -4  -2   1  104.39   11.08
  -4  -2   0   88.81    9.47
   4  -2   2   87.77   10.97
   4  -2   3  335.29   22.33
   4  -2   4   32.15    6.92
   4  -2   5  460.73   28.82
   4  -2   6   94.91   13.66
   4  -2   7  294.27   25.07
   4  -2   8  147.15   19.01
   4  -2   9   77.32   13.53
   4  -2  10  118.10   18.50
   4  -2  11   18.35    7.74
   4  -2  12  169.28   24.23
  -4  -1  20   14.72    7.25
  -4  -1  19    6.79    6.71
  -4  -1  18   68.43   19.32
  -4  -1  17   44.64   13.66
  -4  -1  16  204.81   31.79
  -4  -1  15  358.43   41.04
  -4  -1  14  154.77   25.77
  -4  -1  13 1004.04   64.94
  -4  -1  12  253.65   30.88
  -4  -1  11 1180.15   64.79
  -4  -1  10   22.16    7.71
  -4  -1   9 1102.79   56.47
  -4  -1   8   43.03   10.56
   4  -1  -8   45.01   13.47
   4  -1  -7  422.19   38.16
  -4  -1   7  421.20   30.04
   4  -1  -6  178.13   25.04
  -4  -1   6  191.23   19.01
   4  -1  -5  313.15   33.56
  -4  -1   5  311.30   22.22
   4  -1  -4  688.06   48.86
  -4  -1   4  671.22   29.39
  -4  -1   3  665.42   26.15
   4  -1  -3  699.89   48.58
   4  -1  -2  653.64   46.70
  -4  -1   2  647.09   22.00
   4  -1  -1 2150.99   85.01
  -4  -1   1 2038.05   30.45
   4  -1   0  673.15   47.42
   4  -1   1 1756.92   76.40
   4  -1   2  635.83   45.75
   4  -1   3 1436.08   31.98
   4  -1   3 1372.85   66.77
   4  -1   4  426.95   19.43
   4  -1   4  441.60   37.99
   4  -1   5 1052.51   58.22
   4  -1   5 1123.06   35.75
   4  -1   6  116.44   12.49
   4  -1   6  110.68   18.86
   4  -1   7  274.43   21.29
   4  -1   8   31.54    7.96
   4  -1   9   56.68   10.89
   4  -1  10  222.97   23.77
   4  -1  11   61.88   13.68
   4  -1  12  234.38   27.49
  -4   0  20   62.20   20.62
  -4   0  19  282.99   41.28
  -4   0  18  168.19   30.23
  -4   0  17  118.49   25.07
  -4   0  16   22.49    7.81
  -4   0  15  423.00   43.26
  -4   0  14  210.72   29.57
  -4   0  13   73.80   16.91
   4   0 -13   69.68   14.90
   4   0 -12   50.54   13.37
  -4   0  12   36.30   12.25
   4   0 -11  339.29   33.01
  -4   0  11  318.37   32.34
   4   0 -10  128.07   20.62
  -4   0  10  132.13   19.83
   4   0  -9  812.49   52.25
  -4   0   9  807.17   46.62
   4   0  -8  318.84   32.37
  -4   0   8  344.69   29.04
   4   0  -7 3348.79  104.24
  -4   0   7 3398.80   66.58
  -4   0   7 3456.38   87.22
   4   0  -6  100.94   17.98
  -4   0   6   89.57   11.92
  -4   0   6  103.84   14.12
   4   0  -5 5320.93  132.51
  -4   0   5 5250.60   98.93
  -4   0   5 5584.85   93.24
   4   0  -4  333.14   33.26
  -4   0   4  351.82   27.09
  -4   0   4  344.54   20.94
   4   0  -3 2446.43   90.51
  -4   0   3 2589.33   47.78
  -4   0   2    1.35    0.95
   4   0  -2   -1.29    2.22
   4   0  -1 1656.88   74.57
   4   0  -1 1785.42   67.70
   4   0   0    4.03    5.30
   4   0   0   25.07   10.15
   4   0   1  188.47   26.11
   4   0   1  184.44   25.02
   4   0   2  611.47   44.46
   4   0   2  614.97   45.39
   4   0   3   78.79   16.38
   4   0   3  121.35   22.51
   4   0   4  348.47   33.76
   4   0   4  398.55   39.35
   4   0   5  692.99   46.92
   4   0   5  755.71   24.07
   4   0   5  776.52   57.18
   4   0   6 1581.02   71.01
   4   0   6 1619.48   42.21
   4   0   7  935.11   53.90
   4   0   7 1010.98   37.80
   4   0   7  960.83   67.65
   4   0   8 1052.10   57.31
   4   0   8 1037.90   42.43
   4   0   8 1104.33   73.47
   4   0   9  799.70   49.49
   4   0   9  843.86   41.79
   4   0   9  905.78   68.53
   4   0  10  630.60   44.14
   4   0  10  610.16   38.27
   4   0  10  739.15   63.11
   4   0  11  762.85   48.38
   4   0  11  724.02   45.23
   4   0  11  732.06   65.39
   4   0  12  145.65   21.14
   4   0  12  152.02   29.70
   4   0  13  104.88   24.44
   4   0  14  -13.53    6.35
   4   0  15   54.35   19.75
   4   0  16   38.35   16.53
   4   0  17   12.61   12.91
   4   0  18  118.55   30.02
  -4   1  20   22.32    9.27
  -4   1  19   23.18   14.45
   4   1 -15  324.50   31.36
   4   1 -14  194.27   25.19
   4   1 -13 1035.70   58.73
   4   1 -12  172.09   23.60
   4   1 -11  996.50   58.63
   4   1 -10   16.46    6.91
  -4   1  10   31.22    6.09
   4   1  -9 1167.99   65.13
  -4   1   9  998.49   36.82
   4   1  -8   43.24   12.45
  -4   1   8   49.99    8.76
   4   1  -7  372.73   36.06
  -4   1   7  371.57   25.07
   4   1  -6  169.33   25.15
  -4   1   6  202.80   19.40
   4   1  -5  421.17   26.75
   4   1  -5  373.68   36.59
   4   1  -4  731.10   51.44
   4   1  -4  843.53   40.72
  -4   1   3  749.59   30.82
   4   1  -3  753.05   51.37
   4   1  -3  780.68   41.52
   4   1  -2  530.02   42.58
  -4   1   2  567.56   23.71
   4   1  -2  617.82   38.71
   4   1  -1 2096.34   85.61
  -4   1   1 2227.06   40.41
   4   1  -1 2170.43   76.06
   4   1   0  687.06   49.64
  -4   1   0  697.91   19.95
   4   1   0  769.07   47.20
   4   1   1 1977.81   84.35
  -4   1  -1 1914.91   29.91
   4   1   1 1992.95   79.44
   4   1   2  745.11   51.40
   4   1   2  773.86   51.29
   4   1   3 1471.92   73.20
   4   1   3 1525.96   74.56
   4   1   4  443.91   40.04
   4   1   4  391.72   15.73
   4   1   4  400.29   38.89
   4   1   4  388.75   15.81
   4   1   5 1071.44   32.51
   4   1   5 1031.06   62.33
   4   1   5 1120.80   68.45
   4   1   5 1055.08   31.77
   4   1   6  152.14   26.33
   4   1   6  123.05   12.40
   4   1   6  139.95   22.29
   4   1   6  129.70   12.81
   4   1   7  273.77   31.58
   4   1   7  323.32   39.33
   4   1   7  268.01   20.59
   4   1   8   52.13   16.49
   4   1   8   65.88   11.05
   4   1   8   42.01    9.98
   4   1   9   40.55   12.53
   4   1   9   47.42   11.02
   4   1   9   43.29   11.44
   4   1  10  217.44   26.79
   4   1  10  274.86   38.89
   4   1  10  262.16   25.75
   4   1  11   77.06   21.61
   4   1  11   50.85   12.79
   4   1  11   48.12   11.23
   4   1  12  224.17   37.76
   4   1  12  242.88   27.58
   4   1  13  112.33   26.04
   4   1  14  365.07   49.45
   4   1  15   41.60   18.41
   4   1  16  150.48   33.36
   4   1  17    9.34    8.51
   4   2 -14   10.04    7.02
   4   2 -13   69.27   15.30
   4   2 -12  413.18   39.57
   4   2 -11  290.23   33.49
   4   2 -10  391.61   38.27
   4   2  -9  356.65   36.35
   4   2  -8  559.38   45.63
   4   2  -8  642.15   25.55
   4   2  -7  459.07   40.82
   4   2  -7  513.68   26.50
   4   2  -6  334.56   35.31
   4   2  -6  314.45   23.32
   4   2  -5  784.86   53.44
   4   2  -5  833.89   40.43
   4   2  -4   66.18   11.53
   4   2  -4   54.30   14.84
   4   2  -4   79.93   11.97
  -4   2   3  190.62   18.89
   4   2  -3  183.66   25.85
   4   2  -3  196.50   22.01
   4   2  -3  182.04   17.20
  -4   2   2  186.13   17.09
   4   2  -2  170.62   24.83
   4   2  -2  172.86   15.32
   4   2  -2  193.27   22.34
   4   2  -1  123.48   18.87
   4   2  -1  130.17   20.90
  -4   2   1  103.40   11.88
   4   2  -1  120.32   11.84
   4   2   0   74.80   15.81
   4   2   0   70.73   14.95
  -4   2   0   78.47   10.07
   4   2   0   76.44    8.76
   4   2   1  331.18   35.50
  -4   2  -1  336.23   21.03
   4   2   1  317.17   17.37
   4   2   1  368.78   36.26
   4   2   2  114.90   21.26
   4   2   2   95.46   18.55
   4   2   2  102.84   10.00
  -4   2  -2  112.62   12.06
   4   2   3  324.83   34.24
   4   2   3  325.74   18.59
  -4   2  -3  332.29   21.54
   4   2   3  334.27   36.74
  -4   2  -4   42.56    8.22
   4   2   4   27.45   10.34
   4   2   4   37.87    6.87
   4   2   5  506.09   43.87
   4   2   5  468.25   26.74
   4   2   5  575.94   50.54
  -4   2  -5  471.42   28.63
   4   2   6   89.99   20.72
   4   2   6  109.23   20.67
   4   2   7  226.63   30.19
   4   2   7  268.05   36.49
   4   2   8  179.35   29.90
   4   2   8  178.30   26.86
   4   2   9  113.38   25.86
   4   2   9  120.41   21.45
   4   2  10  133.85   27.42
   4   2  10  125.06   23.08
   4   2  11   32.09   13.77
   4   2  11   20.75   10.04
   4   2  12  159.04   32.73
   4   2  13   56.69   19.95
   4   2  14    6.51   10.39
   4   2  15   12.17   11.88
   4   2  16   16.17   11.62
   4   2  17    4.87    2.31
   4   3 -14  218.27   29.97
   4   3 -13   28.72   11.03
   4   3 -12  189.33   27.41
   4   3 -11   78.18   17.39
   4   3 -10   53.07   14.82
   4   3  -9    2.63    2.30
   4   3  -9   -1.57    3.60
   4   3  -8  102.42   19.97
   4   3  -7   53.65   15.83
   4   3  -6  323.67   36.70
   4   3  -5  118.12   22.54
   4   3  -4  424.71   41.95
   4   3  -3  435.58   43.18
   4   3  -2   75.84   18.03
   4   3  -1  483.25   45.39
   4   3   0   11.70    3.80
   4   3   0   15.75    8.70
   4   3   1  292.89   35.25
   4   3   1  257.32   20.83
   4   3   2    8.78    7.60
   4   3   2    6.61    4.03
   4   3   3  148.74   16.66
   4   3   3  144.68   24.31
   4   3   4  125.15   22.93
   4   3   5   28.10   11.20
   4   3   5   13.62    8.79
   4   3   6   82.75   20.61
   4   3   6   56.28   14.38
   4   3   7  185.24   30.43
   4   3   7  130.47   24.21
   4   3   8  135.55   27.23
   4   3   8  109.13   22.38
   4   3   9   77.46   20.33
   4   3   9   76.59   18.47
   4   3  10   77.15   24.14
   4   3  10   83.32   19.30
   4   3  11   90.14   24.76
   4   3  11   72.55   18.93
   4   3  12   80.15   23.65
   4   3  13   38.96   16.87
   4   3  14   40.52   12.45
   4   3  15    4.88    7.53
   4   3  16   74.91   26.78
   4   4 -14   84.57   18.84
   4   4 -13   11.53    8.20
   4   4 -12  174.31   27.69
   4   4 -11   36.44   12.81
   4   4 -10  196.59   29.87
   4   4  -9  185.62   29.26
   4   4  -8  115.04   22.95
   4   4  -7  619.75   55.20
   4   4  -6   72.27   19.22
   4   4  -5  427.47   48.03
   4   4  -4   47.22   17.62
   4   4  -3  402.84   46.86
   4   4  -2  319.50   42.49
   4   4  -1  321.15   42.10
   4   4   0   87.51   21.74
   4   4   1   45.30   15.52
   4   4   2  520.81   51.75
   4   4   3   93.77   21.92
   4   4   4  221.07   33.08
   4   4   5  195.91   30.61
   4   4   6  303.01   37.60
   4   4   7  160.81   28.47
   4   4   8  163.74   28.51
   4   4   9   94.49   24.52
   4   4   9   68.88   18.13
   4   4  10   97.10   25.62
   4   4  10   93.55   22.38
   4   4  11  146.70   33.88
   4   4  11  123.17   25.57
   4   4  12   18.17   15.33
   4   4  13   63.20   21.97
   4   4  14   18.72   17.15
   4   5 -14   26.31   11.89
   4   5 -13  181.74   29.58
   4   5 -12    3.76    6.30
   4   5 -11  228.09   34.88
   4   5 -10   81.36   21.50
   4   5  -9  261.05   38.68
   4   5  -8   92.45   23.53
   4   5  -7  100.85   24.05
   4   5   3  260.17   38.04
   4   5   4  123.75   26.12
   4   5   5  124.08   24.67
   4   5   6   28.19   11.76
   4   5   7   85.14   20.42
   4   5   8   28.99   12.27
   4   5   9   28.42   12.25
   4   5  10  141.47   26.79
   4   5  11   12.49    8.49
   4   5  12  160.55   38.21
   4   6 -13   43.77   15.23
   4   6 -12    7.74    9.96
   4   6 -11   38.77   15.16
   4   6 -10    4.85    3.96
   4   6   7   46.99   14.56
   4   6   8  156.24   28.80
   4   6   9   43.04   14.70
   4   6  10   85.67   22.83
   4   7 -13   56.71   21.64
   4   7 -12   45.62   18.04
   4   7 -11   75.92   26.24
   4   7   8    8.48    8.75
   4   7   9    3.53    3.48
   4   7  10   12.30    7.78
  -5  -7  11  -10.85    9.80
  -5  -7  10   34.19   15.77
  -5  -7   9    3.58    3.84
  -5  -7   8   42.67   18.37
  -5  -7   7   16.95    3.86
  -5  -7   6   40.55   18.08
  -5  -7   5   36.80   16.69
  -5  -7   4   77.60   22.39
  -5  -7   3   23.07    9.23
  -5  -6  14   20.74   10.01
  -5  -6  13   26.14   13.19
  -5  -6  12   29.75   13.00
  -5  -6  11   22.27   10.24
  -5  -6  10   14.96   10.14
  -5  -6   9   66.96   19.87
  -5  -6   8    3.44    5.11
  -5  -6   7   42.72   15.50
  -5  -6   6   -1.35    0.74
  -5  -6   5   16.86    8.26
  -5  -6   4   24.29    7.41
  -5  -6   3    5.16    2.72
  -5  -6   2  146.71   26.66
  -5  -6   1   99.80   21.40
   5  -6   2   69.55   17.17
   5  -6   3   91.12   20.04
  -5  -5  16   11.09    6.49
  -5  -5  15   33.15   12.09
  -5  -5  14   12.81    9.38
  -5  -5  13   32.58   12.90
  -5  -5  12   25.21   12.00
  -5  -5  11    3.20    2.23
  -5  -5  10   32.72   12.21
  -5  -5   9   22.58   10.57
  -5  -5   8   38.13   12.71
  -5  -5   7   34.81   13.73
  -5  -5   6   37.60   10.83
  -5  -5   5  147.80   25.85
  -5  -5   4   -4.68    5.25
  -5  -5   3  209.68   28.58
  -5  -5   2   14.24    7.10
  -5  -5   1   67.12   14.96
  -5  -5   0  115.05   20.69
   5  -5   2  220.58   28.61
   5  -5   3   16.02    8.71
   5  -5   4  106.60   19.23
  -5  -4  18   21.32   13.99
  -5  -4  17   61.27   20.39
  -5  -4  16  -18.96   11.18
  -5  -4  15   35.35   14.28
  -5  -4  14  -15.27   10.85
  -5  -4  13   33.76   13.63
  -5  -4  12   12.07    8.67
  -5  -4  11  104.63   21.39
  -5  -4  10   64.89   16.75
  -5  -4   9  199.29   27.78
  -5  -4   8  127.28   22.22
  -5  -4   7  288.19   33.22
  -5  -4   6  405.45   38.92
  -5  -4   5  213.26   27.64
  -5  -4   4  329.38   32.67
  -5  -4   3  159.63   21.80
  -5  -4   2  182.30   22.40
  -5  -4   1   54.63   12.44
  -5  -4   0   29.93    8.21
   5  -4   2  104.70   17.66
   5  -4   3   63.71   13.67
   5  -4   4  243.92   27.07
  -5  -3  19    7.84    7.88
  -5  -3  18    2.31    5.71
  -5  -3  17   50.55   19.18
  -5  -3  16   40.69   15.45
  -5  -3  15  238.19   36.93
  -5  -3  14   13.29    4.22
  -5  -3  13  317.50   38.79
  -5  -3  12   57.24   16.02
  -5  -3  11  465.38   43.19
  -5  -3  10   36.24   12.86
  -5  -3   9  292.45   31.82
  -5  -3   8   70.50   14.05
  -5  -3   7   12.09    5.93
  -5  -3   6   30.28    9.51
  -5  -3   5   10.73    1.41
  -5  -3   4  662.37   40.82
  -5  -3   3  387.92   29.27
  -5  -3   2  891.02   42.21
  -5  -3   1  552.53   30.96
   5  -3   3  176.80   20.20
   5  -3   4  194.47   20.64
  -5  -2  19   70.95   19.25
  -5  -2  18    8.36    7.96
  -5  -2  17  123.21   26.73
  -5  -2  16   36.62   14.58
  -5  -2  15   44.41   13.50
  -5  -2  14   35.01   11.94
  -5  -2  13    9.87    4.14
  -5  -2  12  140.60   23.75
  -5  -2  11  107.27   20.24
  -5  -2  10  142.35   21.98
  -5  -2   9  456.94   36.50
  -5  -2   8  277.15   27.18
  -5  -2   7  807.47   44.35
  -5  -2   6  379.30   29.36
  -5  -2   5  851.62   42.01
  -5  -2   4  618.45   33.80
  -5  -2   3  844.27   35.47
  -5  -2   2   30.69    5.91
  -5  -2   1  408.46   19.25
  -5  -1  20   14.77    6.74
  -5  -1  19   33.18   13.68
  -5  -1  18  119.54   26.76
  -5  -1  17   56.72   17.47
  -5  -1  16   75.11   19.32
  -5  -1  15  207.37   31.15
  -5  -1  14   94.26   19.64
  -5  -1  13  118.77   21.75
  -5  -1  12  126.69   22.76
  -5  -1  11  241.23   29.14
  -5  -1  10   25.43    9.04
   5  -1  -9  119.42   21.89
  -5  -1   9  138.97   19.66
  -5  -1   8   16.21    6.17
   5  -1  -8   15.25    9.34
   5  -1  -7  389.15   41.47
  -5  -1   7  333.23   26.30
   5  -1  -6   78.62   18.37
  -5  -1   6   69.31   11.22
   5  -1  -5  512.36   47.60
  -5  -1   5  470.21   27.25
   5  -1  -4  375.05   40.38
  -5  -1   4  402.91   23.12
   5  -1  -3  944.29   64.20
  -5  -1   3  818.62   27.80
   5  -1  -2  370.81   39.98
   5  -1  -1  486.42   45.39
   5  -1   0  408.85   42.28
   5  -1   1  349.84   38.38
   5  -1   2  400.94   41.52
   5  -1   3  202.80   29.60
   5  -1   4  102.21   20.31
   5  -1   5  208.33   30.02
   5  -1   6   13.67    8.31
  -5   0  20  103.08   26.79
  -5   0  19    4.86    5.67
  -5   0  18   23.21   11.43
  -5   0  17   -4.24    5.10
  -5   0  16   -5.37    7.00
  -5   0  15   55.22   15.02
   5   0 -14   29.87   12.49
  -5   0  14    6.51    0.77
  -5   0  13   90.14   18.83
   5   0 -13   95.67   19.40
   5   0 -12  254.53   32.94
  -5   0  12  238.53   30.23
   5   0 -11  523.89   46.71
  -5   0  11  411.13   37.88
   5   0 -10  187.86   27.68
  -5   0  10  186.17   24.14
   5   0  -9  605.13   50.61
  -5   0   9  642.15   42.95
   5   0  -8  213.13   29.97
  -5   0   8  235.09   24.52
   5   0  -7  499.28   45.16
  -5   0   7  524.10   33.46
  -5   0   6   91.99   12.57
   5   0  -6  105.06   21.47
   5   0  -5  176.88   27.16
  -5   0   5  158.24   15.11
  -5   0   4   11.48    3.94
   5   0  -4   14.06    9.65
   5   0  -3   21.95    8.96
  -5   0   3   22.74    4.13
  -5   0   3   27.52    4.75
   5   0  -2   11.88    6.21
   5   0  -1  455.19   43.47
   5   0   0   24.91    9.62
   5   0   0   15.56    6.11
   5   0   1  710.51   54.99
   5   0   1  843.03   56.21
   5   0   2    0.75    4.90
   5   0   2    4.64    4.24
   5   0   3  629.45   50.85
   5   0   3  732.48   55.98
   5   0   4   53.80   14.03
   5   0   4   60.14   15.95
   5   0   5  190.18   27.89
   5   0   5  193.47   30.00
   5   0   6   68.84   16.89
   5   0   6   95.04   21.90
   5   0   7   42.17   14.11
   5   0   7   33.59   13.17
   5   0   8  100.92   20.88
   5   0   8  107.06   24.75
   5   0   9   15.56    6.28
   5   0   9    2.63    5.55
   5   0  10   -0.79    5.90
   5   0  10    8.08    7.34
   5   0  11   37.05   11.45
   5   0  11   43.27   15.89
   5   0  12   11.17    7.70
   5   0  13   28.02   13.04
   5   0  14    8.06    9.99
   5   0  15    2.61    4.78
  -5   1  20   26.26   13.82
  -5   1  19   28.87   11.80
  -5   1  18  129.26   27.17
  -5   1  17   50.41   16.13
   5   1 -15  171.41   26.12
   5   1 -14   62.75   16.25
   5   1 -13  145.53   25.59
   5   1 -12  141.84   24.70
   5   1 -11  291.79   34.95
   5   1 -10   42.62   13.45
   5   1  -9  141.61   24.20
   5   1  -8    3.29    4.49
   5   1  -7  403.74   42.49
   5   1  -6   77.07   17.78
   5   1  -5  502.32   48.71
   5   1  -5  585.65   37.21
  -5   1   4  343.44   23.03
   5   1  -4  335.50   39.85
   5   1  -4  346.97   30.26
  -5   1   3 1117.91   36.32
   5   1  -3 1033.43   69.89
   5   1  -3 1133.90   57.97
   5   1  -2  410.32   44.43
  -5   1   2  421.46   18.22
   5   1  -2  404.88   36.11
   5   1  -1  466.79   46.95
   5   1  -1  583.85   45.42
   5   1   0  421.85   44.67
   5   1   0  441.43   40.30
   5   1   1  375.79   42.39
   5   1   1  357.68   37.48
   5   1   2  358.65   40.37
   5   1   2  386.30   40.62
   5   1   3  214.95   32.55
   5   1   3  228.39   31.98
   5   1   4   78.94   19.08
   5   1   4   57.27   15.69
   5   1   5  276.50   35.15
   5   1   5  267.50   36.93
   5   1   6    2.19    5.73
   5   1   6    8.83    5.99
   5   1   7  209.93   34.79
   5   1   7  150.50   25.41
   5   1   8  105.63   20.93
   5   1   8  138.30   29.49
   5   1   9  110.75   21.22
   5   1   9  110.75   26.44
   5   1  10  205.49   29.28
   5   1  10  211.74   36.17
   5   1  11   57.41   14.95
   5   1  11   49.88   17.87
   5   1  12   93.83   25.93
   5   1  13   21.87   12.54
   5   1  14  177.38   37.99
   5   1  15   -0.78    8.48
   5   2 -15   38.92   12.80
   5   2 -14   45.39   14.85
   5   2 -13   18.42   10.22
   5   2 -12  167.11   29.01
   5   2 -11  139.07   26.87
   5   2 -10  153.59   27.08
   5   2  -9  454.51   46.58
   5   2  -8  290.55   37.28
   5   2  -8  344.27   22.82
   5   2  -7  790.95   61.07
   5   2  -7  897.05   42.83
   5   2  -6  398.66   43.30
   5   2  -6  421.35   31.18
   5   2  -5  736.88   58.56
   5   2  -5  858.02   46.89
   5   2  -4  502.20   48.56
   5   2  -4  527.21   38.79
   5   2  -3  825.30   62.55
  -5   2   3  788.80   37.31
   5   2  -3  851.07   51.21
   5   2  -2   57.54   13.55
   5   2  -2   68.32   16.99
  -5   2   2   52.17    8.84
   5   2  -1  343.79   40.09
  -5   2   1  355.36   21.54
   5   2  -1  359.90   35.83
   5   2   0   31.65   10.70
   5   2   0   27.42   11.85
   5   2   1  126.83   23.38
   5   2   1  115.07   23.10
   5   2   2  543.42   51.97
   5   2   2  530.59   48.76
   5   2   3   50.22   14.81
   5   2   3   55.02   16.89
   5   2   4  890.19   66.39
   5   2   4  972.54   69.56
   5   2   5  221.89   34.09
   5   2   5  174.98   29.47
   5   2   6  738.77   60.33
   5   2   6  716.73   62.87
   5   2   7   48.05   16.27
   5   2   7   42.88   14.88
   5   2   8  801.87   64.00
   5   2   8  847.63   71.70
   5   2   9   51.03   16.52
   5   2   9   75.94   20.16
   5   2  10  167.20   31.55
   5   2  10  167.17   29.22
   5   2  11   73.34   22.67
   5   2  11   89.15   20.31
   5   2  12   44.17   18.77
   5   2  13   25.41   14.83
   5   2  14  -12.45   11.15
   5   3 -14   16.39    9.24
   5   3 -13  382.92   43.94
   5   3 -12   65.39   17.68
   5   3 -11  477.30   48.87
   5   3 -10   61.53   18.46
   5   3  -9  297.85   37.86
   5   3  -8   58.81   16.46
   5   3  -7   26.22    7.56
   5   3  -7   40.54   15.63
   5   3  -6   27.39    9.23
   5   3  -6   37.10   13.02
   5   3  -5   16.25    7.18
   5   3  -5   -1.57    6.93
   5   3  -4  585.05   53.98
   5   3  -4  560.88   42.98
   5   3  -3  360.21   43.34
   5   3  -3  353.14   35.51
   5   3  -2  841.41   66.24
   5   3  -2  867.04   58.52
   5   3  -1  550.85   53.75
   5   3  -1  587.89   49.70
   5   3   0 1257.68   80.46
   5   3   0 1425.73   79.74
   5   3   1  338.94   42.57
   5   3   1  379.90   42.82
   5   3   2  813.44   64.18
   5   3   2  920.74   67.63
   5   3   3  223.76   34.60
   5   3   3  137.26   25.97
   5   3   4  260.70   37.62
   5   3   4  166.10   29.76
   5   3   5  101.33   23.39
   5   3   5   75.46   19.48
   5   3   6    7.09    8.24
   5   3   6   10.54    7.87
   5   3   7   -6.99    7.32
   5   3   7    3.35    6.18
   5   3   8   63.87   18.62
   5   3   8   67.49   19.51
   5   3   9    6.62    9.12
   5   3   9    4.03    1.74
   5   3  10  313.12   42.65
   5   3  10  349.71   51.09
   5   3  11   17.78   14.23
   5   3  12  195.65   39.97
   5   3  13   14.35   12.37
   5   4 -14   -4.25    2.41
   5   4 -13   40.99   14.38
   5   4 -12   28.25   12.74
   5   4 -11  111.11   24.34
   5   4 -10   44.16   14.97
   5   4  -9  190.29   32.06
   5   4  -8  104.96   24.02
   5   4  -7  288.67   40.87
   5   4  -7  290.50   30.45
   5   4  -6  441.58   50.15
   5   4  -5  225.15   36.13
   5   4  -4  378.63   47.90
   5   4  -3  174.80   31.60
   5   4  -2  195.44   34.62
   5   4  -1   54.56   18.19
   5   4   0    7.08    6.65
   5   4   1   54.19   16.34
   5   4   2  146.45   28.47
   5   4   2   80.62   21.40
   5   4   3   67.57   19.68
   5   4   3   42.40   12.61
   5   4   4  246.13   39.08
   5   4   4  244.71   37.68
   5   4   5   46.92   18.51
   5   4   5   47.61   16.59
   5   4   6  305.66   42.51
   5   4   6  341.04   46.86
   5   4   7    1.61    7.64
   5   4   7   30.89   14.08
   5   4   8  278.08   44.73
   5   4   8  303.13   41.83
   5   4   9   22.31   12.72
   5   4   9    1.58    3.01
   5   4  10  115.75   30.69
   5   4  10   86.52   23.16
   5   4  11   -0.21   10.32
   5   4  12   32.94   17.76
   5   5 -14   27.90   10.95
   5   5 -13   28.14   12.42
   5   5 -12   65.36   20.52
   5   5 -11   34.05   12.70
   5   5 -10   18.12    7.83
   5   5  -9   68.56   20.77
   5   5  -8  103.20   26.71
   5   5  -7   96.35   27.32
   5   5  -6   77.00   23.27
   5   5  -5  213.57   39.85
   5   5  -4   39.64   17.62
   5   5  -3  225.62   41.76
   5   5  -2    4.11    6.74
   5   5  -1  107.26   29.13
   5   5   0  126.52   29.81
   5   5   1   43.93   17.17
   5   5   2  235.80   40.70
   5   5   3   11.14    8.63
   5   5   4  129.61   29.02
   5   5   5   58.24   18.63
   5   5   6   65.14   20.19
   5   5   7   48.95   19.26
   5   5   7   27.43   12.96
   5   5   8    3.94    7.10
   5   5   8    9.31    5.79
   5   5   9   35.49   15.57
   5   5   9   -1.49    6.48
   5   5  10   31.58   15.46
   5   5  10   34.17   14.50
   5   6 -13   24.15   11.14
   5   6 -12   23.58   12.68
   5   6 -11   20.34   13.17
   5   6 -10    9.37    8.09
   5   6  -9   70.10   22.28
   5   6  -8   12.29   12.46
   5   6  -7   65.36   22.62
   5   6  -6   -3.37    9.22
   5   6  -5   30.65   17.87
   5   6  -4   48.90   20.87
   5   6  -3   11.99   10.44
   5   6  -2  156.98   36.28
   5   6  -1   81.87   25.74
   5   6   0   94.80   26.60
   5   6   1   68.82   22.38
   5   6   2   95.51   25.17
   5   6   3   63.34   19.98
   5   6   4   54.46   17.09
   5   6   5   25.59   12.84
   5   6   6   23.53   13.07
   5   6   7    9.09    8.16
   5   6   8   25.22   12.20
   5   6   9   15.34    8.63
   5   6  10   10.58   10.36
   5   7  -9   10.15    0.84
   5   7  -8   62.22   24.50
   5   7  -7   12.48   15.23
   5   7  -6   38.98   17.93
   5   7  -5   27.34   18.10
   5   7  -4   67.07   23.18
   5   7  -3   50.16   21.03
   5   7  -2   63.05   23.87
   5   7  -1   47.66   19.87
   5   7   0   93.92   26.06
   5   7   1   24.49   13.86
   5   7   2   31.95   15.88
   5   7   3   -0.37    7.35
  -6  -5  15   10.05    7.04
  -6  -5  14   46.53   17.21
  -6  -5  13   45.23   15.42
  -6  -5  12   48.99   17.56
  -6  -4  17   -0.54    5.69
  -6  -4  16   -1.50    2.20
  -6  -4  15   67.05   17.12
  -6  -4  14    2.64    8.07
  -6  -4  13   23.63    6.01
  -6  -4  12   48.62   16.75
  -6  -4  11   92.20   20.85
  -6  -4  10   61.80   18.63
  -6  -3  18   -0.87    8.93
  -6  -3  17   99.93   25.94
  -6  -3  16   40.33   17.30
  -6  -3  15   54.21   15.14
  -6  -3  14   -2.25    4.15
  -6  -3  13    8.05    5.90
  -6  -3  12   16.55    8.58
  -6  -3  11    3.19    0.75
  -6  -3  10    7.26    2.53
  -6  -3   9  240.01   29.89
  -6  -3   8   48.08   13.39
  -6  -2  19   25.47   14.45
  -6  -2  18   37.74   18.02
  -6  -2  17   19.33   10.47
  -6  -2  16   14.14   10.34
  -6  -2  15   67.58   19.11
  -6  -2  14    8.32    4.82
  -6  -2  13   98.68   20.91
  -6  -2  12   40.15   13.02
  -6  -2  11  242.75   29.66
  -6  -2  10   69.82   14.37
  -6  -2   9  174.82   24.11
  -6  -2   8  146.50   21.04
  -6  -1  19    6.05    1.46
  -6  -1  18    4.80    5.34
  -6  -1  17   63.28   19.03
  -6  -1  16   37.32   13.04
  -6  -1  15   51.41   15.60
  -6  -1  14  117.49   22.93
  -6  -1  13   48.68   14.53
  -6  -1  12   98.89   18.87
  -6  -1  11  129.91   20.83
  -6  -1  10   38.50   10.90
   6  -1  -9  115.21   24.94
  -6  -1   9  100.35   16.49
  -6  -1   8    8.69    4.84
   6  -1  -8    3.15    2.92
  -6  -1   7   60.34   11.51
   6  -1  -7   64.03   18.81
   6  -1  -6  163.29   28.59
   6  -1  -5   50.61   16.90
   6  -1  -4  498.66   51.78
   6  -1  -3  124.58   25.87
   6  -1  -2  662.38   60.05
   6  -1  -1   36.02   13.87
   6  -1   0  625.77   57.91
   6  -1   1   49.16   18.25
   6  -1   2  536.99   53.30
   6  -1   3    6.71    7.54
   6  -1   4  149.81   28.07
   6  -1   5   40.42   14.12
  -6   0  19   17.19    9.75
  -6   0  18    1.34    9.01
  -6   0  17   63.35   18.31
  -6   0  16   -1.81    4.47
  -6   0  15   18.33    8.37
  -6   0  14   10.45    5.42
   6   0 -14   30.13   11.82
  -6   0  13    9.80    4.27
   6   0 -13   25.93   11.43
   6   0 -12  269.07   38.84
  -6   0  12  226.33   29.10
  -6   0  11    4.38    6.98
   6   0 -11    2.44    2.19
   6   0 -10  410.98   46.23
  -6   0  10  411.88   35.32
   6   0  -9  292.63   38.73
  -6   0   9  281.75   27.44
   6   0  -8  551.58   53.39
  -6   0   8  482.95   33.42
   6   0  -7  182.34   29.59
  -6   0   7  142.72   16.52
   6   0  -6  647.04   58.14
   6   0  -5  135.01   26.67
   6   0  -4  111.31   23.33
   6   0  -3   72.09   19.99
   6   0  -2   73.11   18.48
   6   0  -1  119.12   25.64
   6   0   0   59.60   17.24
   6   0   1  -21.02   10.95
   6   0   2  420.82   47.51
   6   0   2  481.92   48.23
   6   0   3   54.49   17.57
   6   0   3   55.11   18.97
   6   0   4  612.96   56.48
   6   0   4  670.26   60.86
   6   0   5   67.31   18.61
   6   0   5   65.97   22.48
   6   0   6  752.00   62.30
   6   0   6  833.08   70.74
   6   0   7    3.30    4.35
   6   0   7   14.91   11.26
   6   0   8  397.69   44.69
   6   0   8  392.83   50.93
   6   0   9    7.71    3.68
   6   0   9   27.71   14.80
   6   0  10   74.41   18.14
   6   0  10   98.50   26.56
   6   0  11   23.85   16.93
   6   0  12    7.19   10.60
  -6   1  19    7.27    2.98
  -6   1  18   26.49   12.16
  -6   1  17   75.19   19.13
  -6   1  16   69.04   18.22
  -6   1  15   63.70   17.48
   6   1 -15  111.56   24.33
  -6   1  14   77.73   18.41
   6   1 -14  180.86   31.39
  -6   1  13   53.46   14.44
   6   1 -13   71.15   20.76
  -6   1  12   63.37   14.98
   6   1 -12  123.70   25.04
   6   1 -11  145.12   27.61
   6   1 -10   42.35   12.45
   6   1  -9   91.63   20.30
   6   1  -8   -2.73    1.18
   6   1  -7   83.67   19.56
   6   1  -6  143.29   27.70
  -6   1   6   99.98   13.40
   6   1  -5   69.17   19.94
   6   1  -4  466.13   51.30
   6   1  -4  541.23   42.74
   6   1  -3  117.56   25.05
   6   1  -3  180.38   26.73
   6   1  -2  623.08   58.73
   6   1  -2  733.17   53.98
   6   1  -1    5.79    2.99
   6   1  -1   28.82   12.09
   6   1   0  726.30   63.67
   6   1   0  818.24   60.74
   6   1   1   21.32   10.35
   6   1   1   16.54    9.94
   6   1   2  548.20   54.60
   6   1   2  629.31   57.08
   6   1   3   -0.41    0.86
   6   1   3   12.79    5.61
   6   1   4  165.96   29.80
   6   1   4  220.16   35.43
   6   1   5   35.54   13.48
   6   1   5   32.59   12.10
   6   1   6  -11.48    9.17
   6   1   6   -3.35    5.68
   6   1   7   37.55   12.96
   6   1   7   29.50   11.77
   6   1   8   48.48   15.73
   6   1   8  126.83   30.20
   6   1   9   29.84   12.79
   6   1   9   43.99   18.46
   6   1  10  191.67   31.39
   6   1  10  212.12   39.29
   6   1  11   36.82   16.92
   6   1  12  121.91   31.20
  -6   2  19    8.36    8.38
   6   2 -15  144.34   28.65
   6   2 -14   -7.92   10.66
   6   2 -13  191.84   31.84
   6   2 -12   34.61   14.98
   6   2 -11  274.18   40.47
   6   2 -10  106.81   25.19
   6   2  -9  185.97   32.65
   6   2  -8  243.52   36.55
   6   2  -7   76.43   21.63
   6   2  -6  216.62   35.14
   6   2  -6  248.84   27.01
   6   2  -5   -3.39    3.12
   6   2  -5   10.05    6.40
   6   2  -4  167.75   31.58
   6   2  -4  213.98   27.23
   6   2  -3   73.91   20.61
   6   2  -3   90.66   18.37
   6   2  -2   90.84   18.85
   6   2  -2   54.95   18.25
   6   2  -1  193.90   33.95
   6   2  -1  215.81   31.57
   6   2   0   68.94   16.35
   6   2   0   51.12   14.71
   6   2   1  230.53   33.28
   6   2   1  170.69   30.79
   6   2   2  180.68   30.36
   6   2   2  144.45   28.97
   6   2   3  172.33   29.23
   6   2   3  183.14   32.89
   6   2   4  266.78   38.56
   6   2   4  174.47   32.31
   6   2   5   13.64   10.24
   6   2   5   34.89   15.23
   6   2   6  211.63   37.00
   6   2   6  235.68   38.22
   6   2   7   17.94   11.56
   6   2   7    5.01    2.71
   6   2   8  100.74   26.93
   6   2   8   64.74   17.54
   6   2   9   16.07   11.67
   6   2   9   25.51   12.24
   6   2  10   27.91   17.55
   6   2  10   11.90    7.78
   6   2  11   54.06   19.85
   6   3 -14  -13.06    7.77
   6   3 -13   -1.46    3.42
   6   3 -12   13.50    8.21
   6   3 -11   19.35   11.79
   6   3 -10   12.41    6.94
   6   3  -9  193.10   33.53
   6   3  -8   44.58   15.82
   6   3  -7  255.40   39.69
   6   3  -6   36.21   10.39
   6   3  -6   39.43   14.68
   6   3  -5  316.91   43.37
   6   3  -5  356.78   35.21
   6   3  -4   20.79    8.00
   6   3  -4   24.15   15.51
   6   3  -3  318.95   43.65
   6   3  -3  304.99   35.76
   6   3  -2   46.51   14.91
   6   3  -2   44.19   17.70
   6   3  -1   86.49   19.57
   6   3  -1   45.88   13.43
   6   3   0   -4.56    8.10
   6   3   0   18.65   12.27
   6   3   1   41.73   15.62
   6   3   1   34.44   14.46
   6   3   2   21.95    6.42
   6   3   2   11.55    7.57
   6   3   3   91.31   22.66
   6   3   3   89.73   21.57
   6   3   4   40.98   14.82
   6   3   4   23.51   13.43
   6   3   5  237.79   39.27
   6   3   5  239.26   39.65
   6   3   6   54.72   18.28
   6   3   6   38.76   16.26
   6   3   7  106.26   26.61
   6   3   7   84.26   24.84
   6   3   8   92.75   26.39
   6   3   8   66.92   21.63
   6   3   9   81.53   26.39
   6   3   9   54.57   20.79
   6   3  10   63.59   22.05
   6   3  10   82.53   24.13
   6   4 -14    4.10    7.70
   6   4 -13   58.03   18.59
   6   4 -12   39.17   16.39
   6   4 -11  128.66   26.64
   6   4 -10   81.14   22.96
   6   4  -9  131.80   28.02
   6   4  -8   94.70   24.30
   6   4  -7   35.01   16.99
   6   4  -6  115.69   28.74
   6   4  -5  114.14   22.42
   6   4  -5   92.98   24.97
   6   4  -4    9.64    5.30
   6   4  -4   14.11    8.25
   6   4  -3  157.41   27.86
   6   4  -3   91.71   25.37
   6   4  -2    5.48    3.54
   6   4  -2    0.12    1.05
   6   4  -1  196.16   34.43
   6   4  -1  139.26   32.00
   6   4   0   60.23   18.88
   6   4   0   56.11   21.00
   6   4   1  182.37   33.27
   6   4   1  206.83   37.80
   6   4   2  186.51   34.04
   6   4   2  158.68   33.71
   6   4   3  102.16   27.45
   6   4   3  129.87   29.26
   6   4   4  238.30   40.39
   6   4   4  174.66   33.78
   6   4   5   20.83   14.95
   6   4   5    4.22    3.27
   6   4   6  253.59   43.55
   6   4   6  151.57   30.64
   6   4   7   16.54   11.03
   6   4   7    1.59   12.49
   6   4   8  111.65   30.36
   6   4   8   85.83   23.94
   6   4   9   41.48   19.53
   6   4   9   36.73   14.65
   6   5 -14   40.11   16.80
   6   5 -13   48.61   18.22
   6   5 -12   62.80   20.00
   6   5 -11   43.48   18.95
   6   5 -10   11.26    9.76
   6   5  -9   26.16   14.61
   6   5  -8   13.75    8.45
   6   5  -7   -0.14    4.38
   6   5  -6   32.01   16.22
   6   5  -5   19.98   12.45
   6   5  -4  217.52   36.32
   6   5  -4  215.74   43.10
   6   5  -3   22.50   13.67
   6   5  -3   16.15   11.87
   6   5  -2  316.16   46.69
   6   5  -2  261.31   47.88
   6   5  -1   39.68   15.90
   6   5  -1    3.89    3.79
   6   5   0  289.03   48.99
   6   5   0  352.25   50.91
   6   5   1   -9.00    3.24
   6   5   1    5.98    7.27
   6   5   2  174.79   35.88
   6   5   2   96.04   27.00
   6   5   3   60.89   22.89
   6   5   3   23.99   13.83
   6   5   4   13.11    4.60
   6   5   4   23.44   15.38
   6   5   5   18.83   10.17
   6   5   5   28.73   13.94
   6   5   6    2.35    9.32
   6   5   6   -0.42    3.45
   6   5   7    8.29    9.56
   6   5   7   27.06   15.24
   6   5   8   77.95   24.95
   6   5   9   11.47    8.80
   6   6 -11   17.59   15.25
   6   6 -10    3.53    7.12
   6   6  -9   54.81   23.49
   6   6  -8  150.56   37.93
   6   6  -7    0.10    6.54
   6   6  -6  130.61   36.27
   6   6  -5   13.16   11.85
   6   6  -4   95.86   29.85
   6   6  -3   33.49   19.30
   6   6  -2   48.41   24.70
   6   6  -1   42.50   23.93
   6   6   0   38.19   19.76
   6   6   1   16.39   16.11
   6   6   2   76.13   23.83
   6   6   2   52.92   19.68
   6   6   3   21.23   11.76
   6   6   3   23.47   16.94
   6   6   4   62.82   20.78
   6   6   4   60.05   21.99
   7  -1  -8  117.86   27.03
   7  -1  -7  219.22   37.43
   7  -1  -6  198.26   35.00
   7  -1  -5  191.52   34.83
   7  -1  -4  247.54   40.34
   7  -1  -3   23.42   11.90
   7  -1  -2  192.86   35.58
   7  -1  -1   11.12    7.93
   7  -1   0  112.90   27.45
   7  -1   1   15.35   12.67
   7  -1   2   42.95   18.87
   7  -1   3   40.55   15.95
   7   0 -14   16.72   11.72
   7   0 -13  262.40   42.31
   7   0 -12   29.68   14.15
   7   0 -11  205.31   36.53
   7   0 -10   -7.10    6.42
   7   0  -9   82.21   21.69
   7   0  -8    3.24    3.65
   7   0  -7    9.11   10.15
   7   0  -6   17.39   11.62
   7   0  -5  115.23   27.45
   7   0  -4   85.36   22.73
   7   0  -3  176.65   32.82
   7   0  -2  170.09   32.44
   7   0  -1  170.91   32.86
   7   0   0  267.88   40.62
   7   0   1   26.66   14.73
   7   0   2   58.22   18.85
   7   0   3    5.72    6.68
   7   0   4   48.90   18.32
   7   0   5    8.48    7.47
   7   0   6    7.14    8.88
   7   0   7   24.30   10.70
   7   0   8   46.84   15.04
   7   0   9   -5.80    8.63
   7   1 -15   46.17   20.14
   7   1 -14   29.29   12.04
   7   1 -13    0.68    0.32
   7   1 -12   40.75   15.93
   7   1 -11   56.33   20.02
   7   1 -10   16.54    6.26
   7   1  -9  168.35   34.07
   7   1  -8  108.71   26.06
   7   1  -7  215.48   37.62
   7   1  -6  158.45   30.78
   7   1  -5  211.52   36.30
   7   1  -4  269.83   40.82
   7   1  -3   25.90   13.01
   7   1  -2  201.87   36.28
   7   1  -1   -5.38    1.12
   7   1  -1   33.56   14.16
   7   1   0  105.85   26.16
   7   1   0  117.88   24.98
   7   1   1    1.66    5.73
   7   1   1    9.23    6.89
   7   1   2   18.07    8.99
   7   1   2   45.78   15.53
   7   1   3   53.78   19.04
   7   1   3   60.84   21.58
   7   1   4   51.81   17.81
   7   1   4   69.82   21.52
   7   1   5   19.26   12.55
   7   1   5   17.05   15.87
   7   1   6  147.42   30.52
   7   1   6  182.01   35.33
   7   1   7   43.39   17.49
   7   1   7   55.72   19.47
   7   1   8   50.16   19.49
   7   1   8   66.20   20.01
   7   1   9   38.03   17.41
   7   2 -15   13.06   10.18
   7   2 -14    1.24    8.64
   7   2 -13   34.27   13.46
   7   2 -12  152.90   31.92
   7   2 -11   46.20   17.46
   7   2 -10  177.25   34.96
   7   2  -9   17.55   13.20
   7   2  -8  423.62   53.74
   7   2  -7   12.69   12.67
   7   2  -6  264.48   43.85
   7   2  -5    3.09    4.91
   7   2  -4   38.26   18.31
   7   2  -4   61.99   16.70
   7   2  -3   75.47   24.07
   7   2  -3   60.95   15.64
   7   2  -2   41.32   17.95
   7   2  -2   35.05   11.32
   7   2  -1   29.48   13.46
   7   2  -1   54.38   17.06
   7   2   0  175.24   35.27
   7   2   0  209.56   33.50
   7   2   1  182.31   36.72
   7   2   1  138.80   29.22
   7   2   2  183.29   35.95
   7   2   2  227.17   36.87
   7   2   3   38.69   15.84
   7   2   3   93.49   25.53
   7   2   4  132.30   30.22
   7   2   4  191.49   36.30
   7   2   5   71.55   22.20
   7   2   5  119.47   28.92
   7   2   6  140.16   30.01
   7   2   6  127.90   31.89
   7   2   7   26.97    8.59
   7   2   7   60.96   23.32
   7   2   8   25.92   12.60
   7   2   8   25.14   12.15
   7   2   9  -20.10   11.83
   7   3 -14  118.65   30.10
   7   3 -13    6.05    6.19
   7   3 -12  112.38   28.63
   7   3 -11   19.57   15.22
   7   3 -10   56.55   20.37
   7   3  -9   -0.54    3.82
   7   3  -8   17.73    8.54
   7   3  -7   56.67   20.69
   7   3  -6  117.56   28.71
   7   3  -5   39.00   18.54
   7   3  -4  259.42   42.77
   7   3  -3  100.54   27.73
   7   3  -3   81.60   18.80
   7   3  -2  343.37   50.52
   7   3  -2  363.73   43.50
   7   3  -1   95.19   22.29
   7   3  -1   74.38   23.07
   7   3   0  262.58   38.84
   7   3   0  236.69   42.84
   7   3   1   32.92   14.68
   7   3   1   34.07   14.33
   7   3   2   68.08   19.56
   7   3   2   50.70   17.05
   7   3   3   -1.96    2.60
   7   3   3   -0.54    9.38
   7   3   4   23.90   13.66
   7   3   4   18.21   14.78
   7   3   5   -5.54   11.52
   7   3   5   13.70   11.12
   7   3   6   24.29   13.42
   7   3   6    9.38   12.21
   7   3   7   18.39   13.23
   7   3   7   33.43   16.49
   7   3   8   26.42   16.36
   7   3   9   84.47   27.22
   7   4 -14    4.23    4.49
   7   4 -13   36.81   17.51
   7   4 -12   31.83   18.22
   7   4 -11   31.49   16.72
   7   4 -10   41.96   18.92
   7   4  -9   38.09   18.93
   7   4  -8  138.76   32.56
   7   4  -7    7.43   10.32
   7   4  -6  150.21   34.57
   7   4  -5   -7.94    1.07
   7   4  -4   51.09   19.89
   7   4  -3   35.93   14.17
   7   4  -3   12.50   10.07
   7   4  -2   43.38   16.05
   7   4  -2   44.36   16.86
   7   4  -1   21.55    9.20
   7   4  -1   51.80   21.87
   7   4   0   33.80   15.96
   7   4   0   25.12   17.16
   7   4   1    5.97    7.65
   7   4   1   15.55   11.09
   7   4   2   72.12   21.56
   7   4   2   36.88   19.44
   7   4   3   98.81   28.70
   7   4   3   55.43   20.22
   7   4   4   78.43   25.79
   7   4   4   54.71   21.72
   7   4   5   55.97   22.05
   7   4   5   55.16   19.81
   7   4   6   41.26   19.27
   7   4   7   71.90   27.04
   7   4   8   12.48   10.11
   7   5  -7   56.91   23.36
   7   5  -6    1.03    5.67
   7   5  -5   48.30   22.16
   7   5  -4   55.19   22.07
   7   5  -3   52.67   21.31
   7   5  -2   31.09   14.32
   7   5  -2   17.96   15.55
   7   5  -1   86.33   23.10
   7   5  -1   53.98   23.99
   7   5   0    4.62    7.67
   7   5   1   28.98   11.02
   7   5   2   -0.39    3.54
   7   5   3    8.12    4.25
   7   6   0   27.05   17.90
   8  -1  -6   76.38   24.80
   8  -1  -5  141.54   31.30
   8  -1  -4  120.44   31.50
   8  -1  -3  125.96   30.29
   8  -1  -2   78.83   25.84
   8  -1  -1  132.22   32.83
   8  -1   0   65.75   24.38
   8   0 -13   53.09   20.94
   8   0 -12  116.37   29.57
   8   0 -11   30.92   15.77
   8   0 -10  126.56   31.19
   8   0  -9   81.88   25.22
   8   0  -8  184.70   37.94
   8   0  -7   58.33   23.51
   8   0  -6   75.38   22.98
   8   0  -5   45.85   17.66
   8   0  -4   47.27   19.96
   8   0  -3   15.07   11.48
   8   0  -2   27.50   14.98
   8   0  -1   20.52    9.68
   8   0   0   81.85   24.44
   8   0   1  219.57   41.49
   8   0   2   62.49   19.78
   8   0   3  309.03   48.30
   8   0   4  125.16   28.72
   8   0   5   92.72   26.94
   8   0   6   -5.20    9.74
   8   0   7   46.63   19.26
   8   1 -15   23.23   18.62
   8   1 -14   69.85   23.81
   8   1 -13   11.68   10.17
   8   1 -12   54.99   21.49
   8   1 -11   35.55   20.13
   8   1 -10   61.02   21.11
   8   1  -9   16.21   13.06
   8   1  -8   77.34   23.95
   8   1  -7   62.11   21.91
   8   1  -6   95.42   25.73
   8   1  -5  108.43   29.31
   8   1  -4  113.38   27.93
   8   1  -3  143.99   32.77
   8   1  -2   95.12   26.02
   8   1  -1   84.22   25.91
   8   1   0   54.82   20.98
   8   1   1   65.47   21.87
   8   1   2   51.39   20.05
   8   1   3    1.13    2.05
   8   1   4   32.80   18.17
   8   1   4   35.37   16.06
   8   1   5   37.54   18.21
   8   1   6   32.97   16.61
   8   1   7   68.12   22.44
   8   2 -13   31.78   16.94
   8   2 -12   39.85   19.96
   8   2 -11   15.97    2.89
   8   2 -10   28.99   15.34
   8   2  -9    2.42    8.49
   8   2  -8    5.66    3.91
   8   2  -7   23.24   11.08
   8   2  -6   33.03   15.26
   8   2  -5    7.93    7.31
   8   2  -4  133.19   31.79
   8   2  -3   14.31   12.10
   8   2  -2  120.47   30.29
   8   2  -2  125.88   26.62
   8   2  -1   25.34   17.17
   8   2  -1   18.53   10.63
   8   2   0  141.93   34.04
   8   2   0  140.01   30.47
   8   2   1   -3.96   13.62
   8   2   1   39.71   18.84
   8   2   2   -9.30    8.90
   8   2   2   25.64   14.68
   8   2   3   22.05   15.43
   8   2   3   57.58   20.29
   8   2   4   -5.73    7.21
   8   2   4   17.06   12.73
   8   2   5   11.09    8.10
   8   3  -6   72.43   26.27
   8   3  -5   50.57   24.33
   8   3  -4   43.52   21.73
   8   3  -3   -1.95    7.07
   8   3  -2    4.00    6.15
   8   3  -1    2.99    4.16
   8   3   0   15.59   11.00
   8   3   1   13.72   10.51
   8   3   2   63.60   23.29
   8   3   3   28.25   19.70
   8   4   0   64.58   23.56
   8   4   1   11.65   14.04
   0   0   0    0.00    0.00


TITL 20160406-Yan Hailong-TY770-2 in P2(1)
REM P2(1) (#4 in standard setting)
CELL 0.71073   6.784428   7.077441  17.275207  90.0000 100.2645  90.0000
ZERR    2.00   0.000418   0.000560   0.000972   0.0000   0.0053   0.0000
LATT -1
SYMM -x, y+1/2,-z
SFAC C H O Br
UNIT 32.00 26.00 2.00 6.00
TREF
HKLF 4
END
_computing_structure_solution     'SHELXT 2014/5 (Sheldrick, 2014)'
;
_shelx_hkl_checksum              39683
_shelx_shelxl_version_number     2014/7
_olex2_submission_special_instructions 'No special instructions were received'
loop_
_space_group_symop_operation_xyz
'x, y, z'
'-x, y+1/2, -z'
loop_
_atom_site_label
_atom_site_type_symbol
_atom_site_fract_x
_atom_site_fract_y
_atom_site_fract_z
_atom_site_U_iso_or_equiv
_atom_site_adp_type
_atom_site_occupancy
_atom_site_site_symmetry_order
_atom_site_calc_flag
_atom_site_refinement_flags_posn
Br1 Br 0.37002(17) 0.6791(2) 0.20352(8) 0.0494(4) Uani 1 1 d .
Br2 Br 0.95891(18) 0.3483(3) 0.28217(8) 0.0553(5) Uani 1 1 d .
Br3 Br 0.4826(2) 0.1486(2) 0.27539(7) 0.0552(4) Uani 1 1 d .
O1 O 0.8745(13) 0.794(2) 0.2246(5) 0.067(4) Uani 1 1 d .
C7 C 0.7623(16) 0.700(2) 0.1776(7) 0.039(3) Uani 1 1 d .
C11 C 0.6663(16) 0.332(3) 0.4183(6) 0.045(3) Uani 1 1 d .
C6 C 0.7521(16) 0.7215(18) 0.0920(6) 0.036(3) Uani 1 1 d .
C8 C 0.6275(15) 0.554(2) 0.2080(7) 0.037(3) Uani 1 1 d .
H8 H 0.6110 0.4442 0.1731 0.045 Uiso 1 1 calc R
C5 C 0.6334(18) 0.612(2) 0.0369(6) 0.047(4) Uani 1 1 d .
H5 H 0.5465 0.5255 0.0534 0.057 Uiso 1 1 calc R
C9 C 0.7131(16) 0.492(2) 0.2914(7) 0.044(3) Uani 1 1 d .
H9 H 0.7544 0.6053 0.3225 0.053 Uiso 1 1 calc R
C2 C 0.890(2) 0.865(3) -0.0144(8) 0.064(5) Uani 1 1 d .
H2 H 0.9759 0.9519 -0.0309 0.077 Uiso 1 1 calc R
C1 C 0.8828(18) 0.844(2) 0.0662(7) 0.047(3) Uani 1 1 d .
H1 H 0.9688 0.9160 0.1027 0.057 Uiso 1 1 calc R
C4 C 0.639(2) 0.627(2) -0.0447(7) 0.049(3) Uani 1 1 d .
H4 H 0.5571 0.5520 -0.0815 0.059 Uiso 1 1 calc R
C12 C 0.7728(17) 0.171(3) 0.4422(7) 0.055(4) Uani 1 1 d .
H12 H 0.7918 0.0817 0.4047 0.066 Uiso 1 1 calc R
C3 C 0.770(2) 0.757(2) -0.0673(8) 0.050(3) Uani 1 1 d .
H3 H 0.7763 0.7699 -0.1204 0.059 Uiso 1 1 calc R
C10 C 0.5774(16) 0.378(2) 0.3354(7) 0.044(3) Uani 1 1 d .
H10 H 0.4590 0.4557 0.3371 0.053 Uiso 1 1 calc R
C16 C 0.647(2) 0.470(3) 0.4729(8) 0.059(4) Uani 1 1 d .
H16 H 0.5795 0.5809 0.4568 0.071 Uiso 1 1 calc R
C13 C 0.854(2) 0.136(3) 0.5224(7) 0.064(5) Uani 1 1 d .
H13 H 0.9193 0.0228 0.5384 0.077 Uiso 1 1 calc R
C14 C 0.833(2) 0.280(4) 0.5770(8) 0.095(10) Uani 1 1 d .
H14 H 0.8900 0.2628 0.6296 0.114 Uiso 1 1 calc R
C15 C 0.732(2) 0.443(4) 0.5550(9) 0.087(7) Uani 1 1 d .
H15 H 0.7168 0.5347 0.5920 0.104 Uiso 1 1 calc R
loop_
_atom_site_aniso_label
_atom_site_aniso_U_11
_atom_site_aniso_U_22
_atom_site_aniso_U_33
_atom_site_aniso_U_23
_atom_site_aniso_U_13
_atom_site_aniso_U_12
Br1 0.0454(7) 0.0461(9) 0.0547(7) 0.0036(8) 0.0035(5) 0.0035(6)
Br2 0.0423(7) 0.0725(12) 0.0524(7) 0.0062(8) 0.0123(5) 0.0099(7)
Br3 0.0713(9) 0.0547(11) 0.0375(6) -0.0008(8) 0.0039(5) -0.0161(8)
O1 0.068(6) 0.088(11) 0.042(5) -0.015(6) -0.003(4) -0.033(6)
C7 0.044(6) 0.032(8) 0.038(6) 0.004(6) -0.002(5) -0.005(6)
C11 0.037(6) 0.070(11) 0.027(5) 0.006(7) 0.005(4) 0.002(7)
C6 0.037(6) 0.031(8) 0.037(6) 0.005(6) -0.001(4) 0.002(5)
C8 0.036(6) 0.043(8) 0.035(6) -0.006(6) 0.013(4) -0.014(5)
C5 0.042(7) 0.067(11) 0.033(6) 0.006(7) 0.007(5) -0.017(6)
C9 0.035(6) 0.050(9) 0.048(7) 0.008(7) 0.006(5) -0.015(6)
C2 0.064(8) 0.084(14) 0.045(7) 0.016(9) 0.010(6) -0.024(10)
C1 0.051(7) 0.040(9) 0.049(7) -0.002(7) 0.004(5) -0.006(7)
C4 0.066(8) 0.032(9) 0.043(7) 0.012(7) -0.007(6) 0.002(6)
C12 0.047(7) 0.078(12) 0.041(6) 0.019(10) 0.012(5) 0.002(9)
C3 0.064(8) 0.047(9) 0.037(7) 0.017(7) 0.007(6) 0.005(7)
C10 0.036(6) 0.055(10) 0.041(6) -0.006(7) 0.006(5) -0.008(6)
C16 0.059(8) 0.080(13) 0.040(7) -0.017(9) 0.013(6) 0.020(8)
C13 0.060(8) 0.098(17) 0.035(7) 0.018(10) 0.012(6) 0.010(9)
C14 0.042(8) 0.21(3) 0.038(8) 0.041(13) 0.006(6) 0.029(12)
C15 0.068(11) 0.14(2) 0.048(9) -0.010(13) 0.014(8) 0.003(13)
loop_
_atom_type_symbol
_atom_type_description
_atom_type_scat_dispersion_real
_atom_type_scat_dispersion_imag
_atom_type_scat_source
C C 0.0033 0.0016 'International Tables Vol C Tables 4.2.6.8 and 6.1.1.4'
H H 0.0000 0.0000 'International Tables Vol C Tables 4.2.6.8 and 6.1.1.4'
Br Br -0.2901 2.4595 'International Tables Vol C Tables 4.2.6.8 and 6.1.1.4'
O O 0.0106 0.0060 'International Tables Vol C Tables 4.2.6.8 and 6.1.1.4'
loop_
_geom_angle_atom_site_label_1
_geom_angle_atom_site_label_2
_geom_angle_atom_site_label_3
_geom_angle
O1 C7 C6 121.9(12)
O1 C7 C8 118.8(11)
C6 C7 C8 119.3(10)
C12 C11 C10 124.7(14)
C16 C11 C12 119.2(12)
C16 C11 C10 116.0(14)
C5 C6 C7 123.6(11)
C5 C6 C1 117.7(11)
C1 C6 C7 118.3(11)
Br1 C8 H8 109.5
C7 C8 Br1 105.6(9)
C7 C8 H8 109.5
C9 C8 Br1 111.0(7)
C9 C8 C7 111.8(9)
C9 C8 H8 109.5
C6 C5 H5 118.9
C6 C5 C4 122.2(13)
C4 C5 H5 118.9
Br2 C9 H9 107.6
C8 C9 Br2 104.9(8)
C8 C9 H9 107.6
C8 C9 C10 117.7(9)
C10 C9 Br2 111.2(10)
C10 C9 H9 107.6
C1 C2 H2 120.2
C3 C2 H2 120.2
C3 C2 C1 119.5(14)
C6 C1 C2 121.5(13)
C6 C1 H1 119.2
C2 C1 H1 119.2
C5 C4 H4 121.3
C3 C4 C5 117.4(13)
C3 C4 H4 121.3
C11 C12 H12 118.9
C11 C12 C13 122.1(17)
C13 C12 H12 118.9
C2 C3 C4 121.6(12)
C2 C3 H3 119.2
C4 C3 H3 119.2
Br3 C10 H10 106.7
C11 C10 Br3 111.7(12)
C11 C10 C9 114.6(10)
C11 C10 H10 106.7
C9 C10 Br3 110.0(9)
C9 C10 H10 106.7
C11 C16 H16 119.6
C11 C16 C15 120.8(18)
C15 C16 H16 119.6
C12 C13 H13 121.4
C14 C13 C12 117.1(18)
C14 C13 H13 121.4
C13 C14 H14 118.9
C15 C14 C13 122.1(14)
C15 C14 H14 118.9
C16 C15 H15 120.8
C14 C15 C16 118.5(19)
C14 C15 H15 120.8
loop_
_geom_bond_atom_site_label_1
_geom_bond_atom_site_label_2
_geom_bond_distance
Br1 C8 1.947(12)
Br2 C9 1.982(13)
Br3 C10 1.969(15)
O1 C7 1.209(14)
C7 C6 1.476(16)
C7 C8 1.530(16)
C11 C12 1.38(2)
C11 C10 1.485(16)
C11 C16 1.38(2)
C6 C5 1.372(17)
C6 C1 1.373(18)
C8 H8 0.9800
C8 C9 1.521(16)
C5 H5 0.9300
C5 C4 1.419(17)
C9 H9 0.9800
C9 C10 1.525(17)
C2 H2 0.9300
C2 C1 1.409(17)
C2 C3 1.34(2)
C1 H1 0.9300
C4 H4 0.9300
C4 C3 1.387(19)
C12 H12 0.9300
C12 C13 1.419(16)
C3 H3 0.9300
C10 H10 0.9800
C16 H16 0.9300
C16 C15 1.44(2)
C13 H13 0.9300
C13 C14 1.41(3)
C14 H14 0.9300
C14 C15 1.36(3)
C15 H15 0.9300
loop_
_geom_torsion_atom_site_label_1
_geom_torsion_atom_site_label_2
_geom_torsion_atom_site_label_3
_geom_torsion_atom_site_label_4
_geom_torsion
Br1 C8 C9 Br2 174.8(6)
Br1 C8 C9 C10 50.7(15)
Br2 C9 C10 Br3 -63.8(9)
Br2 C9 C10 C11 63.0(15)
O1 C7 C6 C5 177.1(14)
O1 C7 C6 C1 4(2)
O1 C7 C8 Br1 96.9(13)
O1 C7 C8 C9 -24.0(18)
C7 C6 C5 C4 -175.0(13)
C7 C6 C1 C2 176.4(14)
C7 C8 C9 Br2 -67.6(12)
C7 C8 C9 C10 168.3(13)
C11 C12 C13 C14 -4(2)
C11 C16 C15 C14 1(3)
C6 C7 C8 Br1 -83.1(12)
C6 C7 C8 C9 156.1(11)
C6 C5 C4 C3 0(2)
C8 C7 C6 C5 -3(2)
C8 C7 C6 C1 -176.1(12)
C8 C9 C10 Br3 57.1(15)
C8 C9 C10 C11 -176.1(13)
C5 C6 C1 C2 3(2)
C5 C4 C3 C2 0(2)
C1 C6 C5 C4 -2(2)
C1 C2 C3 C4 1(3)
C12 C11 C10 Br3 34.3(16)
C12 C11 C10 C9 -91.7(19)
C12 C11 C16 C15 -2(2)
C12 C13 C14 C15 3(3)
C3 C2 C1 C6 -2(3)
C10 C11 C12 C13 179.9(13)
C10 C11 C16 C15 -178.8(14)
C16 C11 C12 C13 4(2)
C16 C11 C10 Br3 -149.3(11)
C16 C11 C10 C9 84.7(15)
C13 C14 C15 C16 -1(3)
