#------------------------------------------------------------------------------
#$Date: 2016-06-17 01:46:21 +0300 (Fri, 17 Jun 2016) $
#$Revision: 183570 $
#$URL: file:///home/coder/svn-repositories/cod/cif/4/12/50/4125087.cif $
#------------------------------------------------------------------------------
#
# This file is available in the Crystallography Open Database (COD),
# http://www.crystallography.net/
#
# All data on this site have been placed in the public domain by the
# contributors.
#
data_4125087
loop_
_publ_author_name
'Huang, Yuan'
'Huang, Rui-Zhi'
'Zhao, Yu'
_publ_section_title
;
 Cobalt-Catalyzed Enantioselective Vinylation of Activated Ketones and
 Imines.
;
_journal_issue                   20
_journal_name_full               'Journal of the American Chemical Society'
_journal_page_first              6571
_journal_page_last               6576
_journal_paper_doi               10.1021/jacs.6b02372
_journal_volume                  138
_journal_year                    2016
_chemical_absolute_configuration ad
_chemical_formula_moiety         'C19 H17 Cl O3'
_chemical_formula_sum            'C19 H17 Cl O3'
_chemical_formula_weight         328.77
_space_group_crystal_system      monoclinic
_space_group_IT_number           4
_space_group_name_Hall           'P 2yb'
_space_group_name_H-M_alt        'P 1 21 1'
_symmetry_space_group_name_Hall  'P 2yb'
_symmetry_space_group_name_H-M   'P 1 21 1'
_atom_sites_solution_hydrogens   geom
_audit_creation_method           SHELXL-2014/7
_cell_angle_alpha                90
_cell_angle_beta                 97.565(4)
_cell_angle_gamma                90
_cell_formula_units_Z            2
_cell_length_a                   5.9854(7)
_cell_length_b                   7.5004(8)
_cell_length_c                   18.085(2)
_cell_measurement_reflns_used    2574
_cell_measurement_temperature    100(2)
_cell_measurement_theta_max      68.190
_cell_measurement_theta_min      4.934
_cell_volume                     804.82(16)
_computing_cell_refinement
'SHELXTL, Acta Cryst., Sect. A 2008, 64, 112-122.'
_computing_data_collection       'APEX3 v2015.5.2'
_computing_data_reduction        'Saint, APEX v2014.11.0.'
_computing_molecular_graphics    Ortep3
_computing_publication_material  'APEX3 v2015.5.2'
_computing_structure_refinement  'SHELXL-2014/6 (Sheldrick, 2014)'
_computing_structure_solution
'SHELXT, Acta Cryst., Sect. A 2015, A71, 3-8.'
_diffrn_ambient_temperature      100(2)
_diffrn_measured_fraction_theta_full 0.999
_diffrn_measured_fraction_theta_max 0.999
_diffrn_measurement_device_type  'Bruker AXS D8 Venture '
_diffrn_measurement_method       'profile data from \q/2\q scans'
_diffrn_radiation_type           CuK\a
_diffrn_radiation_wavelength     1.54178
_diffrn_reflns_av_R_equivalents  0.0289
_diffrn_reflns_av_unetI/netI     0.0389
_diffrn_reflns_Laue_measured_fraction_full 0.999
_diffrn_reflns_Laue_measured_fraction_max 0.999
_diffrn_reflns_limit_h_max       7
_diffrn_reflns_limit_h_min       -7
_diffrn_reflns_limit_k_max       9
_diffrn_reflns_limit_k_min       -9
_diffrn_reflns_limit_l_max       21
_diffrn_reflns_limit_l_min       -21
_diffrn_reflns_number            10346
_diffrn_reflns_point_group_measured_fraction_full 0.977
_diffrn_reflns_point_group_measured_fraction_max 0.977
_diffrn_reflns_theta_full        67.679
_diffrn_reflns_theta_max         68.190
_diffrn_reflns_theta_min         4.934
_exptl_absorpt_coefficient_mu    2.205
_exptl_absorpt_correction_T_max  0.782
_exptl_absorpt_correction_T_min  0.657
_exptl_absorpt_correction_type   multi-scan
_exptl_absorpt_process_details   Sadabs
_exptl_crystal_colour            colorless
_exptl_crystal_density_diffrn    1.357
_exptl_crystal_description       plate
_exptl_crystal_F_000             344
_exptl_crystal_size_max          0.208
_exptl_crystal_size_mid          0.157
_exptl_crystal_size_min          0.117
_refine_diff_density_max         0.251
_refine_diff_density_min         -0.195
_refine_diff_density_rms         0.037
_refine_ls_abs_structure_details
;
 Flack x determined using 1213 quotients [(I+)-(I-)]/[(I+)+(I-)]
 (Parsons, Flack and Wagner, Acta Cryst. B69 (2013) 249-259).
;
_refine_ls_abs_structure_Flack   0.057(5)
_refine_ls_extinction_method     none
_refine_ls_goodness_of_fit_ref   1.031
_refine_ls_hydrogen_treatment    constr
_refine_ls_matrix_type           full
_refine_ls_number_parameters     210
_refine_ls_number_reflns         2871
_refine_ls_number_restraints     1
_refine_ls_restrained_S_all      1.031
_refine_ls_R_factor_all          0.0243
_refine_ls_R_factor_gt           0.0233
_refine_ls_shift/su_max          0.000
_refine_ls_shift/su_mean         0.000
_refine_ls_structure_factor_coef Fsqd
_refine_ls_weighting_details
'w=1/[\s^2^(Fo^2^)+(0.0219P)^2^+0.1451P] where P=(Fo^2^+2Fc^2^)/3'
_refine_ls_weighting_scheme      calc
_refine_ls_wR_factor_gt          0.0580
_refine_ls_wR_factor_ref         0.0587
_reflns_Friedel_coverage         0.805
_reflns_Friedel_fraction_full    0.951
_reflns_Friedel_fraction_max     0.950
_reflns_number_gt                2798
_reflns_number_total             2871
_reflns_threshold_expression     'I > 2\s(I)'
_cod_data_source_file            ja6b02372_si_002.cif
_cod_data_source_block           g061_final
_cod_depositor_comments
'Adding full bibliography for 4125086--4125088.cif.'
_cod_original_cell_volume        804.81(16)
_cod_database_code               4125087
_shelx_space_group_comment
;
The symmetry employed for this shelxl refinement is uniquely defined
by the following loop, which should always be used as a source of
symmetry information in preference to the above space-group names.
They are only intended as comments.
;
_shelx_estimated_absorpt_t_min   0.657
_shelx_estimated_absorpt_t_max   0.782
_shelx_res_file
;

    g061_final.res created by SHELXL-2014/7


TITL g061_a.res in P2(1)
TITL g061_final in P2(1)
CELL 1.54178   5.98540   7.50040  18.08480  90.0000  97.5649  90.0000
ZERR    2.00   0.00070   0.00080   0.00200   0.0000   0.0040   0.0000
LATT -1
SYMM -X, 1/2+Y, -Z
SFAC C  H  O  Cl
UNIT 38  34  6  2
REM Old TITL g061 in P2(1)
REM SHELXT solution in P2(1)
REM R1 0.080,  Rweak 0.027,  Alpha 0.001,  Orientation as input
REM Flack x=  0.086 ( 0.005 ) from Parsons' quotients
REM Formula found by SHELXT:  C19 O3 Cl
L.S. 9000
SHEL 40.0 0.83
acta
htab
size .117 .157 .208
conf
BOND $H
FMAP 2
PLAN 5
TEMP -173.150
WGHT    0.021900    0.145100
FVAR       0.35028
CL1   4   -0.201155    0.556018    0.333954    11.00000    0.01951    0.03334 =
         0.01828   -0.00598   -0.00341    0.00148
O3    3    0.457714    0.711885    0.803497    11.00000    0.02416    0.02104 =
         0.02023   -0.00425    0.00497    0.00089
O1    3    0.913520    0.679844    0.695136    11.00000    0.01895    0.02593 =
         0.02107    0.00487    0.00289   -0.00670
AFIX 147
H1    2    0.916072    0.791702    0.697378    11.00000   -1.50000
AFIX   0
O2    3    0.694783    0.918463    0.768275    11.00000    0.04631    0.01979 =
         0.02315   -0.00227    0.00247   -0.00934
C5    1    0.386698    0.655598    0.458174    11.00000    0.01596    0.01588 =
         0.01743   -0.00108    0.00396   -0.00085
AFIX  43
H5    2    0.527756    0.706637    0.451296    11.00000   -1.20000
AFIX   0
C6    1    0.219944    0.641661    0.397502    11.00000    0.02153    0.01965 =
         0.01442    0.00081    0.00472    0.00273
AFIX  43
H6    2    0.245524    0.682294    0.349575    11.00000   -1.20000
AFIX   0
C9    1    0.143992    0.519898    0.537778    11.00000    0.01921    0.01655 =
         0.01639    0.00195    0.00326   -0.00012
AFIX  43
H9    2    0.117505    0.478259    0.585467    11.00000   -1.20000
AFIX   0
C18   1    0.625860    0.768229    0.767630    11.00000    0.02251    0.02091 =
         0.01268    0.00111   -0.00451   -0.00166
C4    1    0.352969    0.596664    0.529114    11.00000    0.01698    0.01356 =
         0.01508   -0.00168    0.00269    0.00228
C8    1   -0.023346    0.504179    0.477912    11.00000    0.01703    0.01604 =
         0.02234   -0.00095    0.00332   -0.00127
AFIX  43
H8    2   -0.163630    0.450843    0.484123    11.00000   -1.20000
AFIX   0
C7    1    0.015284    0.567101    0.408459    11.00000    0.01632    0.01703 =
         0.01797   -0.00461   -0.00123    0.00273
C11   1    0.993568    0.431710    0.807694    11.00000    0.01705    0.02004 =
         0.01716   -0.00192    0.00395   -0.00364
AFIX  43
H11   2    1.108504    0.496766    0.788014    11.00000   -1.20000
AFIX   0
C10   1    0.782955    0.463306    0.777268    11.00000    0.01913    0.01772 =
         0.01442   -0.00105    0.00327   -0.00280
AFIX  43
H10   2    0.666854    0.387002    0.789732    11.00000   -1.20000
AFIX   0
C3    1    0.533080    0.622891    0.591577    11.00000    0.01591    0.01512 =
         0.01888   -0.00169    0.00381   -0.00033
AFIX  43
H3    2    0.663123    0.685420    0.580915    11.00000   -1.20000
AFIX   0
C2    1    0.533037    0.568243    0.661458    11.00000    0.01643    0.01656 =
         0.01634    0.00012    0.00174   -0.00241
AFIX  43
H2    2    0.411355    0.496687    0.673038    11.00000   -1.20000
AFIX   0
C14   1    1.363088    0.214409    0.966173    11.00000    0.01688    0.02428 =
         0.01807   -0.00315    0.00153    0.00420
AFIX  43
H14   2    1.514642    0.223417    0.989304    11.00000   -1.20000
AFIX   0
C13   1    1.289126    0.318145    0.904204    11.00000    0.01482    0.02140 =
         0.01896   -0.00247    0.00470   -0.00089
AFIX  43
H13   2    1.391131    0.398450    0.885623    11.00000   -1.20000
AFIX   0
C12   1    1.067215    0.306909    0.868485    11.00000    0.01751    0.01711 =
         0.01514   -0.00380    0.00346    0.00190
C17   1    0.923053    0.184121    0.896250    11.00000    0.01624    0.01754 =
         0.02183   -0.00141    0.00148   -0.00063
AFIX  43
H17   2    0.773075    0.170999    0.872146    11.00000   -1.20000
AFIX   0
C1    1    0.719846    0.615638    0.723584    11.00000    0.01543    0.02190 =
         0.01648    0.00111    0.00235   -0.00386
C16   1    0.996282    0.081387    0.958475    11.00000    0.02292    0.01807 =
         0.02494    0.00313    0.00466   -0.00064
AFIX  43
H16   2    0.895833   -0.000711    0.976770    11.00000   -1.20000
AFIX   0
C15   1    1.215587    0.097556    0.994320    11.00000    0.02442    0.02038 =
         0.01841    0.00294    0.00327    0.00623
AFIX  43
H15   2    1.263984    0.029189    1.037700    11.00000   -1.20000
AFIX   0
C19   1    0.356511    0.844574    0.847003    11.00000    0.04122    0.02795 =
         0.01962   -0.00391    0.00472    0.01145
AFIX 137
H19A  2    0.473050    0.897486    0.883593    11.00000   -1.50000
H19B  2    0.241559    0.787991    0.873033    11.00000   -1.50000
H19C  2    0.286515    0.937936    0.813790    11.00000   -1.50000
AFIX   0
HKLF 4

REM  g061_final in P2(1)
REM R1 =  0.0233 for    2798 Fo > 4sig(Fo)  and  0.0243 for all    2871 data
REM    210 parameters refined using      1 restraints

END

WGHT      0.0217      0.1490

REM Instructions for potential hydrogen bonds
EQIV $1 -x+1, y+1/2, -z+1
HTAB O1 Cl1_$1
HTAB O1 O2
EQIV $2 -x, y+1/2, -z+1
HTAB C19 Cl1_$2

REM Highest difference peak  0.251,  deepest hole -0.195,  1-sigma level  0.037
Q1    1   0.6267  0.5821  0.6950  11.00000  0.05    0.17
Q2    1   0.0355  0.5606  0.5113  11.00000  0.05    0.14
Q3    1   0.7411  0.5359  0.7468  11.00000  0.05    0.13
Q4    1   0.7972  0.6650  0.5503  11.00000  0.05    0.12
Q5    1  -0.0826  0.5566  0.3762  11.00000  0.05    0.12
;
_shelx_res_checksum              2140
_shelx_hkl_file
;
   1   0   0   22.66    1.25
  -1   0   0   22.54    1.25
  -1   0   0   21.49    1.25
  -2   0   0    0.88    0.11
   2   0   0    0.92    0.16
   3   0   0   16.36    0.98
   3   0   0   15.14    0.96
   4   0   0   30.42    1.74
   4   0   0   28.48    1.75
  -4   0   0   26.36    1.60
   4   0   0   28.98    1.67
  -4   0   0   28.44    1.73
  -4   0   0   28.03    1.77
  -4   0   0   27.64    1.83
  -5   0   0   29.84    1.86
   5   0   0   29.93    1.84
   5   0   0   29.86    1.79
  -5   0   0   29.71    1.83
   6   0   0    4.57    0.44
  -6   0   0    4.53    0.51
   6   0   0    5.14    0.53
  -6   0   0    4.12    0.48
  -7   0   0   17.00    1.03
  -7   0   0   16.89    1.06
   7   0   0   17.61    1.06
   0  -1   0   -0.86    0.04
   0   1   0   -0.92    0.03
   1  -1   0  111.92    6.83
   1   1   0  127.39    6.84
  -1   1   0  123.38    6.83
  -1   1   0  131.60    6.85
   2  -1   0   33.41    1.88
  -2  -1   0   34.50    1.88
  -2   1   0   30.15    1.87
  -2   1   0   33.11    1.85
   2   1   0   33.47    1.89
   3  -1   0   44.38    2.49
  -3  -1   0   44.67    2.47
   3  -1   0   42.19    2.47
   3   1   0   42.51    2.52
   3   1   0   42.25    2.47
  -3   1   0   44.33    2.43
  -4  -1   0   72.23    3.81
  -4  -1   0   71.30    3.92
  -4  -1   0   71.06    3.89
   4  -1   0   72.43    3.85
   4  -1   0   71.86    3.89
   4  -1   0   71.21    3.91
   4   1   0   65.03    3.83
  -4   1   0   66.24    3.92
  -4   1   0   61.96    3.87
  -4   1   0   62.57    3.96
   4   1   0   62.25    3.87
   4   1   0   65.15    3.89
  -5  -1   0   15.34    1.07
   5  -1   0   14.99    0.99
   5  -1   0   15.48    1.07
  -5  -1   0   14.94    1.04
   5  -1   0   13.15    1.35
   5   1   0   15.28    0.98
  -5   1   0   15.02    1.16
   5   1   0   15.86    1.05
   5   1   0   14.85    1.13
  -5   1   0   15.19    1.08
  -5   1   0   15.09    1.03
  -6  -1   0   13.38    0.89
   6  -1   0   12.80    0.84
   6  -1   0   12.81    1.09
  -6   1   0   11.93    1.01
   6   1   0   10.27    0.89
  -6   1   0   11.33    0.87
  -7  -1   0    5.66    0.45
   7  -1   0    5.54    0.45
  -7  -1   0    5.90    0.42
   7   1   0    5.26    0.44
  -7   1   0    5.10    0.41
  -7   1   0    5.07    0.44
   0  -2   0  702.71   37.96
   0   2   0  715.11   37.96
   0   2   0  641.31   37.85
   1  -2   0  169.67    9.53
  -1  -2   0  173.51    9.54
  -1   2   0  172.69    9.52
   1   2   0  173.66    9.54
  -2  -2   0   36.85    2.08
  -2  -2   0   41.35    2.10
   2  -2   0   40.73    2.09
   2   2   0   33.79    2.09
  -2   2   0   34.83    2.04
   2   2   0   31.96    2.07
  -3  -2   0   59.71    3.63
  -3  -2   0   59.77    3.53
   3  -2   0   63.51    3.56
   3  -2   0   63.17    3.54
  -3  -2   0   64.44    3.56
   3   2   0   65.60    3.58
   3   2   0   66.98    3.54
  -3   2   0   60.15    3.67
   3   2   0   61.94    3.59
   4  -2   0   58.37    3.17
  -4  -2   0   55.65    3.22
  -4  -2   0   54.02    3.17
   4  -2   0   57.11    3.24
  -4  -2   0   55.19    3.23
   4  -2   0   55.95    3.21
  -4  -2   0   56.15    3.15
   4   2   0   55.06    3.15
   4   2   0   52.90    3.31
   4   2   0   54.85    3.22
  -4   2   0   56.72    3.26
   4   2   0   54.94    3.22
  -4   2   0   53.19    3.43
  -5  -2   0   61.28    3.42
   5  -2   0   62.06    3.40
   5  -2   0   55.90    3.48
   5  -2   0   60.54    3.44
  -5  -2   0   58.37    3.36
  -5  -2   0   58.67    3.43
   5   2   0   61.05    3.42
  -5   2   0   59.03    3.41
  -5   2   0   59.20    3.53
   5   2   0   54.42    3.50
   5   2   0   57.50    3.47
  -5   2   0   58.69    3.45
  -6  -2   0   20.49    1.35
   6  -2   0   23.21    1.39
  -6  -2   0   21.89    1.35
   6  -2   0   22.03    1.34
   6   2   0   22.16    1.35
  -6   2   0   21.50    1.33
  -6   2   0   21.51    1.38
   6   2   0   20.20    1.33
   7  -2   0   10.99    0.74
  -7  -2   0   10.43    0.68
  -7   2   0    9.82    0.75
   7   2   0   12.00    0.70
   0  -3   0    0.11    0.07
   0   3   0    0.01    0.06
   0   3   0    0.13    0.21
  -1  -3   0   66.28    3.49
   1  -3   0   58.79    3.46
   1  -3   0   64.19    3.47
   1   3   0   62.68    3.48
  -1   3   0   57.76    3.45
  -1   3   0   61.94    3.44
  -2  -3   0    5.99    0.46
   2  -3   0    6.18    0.45
   2  -3   0    6.51    0.46
   2   3   0    6.76    0.46
   2   3   0    6.96    0.48
  -3  -3   0   44.81    2.47
  -3  -3   0   41.82    2.45
  -3  -3   0   42.71    2.51
   3  -3   0   38.98    2.51
  -3  -3   0   37.80    2.52
   3  -3   0   44.03    2.43
   3  -3   0   42.97    2.45
  -3  -3   0   41.99    2.45
  -3   3   0   40.03    2.59
   3   3   0   45.67    2.42
   3   3   0   43.26    2.47
   3   3   0   41.53    2.53
   3   3   0   42.54    2.47
  -3   3   0   43.91    2.58
  -3   3   0   43.37    2.58
   4  -3   0   47.49    2.80
  -4  -3   0   47.36    2.78
  -4  -3   0   46.33    2.73
  -4  -3   0   45.38    2.78
   4  -3   0   46.56    2.79
   4  -3   0   47.56    2.74
  -4  -3   0   46.41    2.74
  -4   3   0   48.50    2.89
   4   3   0   46.57    2.71
   4   3   0   48.32    2.80
   4   3   0   48.49    2.77
  -4   3   0   48.59    2.83
   4   3   0   48.28    2.84
  -5  -3   0   36.81    2.20
  -5  -3   0   37.12    2.20
   5  -3   0   39.25    2.18
   5  -3   0   37.34    2.23
  -5  -3   0   35.35    2.14
   5  -3   0   34.46    2.37
   5   3   0   34.29    2.26
  -5   3   0   36.94    2.32
  -5   3   0   37.44    2.23
   5   3   0   36.69    2.13
   5   3   0   35.91    2.28
  -5   3   0   37.28    2.18
   5   3   0   36.93    2.18
  -6  -3   0   25.57    1.46
  -6  -3   0   26.15    1.44
   6  -3   0   26.63    1.47
   6  -3   0   25.69    1.43
   6   3   0   21.57    1.47
   6   3   0   20.80    1.95
  -6   3   0   20.96    1.44
   6   3   0   21.87    1.41
  -6   3   0   20.92    1.39
  -7  -3   0    9.38    0.60
   7  -3   0    9.60    0.62
   0  -4   0   18.73    1.12
   0  -4   0   18.02    1.09
   1  -4   0   20.35    1.22
  -1  -4   0   22.07    1.28
   1  -4   0   21.85    1.25
  -1  -4   0   22.45    1.24
   1   4   0   21.12    1.32
  -1   4   0   17.66    1.28
   1   4   0   21.43    1.25
   1   4   0   20.17    1.39
  -2  -4   0   17.72    1.44
   2  -4   0   19.72    1.30
  -2  -4   0   19.47    1.31
   2  -4   0   19.99    1.36
  -2  -4   0   20.58    1.27
   2  -4   0   19.98    1.26
   2   4   0   22.93    1.36
  -2   4   0   24.26    1.42
   2   4   0   24.01    1.40
  -2   4   0   22.58    1.46
   2   4   0   21.80    1.28
   2   4   0   24.75    1.32
   3  -4   0   10.71    0.86
  -3  -4   0   11.81    0.73
   3  -4   0   11.00    0.89
   3  -4   0   11.45    0.80
   3  -4   0   11.80    0.72
  -3  -4   0   10.63    0.83
  -3  -4   0   12.11    0.79
   3   4   0    9.69    0.76
   3   4   0    9.82    0.95
   3   4   0    9.19    0.71
   3   4   0    8.94    0.82
  -4  -4   0   12.85    0.98
   4  -4   0   13.69    0.92
  -4  -4   0   13.05    0.92
  -4  -4   0   12.77    0.97
   4  -4   0   12.96    1.01
   4   4   0   14.49    1.03
   4   4   0   14.08    0.93
  -4   4   0   14.73    1.11
   4   4   0   14.95    0.95
   4   4   0   14.32    1.02
  -4   4   0   13.89    1.10
   4   4   0   14.33    1.04
  -5  -4   0   16.70    1.20
   5  -4   0   17.74    1.15
  -5  -4   0   17.18    1.12
   5  -4   0   17.26    1.09
   5   4   0   16.54    1.16
  -5   4   0   15.97    1.08
  -5   4   0   16.32    1.22
   6  -4   0    9.47    0.75
   6  -4   0    9.42    0.67
  -6  -4   0    9.60    0.65
  -6   4   0    8.42    0.61
   6   4   0    9.24    0.70
  -6   4   0    8.98    0.83
   6   4   0    7.57    1.00
   0  -5   0    0.20    0.11
   0  -5   0    0.08    0.17
   0  -5   0    0.07    0.20
   0   5   0    0.30    0.19
   0   5   0    0.02    0.37
   0   5   0    0.21    0.21
  -1  -5   0   41.22    2.41
  -1  -5   0   40.50    2.45
  -1  -5   0   41.60    2.38
   1  -5   0   40.49    2.43
   1  -5   0   40.18    2.41
   1  -5   0   41.02    2.38
  -1   5   0   41.20    2.42
   1   5   0   43.86    2.48
   1   5   0   41.59    2.42
  -1   5   0   41.87    2.54
   1   5   0   42.80    2.39
  -1   5   0   42.80    2.48
   2  -5   0   10.60    0.73
  -2  -5   0   10.76    0.77
  -2  -5   0    9.32    0.94
   2  -5   0   10.67    0.82
  -2  -5   0   10.35    0.73
   2  -5   0   10.41    0.83
  -2   5   0   13.18    0.91
   2   5   0   12.17    0.91
   2   5   0   12.60    0.78
   2   5   0   12.54    0.87
  -3  -5   0    2.51    0.57
  -3  -5   0    2.95    0.38
   3  -5   0    2.76    0.50
   3  -5   0    2.13    0.47
  -3  -5   0    2.47    0.53
  -3  -5   0    2.90    0.37
   3  -5   0    2.31    0.46
   3  -5   0    2.77    0.33
   3   5   0    1.73    0.45
  -3   5   0    2.05    0.51
   3   5   0    1.96    0.45
  -3   5   0    2.13    0.54
  -4  -5   0   24.77    1.61
  -4  -5   0   23.09    1.66
   4  -5   0   25.66    1.56
  -4  -5   0   24.90    1.54
   4  -5   0   23.82    1.61
  -4   5   0   27.94    1.73
   4   5   0   25.02    1.66
   4   5   0   27.21    1.61
   4   5   0   27.21    1.63
   5  -5   0   13.94    0.89
   5  -5   0   13.66    0.94
  -5  -5   0   13.61    0.92
  -5  -5   0   12.65    0.84
   5   5   0   12.70    0.93
   5   5   0   13.32    0.94
  -5   5   0   13.39    1.00
  -5   5   0   13.14    0.86
   6  -5   0   28.12    1.46
  -6  -5   0   25.41    1.48
   6  -5   0   25.23    1.45
   6   5   0   21.40    1.48
   6   5   0   22.02    1.49
   0  -6   0    8.22    0.67
   0  -6   0    8.67    0.63
   0  -6   0    8.88    0.82
   0   6   0    9.11    0.93
   0   6   0   10.74    0.70
   1  -6   0    7.23    0.51
   1  -6   0    7.19    0.59
   1  -6   0    7.20    0.73
  -1  -6   0    6.36    0.49
  -1  -6   0    6.36    0.54
  -1  -6   0    7.39    0.75
   1   6   0    6.38    0.61
  -1   6   0    5.82    0.56
   1   6   0    6.21    0.55
  -1   6   0    6.09    0.63
  -1   6   0    5.55    0.76
  -2  -6   0    1.55    0.46
  -2  -6   0    2.48    0.37
   2  -6   0    2.54    0.42
  -2  -6   0    2.45    0.33
   2  -6   0    2.37    0.32
   2  -6   0    2.80    0.71
  -3  -6   0   11.47    0.76
  -3  -6   0   11.11    0.79
   3  -6   0    9.75    1.32
  -3  -6   0   10.03    1.01
   3  -6   0   11.35    0.79
   3  -6   0   11.24    0.83
   3  -6   0   11.78    0.75
  -3  -6   0   11.18    0.91
   3   6   0   10.45    0.84
   3   6   0    9.85    0.79
  -3   6   0    9.98    0.92
  -3   6   0    9.98    0.90
   4  -6   0   12.30    0.91
   4  -6   0   12.77    0.86
  -4  -6   0   12.45    0.83
  -4  -6   0   10.76    0.92
   4   6   0   13.66    0.94
  -4   6   0   14.29    1.03
   4   6   0   13.73    0.90
   5  -6   0   11.13    0.79
   5  -6   0   10.79    0.81
  -5  -6   0   11.13    0.84
  -5   6   0   13.78    0.88
   5   6   0   12.69    0.84
   5   6   0   12.88    0.82
   0  -7   0    0.06    0.18
   0  -7   0    0.09    0.14
   0  -7   0   -0.37    0.51
   0   7   0    0.22    0.20
   0   7   0    0.01    0.22
   1  -7   0    3.20    0.36
   1  -7   0    3.19    0.40
  -1  -7   0    3.14    0.39
  -1  -7   0    2.78    0.35
  -1  -7   0    3.35    0.67
   1  -7   0    4.36    1.05
  -2  -7   0    9.90    0.73
  -2  -7   0   11.11    0.74
   2  -7   0   10.52    0.73
   2  -7   0   10.70    0.75
   2  -7   0   10.51    0.79
  -2   7   0   11.05    0.89
   2   7   0   11.00    0.77
  -2   7   0   10.22    0.94
   2   7   0   11.21    0.83
   3  -7   0    6.55    0.59
  -3  -7   0    6.13    0.50
   3  -7   0    6.20    0.52
   3  -7   0    5.84    0.54
  -3  -7   0    6.21    0.81
  -3   7   0    7.59    0.72
   3   7   0    7.07    0.54
   3   7   0    7.05    0.60
  -4  -7   0   20.00    1.32
  -4  -7   0   21.31    1.43
   4  -7   0   21.51    1.38
   4   7   0   23.75    1.39
   4   7   0   24.90    1.37
  -4   7   0   24.53    1.45
   5   7   0    1.55    0.33
   0  -8   0   29.08    1.79
   0  -8   0   28.89    1.78
   0   8   0   32.55    1.90
   0   8   0   31.44    1.82
  -1  -8   0   14.58    0.96
  -1  -8   0   15.05    0.96
   1  -8   0   15.16    0.96
   1  -8   0   15.47    0.97
   1  -8   0   15.97    0.99
   1   8   0   15.66    1.05
  -1   8   0   15.90    1.08
   1   8   0   14.62    0.98
  -2  -8   0    1.22    0.23
   2  -8   0    0.94    0.20
   2  -8   0    1.35    0.30
   2  -8   0    1.53    0.32
   3  -8   0    0.20    0.31
   3   8   0    0.32    0.16
   3   8   0    0.16    0.19
  -3   8   0   -0.04    0.43
   4   8   0    2.56    0.39
   0  -9   0    0.06    0.13
   0  -9   0    0.13    0.16
   0   9   0    0.13    0.19
  -1  -9   0   10.66    0.69
  -1  -9   0    9.12    0.63
   1  -9   0    9.68    0.67
   1  -9   0    9.28    0.69
  -1   9   0   11.26    0.74
   1   9   0    9.80    0.85
  -2  -9   0    1.93    0.25
   2  -9   0    1.43    0.23
   2   9   0    1.68    0.36
  -7   0   1    4.31    0.37
   7   0  -1    3.93    0.39
  -7   0   1    3.44    0.38
  -6   0   1   18.59    1.24
  -6   0   1   18.36    1.21
   6   0  -1   19.53    1.24
   6   0  -1   18.85    1.18
  -5   0   1    1.40    0.34
   5   0  -1    1.29    0.30
  -5   0   1    1.71    0.32
   5   0  -1    1.30    0.31
   4   0  -1   56.85    3.16
   4   0  -1   54.21    3.21
  -4   0   1   57.02    3.13
   4   0  -1   57.01    3.20
  -4   0   1   56.33    3.22
  -4   0   1   52.74    3.30
  -4   0   1   53.91    3.24
   3   0  -1   61.61    3.62
   3   0  -1   64.97    3.64
  -3   0   1   66.49    3.62
  -2   0   1    9.85    0.60
   2   0  -1   10.10    0.62
   1   0  -1   28.52    1.61
  -1   0   1   27.92    1.61
  -1   0  -1   14.04    0.77
   1   0   1   13.24    0.78
   2   0   1    1.71    0.19
  -2   0  -1    1.30    0.20
  -2   0  -1    1.74    0.14
  -3   0  -1   22.94    1.27
   3   0   1   21.45    1.32
   3   0   1   22.88    1.35
  -4   0  -1   43.85    2.52
   4   0   1   42.14    2.43
  -4   0  -1   41.51    2.47
  -4   0  -1   40.90    2.56
   4   0   1   43.51    2.50
   4   0   1   41.02    2.49
  -5   0  -1   27.93    1.70
   5   0   1   26.19    2.16
   5   0   1   28.65    1.73
   5   0   1   26.32    1.67
  -5   0  -1   29.61    1.76
   6   0   1    0.44    0.33
  -6   0  -1    0.05    0.20
  -6   0  -1    0.17    0.36
   6   0   1    0.30    0.19
  -7   0  -1    5.61    0.46
   7   0   1    5.94    0.47
  -7   0  -1    5.93    0.42
  -7  -1   1   24.79    1.44
  -7  -1   1   24.83    1.47
   7  -1  -1   25.04    1.46
  -7   1   1   24.92    1.43
   7   1  -1   25.26    1.46
   7   1  -1   21.91    1.76
  -7   1   1   25.19    1.47
   6  -1  -1   12.92    0.87
  -6  -1   1   13.57    0.98
  -6  -1   1   12.34    0.88
   6  -1  -1   13.00    0.92
   6   1  -1   12.34    0.90
  -6   1   1   12.63    0.89
  -6   1   1   12.83    0.93
  -5  -1   1    3.02    0.50
  -5   1   1    4.29    0.57
  -5   1   1    4.11    0.51
   5   1  -1    3.88    0.51
  -5   1   1    4.38    0.64
   5   1  -1    4.04    0.59
   5   1  -1    3.81    0.40
   5   1  -1    5.04    1.15
   4  -1  -1   15.99    1.09
  -4  -1   1   15.10    1.18
   4  -1  -1   14.83    1.18
   4  -1  -1   15.95    1.13
  -4  -1   1   15.57    1.16
  -4  -1   1   16.24    1.07
   4   1  -1   19.86    1.18
   4   1  -1   20.93    1.10
  -4   1   1   19.34    1.18
   4   1  -1   20.73    1.17
  -4   1   1   19.80    1.30
   4   1  -1   18.54    1.45
   3  -1  -1    6.46    0.49
   3  -1  -1    5.77    0.47
  -3  -1   1    6.18    0.47
   3   1  -1    7.46    0.48
  -3   1   1    7.30    0.46
   3   1  -1    7.49    0.61
  -2  -1   1  237.19   13.56
   2  -1  -1  236.88   13.55
   2   1  -1  245.53   13.56
  -2   1   1  260.90   13.59
   1  -1  -1  478.12   25.95
  -1  -1   1  437.71   25.99
  -1   1   1  483.58   25.94
   1   1  -1  474.74   25.94
   0  -1  -1   49.66    2.45
   0  -1   1   48.84    2.44
   0   1  -1   40.29    2.44
   0   1  -1   40.56    2.44
   0   1   1   40.15    2.45
   1  -1   1   48.47    2.94
   1   1   1   57.52    2.96
  -2  -1  -1   36.10    1.96
   2  -1   1   34.83    1.97
   2   1   1   32.93    1.98
   3  -1   1    5.80    0.46
   3  -1   1    6.41    0.49
  -3  -1  -1    6.36    0.42
  -4  -1  -1    1.95    0.40
   4  -1   1    1.17    0.22
  -4  -1  -1    1.07    0.38
   4  -1   1    1.60    0.38
  -4  -1  -1    1.35    0.30
   4  -1   1    1.50    0.42
  -4   1  -1    1.38    0.35
  -4   1  -1    1.33    0.36
   4   1   1    1.34    0.30
   4   1   1    1.07    0.21
   4   1   1    1.48    0.39
  -4   1  -1    1.34    0.28
   5  -1   1  105.07    5.93
   5  -1   1   97.86    5.98
   5  -1   1  100.33    5.89
  -5  -1  -1  105.59    5.94
  -5  -1  -1  102.76    5.90
   5   1   1  105.58    5.88
  -5   1  -1  109.71    5.96
   5   1   1  103.77    5.98
   5   1   1  106.53    5.92
  -5   1  -1  107.17    5.91
  -6  -1  -1    3.96    0.57
  -6   1  -1    3.88    0.55
  -6   1  -1    3.41    0.52
  -7  -1  -1    0.54    0.16
  -7  -1  -1    0.74    0.23
  -7  -1  -1    0.62    0.28
   7  -1   1    0.37    0.16
   7   1   1    0.22    0.15
  -7   1  -1    0.51    0.19
  -7  -2   1    3.53    0.34
   7  -2  -1    3.61    0.36
  -7   2   1    3.70    0.37
   7   2  -1    3.02    0.31
   6  -2  -1   36.03    2.09
  -6  -2   1   34.44    2.07
   6  -2  -1   36.08    2.04
  -6  -2   1   36.17    2.06
   6   2  -1   33.11    2.29
   6   2  -1   29.37    2.03
   6   2  -1   35.27    2.06
  -6   2   1   35.12    2.09
  -6   2   1   35.11    2.05
   5  -2  -1    8.47    0.63
  -5  -2   1    7.97    0.70
  -5  -2   1    8.18    0.66
   5  -2  -1    7.18    0.82
  -5  -2   1    7.48    0.69
   5  -2  -1    7.99    0.72
   5   2  -1    7.94    0.93
   5   2  -1    7.85    0.77
  -5   2   1    7.83    0.74
   5   2  -1    8.56    0.68
  -5   2   1    7.69    0.66
  -5   2   1    7.68    0.82
   4  -2  -1   28.01    1.68
  -4  -2   1   26.97    1.76
  -4  -2   1   27.04    1.68
   4  -2  -1   27.67    1.75
   4  -2  -1   27.08    1.72
  -4  -2   1   25.75    1.75
   4   2  -1   29.99    1.67
   4   2  -1   29.42    1.85
  -4   2   1   29.64    1.79
  -4   2   1   28.92    1.85
   4   2  -1   30.27    1.74
   4   2  -1   29.95    1.74
  -3  -2   1   14.59    1.03
   3  -2  -1   14.70    1.05
   3  -2  -1   14.37    1.01
   3   2  -1   19.46    1.02
   3   2  -1   18.43    1.10
  -3   2   1   17.25    1.21
   3   2  -1   19.24    1.06
   2  -2  -1   65.63    3.83
   2  -2  -1   72.12    3.84
  -2  -2   1   67.26    3.84
  -2   2   1   63.91    3.86
  -2   2   1   71.02    3.82
   2   2  -1   71.41    3.85
   1  -2  -1   77.76    4.16
  -1  -2   1   80.78    4.18
   1   2  -1   70.58    4.16
  -1   2   1   70.11    4.15
   0  -2   1  578.16   32.18
   0  -2  -1  585.32   32.22
   0   2  -1  587.09   32.13
   0   2   1  575.88   32.20
  -1  -2  -1   26.59    1.57
   1  -2   1   26.07    1.56
   1   2   1   30.13    1.58
  -2  -2  -1   31.20    1.69
   2  -2   1   29.90    1.68
   2   2   1   26.45    1.69
   3  -2   1   31.84    1.82
   3  -2   1   30.97    1.79
  -3  -2  -1   28.80    1.85
  -3  -2  -1   32.26    1.80
   3   2   1   30.54    1.85
  -3   2  -1   30.05    1.94
   3   2   1   30.78    1.80
   3   2   1   31.69    1.84
   4  -2   1   19.52    1.32
   4  -2   1   18.39    1.21
  -4  -2  -1   18.81    1.17
   4  -2   1   18.51    1.30
  -4  -2  -1   18.73    1.29
  -4  -2  -1   18.49    1.25
  -4   2  -1   18.81    1.59
   4   2   1   21.60    1.30
   4   2   1   22.26    1.21
  -4   2  -1   21.79    1.35
  -5  -2  -1   20.38    1.36
   5  -2   1   21.10    1.38
  -5  -2  -1   20.82    1.34
   5  -2   1   19.28    1.56
   5  -2   1   20.46    1.32
  -5   2  -1   21.12    1.39
  -5   2  -1   21.23    1.33
   5   2   1   22.66    1.36
   5   2   1   21.67    1.49
  -5   2  -1   21.24    1.47
  -6  -2  -1    4.92    0.51
   6  -2   1    5.31    0.48
   6  -2   1    5.56    0.54
  -6  -2  -1    5.47    0.49
  -6   2  -1    5.24    0.48
   6   2   1    5.59    0.51
  -6   2  -1    5.15    0.53
   6   2   1    4.91    0.51
  -7  -2  -1    3.10    0.33
   7  -2   1    3.55    0.36
   7   2   1    3.73    0.55
  -7  -3   1    7.35    0.51
  -7   3   1    7.67    0.66
   6  -3  -1   26.75    1.57
  -6  -3   1   26.81    1.59
   6  -3  -1   27.54    1.61
  -6  -3   1   26.52    1.60
  -6   3   1   25.56    1.60
   6   3  -1   25.65    1.57
   6   3  -1   26.09    1.69
  -6   3   1   25.38    1.56
   6   3  -1   24.93    1.63
  -5  -3   1   41.96    2.56
   5  -3  -1   38.01    2.71
  -5  -3   1   42.93    2.62
   5  -3  -1   42.94    2.64
   5  -3  -1   45.24    2.59
  -5  -3   1   42.42    2.62
   5   3  -1   42.85    2.66
   5   3  -1   46.83    2.68
   5   3  -1   43.62    2.56
  -5   3   1   47.12    2.76
  -5   3   1   47.83    2.67
   5   3  -1   47.81    2.61
  -5   3   1   47.18    2.62
   4  -3  -1   25.51    1.55
   4  -3  -1   26.07    1.48
   4  -3  -1   24.57    1.56
  -4  -3   1   25.32    1.56
  -4  -3   1   25.84    1.51
  -4  -3   1   25.56    1.50
   4   3  -1   22.60    1.44
   4   3  -1   23.01    1.51
  -4   3   1   22.95    1.63
  -4   3   1   23.84    1.59
   4   3  -1   23.31    1.52
   4   3  -1   23.44    1.58
   3  -3  -1   10.69    0.71
   3  -3  -1   10.55    0.86
  -3  -3   1   10.31    0.75
   3  -3  -1   10.48    0.74
  -3  -3   1   10.10    0.90
  -3  -3   1   10.54    0.72
  -3   3   1   12.50    0.95
  -3   3   1   11.37    0.90
   3   3  -1   10.67    0.88
  -3   3   1   11.19    1.03
   3   3  -1   12.02    0.75
   3   3  -1   11.05    0.79
   2  -3  -1   46.72    2.86
   2  -3  -1   44.30    2.84
  -2  -3   1   47.15    2.85
   2   3  -1   57.08    2.89
  -2   3   1   57.49    2.83
  -1  -3   1   53.42    3.13
   1  -3  -1   53.10    3.12
   1  -3  -1   57.04    3.13
  -1  -3   1   56.36    3.14
  -1   3   1   53.80    3.17
  -1   3   1   57.69    3.12
   1   3  -1   58.03    3.13
   0  -3  -1   57.04    3.19
   0  -3   1   56.72    3.19
   0   3  -1   58.41    3.17
   0   3   1   55.14    3.19
   1  -3   1   42.46    2.43
  -1  -3  -1   44.10    2.45
   1   3   1   41.17    2.42
   1   3   1   44.27    2.45
   2  -3   1    8.28    0.55
  -2  -3  -1    8.08    0.53
   2  -3   1    7.60    0.53
  -2  -3  -1    8.38    0.56
   2   3   1    6.78    0.55
  -3  -3  -1   29.42    1.58
  -3  -3  -1   26.38    1.65
  -3  -3  -1   28.07    1.58
   3  -3   1   22.80    1.74
   3  -3   1   28.35    1.54
   3  -3   1   24.66    1.68
  -3  -3  -1   26.49    1.54
  -3  -3  -1   27.11    1.62
   3   3   1   26.51    1.53
   3   3   1   25.89    1.58
  -3   3  -1   25.12    1.73
   3   3   1   25.60    1.59
   3   3   1   24.21    1.70
  -3   3  -1   25.79    1.70
  -3   3  -1   25.15    1.70
   4  -3   1    0.58    0.34
  -4  -3  -1    0.50    0.21
  -4  -3  -1    0.65    0.25
  -4  -3  -1    1.07    0.32
   4  -3   1    0.58    0.19
   4  -3   1    0.86    0.34
  -4  -3  -1    0.64    0.25
   4   3   1    1.01    0.47
  -4   3  -1    0.72    0.31
   4   3   1    0.44    0.23
   4   3   1    0.83    0.28
  -4   3  -1    0.08    0.37
   4   3   1    0.46    0.18
  -5  -3  -1   74.99    4.60
  -5  -3  -1   77.97    4.60
  -5  -3  -1   71.78    4.56
   5  -3   1   78.98    4.63
   5  -3   1   77.60    4.59
   5   3   1   79.35    4.69
   5   3   1   88.94    4.62
  -5   3  -1   88.10    4.65
  -5   3  -1   84.19    4.74
  -5   3  -1   84.96    4.60
   5   3   1   83.47    4.56
   5   3   1   79.79    4.68
   6  -3   1   19.82    1.18
  -6  -3  -1   20.65    1.18
   6  -3   1   20.76    1.22
   6   3   1   17.87    1.24
  -6   3  -1   17.65    1.20
  -6   3  -1   17.23    1.14
   6   3   1   18.89    1.17
   7  -3   1    0.28    0.19
  -7  -3  -1    0.43    0.17
  -6  -4   1   33.78    1.95
   6  -4  -1   32.80    1.96
   6  -4  -1   30.90    2.04
  -6   4   1   33.69    1.96
   6   4  -1   32.96    1.97
  -6   4   1   34.60    1.91
   6   4  -1   33.15    1.99
   5  -4  -1   13.99    0.96
  -5  -4   1   13.89    0.93
   5  -4  -1   14.97    0.89
  -5  -4   1   14.06    0.88
  -5   4   1   12.22    0.97
   5   4  -1   12.08    0.97
   5   4  -1   11.98    0.97
  -5   4   1   11.93    1.02
  -5   4   1   12.14    0.89
  -4  -4   1    4.02    0.47
   4  -4  -1    4.12    0.42
  -4  -4   1    4.33    0.57
  -4  -4   1    3.93    0.56
   4  -4  -1    3.53    0.55
   4   4  -1    4.48    0.59
  -4   4   1    4.51    0.62
   4   4  -1    4.76    0.49
  -4   4   1    5.13    0.72
   4   4  -1    4.74    0.59
   4   4  -1    4.25    0.55
   3  -4  -1   25.11    1.56
  -3  -4   1   25.49    1.56
  -3  -4   1   23.14    1.57
   3  -4  -1   25.30    1.47
   3  -4  -1   24.68    1.55
   3  -4  -1   25.01    1.52
  -3  -4   1   25.59    1.48
  -3   4   1   22.95    1.71
   3   4  -1   24.44    1.51
   3   4  -1   25.86    1.51
  -3   4   1   22.34    1.80
   3   4  -1   25.96    1.55
   3   4  -1   25.36    1.58
   2  -4  -1   58.46    3.28
   2  -4  -1   58.12    3.26
   2  -4  -1   56.79    3.31
  -2  -4   1   59.99    3.27
  -2  -4   1   57.01    3.29
  -2   4   1   56.30    3.39
   2   4  -1   54.65    3.30
   2   4  -1   61.27    3.40
  -2   4   1   55.94    3.37
   2   4  -1   59.68    3.28
   2   4  -1   56.34    3.34
  -1  -4   1  236.09   12.40
   1  -4  -1  228.57   12.39
   1  -4  -1  240.39   12.45
   1   4  -1  228.86   12.40
  -1   4   1  210.59   12.43
  -1   4   1  227.81   12.39
  -1   4   1  204.25   12.45
   1   4  -1  227.81   12.51
   1   4  -1  210.74   12.42
   0  -4   1   10.80    0.74
   0  -4  -1   10.96    0.71
   0  -4   1   11.13    0.72
   0   4   1   12.33    0.73
   0   4  -1   12.37    0.68
   1  -4   1  150.47    8.46
   1  -4   1  157.87    8.49
  -1  -4  -1  157.36    8.51
  -1  -4  -1  144.37    8.48
  -1  -4  -1  151.13    8.46
  -1   4  -1  148.45    8.49
   1   4   1  154.06    8.53
   1   4   1  166.93    8.50
  -1   4  -1  141.24    8.52
  -2  -4  -1   26.37    1.69
   2  -4   1   28.09    1.66
  -2  -4  -1   26.98    1.58
  -2  -4  -1   27.04    1.62
   2  -4   1   27.33    1.58
   2  -4   1   26.94    1.69
   2   4   1   28.30    1.64
   2   4   1   26.98    1.68
   2   4   1   26.62    1.67
   2   4   1   27.52    1.58
  -2   4  -1   27.20    1.76
  -2   4  -1   26.61    1.70
   3  -4   1    0.90    0.30
   3  -4   1    0.87    0.34
  -3  -4  -1    0.83    0.23
  -3  -4  -1    1.18    0.32
  -3  -4  -1    1.47    0.36
   3  -4   1    1.51    0.26
   3   4   1    1.19    0.33
  -3   4  -1    0.71    0.42
   3   4   1    1.34    0.32
   3   4   1    1.40    0.29
   3   4   1    0.98    0.24
  -3   4  -1    1.81    0.49
   4   4   1    3.57    0.52
   4   4   1    3.65    0.62
  -4   4  -1    3.60    0.62
   4   4   1    3.75    0.46
  -4   4  -1    4.01    0.69
   4   4   1    4.15    0.60
   4   4   1    3.85    0.44
   5  -4   1    6.23    0.83
   5  -4   1    5.65    0.53
  -5  -4  -1    5.34    0.54
  -5  -4  -1    5.28    0.60
   5   4   1    6.88    0.63
  -5   4  -1    6.22    0.51
  -5   4  -1    6.24    0.67
  -5   4  -1    5.83    0.70
   5   4   1    6.76    0.79
  -6  -4  -1    9.92    0.70
   6  -4   1    9.87    0.73
  -6   4  -1    9.68    0.86
   6   4   1   12.22    0.78
  -6  -5   1    0.68    0.22
   6  -5  -1    0.72    0.36
   6   5  -1    1.13    0.30
   5  -5  -1    8.30    0.71
   5  -5  -1    8.79    0.64
  -5  -5   1    7.84    0.62
   5   5  -1    9.38    0.73
   5   5  -1    9.38    0.71
  -5   5   1    8.91    0.77
  -5   5   1    9.27    0.65
   4  -5  -1   31.90    2.01
   4  -5  -1   34.78    1.97
  -4  -5   1   32.63    1.96
  -4  -5   1   34.26    2.04
  -4  -5   1   32.34    2.09
   4  -5  -1   28.10    2.19
   4   5  -1   30.62    2.03
   4   5  -1   34.44    2.03
  -4   5   1   35.58    2.14
   4   5  -1   36.36    2.02
  -3  -5   1    1.99    0.37
  -3  -5   1    1.72    0.33
   3  -5  -1    1.98    0.34
   3  -5  -1    1.97    0.44
   3  -5  -1    1.40    0.37
   3  -5  -1    1.91    0.30
  -3  -5   1    2.19    0.44
  -3   5   1    2.32    0.56
   3   5  -1    1.72    0.44
   3   5  -1    1.95    0.47
   3   5  -1    1.86    0.43
  -3   5   1    2.37    0.53
  -2  -5   1    6.12    0.52
  -2  -5   1    6.54    0.47
  -2  -5   1    6.23    0.60
  -2  -5   1    4.29    0.87
   2  -5  -1    5.88    0.45
   2  -5  -1    6.56    0.56
  -2   5   1    5.06    0.61
   2   5  -1    4.97    0.47
   2   5  -1    5.43    0.58
  -1  -5   1   23.79    1.46
   1  -5  -1   24.74    1.42
  -1  -5   1   24.57    1.43
  -1  -5   1   24.69    1.51
   1  -5  -1   24.84    1.47
   1  -5  -1   25.34    1.48
   1   5  -1   22.35    1.38
  -1   5   1   23.89    1.48
  -1   5   1   23.13    1.56
   1   5  -1   24.68    1.51
   1   5  -1   23.36    1.45
  -1   5   1   23.15    1.51
   0  -5  -1   30.14    1.82
   0  -5   1   29.16    1.86
   0  -5   1   30.27    1.89
   0  -5  -1   30.62    1.88
   0  -5   1   30.69    1.83
   0  -5  -1   28.41    1.84
   0   5   1   31.83    1.98
   0   5   1   32.51    1.87
   0   5   1   33.76    1.92
   0   5  -1   33.38    2.23
   0   5  -1   31.94    1.86
   0   5   1   34.60    1.83
   0   5  -1   32.86    1.92
  -1  -5  -1   61.77    3.42
   1  -5   1   61.68    3.39
  -1  -5  -1   61.05    3.37
   1  -5   1   59.34    3.35
  -1  -5  -1   54.15    3.47
   1  -5   1   59.35    3.40
  -1  -5  -1   59.86    3.35
   1   5   1   62.16    3.44
   1   5   1   61.21    3.38
   1   5   1   53.34    3.45
   1   5   1   59.24    3.39
  -1   5  -1   58.37    3.38
  -1   5  -1   57.21    3.51
  -1   5  -1   60.03    3.45
  -2  -5  -1    6.92    0.57
  -2  -5  -1    6.83    0.53
  -2  -5  -1    6.37    0.71
   2  -5   1    6.97    0.52
   2  -5   1    6.92    0.65
   2  -5   1    6.52    0.66
  -2   5  -1    8.31    0.70
   2   5   1    7.76    0.65
   2   5   1    7.76    0.60
   2   5   1    7.66    0.65
   3  -5   1   20.75    1.26
  -3  -5  -1   19.01    1.27
   3  -5   1   19.77    1.33
  -3  -5  -1   21.43    1.28
  -3  -5  -1   19.99    1.35
  -3  -5  -1   20.36    1.34
   3  -5   1   19.32    1.34
   3  -5   1   17.79    1.46
   3   5   1   22.31    1.37
   3   5   1   22.25    1.34
  -3   5  -1   21.40    1.45
  -3   5  -1   22.26    1.44
   3   5   1   20.37    1.35
  -4  -5  -1    4.64    0.80
  -4  -5  -1    6.12    0.59
  -4  -5  -1    5.55    0.51
   4  -5   1    6.12    0.52
   4  -5   1    5.75    0.64
   4   5   1    6.01    0.62
   4   5   1    6.17    0.64
  -4   5  -1    6.39    0.73
   4   5   1    5.78    0.79
  -5  -5  -1   32.31    1.81
   5  -5   1   32.43    1.83
   5  -5   1   31.20    1.80
   5   5   1   28.36    1.82
  -5   5  -1   29.84    1.90
  -5   5  -1   28.75    1.75
   5   5   1   28.45    1.82
   6  -5   1   10.85    0.82
  -6  -5  -1   13.94    0.82
   6  -5   1   13.02    0.81
  -5  -6   1    5.98    0.53
  -5  -6   1    6.59    0.60
   5  -6  -1    6.71    0.50
   5  -6  -1    6.41    0.52
   5   6  -1    5.37    0.57
  -5   6   1    5.31    0.46
  -5   6   1    5.38    0.56
   5   6  -1    5.55    0.49
  -4  -6   1   13.30    1.08
   4  -6  -1   14.73    1.03
  -4  -6   1   14.78    0.96
   4  -6  -1   15.99    0.99
  -4   6   1   16.20    1.14
   4   6  -1   16.31    1.02
   4   6  -1   15.62    1.06
   3  -6  -1   15.02    1.03
  -3  -6   1   15.99    0.98
  -3  -6   1   14.92    0.96
   3  -6  -1   13.97    1.32
  -3  -6   1   15.66    1.15
   3  -6  -1   15.61    0.96
   3  -6  -1   15.05    0.99
  -3  -6   1   13.93    1.24
   3   6  -1   15.34    1.06
  -3   6   1   13.58    1.11
   3   6  -1   14.23    0.99
  -3   6   1   14.34    1.14
  -2  -6   1   14.30    0.94
   2  -6  -1   14.43    1.00
   2  -6  -1   14.90    0.95
   2  -6  -1   14.11    0.97
   2  -6  -1   14.01    1.12
  -2  -6   1   14.51    0.97
   2   6  -1   15.63    1.05
   2   6  -1   15.45    0.99
  -2   6   1   14.72    1.14
  -2   6   1   15.88    1.11
  -1  -6   1  102.08    5.80
   1  -6  -1  104.61    5.70
  -1  -6   1  104.41    5.70
   1  -6  -1  103.91    5.67
  -1  -6   1  106.16    5.68
   1  -6  -1  103.07    5.76
  -1   6   1   96.05    5.72
  -1   6   1   97.01    5.86
   1   6  -1   97.20    5.70
  -1   6   1   97.87    5.78
   1   6  -1   99.61    5.75
   0  -6   1    1.83    0.27
   0  -6  -1    1.91    0.28
   0  -6   1    2.07    0.59
   0  -6  -1    2.33    0.51
   0  -6  -1    2.13    0.35
   0  -6   1    2.03    0.37
   0   6   1    1.40    0.34
   0   6  -1    1.61    0.33
   0   6   1    2.09    0.62
   1  -6   1    2.58    0.43
   1  -6   1    2.95    0.32
  -1  -6  -1    2.15    0.33
   1  -6   1    3.13    0.63
  -1  -6  -1    2.62    0.56
  -1   6  -1    2.90    0.38
   1   6   1    2.50    0.50
  -1   6  -1    3.41    0.49
   1   6   1    3.04    0.40
  -1   6  -1    3.07    0.70
  -2  -6  -1   24.74    1.81
  -2  -6  -1   27.06    1.84
   2  -6   1   27.47    1.70
  -2  -6  -1   26.28    1.70
  -2  -6  -1   27.28    1.69
   2  -6   1   26.12    1.74
  -2   6  -1   30.80    1.89
  -2   6  -1   32.38    1.87
   2   6   1   32.16    1.82
   2   6   1   31.07    1.76
   2   6   1   29.65    1.74
  -3  -6  -1    1.64    0.32
   3  -6   1    1.66    0.32
   3  -6   1    1.18    0.30
  -3  -6  -1    0.89    0.44
   3  -6   1    1.38    0.30
  -3   6  -1    1.74    0.41
  -3   6  -1    1.79    0.51
   3   6   1    1.91    0.42
   3   6   1    1.74    0.40
   3   6   1    2.90    0.80
  -4  -6  -1   39.53    2.37
  -4  -6  -1   39.48    2.31
   4  -6   1   41.58    2.35
   4  -6   1   40.22    2.38
   4   6   1   39.58    2.36
  -4   6  -1   40.90    2.46
   4   6   1   39.90    2.39
   5  -6   1    8.08    0.58
   5  -6   1    7.28    0.55
  -5  -6  -1    7.43    0.57
   5   6   1    6.80    0.61
  -5   6  -1    6.68    0.60
   5   6   1    6.15    0.57
   5  -7  -1    2.94    0.35
   5   7  -1    2.08    0.30
  -4  -7   1    7.93    0.54
   4  -7  -1    8.04    0.61
   4  -7  -1    8.59    0.66
  -4  -7   1    9.58    1.11
   4   7  -1    7.55    0.57
  -4   7   1    7.82    0.68
   4   7  -1    7.31    0.63
  -3  -7   1    0.64    0.78
   3  -7  -1    0.59    0.21
   3  -7  -1    0.37    0.18
   3  -7  -1    0.51    0.23
  -3  -7   1    0.31    0.16
   3   7  -1    0.43    0.18
  -3   7   1    0.20    0.28
  -3   7   1    0.37    0.26
   3   7  -1    0.13    0.22
  -2  -7   1   34.73    2.07
   2  -7  -1   35.86    2.10
   2  -7  -1   35.01    2.12
   2  -7  -1   35.45    2.09
  -2  -7   1   35.86    2.10
   2   7  -1   37.29    2.17
   2   7  -1   35.28    2.11
  -2   7   1   36.09    2.24
  -2   7   1   35.82    2.23
   1  -7  -1    3.96    0.42
  -1  -7   1    3.52    0.41
   1  -7  -1    3.56    0.37
   1  -7  -1    4.41    0.95
  -1  -7   1    3.71    0.39
  -1   7   1    3.56    0.44
   1   7  -1    3.55    0.49
  -1   7   1    3.74    0.52
  -1   7   1    3.37    0.68
   1   7  -1    3.73    0.41
   0  -7   1   26.47    2.00
   0  -7   1   29.06    1.64
   0  -7  -1   26.55    1.88
   0  -7  -1   29.00    1.63
   0  -7   1   29.91    1.67
   0  -7  -1   28.83    1.66
   0   7   1   24.53    1.82
   0   7  -1   27.67    1.74
   0   7   1   26.46    1.73
   0   7   1   25.66    1.67
   0   7  -1   26.31    1.66
   1  -7   1   11.71    1.49
  -1  -7  -1   12.08    1.22
   1  -7   1   13.35    0.90
  -1  -7  -1   12.64    0.88
  -1  -7  -1   12.56    0.86
   1   7   1   14.13    0.98
   1   7   1   14.17    0.92
  -1   7  -1   14.64    1.02
  -1   7  -1   12.90    1.17
  -2  -7  -1   12.63    0.84
   2  -7   1   12.09    0.88
  -2  -7  -1   11.99    0.86
  -2  -7  -1   13.62    1.07
   2  -7   1   13.06    0.86
   2  -7   1   12.92    0.84
   2   7   1   13.03    0.93
   2   7   1   12.17    0.87
  -2   7  -1   12.62    0.99
  -3  -7  -1    0.45    0.36
  -3  -7  -1    0.65    0.19
   3  -7   1    0.54    0.26
   3  -7   1    0.74    0.19
   3  -7   1    0.84    0.27
  -4  -7  -1    8.04    0.68
  -4  -7  -1    6.99    0.54
   4  -7   1    8.13    0.62
   4  -7   1    7.84    0.59
  -4   7  -1    8.44    0.70
   4   7   1    7.97    0.61
   4   7   1    8.35    0.58
   4  -8  -1    4.52    0.42
   4   8  -1    4.49    0.37
  -3  -8   1   20.33    1.16
   3  -8  -1   18.37    1.19
   3  -8  -1   20.41    1.19
   3  -8  -1   19.79    1.19
  -3   8   1   18.10    1.28
   3   8  -1   20.25    1.22
   3   8  -1   19.98    1.18
   2  -8  -1    5.56    0.48
   2  -8  -1    6.16    0.46
   2  -8  -1    5.95    0.49
  -2  -8   1    5.55    0.44
   2   8  -1    5.57    0.46
  -2   8   1    4.95    0.72
  -2   8   1    5.42    0.59
   2   8  -1    5.67    0.54
  -1  -8   1    2.19    0.29
   1  -8  -1    2.31    0.34
   1  -8  -1    1.96    0.35
  -1  -8   1    2.16    0.34
   1  -8  -1    1.61    0.29
   1   8  -1    2.89    0.44
   1   8  -1    2.18    0.31
   0  -8  -1   19.27    1.20
   0  -8  -1   19.79    1.20
   0  -8   1   21.15    1.21
   0  -8   1   20.48    1.20
   0  -8  -1   20.79    1.21
   0   8   1   18.51    1.28
   0   8  -1   19.45    1.30
   0   8  -1   18.66    1.21
   0   8   1   18.13    1.22
  -1  -8  -1   11.18    0.76
   1  -8   1   11.53    0.80
  -1  -8  -1   11.13    0.76
   1  -8   1   11.20    0.77
   1  -8   1   11.46    0.77
   1   8   1   11.90    0.80
   1   8   1   12.52    0.86
  -1   8  -1   12.40    0.89
   2  -8   1   15.69    0.92
   2  -8   1   15.09    0.89
   2  -8   1   14.36    0.89
  -2  -8  -1   14.02    0.87
  -2  -8  -1   14.27    0.86
   2   8   1   12.86    0.93
  -2   8  -1   12.17    0.97
   2   8   1   12.27    0.89
   3  -8   1    1.68    0.36
  -3  -8  -1    1.57    0.24
  -3  -8  -1    2.00    0.65
   3  -8   1    2.03    0.35
   3   8   1    1.91    0.34
   3   8   1    1.78    0.29
   4   8   1    1.61    0.42
   2  -9  -1    5.33    0.42
   2  -9  -1    4.53    0.42
  -2  -9   1    6.08    0.39
   2   9  -1    4.99    0.52
   1  -9  -1    9.27    0.61
  -1  -9   1    8.61    0.58
   1  -9  -1    8.91    0.60
  -1   9   1    8.04    0.65
   1   9  -1    8.60    0.70
   0  -9  -1    3.40    0.31
   0  -9   1    3.60    0.32
   0  -9   1    3.42    0.33
   0  -9  -1    3.60    0.33
   0   9  -1    4.24    0.44
   0   9   1    3.60    0.41
  -1  -9  -1    2.31    0.27
  -1  -9  -1    2.36    0.30
   1  -9   1    2.97    0.44
   1  -9   1    2.78    0.31
   1   9   1    2.81    0.51
  -2  -9  -1    6.47    0.46
   2  -9   1    7.03    0.51
   2   9   1    6.41    0.54
  -7   0   2    1.19    0.22
  -7   0   2    1.36    0.30
   7   0  -2    1.28    0.30
   6   0  -2   40.89    2.42
   6   0  -2   41.92    2.48
  -6   0   2   42.99    2.49
  -6   0   2   42.03    2.50
   5   0  -2    1.98    0.46
   5   0  -2    1.95    0.33
  -5   0   2    2.16    0.50
  -5   0   2    2.49    0.45
   4   0  -2   38.22    2.16
   4   0  -2   32.39    2.40
  -4   0   2   34.42    2.31
   4   0  -2   38.06    2.12
   4   0  -2   36.68    2.18
  -4   0   2   37.89    2.10
  -4   0   2   37.15    2.22
  -4   0   2   36.77    2.20
  -3   0   2   10.67    0.66
   3   0  -2    9.98    0.66
   3   0  -2   10.51    0.67
  -3   0   2    9.82    0.72
  -2   0   2  296.73   16.71
   2   0  -2  305.71   16.72
   1   0  -2    3.03    0.20
  -1   0   2    3.00    0.21
   0   0   2   14.04    0.86
   0   0  -2   13.93    0.86
   1   0   2   60.75    3.37
   2   0   2   18.72    1.11
   3   0   2  108.82    6.25
   3   0   2  115.48    6.29
   4   0   2    2.76    0.48
   4   0   2    2.51    0.53
  -4   0  -2    2.44    0.47
   4   0   2    2.17    0.31
  -4   0  -2    2.04    0.38
  -5   0  -2   33.00    1.98
   5   0   2   32.24    1.94
   5   0   2   30.72    2.09
  -5   0  -2   31.55    1.91
   5   0   2   31.51    1.90
   6   0   2    5.48    0.54
   6   0   2    5.10    0.47
  -6   0  -2    5.10    0.55
  -6   0  -2    5.20    0.51
  -7   0  -2    0.95    0.25
   7   0   2    0.71    0.18
  -7   0  -2    1.08    0.24
  -7  -1   2    4.61    0.45
   7  -1  -2    4.92    0.44
  -7  -1   2    5.04    0.43
   7   1  -2    4.48    0.42
  -7   1   2    5.40    0.44
  -7   1   2    5.34    0.42
   6  -1  -2   12.14    0.89
   6  -1  -2   12.91    0.95
  -6  -1   2   12.74    0.94
  -6  -1   2   14.14    1.03
   6   1  -2   14.30    0.95
   6   1  -2   13.78    1.39
  -6   1   2   14.55    0.95
  -6   1   2   14.08    0.97
   5  -1  -2   49.73    3.09
   5  -1  -2   52.34    3.04
  -5  -1   2   50.38    3.10
   5  -1  -2   56.23    3.34
  -5  -1   2   51.62    3.10
  -5   1   2   56.32    3.11
   5   1  -2   53.41    3.02
   5   1  -2   51.61    3.09
   5   1  -2   53.37    3.08
  -5   1   2   53.68    3.12
   5   1  -2   51.03    3.19
  -5   1   2   53.80    3.21
   4  -1  -2   19.75    1.32
  -4  -1   2   22.11    1.25
   4  -1  -2   20.95    1.27
   4  -1  -2   21.61    1.24
  -4  -1   2   19.78    1.34
   4   1  -2   20.41    1.27
   4   1  -2   19.53    1.47
  -4   1   2   20.06    1.32
  -4   1   2   19.93    1.43
   4   1  -2   20.31    1.22
   4   1  -2   18.62    1.29
  -4   1   2   20.22    1.19
  -4   1   2   19.98    1.36
   3  -1  -2    3.14    0.31
  -3  -1   2    3.17    0.30
   3  -1  -2    3.24    0.31
  -3  -1   2    2.82    0.37
   3   1  -2    3.96    0.32
   2  -1  -2   25.37    1.51
  -2  -1   2   25.31    1.53
   2   1  -2   27.58    1.52
  -2   1   2   27.49    1.51
  -1  -1   2  404.95   21.98
   1  -1  -2  414.95   22.00
   1   1  -2  402.15   21.97
   1   1  -2  363.46   21.89
  -1   1   2  399.89   22.01
   0  -1   2   62.29    3.30
   0  -1  -2   62.86    3.32
   0  -1  -2   60.58    3.33
   0   1   2   53.78    3.32
  -1  -1  -2  185.21    9.59
   1  -1   2  173.29    9.58
  -1  -1  -2  163.15    9.59
   1   1   2  172.90    9.60
  -2  -1  -2  159.00    9.49
   2  -1   2  170.29    9.50
  -2  -1  -2  176.32    9.48
   2   1   2  179.69    9.51
   3  -1   2   24.55    1.62
   3  -1   2   27.60    1.66
   3   1   2   29.07    1.62
   3   1   2   30.18    1.67
   4  -1   2   49.39    2.81
  -4  -1  -2   50.49    2.78
  -4  -1  -2   51.81    2.82
   4  -1   2   48.67    2.74
   4  -1   2   50.15    2.82
   4   1   2   45.60    2.78
  -4   1  -2   45.05    2.87
  -4   1  -2   46.24    2.76
  -4   1  -2   46.26    2.81
   4   1   2   46.04    2.73
   4   1   2   44.96    2.80
  -5  -1  -2   95.69    5.53
   5  -1   2   97.36    5.55
   5  -1   2   89.51    5.63
  -5  -1  -2   98.23    5.57
   5  -1   2   95.43    5.53
   5   1   2  101.85    5.56
  -5   1  -2  103.12    5.60
   5   1   2  100.23    5.52
   5   1   2   97.90    5.64
  -5   1  -2   98.90    5.53
  -6  -1  -2    0.93    0.23
   6  -1   2    0.93    0.23
  -6  -1  -2    0.96    0.29
   6  -1   2    1.08    0.28
  -6   1  -2    0.94    0.23
   6   1   2    0.97    0.28
  -6   1  -2    1.00    0.30
  -7  -1  -2    2.32    0.39
  -7   1  -2    1.66    0.27
   7   1   2    1.69    0.27
   7  -2  -2    8.89    0.56
  -7   2   2    7.08    0.53
  -7   2   2    7.38    0.56
  -6  -2   2   28.92    1.78
  -6  -2   2   28.90    1.79
   6  -2  -2   29.82    1.75
   6  -2  -2   28.44    1.80
   6   2  -2   28.68    1.90
  -6   2   2   30.66    1.79
   6   2  -2   29.65    1.78
  -6   2   2   29.69    1.80
  -5  -2   2    1.63    0.41
  -5  -2   2    2.22    0.49
   5  -2  -2    1.95    0.47
   5  -2  -2    2.42    0.59
  -5  -2   2    2.55    0.48
   5  -2  -2    2.32    0.34
  -5  -2   2    2.43    0.48
  -5   2   2    1.35    0.36
   5   2  -2    3.19    0.70
   5   2  -2    2.18    0.42
   5   2  -2    2.01    0.40
  -5   2   2    2.04    0.58
   5   2  -2    1.88    0.51
  -5   2   2    1.56    0.33
   4  -2  -2   15.10    0.97
   4  -2  -2   15.45    0.93
  -4  -2   2   15.01    0.90
   4  -2  -2   15.03    0.87
  -4  -2   2   13.85    0.91
  -4  -2   2   14.82    1.02
  -4  -2   2   13.94    0.99
   4   2  -2   11.09    0.91
   4   2  -2   11.32    1.06
  -4   2   2   10.98    0.99
   4   2  -2   11.45    0.84
   4   2  -2   11.95    0.90
   3  -2  -2   30.07    1.72
  -3  -2   2   29.52    1.74
   3  -2  -2   32.87    1.92
  -3  -2   2   29.56    1.71
   3  -2  -2   29.51    1.70
  -3   2   2   29.60    1.68
   3   2  -2   28.55    1.69
  -3   2   2   28.92    1.99
   3   2  -2   29.57    1.73
  -3   2   2   25.86    1.85
  -2  -2   2  143.80    8.13
   2  -2  -2  150.12    8.11
  -2   2   2  145.14    8.09
   2   2  -2  145.24    8.11
   1  -2  -2  379.01   19.75
  -1  -2   2  344.64   19.70
   1   2  -2  322.09   19.62
  -1   2   2  368.39   19.77
   1   2  -2  364.86   19.69
   0  -2   2  174.32    9.86
   0  -2  -2  191.79    9.92
   0   2   2  169.38    9.87
   1  -2   2   87.55    4.86
  -1  -2  -2   90.15    4.87
   1   2   2   84.76    4.88
   2  -2   2   39.82    2.30
  -2  -2  -2   40.51    2.30
   2   2   2   40.97    2.32
   3  -2   2   82.72    4.86
   3  -2   2   85.63    4.90
  -3  -2  -2   80.68    4.92
  -3  -2  -2   80.50    4.90
  -3  -2  -2   86.62    4.85
   3   2   2   91.37    4.92
  -3   2  -2   89.29    5.00
  -3   2  -2   88.78    4.98
   3   2   2   88.20    4.91
   3   2   2   94.07    4.88
   4  -2   2    4.19    0.67
  -4  -2  -2    4.23    0.75
  -4  -2  -2    5.11    0.50
   4  -2   2    5.09    0.44
   4  -2   2    5.06    0.64
  -4  -2  -2    5.32    0.58
   4   2   2    3.53    0.53
  -4   2  -2    3.41    0.60
   4   2   2    3.30    0.53
   4   2   2    3.84    0.38
  -5  -2  -2   33.69    1.93
   5  -2   2   33.28    1.94
  -5  -2  -2   33.42    1.90
   5  -2   2   32.49    1.90
   5   2   2   27.27    2.03
  -5   2  -2   30.27    1.87
  -5   2  -2   29.42    2.00
  -5   2  -2   31.16    1.95
   5   2   2   30.91    1.91
   6  -2   2    4.85    0.44
  -6  -2  -2    4.82    0.42
  -6  -2  -2    4.81    0.47
  -6   2  -2    3.63    0.41
  -6   2  -2    3.98    0.47
   6   2   2    3.73    0.44
   6   2   2    3.55    0.46
  -7  -2  -2    1.22    0.21
   7  -2   2    0.82    0.16
   7   2   2    0.82    0.28
   7  -3  -2    0.91    0.17
  -7   3   2    1.05    0.25
  -6  -3   2    4.26    0.47
   6  -3  -2    3.50    0.40
   6  -3  -2    4.20    0.46
  -6  -3   2    4.35    0.57
  -6   3   2    3.36    0.41
  -6   3   2    2.91    0.52
   6   3  -2    3.66    0.40
  -6   3   2    3.05    0.44
   6   3  -2    2.60    0.60
   6   3  -2    3.32    0.63
  -5  -3   2    5.61    0.52
   5  -3  -2    4.47    0.79
   5  -3  -2    5.12    0.58
  -5  -3   2    4.38    0.68
  -5  -3   2    5.94    0.64
  -5  -3   2    5.00    0.59
   5  -3  -2    5.08    0.47
   5   3  -2    5.54    0.69
  -5   3   2    5.49    0.69
   5   3  -2    5.13    0.52
   5   3  -2    5.21    0.67
  -5   3   2    4.14    0.58
  -5   3   2    4.75    0.53
  -4  -3   2   34.31    2.03
  -4  -3   2   34.30    1.98
   4  -3  -2   32.24    2.00
  -4  -3   2   33.31    1.92
   4  -3  -2   32.28    1.97
   4  -3  -2   33.83    1.93
  -4   3   2   31.63    2.07
   4   3  -2   32.04    1.95
   4   3  -2   32.36    2.02
  -4   3   2   31.46    2.02
   4   3  -2   30.76    1.90
   4   3  -2   33.60    1.97
   3  -3  -2    4.78    0.54
   3  -3  -2    3.70    0.59
  -3  -3   2    4.42    0.43
   3  -3  -2    4.45    0.35
   3  -3  -2    4.90    0.40
  -3  -3   2    4.78    0.74
  -3  -3   2    4.82    0.39
  -3   3   2    3.71    0.31
   3   3  -2    2.79    0.66
  -3   3   2    4.21    0.67
  -3   3   2    3.12    0.83
  -3   3   2    3.84    0.57
   3   3  -2    3.38    0.48
   3   3  -2    3.90    0.38
   3   3  -2    3.67    0.55
   3   3  -2    3.37    0.39
   2  -3  -2  133.90    7.76
   2  -3  -2  134.11    7.74
  -2  -3   2  137.45    7.76
  -2   3   2  145.96    7.75
   2   3  -2  146.26    7.77
  -1  -3   2  205.19   11.73
   1  -3  -2  219.23   11.72
  -1  -3   2  210.32   11.71
   1   3  -2  217.81   11.70
  -1   3   2  217.18   11.71
   1   3  -2  199.85   11.70
   0  -3  -2   30.80    1.69
   0  -3   2   30.59    1.69
   0   3   2   27.05    1.69
   1  -3   2    8.50    0.55
  -1  -3  -2    8.28    0.55
   1   3   2    9.04    0.57
   2  -3   2    9.48    0.67
  -2  -3  -2    9.22    0.66
  -2  -3  -2   10.24    0.68
   2  -3   2   10.11    0.69
   2   3   2   11.73    0.71
   2   3   2   11.49    0.66
  -3  -3  -2    5.42    0.52
  -3  -3  -2    5.23    0.44
  -3  -3  -2    5.57    0.64
   3  -3   2    5.70    0.60
   3  -3   2    5.56    0.45
  -3  -3  -2    4.78    0.55
   3  -3   2    4.57    0.84
   3   3   2    5.97    0.54
   3   3   2    6.26    0.53
  -3   3  -2    5.76    0.66
  -3   3  -2    4.68    0.84
   3   3   2    6.32    0.45
   3   3   2    5.29    0.85
  -4  -3  -2   24.50    1.49
  -4  -3  -2   28.43    1.60
  -4  -3  -2   28.62    1.59
   4  -3   2   28.63    1.55
   4  -3   2   29.23    1.65
  -4  -3  -2   27.92    1.55
   4   3   2   24.47    1.57
  -4   3  -2   22.51    1.61
   4   3   2   22.73    1.61
   4   3   2   22.94    1.51
   4   3   2   23.08    1.77
  -4   3  -2   23.06    1.53
  -4   3  -2   23.34    1.69
  -5  -3  -2   15.32    1.01
   5  -3   2   15.08    1.06
  -5  -3  -2   14.34    1.04
   5  -3   2   15.36    1.00
   5   3   2   13.51    1.27
  -5   3  -2   15.23    1.15
   5   3   2   15.74    1.02
  -5   3  -2   15.71    1.08
  -5   3  -2   14.77    0.99
   5   3   2   14.89    0.98
  -6  -3  -2    0.48    0.17
   6  -3   2    0.51    0.25
   6  -3   2    0.55    0.21
   6   3   2    0.62    0.26
   6   3   2    0.70    0.19
  -6   3  -2    0.41    0.28
  -6   3  -2    0.66    0.20
  -7  -3  -2   21.29    1.26
   6  -4  -2   14.40    1.08
   6  -4  -2   14.86    0.96
  -6  -4   2   15.71    0.97
   6   4  -2   12.81    1.20
  -6   4   2   14.79    0.92
  -6   4   2   13.94    0.97
  -6   4   2   15.14    1.03
   6   4  -2   14.99    1.00
   5  -4  -2   15.33    1.08
  -5  -4   2   16.08    0.99
   5  -4  -2   16.38    1.01
  -5   4   2   14.88    1.03
  -5   4   2   15.68    1.10
   5   4  -2   14.74    1.09
   5   4  -2   15.30    1.09
  -5   4   2   14.63    1.16
   4  -4  -2   12.65    1.04
  -4  -4   2   13.00    0.86
  -4  -4   2   12.04    0.84
   4  -4  -2   12.38    0.82
  -4  -4   2   12.83    0.96
  -4  -4   2   13.50    0.97
   4  -4  -2   11.92    0.91
  -4   4   2   11.95    0.99
  -4   4   2   12.20    0.99
   4   4  -2   11.77    0.85
   4   4  -2   11.59    0.92
   4   4  -2   11.05    0.93
   4   4  -2   11.25    0.88
   3  -4  -2    2.88    0.49
   3  -4  -2    3.28    0.33
   3  -4  -2    2.77    0.47
   3  -4  -2    3.23    0.41
  -3  -4   2    3.15    0.46
  -3  -4   2    3.11    0.35
   3   4  -2    2.85    0.54
  -3   4   2    4.32    0.74
   3   4  -2    3.20    0.47
  -3   4   2    3.49    0.63
   3   4  -2    3.46    0.38
   2  -4  -2   12.70    0.93
  -2  -4   2   14.06    0.87
  -2  -4   2   13.04    0.92
  -2  -4   2   12.84    0.93
   2  -4  -2   13.57    0.88
   2  -4  -2   13.83    0.85
  -2   4   2   14.06    1.03
   2   4  -2   13.83    0.92
   2   4  -2   14.92    1.05
  -2   4   2   14.65    0.83
   2   4  -2   13.23    0.98
  -2   4   2   13.53    1.03
   2   4  -2   14.84    0.86
   1  -4  -2  137.01    7.28
   1  -4  -2  135.08    7.26
  -1  -4   2  135.74    7.27
   1  -4  -2  142.13    7.37
  -1  -4   2  127.36    7.31
   1   4  -2  120.42    7.28
   1   4  -2  140.09    7.28
   1   4  -2  127.27    7.37
  -1   4   2  129.76    7.26
  -1   4   2  122.44    7.30
  -1   4   2  118.74    7.32
   0  -4   2   41.27    2.34
   0  -4  -2   40.72    2.33
   0  -4   2   40.24    2.36
   0  -4  -2   42.91    2.36
   0   4   2   41.36    2.35
   0   4   2   40.18    2.39
  -1  -4  -2    2.82    0.38
   1  -4   2    3.14    0.29
  -1  -4  -2    3.27    0.28
   1   4   2    2.25    0.30
  -1   4  -2    2.75    0.46
  -1   4  -2    2.48    0.39
   1   4   2    2.06    0.42
   1   4   2    2.27    0.30
  -2  -4  -2    1.17    0.25
   2  -4   2    1.81    0.42
  -2  -4  -2    1.42    0.32
   2  -4   2    0.91    0.26
  -2  -4  -2    1.36    0.34
   2   4   2    0.89    0.24
   2   4   2    0.82    0.34
   2   4   2    1.05    0.27
  -2   4  -2    1.20    0.39
   2   4   2    1.08    0.25
  -2   4  -2    0.64    0.24
   3  -4   2   29.75    2.11
   3  -4   2   36.48    1.98
  -3  -4  -2   33.50    2.01
  -3  -4  -2   33.76    2.13
   3  -4   2   33.59    2.07
  -3  -4  -2   34.83    2.01
   3   4   2   33.95    1.96
  -3   4  -2   33.23    2.11
   3   4   2   33.57    2.04
   3   4   2   34.23    2.07
  -3   4  -2   33.28    2.13
   3   4   2   34.01    1.99
  -4  -4  -2   73.28    4.46
   4  -4   2   80.69    4.55
   4  -4   2   82.10    4.50
  -4  -4  -2   79.32    4.52
  -4  -4  -2   80.35    4.47
   4   4   2   80.67    4.57
   4   4   2   79.21    4.50
  -4   4  -2   79.00    4.56
   4   4   2   75.45    4.57
  -4   4  -2   81.88    4.66
   4   4   2   78.52    4.46
   5  -4   2   14.49    0.93
   5  -4   2   14.13    0.86
   5   4   2   11.07    1.08
   5   4   2   12.01    1.11
  -5   4  -2   10.76    0.94
   5   4   2   10.71    0.86
  -5   4  -2   11.10    1.01
   6  -4   2    3.12    0.37
  -6  -4  -2    3.65    0.34
   6  -4   2    3.46    0.41
   6   4   2    3.46    0.43
  -6  -5   2    1.46    0.28
   6  -5  -2    1.96    0.31
  -6   5   2    1.44    0.28
   6   5  -2    2.26    0.38
   5  -5  -2    3.92    0.44
   5  -5  -2    3.47    0.50
  -5  -5   2    4.01    0.56
   5   5  -2    4.90    0.51
   5   5  -2    5.32    0.58
  -5   5   2    5.25    0.46
  -5   5   2    5.22    0.59
  -4  -5   2    5.96    0.72
   4  -5  -2    5.79    0.62
   4  -5  -2    5.37    0.70
  -4  -5   2    6.13    0.53
  -4  -5   2    6.20    0.83
  -4  -5   2    5.73    0.65
   4  -5  -2    6.60    0.54
  -4   5   2    7.19    0.72
   4   5  -2    7.14    0.62
   4   5  -2    6.93    0.66
  -4   5   2    5.10    0.94
   3  -5  -2   16.31    0.96
  -3  -5   2   16.44    0.96
  -3  -5   2   16.90    0.99
  -3  -5   2   14.00    1.16
   3  -5  -2   15.94    1.08
   3  -5  -2   17.25    1.03
   3  -5  -2   16.03    1.00
   3   5  -2   12.79    1.04
   3   5  -2   13.43    1.01
  -3   5   2   12.48    1.11
   3   5  -2   12.87    0.96
  -3   5   2   12.96    1.11
   2  -5  -2   36.56    2.11
   2  -5  -2   32.49    2.23
  -2  -5   2   34.00    2.22
   2  -5  -2   33.48    2.14
  -2  -5   2   35.23    2.15
  -2  -5   2   36.97    2.12
  -2   5   2   40.44    2.33
   2   5  -2   39.20    2.16
  -2   5   2   40.14    2.27
   1  -5  -2   30.01    1.87
  -1  -5   2   28.41    1.91
  -1  -5   2   30.56    1.84
   1  -5  -2   29.34    1.86
  -1  -5   2   29.61    1.87
   1  -5  -2   30.53    1.83
  -1   5   2   33.34    1.90
  -1   5   2   31.49    1.96
  -1   5   2   32.25    1.93
   1   5  -2   32.28    1.86
   1   5  -2   32.65    1.92
   1   5  -2   34.43    1.99
  -1   5   2   34.86    1.82
   0  -5  -2   19.06    1.06
   0  -5  -2   14.86    1.29
   0  -5   2   17.83    1.11
   0  -5   2   18.01    1.09
   0  -5  -2   19.48    1.09
   0  -5   2   18.32    1.03
   0   5   2   16.17    1.04
   0   5  -2   15.01    1.03
   0   5  -2   16.09    1.11
   0   5  -2   15.18    1.21
   0   5   2   15.52    1.11
   0   5   2   15.43    1.16
   0   5   2   15.34    1.06
   1  -5   2   25.97    1.51
   1  -5   2   26.86    1.58
  -1  -5  -2   26.91    1.58
  -1  -5  -2   26.57    1.54
  -1  -5  -2   25.63    1.50
   1  -5   2   24.87    1.58
   1   5   2   24.76    1.56
  -1   5  -2   25.06    1.54
   1   5   2   25.63    1.55
   1   5   2   26.38    1.61
  -1   5  -2   25.79    1.62
  -1   5  -2   23.22    1.72
  -2  -5  -2   12.90    0.73
   2  -5   2   12.86    0.89
  -2   5  -2    9.39    0.84
   2   5   2    9.17    0.76
   2   5   2    9.43    0.78
   3  -5   2    5.33    0.46
  -3  -5  -2    4.64    0.55
   3  -5   2    4.13    0.68
  -3  -5  -2    4.86    0.48
  -3  -5  -2    4.08    0.57
   3   5   2    5.48    0.55
  -3   5  -2    5.94    0.67
   3   5   2    5.76    0.59
   3   5   2    5.76    0.59
   3   5   2    5.53    0.62
  -3   5  -2    5.51    0.68
   4  -5   2   15.88    0.95
   4  -5   2   15.49    1.04
  -4  -5  -2   15.09    0.92
  -4  -5  -2   14.52    0.97
  -4   5  -2   12.66    1.08
   4   5   2   11.94    1.16
   4   5   2   12.62    1.01
   4   5   2   12.87    1.00
   5  -5   2    3.99    0.43
   5  -5   2    4.08    0.51
  -5  -5  -2    4.50    0.44
   5   5   2    5.72    0.66
  -5   5  -2    4.52    0.53
   6  -5   2    1.91    0.36
  -6  -5  -2    1.45    0.26
  -6  -5  -2    1.21    0.23
   6   5   2    1.18    0.26
  -5  -6   2    2.38    0.30
   5  -6  -2    2.70    0.39
  -5  -6   2    2.94    0.53
   5  -6  -2    2.18    0.38
   5   6  -2    2.00    0.48
  -5   6   2    2.47    0.33
   5   6  -2    3.01    0.36
  -5   6   2    2.75    0.43
   4  -6  -2    2.95    0.43
   4  -6  -2    3.98    0.59
   4  -6  -2    3.32    0.38
  -4  -6   2    3.15    0.36
   4   6  -2    2.04    0.50
   4   6  -2    2.68    0.38
  -4   6   2    2.06    0.50
   3  -6  -2    3.04    0.46
   3  -6  -2    2.87    0.42
  -3  -6   2    4.88    0.83
   3  -6  -2    3.57    0.38
   3  -6  -2    2.31    0.54
  -3  -6   2    3.13    0.39
  -3  -6   2    3.27    0.42
  -3  -6   2    3.60    0.86
  -3   6   2    3.36    0.58
   3   6  -2    2.87    0.42
   3   6  -2    3.73    0.51
  -3   6   2    3.59    0.56
   2  -6  -2   10.06    0.86
  -2  -6   2   10.21    0.71
  -2  -6   2   10.31    0.67
   2  -6  -2    9.98    0.67
   2  -6  -2   10.11    0.70
   2  -6  -2   10.43    0.73
   2   6  -2    8.62    0.76
  -2   6   2    7.99    0.86
  -2   6   2    8.93    0.83
   2   6  -2    8.19    0.69
  -1  -6   2   60.79    3.41
  -1  -6   2   57.49    3.42
  -1  -6   2   55.46    3.54
   1  -6  -2   60.75    3.40
   1  -6  -2   58.94    3.48
   1  -6  -2   59.80    3.42
  -1   6   2   61.73    3.55
   1   6  -2   60.45    3.48
   1   6  -2   60.39    3.43
  -1   6   2   60.57    3.51
  -1   6   2   60.76    3.46
   0  -6  -2   12.61    0.98
   0  -6  -2   12.32    0.84
   0  -6   2   12.57    0.90
   0  -6   2   12.47    0.85
   0  -6   2   11.92    1.09
   0  -6  -2   12.68    0.88
   0   6   2   15.01    0.93
   0   6  -2   14.45    0.89
   0   6  -2   14.09    0.97
   0   6   2   14.04    0.98
   0   6   2   13.12    1.03
  -1  -6  -2   12.47    1.15
   1  -6   2   10.07    1.05
   1  -6   2   11.80    0.80
  -1  -6  -2   11.43    0.81
  -1  -6  -2   11.79    0.79
  -1  -6  -2   10.05    1.01
   1  -6   2   12.17    0.87
   1   6   2   12.84    0.92
   1   6   2   12.16    0.86
  -1   6  -2   12.21    1.12
  -1   6  -2   13.24    0.84
  -1   6  -2   13.54    0.95
   1   6   2   12.94    0.86
   1   6   2   11.80    0.99
  -2  -6  -2   17.02    1.05
   2  -6   2   16.52    1.12
  -2  -6  -2   17.15    1.06
  -2  -6  -2   16.25    1.20
   2  -6   2   17.43    1.05
  -2  -6  -2   15.54    1.18
   2   6   2   15.63    1.13
  -2   6  -2   17.18    1.20
  -2   6  -2   15.19    1.24
   2   6   2   17.12    1.11
   2   6   2   15.83    1.23
   2   6   2   17.33    1.16
   3  -6   2   32.56    1.91
  -3  -6  -2   28.51    1.97
   3  -6   2   33.20    1.85
  -3  -6  -2   32.29    1.84
  -3  -6  -2   31.22    1.91
   3  -6   2   30.32    1.87
   3   6   2   27.75    1.98
  -3   6  -2   31.01    1.99
   3   6   2   31.85    1.90
   3   6   2   31.23    1.93
  -3   6  -2   31.67    2.01
   4  -6   2    0.78    0.22
  -4  -6  -2    1.06    0.27
   4  -6   2    0.66    0.28
  -4  -6  -2    0.70    0.20
   4   6   2    0.29    0.26
  -4   6  -2    0.50    0.22
   4   6   2    0.31    0.23
   5  -6   2    2.28    0.35
  -5  -6  -2    2.88    0.36
   5   6   2    1.83    0.37
   5   6   2    2.04    0.44
   5  -7  -2   13.23    0.81
   5   7  -2   12.30    0.79
  -5   7   2   13.06    0.86
   4  -7  -2    0.79    0.23
   4  -7  -2    1.28    0.32
   4   7  -2    1.16    0.26
  -4   7   2    0.85    0.26
   4   7  -2    0.94    0.27
   3  -7  -2    2.96    0.42
   3  -7  -2    3.26    0.40
   3  -7  -2    3.00    0.39
  -3  -7   2    2.93    0.35
  -3   7   2    4.31    0.57
  -3   7   2    4.23    0.55
   3   7  -2    4.10    0.49
   3   7  -2    4.21    0.40
  -2  -7   2   18.07    1.10
   2  -7  -2   16.39    1.07
   2  -7  -2   17.67    1.11
  -2  -7   2   17.70    1.08
   2  -7  -2   17.43    1.09
  -2   7   2   16.74    1.25
   2   7  -2   17.20    1.16
   2   7  -2   16.45    1.10
  -2   7   2   17.14    1.22
   1  -7  -2    9.19    0.69
   1  -7  -2    8.24    1.05
   1  -7  -2    8.60    0.66
   1  -7  -2    8.39    0.68
  -1  -7   2    9.05    0.66
  -1  -7   2    9.10    0.68
  -1   7   2    9.72    0.73
   1   7  -2   10.27    0.79
  -1   7   2   10.88    0.82
  -1   7   2    9.83    0.89
   1   7  -2   10.25    0.69
   0  -7   2    6.46    1.34
   0  -7   2    6.93    0.61
   0  -7  -2    8.00    0.91
   0  -7  -2    7.02    0.58
   0  -7  -2    7.31    0.57
   0  -7   2    6.71    0.57
   0   7   2    8.38    0.85
   0   7  -2    8.22    0.61
   0   7   2    8.21    0.63
   0   7  -2    8.81    0.73
   0   7   2    8.44    0.70
  -1  -7  -2   15.64    1.32
  -1  -7  -2   15.57    1.26
   1  -7   2   17.74    1.10
  -1  -7  -2   16.91    1.06
   1  -7   2   17.69    1.06
  -1  -7  -2   17.34    1.07
  -1   7  -2   16.88    1.18
   1   7   2   15.60    1.29
   1   7   2   16.56    1.15
   1   7   2   17.05    1.10
  -2  -7  -2   29.24    1.74
   2  -7   2   28.97    1.72
   2  -7   2   24.86    1.74
  -2  -7  -2   27.76    1.61
   2  -7   2   28.70    1.62
  -2   7  -2   23.62    1.78
   2   7   2   25.69    1.64
   2   7   2   26.98    1.69
  -2   7  -2   26.52    1.74
   3  -7   2    6.72    0.50
  -3  -7  -2    6.30    0.63
  -3  -7  -2    5.99    0.47
   3  -7   2    6.17    0.60
   3  -7   2    6.52    0.60
  -3   7  -2    5.93    0.72
   3   7   2    5.33    0.55
  -4  -7  -2   10.09    0.69
   4  -7   2    9.06    0.69
   4  -7   2    9.53    0.64
  -4   7  -2    7.86    0.74
   4   7   2    8.69    0.65
   4   7   2    9.12    0.64
   4  -8  -2    9.04    0.63
   4   8  -2    9.55    0.60
   3  -8  -2    5.53    0.57
   3  -8  -2    6.74    0.48
   3  -8  -2    5.64    0.52
  -3  -8   2    6.14    0.43
  -3  -8   2    5.29    0.48
   3   8  -2    6.00    0.45
  -3   8   2    5.35    0.77
  -2  -8   2    0.23    0.15
  -2  -8   2    0.45    0.26
   2  -8  -2    0.34    0.16
   2  -8  -2    0.16    0.18
   2  -8  -2    0.17    0.22
   2   8  -2    0.25    0.21
  -2   8   2    0.23    0.34
   2   8  -2    0.33    0.17
  -2   8   2    0.43    0.23
   1  -8  -2    0.60    0.19
  -1  -8   2    0.43    0.17
   1  -8  -2    0.53    0.22
  -1  -8   2    0.49    0.17
   1  -8  -2    0.63    0.18
   1   8  -2    0.33    0.18
  -1   8   2    0.15    0.22
  -1   8   2   -0.01    0.40
   1   8  -2    0.38    0.23
   0  -8   2   12.85    0.83
   0  -8  -2   11.97    0.84
   0  -8  -2   12.51    0.82
   0  -8   2   12.71    0.81
   0  -8  -2   12.13    0.82
   0   8   2   12.72    0.85
   0   8   2   11.90    0.90
   0   8  -2   12.98    0.93
   0   8  -2   12.58    0.82
   1  -8   2    8.83    0.64
   1  -8   2    8.39    0.62
  -1  -8  -2    8.94    0.60
   1  -8   2    8.51    0.61
  -1  -8  -2    8.57    0.60
   1   8   2    8.53    0.69
  -1   8  -2    8.56    0.73
   1   8   2    8.63    0.64
   2  -8   2    3.83    0.42
  -2  -8  -2    3.35    0.33
   2  -8   2    3.44    0.37
   2  -8   2    3.49    0.36
  -2  -8  -2    5.14    0.90
  -2  -8  -2    3.08    0.37
   2   8   2    3.49    0.41
   2   8   2    3.21    0.38
  -2   8  -2    3.74    0.47
  -3  -8  -2   17.90    1.18
   3  -8   2   18.26    1.28
   3  -8   2   20.15    1.22
  -3  -8  -2   19.30    1.32
   3   8   2   22.89    1.23
   3   8   2   22.85    1.25
  -2  -9   2    2.90    0.40
   2  -9  -2    3.30    0.34
  -2  -9   2    3.91    0.31
   2  -9  -2    4.14    0.35
  -1  -9   2    8.46    0.59
   1  -9  -2    8.59    0.59
   1  -9  -2    9.17    0.61
   1   9  -2    7.86    0.64
  -1   9   2    7.21    0.69
   0  -9  -2   13.66    0.82
   0  -9   2   12.60    0.82
   0  -9   2   13.77    0.81
   0  -9  -2   13.59    0.81
   0   9  -2   13.84    1.09
   0   9   2   11.77    0.87
   1  -9   2    4.00    0.33
   1  -9   2    4.12    0.38
  -1  -9  -2    3.84    0.32
  -1  -9  -2    3.48    0.35
  -1   9  -2    3.97    0.43
   2  -9   2    3.78    0.61
   2   9   2    3.42    0.40
   7   0  -3    4.97    0.45
  -7   0   3    5.11    0.45
  -7   0   3    5.03    0.44
  -6   0   3    0.89    0.27
   6   0  -3   -0.07    0.71
   6   0  -3    0.47    0.24
   6   0  -3    0.19    0.23
  -6   0   3    0.74    0.31
  -5   0   3   35.82    2.16
   5   0  -3   36.99    2.39
  -5   0   3   39.55    2.28
   5   0  -3   37.29    2.24
  -5   0   3   36.40    2.27
   5   0  -3   38.14    2.18
   4   0  -3    4.32    0.38
  -4   0   3    4.88    0.62
  -4   0   3    4.67    0.39
  -4   0   3    5.20    0.90
   4   0  -3    4.18    0.52
   4   0  -3    4.16    0.42
   4   0  -3    4.85    0.90
  -4   0   3    3.86    0.61
  -3   0   3   59.61    3.23
   3   0  -3   56.75    3.24
  -3   0   3   55.12    3.22
   3   0  -3   56.77    3.21
   2   0  -3   40.16    2.23
  -2   0   3   38.76    2.23
  -1   0   3  113.28    6.43
   1   0  -3  120.63    6.42
   1   0  -3  114.84    6.44
   0   0   3    1.70    0.23
   1   0   3  323.04   17.80
   2   0   3  161.32    8.94
   3   0   3  172.77    9.99
  -3   0  -3  187.24   10.12
   3   0   3  180.59   10.03
   4   0   3   94.27    5.57
  -4   0  -3   99.34    5.55
   4   0   3   99.52    5.54
  -4   0  -3  101.53    5.60
   4   0   3   97.92    5.61
  -5   0  -3    0.50    0.31
   5   0   3    0.52    0.29
   5   0   3    0.20    0.56
  -5   0  -3    0.52    0.23
   5   0   3    0.29    0.19
   6   0   3    0.44    0.24
   6   0   3    0.37    0.19
  -6   0  -3    0.62    0.20
  -6   0  -3    0.01    0.24
   7   0   3   16.14    1.13
  -7  -1   3    0.84    0.20
  -7  -1   3    0.78    0.24
  -7   1   3    0.89    0.21
   7   1  -3    0.49    0.18
  -7   1   3    0.80    0.22
   6  -1  -3    2.23    0.42
  -6  -1   3    3.01    0.62
   6  -1  -3    2.08    0.39
  -6  -1   3    2.59    0.46
  -5  -1   3   20.99    1.36
   5  -1  -3   20.91    1.27
  -5  -1   3   22.11    1.38
   5  -1  -3   19.74    1.35
   5  -1  -3   20.54    1.35
  -5  -1   3   20.78    1.32
   5   1  -3   20.65    1.26
  -5   1   3   19.67    1.37
  -5   1   3   19.39    1.49
   5   1  -3   20.71    1.33
   5   1  -3   19.78    1.34
   5   1  -3   20.64    1.47
  -5   1   3   21.10    1.37
  -4  -1   3    8.78    0.86
  -4  -1   3    8.62    0.85
   4  -1  -3    8.93    1.19
   4  -1  -3    9.15    0.77
  -4  -1   3    9.04    0.68
  -4  -1   3    8.78    0.74
   4  -1  -3    8.78    0.66
   4  -1  -3    9.03    0.69
  -4   1   3   12.18    0.87
   4   1  -3   11.70    0.96
  -4   1   3   12.51    0.98
   4   1  -3   11.46    0.77
   3  -1  -3   92.18    5.08
   3  -1  -3   98.44    5.10
  -3  -1   3   92.25    5.11
  -3  -1   3   94.08    5.09
   3   1  -3   83.99    5.07
   3   1  -3   88.97    5.10
  -3   1   3   86.73    5.08
   2  -1  -3   71.28    3.75
  -2  -1   3   69.20    3.76
  -2   1   3   63.59    3.74
   2   1  -3   63.79    3.74
  -1  -1   3  939.95   52.63
   1  -1  -3  934.43   52.59
  -1   1   3  954.90   52.64
   1   1  -3 1000.00   52.56
   1   1  -3  931.81   52.53
   0  -1  -3  572.87   32.53
   0  -1  -3  601.61   32.55
   0   1   3  592.60   32.57
  -1  -1  -3  127.72    7.12
   1   1   3  129.84    7.14
  -2  -1  -3    3.99    0.29
  -2  -1  -3    4.40    0.27
  -3  -1  -3   16.00    1.07
   3  -1   3   15.64    1.02
  -3  -1  -3   16.26    1.12
   3  -1   3   17.13    1.08
  -3   1  -3   15.86    1.19
  -3   1  -3   17.14    1.23
   3   1   3   17.47    1.01
   3   1   3   17.31    1.07
   4  -1   3   82.14    4.72
   4  -1   3   83.82    4.80
   4  -1   3   80.47    4.77
  -4  -1  -3   78.53    4.76
  -4  -1  -3   93.12    5.05
   4   1   3   80.82    4.80
   4   1   3   84.24    4.72
   4   1   3   83.14    4.76
  -4   1  -3   88.04    4.82
  -4   1  -3   83.40    4.73
  -5  -1  -3   19.15    1.28
   5  -1   3   18.82    1.33
  -5  -1  -3   19.96    1.34
   5  -1   3   20.25    1.28
   5   1   3   20.32    1.58
   5   1   3   20.92    1.27
  -5   1  -3   20.96    1.28
   5   1   3   21.49    1.33
  -5   1  -3   21.36    1.36
  -6  -1  -3   12.30    0.85
  -6  -1  -3   11.18    0.89
   6  -1   3   12.32    0.87
   6  -1   3   11.67    0.90
  -6   1  -3   14.87    0.93
  -6   1  -3   14.73    0.86
   6   1   3   15.05    0.92
   7  -1   3    3.59    0.37
   7   1   3    3.62    0.34
   7  -2  -3    6.89    0.53
  -7  -2   3    8.04    0.54
  -7   2   3    6.78    0.51
  -7   2   3    7.12    0.54
   6  -2  -3    1.88    0.41
  -6  -2   3    1.92    0.45
  -6  -2   3    1.73    0.44
   6  -2  -3    1.93    0.37
   6   2  -3    1.93    0.39
  -6   2   3    2.25    0.41
   6   2  -3    2.03    0.39
  -6   2   3    1.96    0.40
  -5  -2   3   29.60    1.96
   5  -2  -3   29.42    1.87
  -5  -2   3   28.16    1.90
   5  -2  -3   29.79    1.94
   5  -2  -3   28.72    1.95
  -5  -2   3   29.18    1.95
   5   2  -3   32.11    1.87
   5   2  -3   33.21    1.94
   5   2  -3   34.90    2.02
  -5   2   3   33.92    1.99
   5   2  -3   33.21    1.93
  -5   2   3   35.57    2.10
  -5   2   3   34.60    1.98
   4  -2  -3   48.12    2.77
   4  -2  -3   48.94    2.80
  -4  -2   3   48.21    2.76
   4  -2  -3   47.41    2.83
  -4  -2   3   45.95    2.84
  -4  -2   3   48.08    2.81
  -4  -2   3   48.84    2.87
   4   2  -3   48.85    2.87
   4   2  -3   50.63    2.81
  -4   2   3   47.87    2.87
   4   2  -3   47.40    2.80
  -4   2   3   47.27    2.92
  -4   2   3   49.74    2.73
  -3  -2   3   21.68    1.23
   3  -2  -3   21.52    1.17
   3  -2  -3   20.68    1.26
  -3  -2   3   21.66    1.19
   3   2  -3   18.55    1.36
  -3   2   3   18.89    1.16
  -3   2   3   16.57    1.34
   3   2  -3   18.62    1.18
   3   2  -3   17.93    1.23
  -2  -2   3   62.75    3.69
   2  -2  -3   63.58    3.67
  -2   2   3   67.58    3.67
   2   2  -3   68.10    3.67
   1  -2  -3  329.94   18.54
  -1  -2   3  302.15   18.44
  -1   2   3  348.92   18.54
   1   2  -3  355.10   18.45
   0  -2   3  489.55   27.76
   0  -2  -3  489.08   27.85
   0   2   3  530.34   27.88
  -1  -2  -3   19.38    1.06
   1  -2   3   17.06    1.04
   1   2   3   18.04    1.07
  -2  -2  -3    3.11    0.25
   2  -2   3    2.90    0.33
  -3  -2  -3   64.13    3.44
   3  -2   3   64.18    3.53
  -3  -2  -3   62.45    3.54
  -3  -2  -3   62.04    3.51
   3  -2   3   60.03    3.47
   3   2   3   60.32    3.52
  -3   2  -3   60.86    3.61
   3   2   3   62.41    3.47
  -3   2  -3   56.17    3.55
   3   2   3   61.73    3.53
  -4  -2  -3   25.42    1.60
  -4  -2  -3   25.66    1.63
   4  -2   3   24.62    1.69
   4  -2   3   25.39    1.58
   4   2   3   26.92    1.57
   4   2   3   26.30    1.68
  -4   2  -3   26.60    1.59
   4   2   3   28.10    1.63
  -4   2  -3   26.12    1.65
  -4   2  -3   27.66    1.75
  -5  -2  -3   10.83    0.74
   5  -2   3   10.73    0.83
   5  -2   3   11.46    0.92
  -5  -2  -3   11.12    0.80
   5   2   3    8.29    0.76
  -5   2  -3    8.40    0.71
  -5   2  -3    9.23    0.80
   6  -2   3    1.57    0.32
   6  -2   3    1.03    0.28
  -6  -2  -3    1.57    0.33
  -6  -2  -3    1.29    0.29
  -6   2  -3    1.54    0.31
   6   2   3    1.74    0.35
   6   2   3    1.41    0.34
  -6   2  -3    1.34    0.30
   7  -2   3    9.29    0.62
  -7  -2  -3    8.20    0.58
   7   2   3    9.28    0.67
  -7  -3   3   16.55    0.95
   7  -3  -3   15.08    0.93
  -7   3   3   15.38    0.91
  -7   3   3   14.83    0.95
  -6  -3   3   14.80    1.05
  -6  -3   3   17.38    1.13
   6  -3  -3   16.69    1.07
   6  -3  -3   16.78    1.11
  -6  -3   3   16.22    1.18
   6   3  -3   18.55    1.07
  -6   3   3   17.81    1.12
   6   3  -3   14.23    1.21
   6   3  -3   17.43    1.17
  -6   3   3   18.30    1.11
  -6   3   3   18.83    1.22
   5  -3  -3    5.84    0.50
  -5  -3   3    5.61    0.53
  -5  -3   3    5.35    0.71
   5  -3  -3    5.82    0.60
  -5  -3   3    5.76    0.65
  -5  -3   3    5.04    0.68
  -5   3   3    6.05    0.73
   5   3  -3    5.59    0.68
   5   3  -3    5.77    0.55
   5   3  -3    5.83    0.67
  -5   3   3    5.59    0.58
  -5   3   3    5.08    0.62
   4  -3  -3    4.27    0.50
  -4  -3   3    3.94    0.67
  -4  -3   3    3.33    0.81
   4  -3  -3    4.03    0.48
  -4  -3   3    4.17    0.49
   4  -3  -3    4.26    0.38
  -4  -3   3    4.01    0.44
   4   3  -3    3.14    0.47
  -4   3   3    2.80    0.63
   4   3  -3    3.55    0.43
   4   3  -3    3.66    0.56
  -4   3   3    3.51    0.61
   3  -3  -3   23.75    1.26
   3  -3  -3   23.47    1.28
   3  -3  -3   21.60    1.32
  -3  -3   3   22.15    1.33
  -3  -3   3   23.56    1.27
   3  -3  -3   22.57    1.33
  -3  -3   3   20.49    1.51
  -3   3   3   19.37    1.41
   3   3  -3   20.36    1.26
  -3   3   3   21.31    1.24
   3   3  -3   19.72    1.43
  -3   3   3   18.38    1.46
   3   3  -3   18.41    1.30
   3   3  -3   19.90    1.33
  -3   3   3   18.31    1.45
   2  -3  -3    4.39    0.34
   2  -3  -3    4.37    0.40
  -2  -3   3    4.27    0.37
  -1  -3   3  218.10   12.78
   1  -3  -3  222.56   12.76
  -1  -3   3  212.39   12.76
  -1   3   3  258.82   12.78
  -1   3   3  236.24   12.77
   1   3  -3  224.57   12.73
   1   3  -3  242.04   12.73
   0  -3  -3   20.12    1.12
   0  -3  -3   18.59    1.12
   0  -3   3   18.48    1.12
   0   3   3   19.63    1.13
   0   3   3   18.79    1.12
   1  -3   3   21.66    1.36
  -1  -3  -3   20.85    1.36
  -1  -3  -3   21.80    1.36
   1   3   3   26.47    1.39
   1   3   3   26.48    1.37
   2  -3   3   34.25    2.14
  -2  -3  -3   38.04    2.15
   2  -3   3   37.45    2.17
   2   3   3   40.59    2.19
   2   3   3   36.91    2.18
   2   3   3   39.03    2.14
  -2   3  -3   35.58    2.26
  -3  -3  -3  100.24    5.63
  -3  -3  -3  102.35    5.66
  -3  -3  -3  102.91    5.62
  -3  -3  -3   98.73    5.67
   3  -3   3  104.04    5.62
   3   3   3  100.12    5.70
   3   3   3  101.12    5.62
   3   3   3  101.35    5.66
  -3   3  -3   91.54    5.69
  -3   3  -3  101.69    5.77
  -4  -3  -3  117.74    6.44
   4  -3   3  113.76    6.42
  -4  -3  -3  113.68    6.45
   4  -3   3  115.99    6.47
  -4  -3  -3  112.19    6.39
  -4   3  -3  110.59    6.41
   4   3   3  118.35    6.45
  -4   3  -3  115.22    6.47
   4   3   3  110.05    6.50
   4   3   3  113.51    6.40
  -4   3  -3  116.61    6.58
  -5  -3  -3   10.08    0.80
   5  -3   3   11.06    0.79
  -5  -3  -3   10.52    0.76
   5  -3   3   10.21    0.86
  -5   3  -3   10.99    0.74
   5   3   3   10.91    0.78
  -5   3  -3   10.72    0.84
   5   3   3   10.56    0.75
   5   3   3   10.68    1.20
  -5   3  -3   11.42    0.92
   6  -3   3    8.80    0.70
   6  -3   3    8.76    0.67
  -6  -3  -3    9.12    0.65
   6   3   3    8.93    0.75
   6   3   3   11.20    0.76
  -6   3  -3   10.84    0.72
  -6  -4   3    9.95    0.75
   6  -4  -3    9.91    0.71
   6  -4  -3    9.17    0.72
  -6   4   3    9.72    0.74
   6   4  -3   10.13    0.76
  -6   4   3   10.02    0.70
  -6   4   3   10.89    0.80
  -5  -4   3   26.54    1.64
   5  -4  -3   27.18    1.64
   5  -4  -3   27.25    1.71
  -5  -4   3   25.29    1.70
  -5   4   3   29.25    1.83
  -5   4   3   27.05    1.71
  -5   4   3   27.91    1.69
   5   4  -3   28.16    1.91
   5   4  -3   27.38    1.71
  -4  -4   3   40.98    2.48
   4  -4  -3   42.97    2.44
   4  -4  -3   40.48    2.37
  -4  -4   3   41.65    2.40
   4  -4  -3   39.49    2.44
  -4  -4   3   39.88    2.48
  -4  -4   3   40.35    2.36
   4  -4  -3   37.40    2.43
   4   4  -3   42.46    2.44
   4   4  -3   41.93    2.45
   4   4  -3   41.26    2.38
  -4   4   3   41.02    2.55
  -4   4   3   40.00    2.48
  -3  -4   3   40.84    2.76
   3  -4  -3   46.74    2.62
  -3  -4   3   41.04    2.77
   3  -4  -3   46.26    2.65
  -3  -4   3   42.77    2.70
   3  -4  -3   44.89    2.64
  -3  -4   3   47.23    2.63
   3   4  -3   48.50    2.71
  -3   4   3   43.49    2.78
   3   4  -3   49.25    2.62
  -3   4   3   47.53    2.84
  -3   4   3   48.52    2.81
   2  -4  -3   13.37    0.81
  -2  -4   3   13.26    0.83
  -2  -4   3   13.53    0.84
   2  -4  -3   12.41    0.78
   2   4  -3   10.61    0.70
  -2   4   3   10.81    0.72
   2   4  -3    9.61    0.90
   2   4  -3    9.68    0.78
  -2   4   3    9.87    0.89
   1  -4  -3   38.90    2.27
  -1  -4   3   39.35    2.30
   1  -4  -3   39.93    2.25
   1  -4  -3   37.30    2.27
  -1  -4   3   38.28    2.26
   1   4  -3   41.20    2.40
  -1   4   3   37.24    2.34
  -1   4   3   39.67    2.37
  -1   4   3   43.15    2.27
   1   4  -3   38.86    2.28
  -1   4   3   40.35    2.33
   0  -4  -3   84.40    4.71
   0  -4  -3   84.17    4.68
   0  -4   3   81.67    4.69
   0  -4  -3   78.57    4.70
   0  -4   3   78.50    4.71
   0   4   3   84.53    4.79
   0   4   3   88.85    4.68
   0   4   3   89.54    4.72
  -1  -4  -3    7.46    0.53
  -1  -4  -3    6.55    0.50
   1  -4   3    6.84    0.52
  -1  -4  -3    6.68    0.55
   1  -4   3    7.27    0.59
   1   4   3    7.39    0.64
   1   4   3    8.01    0.55
  -1   4  -3    7.35    0.67
   1   4   3    8.56    0.52
  -2  -4  -3    3.52    0.47
   2  -4   3    3.76    0.36
  -2  -4  -3    3.82    0.41
   2  -4   3    3.53    0.59
  -2  -4  -3    3.70    0.36
  -2  -4  -3    3.34    0.39
   2   4   3    3.33    0.40
  -2   4  -3    2.31    0.66
   2   4   3    3.29    0.33
  -2   4  -3    3.13    0.50
   2   4   3    3.22    0.61
   2   4   3    3.10    0.48
  -3  -4  -3   34.39    2.14
   3  -4   3   34.22    2.09
  -3  -4  -3   33.79    2.10
   3  -4   3   31.54    2.20
  -3  -4  -3   33.08    2.10
   3   4   3   39.20    2.20
  -3   4  -3   40.42    2.30
   3   4   3   39.50    2.09
   3   4   3   37.82    2.22
  -4  -4  -3   75.60    4.34
   4  -4   3   73.59    4.32
  -4  -4  -3   75.36    4.28
   4  -4   3   73.54    4.36
   4   4   3   76.93    4.29
   4   4   3   74.73    4.42
   4   4   3   79.63    4.33
   4   4   3   75.18    4.40
  -4   4  -3   78.82    4.48
  -4   4  -3   76.14    4.30
   5  -4   3   35.38    2.12
   5  -4   3   35.72    2.09
  -5  -4  -3   35.97    2.24
   5   4   3   33.51    2.06
  -5   4  -3   33.29    2.17
   5   4   3   39.00    2.27
  -5   4  -3   34.92    2.03
   6  -4   3    7.50    0.55
  -6  -4  -3    7.58    0.51
   6   4   3    6.66    0.58
  -6  -5   3   13.69    0.97
   6  -5  -3   13.87    0.92
   6   5  -3   14.78    0.93
  -6   5   3   15.41    0.99
  -6   5   3   15.68    0.99
   5  -5  -3    3.00    0.44
   5  -5  -3    2.84    0.39
  -5  -5   3    2.94    0.55
  -5  -5   3    2.83    0.35
  -5   5   3    3.36    0.61
   5   5  -3    3.12    0.43
   5   5  -3    2.06    0.57
  -5   5   3    2.44    0.37
  -5   5   3    2.57    0.48
   4  -5  -3   31.19    1.92
   4  -5  -3   29.26    2.03
  -4  -5   3   31.66    1.87
  -4  -5   3   30.22    2.07
   4  -5  -3   33.52    1.89
  -4  -5   3   32.30    1.89
   4  -5  -3   33.69    1.95
  -4  -5   3   31.29    2.00
   4   5  -3   32.31    1.93
  -4   5   3   32.26    2.05
  -4   5   3   31.42    2.00
   4   5  -3   31.42    1.95
   3  -5  -3   10.63    0.75
  -3  -5   3    9.72    1.20
  -3  -5   3   10.65    0.80
   3  -5  -3   10.11    0.79
   3  -5  -3   10.46    0.82
  -3  -5   3   10.87    0.76
   3   5  -3   11.79    0.90
  -3   5   3   13.00    0.98
   3   5  -3   12.51    0.83
  -3   5   3   12.05    0.99
   2  -5  -3   69.94    3.90
  -2  -5   3   66.15    3.98
  -2  -5   3   70.10    3.88
   2  -5  -3   69.62    3.87
   2  -5  -3   67.91    3.89
  -2  -5   3   70.35    3.91
   2  -5  -3   68.06    3.91
  -2   5   3   67.62    4.02
   2   5  -3   66.81    3.90
  -2   5   3   65.35    3.98
   2   5  -3   70.72    4.01
   1  -5  -3   22.59    1.53
  -1  -5   3   22.00    1.54
   1  -5  -3   25.10    1.94
  -1  -5   3   22.04    1.59
   1  -5  -3   22.38    1.49
  -1  -5   3   22.93    1.50
   1  -5  -3   23.12    1.52
  -1   5   3   26.95    1.61
   1   5  -3   27.36    1.53
  -1   5   3   27.99    1.52
  -1   5   3   28.81    1.58
   1   5  -3   29.48    1.67
  -1   5   3   27.20    1.65
   1   5  -3   28.88    1.61
   0  -5  -3    5.41    0.46
   0  -5  -3    5.36    0.47
   0  -5  -3    5.38    0.41
   0  -5   3    5.72    0.58
   0  -5   3    5.52    0.57
   0  -5   3    5.23    0.43
   0   5  -3    5.34    0.45
   0   5   3    4.68    0.45
   0   5   3    4.96    0.55
   0   5   3    5.78    0.59
   0   5  -3    4.87    0.54
   0   5   3    4.54    0.51
   0   5  -3    4.66    0.69
   1  -5   3   48.21    2.88
  -1  -5  -3   50.06    2.89
   1  -5   3   51.53    2.81
  -1  -5  -3   53.87    2.83
  -1  -5  -3   51.53    2.80
   1  -5   3   50.29    2.87
  -1  -5  -3   52.35    2.87
   1   5   3   48.69    2.86
  -1   5  -3   43.51    2.98
  -1   5  -3   49.13    2.91
   1   5   3   46.76    2.89
   1   5   3   49.29    2.86
   1   5   3   45.42    2.79
  -1   5  -3   48.47    2.82
  -2  -5  -3    0.23    0.18
  -2  -5  -3    0.09    0.20
   2   5   3    0.04    0.18
   2   5   3    0.03    0.22
   2   5   3   -0.14    0.28
  -2   5  -3    0.13    0.24
   2   5   3    0.16    0.19
  -2   5  -3   -0.06    0.36
   3  -5   3   58.75    3.39
  -3  -5  -3   59.63    3.44
  -3  -5  -3   58.31    3.38
   3  -5   3   57.00    3.45
  -3  -5  -3   57.16    3.42
   3   5   3   61.23    3.49
   3   5   3   60.17    3.45
   3   5   3   59.63    3.38
  -3   5  -3   62.40    3.57
   3   5   3   59.97    3.49
   4  -5   3   30.52    1.99
   4  -5   3   32.25    1.95
  -4  -5  -3   32.38    1.97
  -4  -5  -3   31.59    1.91
   4   5   3   34.31    2.02
   4   5   3   32.70    2.02
  -4   5  -3   35.93    2.11
   4   5   3   32.88    2.38
  -4   5  -3   32.53    1.91
   5  -5   3    1.47    0.34
  -5  -5  -3    1.49    0.33
   5  -5   3    2.10    0.33
  -5   5  -3    1.80    0.41
   5   5   3    1.78    0.36
   5   5   3    1.38    0.47
  -6  -5  -3    0.30    0.16
  -6  -5  -3    0.58    0.16
   6   5   3    0.64    0.23
   5  -6  -3   27.05    1.58
  -5  -6   3   24.18    1.66
   5  -6  -3   24.69    1.56
  -5  -6   3   25.74    1.52
  -5   6   3   27.78    1.55
   5   6  -3   27.12    1.56
  -5   6   3   27.61    1.65
   4  -6  -3    4.59    0.50
   4  -6  -3    4.98    0.58
   4  -6  -3    4.40    0.44
  -4  -6   3    4.82    0.45
  -4   6   3    4.89    0.59
   4   6  -3    5.08    0.48
   4   6  -3    4.48    0.58
  -3  -6   3    2.11    0.59
   3  -6  -3    1.96    0.50
  -3  -6   3    2.33    0.38
   3  -6  -3    2.26    0.35
   3  -6  -3    2.68    0.44
  -3  -6   3    2.46    0.35
   3  -6  -3    2.21    0.38
   3   6  -3    2.70    0.38
  -3   6   3    3.08    0.58
  -3   6   3    3.34    0.57
   3   6  -3    2.52    0.49
   2  -6  -3   12.85    0.96
   2  -6  -3   13.24    0.83
  -2  -6   3   12.45    0.80
  -2  -6   3   13.29    0.85
   2  -6  -3   13.39    0.85
   2  -6  -3   12.94    0.80
   2   6  -3    9.84    0.89
  -2   6   3    9.70    0.93
  -2   6   3    9.81    0.96
   1  -6  -3   13.55    1.04
  -1  -6   3   14.04    1.18
   1  -6  -3   13.74    0.90
  -1  -6   3   14.37    0.88
   1  -6  -3   14.20    0.87
  -1  -6   3   13.53    0.91
  -1   6   3   12.71    0.94
   1   6  -3   13.46    0.98
   1   6  -3   13.00    0.89
  -1   6   3   12.32    1.03
  -1   6   3   12.27    0.98
   0  -6   3   42.85    2.60
   0  -6  -3   42.03    2.64
   0  -6  -3   42.31    2.69
   0  -6  -3   44.03    2.59
   0  -6  -3   43.71    2.56
   0  -6   3   42.58    2.75
   0  -6   3   44.04    2.57
   0   6   3   46.25    2.68
   0   6  -3   47.52    2.60
   0   6  -3   46.11    2.67
   0   6   3   46.49    2.64
   0   6   3   46.60    2.59
   0   6   3   46.13    2.71
   1  -6   3    9.21    0.67
  -1  -6  -3    9.11    0.66
  -1  -6  -3    8.60    0.84
  -1  -6  -3    9.20    0.69
  -1  -6  -3    8.37    0.84
   1  -6   3    9.38    0.78
  -1   6  -3   10.34    0.83
   1   6   3   10.37    0.75
   1   6   3   10.31    0.85
  -1   6  -3   10.80    0.70
   1   6   3    9.89    0.79
   2  -6   3   13.05    1.01
  -2  -6  -3   11.92    1.04
  -2  -6  -3   13.61    0.92
   2  -6   3   14.04    0.92
  -2  -6  -3   13.53    1.01
   2   6   3   14.39    1.07
  -2   6  -3   14.78    1.08
   2   6   3   16.42    1.05
  -2   6  -3   14.45    1.18
   2   6   3   13.83    1.05
   2   6   3   15.45    0.99
  -3  -6  -3    3.93    0.51
  -3  -6  -3    3.01    0.39
   3  -6   3    4.13    0.69
   3  -6   3    3.93    0.41
   3  -6   3    3.69    0.57
   3   6   3    4.68    1.04
   4  -6   3    6.17    0.55
   4  -6   3    6.56    0.63
  -4  -6  -3    5.67    0.57
   4   6   3    7.51    0.65
  -4   6  -3    7.20    0.69
   4   6   3    6.86    0.60
   5  -6   3    3.64    0.40
   5  -6   3    4.05    0.50
  -5  -6  -3    3.47    0.40
  -5  -6  -3    3.84    0.38
   5   6   3    4.05    0.42
   5   6   3    4.16    0.57
   5  -7  -3    4.65    0.39
  -5   7   3    4.25    0.46
   5   7  -3    4.63    0.36
   4  -7  -3    5.13    0.51
   4  -7  -3    6.02    0.47
  -4  -7   3    6.25    0.42
  -4   7   3    4.95    0.57
   4   7  -3    4.30    0.42
  -3  -7   3    0.94    0.25
  -3  -7   3    0.99    0.21
   3  -7  -3    1.41    0.34
   3  -7  -3    1.17    0.25
   3   7  -3    1.61    0.30
  -3   7   3    1.84    0.46
   3   7  -3    1.34    0.30
  -3   7   3    1.23    0.30
   2  -7  -3   31.99    1.88
   2  -7  -3   31.01    1.86
  -2  -7   3   32.20    1.88
  -2  -7   3   31.70    1.85
   2  -7  -3   33.01    1.90
  -2   7   3   32.29    2.02
  -2   7   3   30.96    1.99
   2   7  -3   30.93    1.93
   2   7  -3   30.34    1.87
   1  -7  -3   41.29    2.42
   1  -7  -3   40.20    2.39
   1  -7  -3   40.49    2.42
  -1  -7   3   40.45    2.39
   1  -7  -3   37.35    2.56
  -1  -7   3   41.02    2.42
   1   7  -3   44.27    2.42
  -1   7   3   42.20    2.52
  -1   7   3   42.44    2.46
   1   7  -3   42.77    2.49
  -1   7   3   42.66    2.56
   0  -7   3    1.52    0.30
   0  -7  -3    1.62    0.49
   0  -7  -3    1.29    0.30
   0  -7  -3    1.69    0.47
   0  -7   3    0.93    0.24
   0  -7  -3    1.10    0.22
   0   7   3    1.21    0.28
   0   7  -3    0.92    0.29
   0   7   3    1.45    0.39
   0   7   3    1.29    0.38
   0   7  -3    1.26    0.32
  -1  -7  -3   10.57    0.81
  -1  -7  -3   11.39    0.78
   1  -7   3   11.67    0.78
  -1  -7  -3   11.46    0.95
   1  -7   3   11.24    0.83
   1   7   3   11.88    0.84
   1   7   3   11.23    0.98
   1   7   3   11.95    0.88
  -1   7  -3   12.54    0.93
  -2  -7  -3   17.24    1.09
   2  -7   3   18.16    1.09
  -2  -7  -3   17.70    1.17
   2  -7   3   17.14    1.10
  -2  -7  -3   17.16    1.07
   2  -7   3   18.03    1.15
   2   7   3   15.52    1.17
  -2   7  -3   16.34    1.21
   2   7   3   16.48    1.15
  -3  -7  -3    1.71    0.29
   3  -7   3    1.99    0.32
  -3  -7  -3    1.81    0.42
   3  -7   3    1.34    0.32
  -3   7  -3    1.23    0.44
   3   7   3    1.50    0.35
   4  -7   3    9.91    0.69
   4  -7   3    9.23    0.75
  -4  -7  -3   10.36    0.70
   4   7   3   10.46    0.71
   4   7   3   10.08    0.75
   4  -8  -3   -0.08    0.17
   4   8  -3   -0.13    0.15
   3  -8  -3    4.66    0.52
  -3  -8   3    6.19    0.42
   3  -8  -3    6.26    0.46
  -3   8   3    4.69    0.77
   3   8  -3    5.43    0.42
  -2  -8   3    2.22    0.29
   2  -8  -3    2.63    0.46
   2  -8  -3    2.57    0.33
   2  -8  -3    2.36    0.28
  -2   8   3    1.49    0.33
   2   8  -3    1.56    0.28
  -2   8   3    2.31    0.50
  -1  -8   3   -0.04    0.16
  -1  -8   3   -0.05    0.15
   1  -8  -3   -0.02    0.15
   1  -8  -3    0.15    0.27
   1  -8  -3   -0.08    0.16
   1   8  -3    0.09    0.16
  -1   8   3   -0.15    0.21
  -1   8   3    0.10    0.36
   1   8  -3    0.10    0.23
   0  -8   3    6.67    0.54
   0  -8  -3    6.35    0.53
   0  -8  -3    6.41    0.52
   0  -8   3    6.75    0.52
   0   8  -3    7.35    0.65
   0   8   3    7.72    0.57
   0   8   3    7.29    0.87
   0   8   3    7.58    0.64
  -1  -8  -3    5.28    0.45
  -1  -8  -3    4.99    0.80
  -1  -8  -3    5.36    0.45
   1  -8   3    5.73    0.46
   1  -8   3    5.52    0.50
   1  -8   3    6.01    0.47
   1   8   3    6.46    0.55
  -2  -8  -3    0.45    0.15
  -2  -8  -3    1.28    0.38
   2  -8   3    0.52    0.21
  -2  -8  -3    0.58    0.21
   2  -8   3    0.91    0.25
   2  -8   3    0.66    0.19
   2   8   3    0.63    0.21
   2   8   3    0.49    0.20
   3  -8   3    6.94    0.62
  -3  -8  -3    8.36    0.68
   3  -8   3    6.72    0.56
   3   8   3    7.83    0.57
  -2  -9   3    8.94    0.66
   2  -9  -3   10.28    0.64
   2  -9  -3   11.13    0.66
  -2  -9   3   11.22    0.65
   1  -9  -3    2.35    0.29
  -1  -9   3    2.67    0.28
  -1  -9   3    2.66    0.30
  -1   9   3    3.00    0.41
   0  -9   3   11.20    0.76
   0  -9  -3   11.77    0.83
   0  -9   3    9.60    0.86
   0  -9  -3   10.92    0.73
   0  -9   3   11.56    0.70
   0   9   3   10.93    0.78
   0   9  -3   10.80    0.78
   1  -9   3    1.68    0.26
  -1  -9  -3    1.92    0.27
  -1  -9  -3    1.96    0.26
   1  -9   3    2.35    0.34
   2   9   3    1.40    0.32
  -7   0   4    1.76    0.33
   7   0  -4    1.95    0.31
  -7   0   4    2.02    0.34
  -6   0   4   22.42    1.42
  -6   0   4   21.51    1.40
   6   0  -4   21.99    1.39
   6   0  -4   21.09    1.57
  -5   0   4    6.93    0.73
   5   0  -4    6.33    0.64
   5   0  -4    6.92    0.90
   5   0  -4    6.45    0.63
   5   0  -4    6.73    0.54
  -5   0   4    6.48    0.67
  -4   0   4    6.08    0.68
   4   0  -4    5.51    0.58
  -4   0   4    6.26    0.73
   4   0  -4    5.07    0.78
  -4   0   4    5.45    1.04
   4   0  -4    5.97    0.46
   4   0  -4    5.96    0.49
  -4   0   4    5.99    0.47
  -3   0   4  312.64   17.58
   3   0  -4  315.13   17.57
  -3   0   4  323.77   17.56
   3   0  -4  318.89   17.55
   2   0  -4    0.25    0.08
  -2   0   4    0.27    0.09
  -1   0   4  116.37    6.49
   1   0  -4  118.09    6.47
   0   0   4   22.22    1.24
   1   0   4   12.97    0.75
   2   0   4   56.07    3.16
  -3   0  -4   10.44    0.76
  -3   0  -4   10.56    0.82
   3   0   4   10.42    0.79
   3   0   4   10.53    0.70
   4   0   4   71.13    4.03
  -4   0  -4   67.39    4.04
  -4   0  -4   65.65    4.09
   4   0   4   69.09    3.98
   4   0   4   72.71    3.93
   5   0   4    0.74    0.21
  -5   0  -4    0.70    0.23
  -5   0  -4    0.61    0.31
   5   0   4    0.63    0.31
  -6   0  -4   50.01    2.91
  -6   0  -4   50.75    2.84
   6   0   4   51.91    2.88
   6   0   4   50.91    2.90
  -6   0  -4   46.59    2.85
   7   0   4    4.70    0.38
  -7  -1   4   12.91    0.93
   7  -1  -4   14.14    0.91
  -7  -1   4   13.99    0.92
  -7   1   4   15.72    0.94
  -7   1   4   15.25    0.92
   7   1  -4   14.49    0.90
   6  -1  -4   25.71    1.57
  -6  -1   4   24.16    1.75
   6  -1  -4   27.36    1.63
  -6  -1   4   24.13    1.57
  -6   1   4   28.25    1.66
   6   1  -4   27.16    1.62
  -6   1   4   28.25    1.68
   6   1  -4   24.39    1.71
   5  -1  -4   71.55    4.05
   5  -1  -4   73.47    4.24
  -5  -1   4   71.78    4.07
   5  -1  -4   71.07    4.10
  -5  -1   4   71.41    4.14
   5  -1  -4   77.17    4.13
  -5  -1   4   75.86    4.16
  -5   1   4   69.13    4.23
  -5   1   4   69.37    4.15
   5   1  -4   70.33    4.09
   5   1  -4   69.84    4.09
   5   1  -4   69.05    4.03
  -5   1   4   71.36    4.15
   5   1  -4   69.26    4.16
   4  -1  -4   18.95    1.24
  -4  -1   4   18.61    1.31
  -4  -1   4   18.78    1.36
  -4  -1   4   18.94    1.20
  -4  -1   4   18.80    1.19
   4  -1  -4   18.75    1.16
   4  -1  -4   19.17    1.20
   4  -1  -4   18.41    1.45
  -4   1   4   19.88    1.32
  -4   1   4   18.72    1.31
  -4   1   4   19.22    1.42
   4   1  -4   19.22    1.34
   4   1  -4   20.08    1.20
  -4   1   4   20.14    1.17
   4   1  -4   19.49    1.16
   4   1  -4   19.27    1.23
   3  -1  -4   91.41    4.91
  -3  -1   4   87.91    4.90
   3  -1  -4   85.85    4.89
   3   1  -4   84.48    4.88
   3   1  -4   89.02    4.90
  -3   1   4   87.28    4.90
  -3   1   4   86.50    4.90
  -2  -1   4   18.44    1.22
   2  -1  -4   18.89    1.20
  -2   1   4   25.38    1.25
   1  -1  -4   46.85    2.79
  -1   1   4   51.94    2.80
   1   1  -4   51.74    2.77
   1   1  -4   49.72    2.77
   0  -1  -4  125.44    6.90
   0  -1  -4  123.87    6.89
   0   1   4  124.87    6.90
   1   1   4  263.10   14.53
   2  -1   4   61.61    3.44
   2   1   4   60.52    3.44
   3  -1   4   22.21    1.26
  -3  -1  -4   22.58    1.29
   3  -1   4   23.63    1.35
  -3  -1  -4   24.08    1.35
  -3   1  -4   18.42    1.41
   3   1   4   19.41    1.24
  -3   1  -4   18.86    1.29
   3   1   4   20.00    1.32
  -3   1  -4   18.12    1.34
  -4  -1  -4    6.78    0.58
   4  -1   4    5.63    0.80
   4  -1   4    7.00    0.55
  -4  -1  -4    7.14    0.64
   4   1   4    6.49    0.76
   4   1   4    6.61    0.78
  -4   1  -4    8.03    0.70
   4   1   4    6.91    0.54
  -5  -1  -4    5.45    0.58
   5  -1   4    4.75    0.53
  -5  -1  -4    4.73    0.51
   5  -1   4    4.63    0.62
   5   1   4    6.45    0.61
   5   1   4    7.06    0.55
  -5   1  -4    6.66    0.62
   5   1   4    6.34    1.20
  -5   1  -4    6.83    0.53
   6  -1   4    2.07    0.33
  -6  -1  -4    2.15    0.30
   6  -1   4    1.78    0.34
  -6  -1  -4    2.12    0.35
   6   1   4    2.06    0.38
  -6   1  -4    1.93    0.31
  -6   1  -4    1.63    0.37
   7  -1   4    1.06    0.26
   7  -2  -4    0.21    0.17
  -7  -2   4    0.39    0.18
  -7   2   4    0.45    0.18
  -7   2   4    0.31    0.20
   7   2  -4    0.19    0.46
   6  -2  -4   27.38    1.69
  -6  -2   4   27.72    1.71
  -6  -2   4   24.58    1.63
  -6  -2   4   27.88    1.72
   6  -2  -4   25.24    1.64
   6   2  -4   27.25    1.75
  -6   2   4   29.87    1.72
   6   2  -4   29.22    1.67
  -6   2   4   28.82    1.72
   5  -2  -4   32.06    1.96
   5  -2  -4   33.40    1.97
  -5  -2   4   33.53    2.01
  -5  -2   4   33.22    1.98
   5  -2  -4   32.99    1.89
  -5  -2   4   33.05    1.96
   5  -2  -4   27.97    2.59
  -5   2   4   31.07    1.99
   5   2  -4   30.24    1.93
   5   2  -4   31.75    2.01
  -5   2   4   32.09    2.10
  -5   2   4   31.59    1.99
   5   2  -4   31.52    1.93
  -4  -2   4   32.39    1.93
   4  -2  -4   30.31    2.09
  -4  -2   4   30.30    1.83
  -4  -2   4   31.33    1.79
   4  -2  -4   30.94    1.78
   4  -2  -4   32.44    1.82
  -4  -2   4   29.39    1.89
  -4   2   4   31.05    1.77
  -4   2   4   29.53    1.96
   4   2  -4   27.96    1.82
   4   2  -4   29.27    1.88
   4   2  -4   28.45    1.77
   4   2  -4   29.58    1.79
  -3  -2   4   73.95    4.21
   3  -2  -4   69.46    4.20
   3  -2  -4   74.00    4.21
   3  -2  -4   75.12    4.18
   3   2  -4   80.29    4.18
   3   2  -4   74.42    4.20
  -3   2   4   63.65    4.27
  -3   2   4   74.02    4.17
  -3   2   4   75.41    4.31
   3   2  -4   74.30    4.24
  -3   2   4   80.41    4.17
   2  -2  -4   63.99    3.52
  -2  -2   4   63.79    3.56
  -2  -2   4   58.27    3.53
   2   2  -4   63.54    3.51
  -2   2   4   64.58    3.53
  -1  -2   4   32.45    1.93
   1  -2  -4   35.36    1.92
   0  -2  -4   34.28    1.96
   0  -2   4   32.20    1.94
   0   2   4   37.84    1.97
   1  -2   4  141.46    7.38
  -1  -2  -4  138.08    7.39
  -1  -2  -4  120.16    7.45
   1   2   4  133.50    7.41
   2  -2   4   11.54    0.73
   2   2   4    9.28    0.69
  -3  -2  -4    8.16    0.62
   3  -2   4    7.52    0.61
  -3  -2  -4    9.18    0.68
   3   2   4    8.48    0.67
  -3   2  -4    6.87    0.64
  -3   2  -4    7.53    0.78
  -3   2  -4    7.83    0.76
   3   2   4    8.85    0.72
   3   2   4    8.66    0.57
  -4  -2  -4   64.80    3.98
  -4  -2  -4   65.34    3.95
   4  -2   4   66.14    3.94
  -4   2  -4   72.25    3.94
  -4   2  -4   71.70    4.01
  -4   2  -4   72.98    4.11
   4   2   4   71.44    3.98
   4   2   4   71.30    3.94
   4   2   4   68.92    4.05
   5  -2   4    4.73    0.66
   5  -2   4    5.46    0.53
  -5  -2  -4    5.72    0.52
  -5  -2  -4    5.55    0.58
   5   2   4    6.73    0.60
  -5   2  -4    6.94    0.54
  -5   2  -4    6.90    0.65
   5   2   4    6.41    1.16
   6  -2   4   12.89    0.94
   6  -2   4   13.98    0.91
  -6  -2  -4   13.07    0.88
  -6   2  -4   14.29    0.93
   6   2   4   14.46    0.91
   6   2   4   15.13    0.92
   7   2   4    4.24    0.49
  -7  -3   4    4.86    0.47
  -7   3   4    5.72    0.41
  -7   3   4    5.50    0.44
  -6  -3   4    1.55    0.37
   6  -3  -4    2.07    0.39
  -6  -3   4    2.10    0.55
  -6  -3   4    1.90    0.47
   6  -3  -4    2.62    0.42
   6   3  -4    2.02    0.50
   6   3  -4    1.99    0.34
  -6   3   4    1.84    0.50
  -6   3   4    2.05    0.38
  -6   3   4    2.00    0.39
  -5  -3   4   10.84    0.84
   5  -3  -4   11.47    1.00
  -5  -3   4   11.13    0.99
  -5  -3   4   11.72    0.96
   5  -3  -4   11.51    0.82
   5  -3  -4   12.31    0.92
  -5  -3   4    9.79    0.98
   5   3  -4   12.29    0.94
  -5   3   4   14.40    1.09
  -5   3   4   13.09    0.96
   5   3  -4   13.45    0.87
   5   3  -4   11.54    1.03
   5   3  -4   13.64    0.96
  -5   3   4   13.34    0.94
   4  -3  -4   13.70    1.32
   4  -3  -4   13.36    1.01
   4  -3  -4   14.60    1.05
  -4  -3   4   14.84    0.98
  -4  -3   4   13.82    1.18
   4  -3  -4   14.25    0.96
  -4  -3   4   13.84    1.06
  -4   3   4   18.47    1.20
  -4   3   4   17.90    1.16
   4   3  -4   17.92    1.04
  -3  -3   4   45.82    2.69
   3  -3  -4   43.60    2.65
   3  -3  -4   43.77    2.65
   3  -3  -4   40.31    2.86
  -3  -3   4   46.01    2.62
   3  -3  -4   46.21    2.63
   3  -3  -4   45.61    2.61
   3   3  -4   48.54    2.61
   3   3  -4   46.43    2.65
  -3   3   4   46.42    2.77
  -3   3   4   47.42    2.78
  -3   3   4   43.53    2.80
  -3   3   4   49.26    2.62
   3   3  -4   46.92    2.75
   3   3  -4   48.38    2.68
   3   3  -4   43.27    2.74
  -2  -3   4  217.79   11.88
   2  -3  -4  217.98   11.86
   2  -3  -4  214.49   11.88
  -2   3   4  182.53   11.87
  -2   3   4  245.06   12.27
   2   3  -4  213.01   11.85
  -2   3   4  209.72   11.88
   1  -3  -4    7.30    0.51
   1  -3  -4    8.10    0.50
  -1  -3   4    7.13    0.56
  -1  -3   4    8.28    0.54
  -1   3   4    7.40    0.51
   0  -3  -4   53.14    3.02
   0  -3  -4   56.26    3.04
   0  -3   4   57.01    3.04
   0   3   4   49.13    3.04
  -1  -3  -4  128.65    6.80
  -1  -3  -4  125.89    6.79
   1  -3   4  120.28    6.79
   1   3   4  116.21    6.78
   1   3   4  119.62    6.82
  -2  -3  -4   46.89    2.80
   2  -3   4   49.98    2.88
  -2  -3  -4   50.49    2.77
  -2   3  -4   47.16    2.89
   2   3   4   50.28    2.82
   2   3   4   47.84    2.81
  -3  -3  -4   10.28    0.73
   3  -3   4   10.25    0.68
  -3  -3  -4   10.79    0.70
  -3  -3  -4    9.94    0.77
  -3   3  -4    7.72    1.02
  -3   3  -4    8.07    0.86
   3   3   4    7.96    0.70
  -4  -3  -4   21.78    1.40
  -4  -3  -4   22.00    1.45
   4  -3   4   21.77    1.54
   4  -3   4   21.88    1.40
  -4   3  -4   24.03    1.59
  -4   3  -4   23.96    1.51
   4   3   4   23.64    1.43
  -4   3  -4   22.77    1.39
   4   3   4   23.37    1.39
  -5   3  -4    4.69    0.49
  -5   3  -4    5.75    0.61
   5   3   4    5.32    0.48
   5   3   4    5.12    0.50
   6  -3   4    7.71    0.58
  -6  -3  -4    7.68    0.54
   6  -3   4    6.63    0.63
   6   3   4    8.08    0.64
  -6   3  -4    8.86    0.63
  -6  -4   4    3.75    0.50
  -6  -4   4    3.18    0.39
   6   4  -4    2.88    0.45
  -6   4   4    2.86    0.37
  -6   4   4    2.36    0.44
  -6   4   4    2.48    0.47
   5  -4  -4   12.41    0.92
  -5  -4   4   11.11    0.85
   5  -4  -4   11.59    0.84
  -5   4   4   12.88    0.92
   5   4  -4   11.67    1.05
   5   4  -4   13.64    0.93
  -5   4   4   13.38    0.95
  -5   4   4   13.34    1.05
  -4  -4   4    4.53    0.82
   4  -4  -4    3.94    0.60
  -4  -4   4    4.54    0.47
  -4  -4   4    4.49    0.51
   4  -4  -4    5.14    0.60
  -4  -4   4    4.35    0.67
   4  -4  -4    5.06    0.45
   4  -4  -4    4.61    0.54
   4   4  -4    5.95    0.71
  -4   4   4    6.15    0.69
  -4   4   4    6.25    0.72
   4   4  -4    5.49    0.54
   3  -4  -4    0.18    0.14
   3  -4  -4    0.14    0.17
   3  -4  -4    0.00    0.24
  -3  -4   4    0.11    0.16
  -3  -4   4    0.20    0.25
   3  -4  -4    0.18    0.22
  -3   4   4   -0.15    0.62
  -3   4   4    0.07    0.36
   3   4  -4    0.15    0.20
  -3   4   4    0.34    0.18
   3   4  -4   -0.19    0.30
   3   4  -4    0.15    0.30
   3   4  -4    0.28    0.16
  -3   4   4    0.03    0.26
   2  -4  -4   52.85    2.90
   2  -4  -4   50.51    2.92
   2  -4  -4   50.30    2.93
  -2  -4   4   52.74    2.98
   2  -4  -4   52.22    2.92
   2  -4  -4   46.41    3.10
  -2  -4   4   52.19    2.91
  -2   4   4   54.83    2.92
  -2   4   4   47.44    3.02
   2   4  -4   48.65    2.99
   2   4  -4   52.25    3.03
  -2   4   4   51.79    3.03
   2   4  -4   51.21    2.93
  -1  -4   4    2.54    0.29
   1  -4  -4    2.54    0.26
   1  -4  -4    2.40    0.35
  -1  -4   4    2.56    0.38
   1  -4  -4    2.37    0.38
  -1   4   4    2.49    0.47
   1   4  -4    1.89    0.55
  -1   4   4    1.89    0.38
   1   4  -4    1.46    0.34
  -1   4   4    1.69    0.35
  -1   4   4    1.89    0.51
  -1   4   4    1.71    0.25
   0  -4   4   73.47    4.30
   0  -4  -4   76.25    4.31
   0  -4  -4   73.66    4.31
   0  -4  -4   77.12    4.28
   0  -4   4   77.43    4.33
   0   4   4   75.92    4.37
   0   4   4   80.79    4.29
   0   4  -4   75.14    4.30
   0   4   4   79.63    4.33
   1  -4   4   13.32    0.94
  -1  -4  -4   12.22    0.89
  -1  -4  -4   11.94    0.83
  -1  -4  -4   12.66    0.79
   1  -4   4   12.56    0.82
  -1  -4  -4   12.81    0.82
   1   4   4   13.36    0.85
  -1   4  -4   12.94    0.95
   1   4   4   12.54    0.91
   1   4   4   12.58    0.99
  -1   4  -4   12.94    0.83
  -2  -4  -4   60.56    3.40
  -2  -4  -4   59.74    3.38
   2  -4   4   60.19    3.36
  -2  -4  -4   60.11    3.37
   2   4   4   59.76    3.43
   2   4   4   59.53    3.45
  -2   4  -4   57.80    3.47
   2   4   4   57.88    3.35
  -2   4  -4   58.02    3.52
  -3  -4  -4    7.74    0.60
  -3  -4  -4    7.96    0.63
   3  -4   4    7.98    0.60
  -3  -4  -4    7.64    0.61
   3   4   4    7.80    0.57
   3   4   4    7.29    0.73
  -3   4  -4    8.51    0.85
   3   4   4    5.92    0.92
  -4  -4  -4   13.47    0.98
   4  -4   4   13.03    1.11
   4   4   4   15.89    1.00
  -4   4  -4   15.59    0.96
   4   4   4   14.67    1.21
  -4   4  -4   15.69    1.17
  -5  -4  -4    3.07    0.36
   5  -4   4    3.67    0.40
   5  -4   4    3.54    0.57
   5   4   4    2.47    0.43
   5   4   4    3.14    0.48
  -6  -4  -4    6.35    0.43
  -6  -4  -4    5.99    0.43
   6  -4   4    6.13    0.48
   6  -4   4    5.72    0.58
   6   4   4    5.12    0.50
   6  -5  -4    3.70    0.36
   6   5  -4    4.32    0.42
  -6   5   4    3.39    0.45
  -6   5   4    3.18    0.45
   5  -5  -4    1.86    0.38
   5  -5  -4    2.24    0.41
  -5  -5   4    1.84    0.45
  -5  -5   4    2.15    0.32
  -5   5   4    1.88    0.37
   5   5  -4    2.23    0.39
  -5   5   4    1.98    0.43
  -5   5   4    1.55    0.46
   4  -5  -4    8.34    0.90
   4  -5  -4    9.83    0.65
   4  -5  -4   10.01    0.72
  -4  -5   4    9.41    0.66
  -4  -5   4    8.45    1.01
   4  -5  -4    9.30    0.74
  -4  -5   4    8.88    0.96
   4   5  -4    7.85    0.80
  -4   5   4    7.23    0.82
   4   5  -4    7.69    0.69
  -4   5   4    8.24    0.85
  -3  -5   4    0.31    0.43
   3  -5  -4   -0.04    0.19
   3  -5  -4    0.22    0.21
   3  -5  -4   -0.11    0.26
  -3  -5   4    0.10    0.21
  -3  -5   4   -0.11    0.16
   3  -5  -4    0.05    0.15
  -3   5   4    0.19    0.28
   3   5  -4    0.06    0.21
  -3   5   4   -0.16    0.29
   3   5  -4    0.37    0.30
  -3   5   4    0.05    0.62
   2  -5  -4   75.02    4.19
   2  -5  -4   75.24    4.21
   2  -5  -4   74.79    4.23
  -2  -5   4   77.04    4.23
   2  -5  -4   74.44    4.38
  -2  -5   4   77.65    4.21
   2  -5  -4   74.36    4.22
  -2   5   4   67.64    4.30
  -2   5   4   72.75    4.18
  -2   5   4   75.22    4.34
   2   5  -4   74.21    4.32
   2   5  -4   72.52    4.22
  -1  -5   4    8.64    0.70
  -1  -5   4    8.90    0.77
   1  -5  -4    8.16    0.90
   1  -5  -4    8.74    0.59
  -1  -5   4    8.62    0.61
   1  -5  -4    8.57    0.63
   1  -5  -4    8.69    0.63
  -1   5   4    7.49    0.71
   1   5  -4    9.17    0.79
   1   5  -4    8.40    0.73
  -1   5   4    8.26    0.76
  -1   5   4    8.55    0.62
   1   5  -4    7.94    0.61
  -1   5   4    9.06    0.71
   0  -5  -4   22.73    1.34
   0  -5   4   22.10    1.44
   0  -5   4   23.29    1.36
   0  -5   4   22.57    1.47
   0  -5  -4   23.67    1.40
   0  -5  -4   21.05    1.45
   0  -5  -4   23.54    1.37
   0   5  -4   22.08    1.36
   0   5   4   22.80    1.45
   0   5  -4   22.16    1.52
   0   5  -4   22.34    1.45
   0   5   4   23.31    1.48
   0   5   4   22.99    1.39
   0   5   4   21.63    1.38
   0   5   4   22.95    1.42
   1  -5   4   35.41    2.07
  -1  -5  -4   33.49    2.12
  -1  -5  -4   33.71    2.14
   1  -5   4   30.92    2.15
  -1  -5  -4   33.97    2.06
  -1  -5  -4   34.10    2.12
   1   5   4   38.41    2.15
  -1   5  -4   37.88    2.09
   1   5   4   38.83    2.15
   1   5   4   37.88    2.07
  -1   5  -4   39.94    2.22
  -2  -5  -4    0.29    0.19
  -2  -5  -4    0.25    0.23
  -2  -5  -4    0.51    0.25
   2   5   4    0.41    0.29
  -2   5  -4   -0.09    0.24
   2   5   4    0.20    0.24
  -2   5  -4   -0.14    0.41
   2   5   4    0.32    0.18
   2   5   4    0.19    0.23
  -3  -5  -4   47.89    2.69
   3  -5   4   48.78    2.76
  -3  -5  -4   49.98    2.71
  -3  -5  -4   50.25    2.66
   3  -5   4   49.42    2.68
   3   5   4   43.54    2.75
   3   5   4   42.28    2.65
   3   5   4   41.43    2.77
   3   5   4   43.44    2.74
  -3   5  -4   44.47    2.83
   4  -5   4   37.14    2.13
  -4  -5  -4   36.68    2.13
   4   5   4   38.18    2.28
  -4   5  -4   36.61    2.25
   4   5   4   35.43    2.18
   4   5   4   31.80    2.09
  -5  -5  -4   15.81    1.02
   5  -5   4   16.54    1.04
   5  -5   4   16.37    1.11
   5   5   4   17.20    1.08
  -6  -5  -4    1.09    0.22
  -6  -5  -4    1.05    0.22
   6   5   4    1.01    0.23
  -5  -6   4    1.72    0.28
  -5  -6   4    2.42    0.84
   5  -6  -4    1.31    0.45
   5  -6  -4    1.38    0.33
   5   6  -4    1.93    0.30
  -5   6   4    2.25    0.40
   4  -6  -4    3.52    0.42
   4  -6  -4    2.62    0.39
  -4  -6   4    3.54    0.48
  -4  -6   4    3.47    0.37
   4  -6  -4    3.40    0.48
  -4   6   4    2.34    0.48
   4   6  -4    2.96    0.38
   3  -6  -4   12.71    0.90
   3  -6  -4   11.07    1.07
  -3  -6   4   13.27    0.89
  -3  -6   4   12.09    1.32
   3  -6  -4   12.78    0.87
  -3  -6   4   12.99    0.85
   3  -6  -4   13.18    0.86
   3   6  -4   12.95    0.96
  -3   6   4   12.96    1.04
   3   6  -4   12.73    0.87
  -3   6   4   13.65    1.06
   2  -6  -4   51.49    3.02
   2  -6  -4   52.59    3.03
  -2  -6   4   52.64    3.00
  -2  -6   4   53.19    3.03
   2  -6  -4   52.59    2.99
   2  -6  -4   50.07    3.07
  -2   6   4   51.06    3.13
   2   6  -4   52.05    3.01
  -2   6   4   53.81    3.18
   2   6  -4   53.23    3.07
  -1  -6   4   12.59    1.24
   1  -6  -4   13.06    0.92
   1  -6  -4   13.01    0.92
  -1  -6   4   12.97    0.90
   1  -6  -4   12.78    0.89
  -1  -6   4   13.16    0.95
   1  -6  -4   11.24    1.15
   1  -6  -4   13.43    1.06
   1   6  -4   15.27    1.02
  -1   6   4   15.57    0.99
  -1   6   4   15.69    1.08
  -1   6   4   15.39    1.04
   1   6  -4   15.88    0.93
   0  -6   4   20.02    1.16
   0  -6  -4   19.59    1.29
   0  -6  -4   20.67    1.18
   0  -6   4   19.18    1.20
   0  -6  -4   19.31    1.14
   0   6   4   17.15    1.29
   0   6   4   17.11    1.21
   0   6  -4   17.65    1.15
   0   6   4   17.48    1.22
   0   6  -4   17.85    1.26
   0   6   4   17.67    1.24
  -1  -6  -4    0.23    0.24
  -1  -6  -4    0.52    0.19
   1  -6   4    0.55    0.18
  -1  -6  -4    0.62    0.30
  -1  -6  -4    0.57    0.23
   1  -6   4    0.92    0.32
   1   6   4    0.87    0.27
   2  -6   4   12.65    0.94
  -2  -6  -4   12.56    0.91
  -2  -6  -4   13.50    0.84
   2  -6   4   13.67    0.88
  -2  -6  -4   11.39    0.96
   2   6   4   11.82    0.90
  -2   6  -4   12.08    0.98
  -2   6  -4   10.93    1.15
   2   6   4   11.82    0.93
  -3  -6  -4   24.26    1.52
   3  -6   4   25.78    1.77
  -3  -6  -4   24.76    1.46
   3  -6   4   24.13    1.48
  -3   6  -4   24.15    1.64
   3   6   4   23.51    1.55
   3   6   4   23.83    1.54
   4  -6   4   -0.29    0.33
   4  -6   4    0.15    0.19
  -4  -6  -4    0.29    0.21
  -4   6  -4    0.17    0.30
   4   6   4    0.26    0.33
   4   6   4    0.14    0.19
   5  -6   4   16.51    1.00
  -5  -6  -4   16.89    0.98
  -5  -6  -4   14.00    0.98
   5   6   4   16.92    1.02
   5  -7  -4    7.51    0.55
   5   7  -4    9.11    0.55
  -5   7   4    8.76    0.64
   4  -7  -4    5.40    0.46
  -4  -7   4    5.81    0.42
   4  -7  -4    5.37    0.57
   4  -7  -4    4.77    0.70
  -4   7   4    5.70    0.56
   4   7  -4    5.09    0.43
   3  -7  -4   10.74    0.76
   3  -7  -4   11.16    0.76
  -3  -7   4   10.54    0.74
  -3  -7   4   11.40    0.75
   3  -7  -4   10.90    0.75
   3   7  -4   10.62    0.74
  -3   7   4   10.39    0.88
  -3   7   4   11.60    0.89
   3   7  -4   10.67    0.85
  -2  -7   4   16.02    0.96
   2  -7  -4   15.26    0.97
  -2  -7   4   15.77    0.98
   2  -7  -4   16.34    0.99
   2  -7  -4   15.88    0.97
  -2   7   4   12.74    1.09
   2   7  -4   13.49    0.95
  -2   7   4   13.49    1.11
   1  -7  -4    9.36    1.57
  -1  -7   4   11.96    0.82
   1  -7  -4   11.98    0.81
  -1  -7   4   12.46    0.79
   1  -7  -4   10.71    1.08
   1  -7  -4   11.95    0.82
   1  -7  -4   11.84    0.80
  -1   7   4   11.30    0.92
   1   7  -4   12.03    0.80
   1   7  -4   12.06    0.91
  -1   7   4   11.63    0.97
   0  -7  -4   23.80    1.63
   0  -7   4   24.37    1.52
   0  -7   4   24.75    1.50
   0  -7  -4   22.66    1.49
   0  -7  -4   24.21    1.51
   0  -7  -4   22.11    1.67
   0  -7  -4   23.71    1.50
   0   7   4   25.22    1.60
   0   7   4   26.06    1.56
   0   7   4   26.34    1.64
   0   7  -4   27.22    1.50
   0   7  -4   26.96    1.62
  -1  -7  -4   24.80    1.49
   1  -7   4   24.78    1.52
  -1  -7  -4   25.24    1.58
   1  -7   4   26.22    1.50
  -1  -7  -4   25.39    1.50
   1   7   4   23.78    1.57
   1   7   4   23.28    1.63
  -1   7  -4   24.78    1.62
   1   7   4   24.56    1.55
   2  -7   4    5.39    0.50
   2  -7   4    4.95    0.56
   2  -7   4    5.57    0.47
  -2  -7  -4    5.95    0.56
  -2  -7  -4    5.19    0.49
  -2  -7  -4    5.34    0.48
  -2   7  -4    4.13    0.79
   2   7   4    4.13    0.79
   2   7   4    5.16    0.74
   2   7   4    4.26    0.49
  -3  -7  -4   18.23    1.10
  -3  -7  -4   19.42    1.16
   3  -7   4   19.02    1.20
   3  -7   4   19.57    1.13
   3   7   4   16.24    1.15
   3   7   4   16.75    1.17
  -4  -7  -4    0.69    0.19
   4  -7   4    0.05    0.39
   4  -7   4    0.42    0.20
   4   7   4    0.41    0.30
   4   7   4    0.51    0.22
   4  -8  -4    0.05    0.17
   3  -8  -4    6.52    0.48
  -3  -8   4    5.89    0.44
   3  -8  -4    6.70    0.65
  -3   8   4    5.36    0.66
   3   8  -4    6.20    0.45
   2  -8  -4   15.19    0.96
  -2  -8   4   15.67    0.96
   2  -8  -4   15.64    0.97
   2   8  -4   15.15    1.04
   2   8  -4   15.60    0.95
  -2   8   4   14.70    1.06
  -2   8   4   15.46    1.08
  -1  -8   4   25.09    1.47
   1  -8  -4   25.09    1.49
   1  -8  -4   25.57    1.49
  -1  -8   4   25.23    1.49
  -1   8   4   24.26    1.57
   1   8  -4   24.34    1.56
   1   8  -4   25.04    1.46
  -1   8   4   24.14    1.60
   0  -8  -4   17.14    1.06
   0  -8  -4   17.27    1.06
   0  -8  -4   18.09    1.71
   0  -8   4   16.92    1.07
   0  -8   4   16.86    1.05
   0   8  -4   17.14    1.16
   0   8   4   16.02    1.23
   0   8   4   17.30    1.10
   0   8   4   16.85    1.14
  -1  -8  -4    0.51    0.39
  -1  -8  -4    0.36    0.17
  -1  -8  -4    0.21    0.17
   1  -8   4    0.26    0.15
   1  -8   4    0.34    0.22
  -1   8  -4    0.00    0.23
   1   8   4    0.07    0.15
   1   8   4    0.12    0.18
  -2  -8  -4    1.38    0.29
  -2  -8  -4    1.95    0.45
   2  -8   4    1.25    0.29
   2  -8   4    1.37    0.26
  -2  -8  -4    1.22    0.28
  -3  -8  -4   14.51    0.94
   3  -8   4   14.23    1.19
   3  -8   4   13.77    0.91
   3   8   4   16.14    0.96
   3   8   4   13.85    0.91
   2  -9  -4    4.02    0.37
   2  -9  -4    4.72    0.35
  -2  -9   4    3.78    0.33
  -1  -9   4    3.04    0.31
  -1  -9   4    2.71    0.26
   1  -9  -4    3.05    0.27
   1  -9  -4    2.62    0.31
  -1   9   4    2.65    0.39
   0  -9   4    0.87    0.32
   0  -9  -4    1.02    0.21
   0  -9  -4    1.14    0.25
   0  -9   4    1.05    0.21
   0  -9   4    1.32    0.29
   0   9  -4    1.58    0.28
   1  -9   4   12.08    0.74
   1  -9   4   13.03    0.80
  -1  -9  -4    9.93    0.81
   1   9   4   12.61    0.79
  -7   0   5    1.05    0.24
  -7   0   5    1.35    0.32
   7   0  -5    0.87    0.21
   6   0  -5   48.06    3.08
  -6   0   5   57.77    3.13
   6   0  -5   49.97    3.00
  -6   0   5   51.03    3.06
  -5   0   5   32.85    2.08
   5   0  -5   34.05    2.11
  -5   0   5   33.33    1.97
  -5   0   5   31.89    2.04
   5   0  -5   33.00    1.98
   5   0  -5   31.95    1.93
   5   0  -5   33.62    2.00
  -4   0   5   13.80    1.14
   4   0  -5   13.82    0.89
   4   0  -5   14.92    0.92
  -4   0   5   17.28    1.92
  -4   0   5   14.67    0.93
  -4   0   5   14.46    0.93
   4   0  -5   12.69    1.17
   4   0  -5   13.99    0.97
   4   0  -5   13.47    1.10
  -4   0   5   13.56    1.06
  -3   0   5   27.78    1.66
  -3   0   5   28.50    1.67
   3   0  -5   27.85    1.64
   3   0  -5   29.26    1.65
   2   0  -5    1.12    0.14
  -2   0   5    0.97    0.18
  -1   0   5   21.01    1.20
   1   0  -5   20.16    1.17
   1   0  -5   21.55    1.17
   0   0   5    6.91    0.41
   1   0   5  476.39   26.25
   2   0   5   31.36    1.98
  -2   0  -5   29.65    1.93
  -3   0  -5   14.62    1.00
  -3   0  -5   16.47    1.07
   3   0   5   15.59    1.11
   3   0   5   16.08    0.98
  -4   0  -5   44.44    2.51
   4   0   5   40.39    2.74
   4   0   5   45.28    2.52
   4   0   5   42.23    2.58
  -4   0  -5   45.01    2.58
   5   0   5    6.53    0.61
  -5   0  -5    6.56    0.56
   5   0   5    7.73    0.68
  -5   0  -5    7.17    0.65
   6   0   5    3.52    0.46
  -6   0  -5    3.14    0.44
  -6   0  -5    3.53    0.36
   6   0   5    3.70    0.38
  -6   0  -5    3.80    0.42
   7   0   5    0.56    0.23
  -7  -1   5    1.77    0.41
   7  -1  -5    1.97    0.33
  -7  -1   5    2.59    0.37
  -7   1   5    1.82    0.33
   7   1  -5    1.86    0.50
  -7   1   5    2.26    0.34
   7   1  -5    2.00    0.40
  -6  -1   5    6.43    0.71
   6  -1  -5    6.37    0.71
   6  -1  -5    5.54    0.89
  -6  -1   5    5.71    0.65
  -6   1   5    4.16    0.79
  -5  -1   5   19.87    1.34
   5  -1  -5   19.38    1.27
   5  -1  -5   20.48    1.52
   5  -1  -5   20.22    1.34
  -5  -1   5   19.03    1.37
  -5  -1   5   19.95    1.44
   5  -1  -5   19.63    1.34
   5   1  -5   22.69    1.34
   5   1  -5   21.72    1.34
  -5   1   5   21.87    1.32
  -5   1   5   22.51    1.43
  -5   1   5   22.01    1.42
   5   1  -5   22.20    1.45
  -5   1   5   20.92    1.57
  -4  -1   5    3.54    0.59
  -4  -1   5    4.23    0.81
   4  -1  -5    2.57    0.45
  -4  -1   5    3.35    0.39
   4  -1  -5    3.29    0.55
   4  -1  -5    3.29    0.75
   4  -1  -5    3.19    0.34
  -4  -1   5    2.95    0.38
   4  -1  -5    3.35    0.36
  -4   1   5    2.98    0.52
   4   1  -5    2.48    0.58
   4   1  -5    2.91    0.33
  -4   1   5    2.72    0.34
   4   1  -5    2.79    0.44
  -4   1   5    3.01    0.61
  -4   1   5    2.98    0.81
   4   1  -5    3.13    0.38
   3  -1  -5   81.22    4.71
   3  -1  -5   84.81    4.66
   3  -1  -5   85.88    4.67
  -3  -1   5   84.35    4.67
  -3  -1   5   84.77    4.70
   3   1  -5   85.04    4.66
  -3   1   5   80.46    4.67
   3   1  -5   79.46    4.71
  -3   1   5   83.28    4.68
  -2  -1   5  103.94    5.97
   2  -1  -5  109.69    5.96
  -2  -1   5  113.39    6.00
  -2   1   5  106.28    5.98
   2   1  -5  100.01    5.98
   2   1  -5  110.59    5.95
   1  -1  -5   73.51    4.29
   1  -1  -5   72.83    4.17
  -1   1   5   79.25    4.19
   0  -1  -5   12.97    0.71
   0  -1  -5   12.29    0.74
   0   1   5   12.44    0.74
   1   1   5    1.26    0.19
   2  -1   5  321.97   17.47
   2   1   5  317.95   17.49
   2   1   5  308.14   17.46
  -3  -1  -5   47.40    2.71
   3  -1   5   46.17    2.65
  -3  -1  -5   46.72    2.66
  -3   1  -5   44.10    2.65
   3   1   5   49.52    2.74
  -3   1  -5   44.95    2.78
  -3   1  -5   45.93    2.72
  -4  -1  -5    1.75    0.35
  -4  -1  -5    1.98    0.40
   4  -1   5    1.58    0.33
   4  -1   5    1.00    0.47
   5  -1   5   15.79    1.00
  -5  -1  -5   16.06    0.90
   5   1   5   12.52    1.93
  -5   1  -5   12.16    0.95
  -5   1  -5   12.77    0.96
  -5   1  -5   11.96    0.86
   5   1   5   12.56    0.87
   5   1   5   11.91    0.94
   6  -1   5    1.37    0.30
  -6  -1  -5    1.63    0.28
   6  -1   5    2.02    0.42
  -6  -1  -5    1.47    0.26
  -6  -1  -5    1.74    0.33
   6   1   5    1.51    0.35
  -6   1  -5    1.29    0.29
   7   1   5   14.86    0.93
  -7  -2   5    0.91    0.28
   7  -2  -5    1.24    0.24
  -7   2   5    1.39    0.30
   7   2  -5    2.23    0.55
  -7   2   5    1.31    0.30
  -6  -2   5    1.25    0.35
   6  -2  -5    1.87    0.39
  -6  -2   5    2.01    0.42
   6  -2  -5    1.19    0.35
  -6  -2   5    1.31    0.28
   6   2  -5    1.94    0.38
   6   2  -5    1.85    0.37
  -6   2   5    2.26    0.46
  -6   2   5    2.49    0.43
   5  -2  -5    8.10    0.66
  -5  -2   5    7.74    0.72
   5  -2  -5    8.09    1.03
  -5  -2   5    7.62    0.72
  -5  -2   5    7.09    0.77
   5  -2  -5    7.53    0.70
   5  -2  -5    7.96    0.57
  -5   2   5    6.90    0.86
  -5   2   5    6.44    0.70
   5   2  -5    5.72    0.66
   5   2  -5    6.99    0.73
   5   2  -5    6.82    0.64
  -5   2   5    6.53    0.69
   4  -2  -5    4.34    0.85
  -4  -2   5    4.37    0.43
  -4  -2   5    3.03    0.67
   4  -2  -5    3.60    0.67
  -4  -2   5    4.42    0.48
   4  -2  -5    4.17    0.39
   4  -2  -5    4.40    0.43
   4  -2  -5    4.32    0.50
  -4   2   5    2.87    0.66
  -4   2   5    2.93    0.64
  -3  -2   5   50.30    2.90
   3  -2  -5   47.92    2.93
   3  -2  -5   56.13    3.19
   3  -2  -5   50.80    2.90
   3  -2  -5   47.08    2.94
  -3   2   5   50.79    3.06
  -3   2   5   49.79    2.90
   3   2  -5   52.60    2.94
  -3   2   5   53.71    2.91
   3   2  -5   53.18    2.88
   3   2  -5   48.36    2.93
   3   2  -5   50.63    2.96
   2  -2  -5   29.62    1.91
  -2  -2   5   34.48    1.95
  -2  -2   5   31.99    1.93
  -2   2   5   37.77    1.93
   2   2  -5   31.69    1.94
  -2   2   5   35.83    1.95
  -1  -2   5  270.46   15.31
   1  -2  -5  296.11   15.40
  -1   2   5  264.67   15.32
   0  -2  -5    6.25    0.39
   0  -2   5    5.75    0.39
  -1  -2  -5   41.30    2.52
   1   2   5   45.54    2.54
   1   2   5   48.28    2.56
   2   2   5    5.45    0.47
   2   2   5    5.38    0.41
  -3  -2  -5  112.38    5.86
  -3  -2  -5  108.96    5.89
   3  -2   5  104.59    5.83
  -3   2  -5   98.09    5.83
   3   2   5  100.67    5.87
   3   2   5  106.19    5.83
  -3   2  -5  102.79    5.97
   3   2   5  104.56    5.92
  -3   2  -5  100.45    5.90
  -4  -2  -5   54.97    3.27
   4  -2   5   56.32    3.27
  -4  -2  -5   56.46    3.31
   4   2   5   57.50    3.30
   4   2   5   55.55    3.41
  -4   2  -5   58.32    3.42
  -4   2  -5   57.84    3.24
  -4   2  -5   59.29    3.33
   5  -2   5    8.39    0.81
  -5  -2  -5    9.77    0.73
  -5  -2  -5    9.68    0.67
   5  -2   5   10.26    0.71
   5   2   5    8.71    0.73
  -5   2  -5    8.43    0.65
   5   2   5    9.19    1.52
  -5   2  -5    9.39    0.75
   6  -2   5   16.88    0.97
   6  -2   5   14.77    1.01
  -6  -2  -5   16.35    0.94
   6   2   5   14.95    0.97
  -6   2  -5   13.84    0.98
   6   2   5   14.42    0.96
  -7  -3   5    2.10    0.40
   7  -3  -5    1.59    0.28
  -7   3   5    2.15    0.28
  -7   3   5    1.72    0.32
  -6  -3   5   17.43    1.14
   6  -3  -5   18.43    1.18
  -6  -3   5   17.40    1.23
  -6   3   5   17.72    1.29
  -6   3   5   19.84    1.22
   6   3  -5   19.75    1.23
  -6   3   5   19.53    1.21
  -5  -3   5    5.56    0.75
  -5  -3   5    4.11    0.76
   5  -3  -5    4.98    0.68
   5  -3  -5    5.45    0.55
   5  -3  -5    5.33    1.06
  -5  -3   5    5.42    0.70
   5   3  -5    4.00    0.50
  -5   3   5    3.63    0.58
   5   3  -5    3.89    0.57
  -5   3   5    3.90    0.70
  -5   3   5    4.48    0.58
   4  -3  -5    1.18    0.27
   4  -3  -5    0.72    0.59
   4  -3  -5    1.35    0.35
   4  -3  -5    1.02    0.34
  -4  -3   5    0.67    0.45
  -4  -3   5    0.85    0.20
   4  -3  -5    1.10    0.28
  -4  -3   5    1.03    0.30
   4   3  -5    1.85    0.47
   4   3  -5    1.09    0.39
  -4   3   5    1.34    0.36
   4   3  -5    0.99    0.22
   4   3  -5    1.18    0.28
  -4   3   5    1.15    0.40
  -4   3   5    1.32    0.47
   3  -3  -5   28.43    1.63
   3  -3  -5   27.50    1.58
   3  -3  -5   26.89    1.63
   3  -3  -5   27.40    1.60
  -3  -3   5   27.22    1.60
  -3  -3   5   28.21    1.67
   3  -3  -5   24.87    1.82
   3   3  -5   25.57    1.63
  -3   3   5   26.63    1.76
   3   3  -5   26.72    1.73
   3   3  -5   26.91    1.55
  -3   3   5   25.52    1.86
   3   3  -5   26.61    1.65
  -3   3   5   27.88    1.59
   2  -3  -5   62.46    3.37
   2  -3  -5   55.15    3.37
   2  -3  -5   56.14    3.38
  -2  -3   5   61.09    3.37
   2  -3  -5   61.35    3.35
  -2   3   5   59.04    3.36
   2   3  -5   61.04    3.49
   2   3  -5   58.55    3.40
  -2   3   5   64.09    3.38
  -2   3   5   56.44    3.47
   1  -3  -5    7.41    0.50
   1  -3  -5    7.90    0.49
  -1  -3   5    7.65    0.54
  -1  -3   5    6.34    0.56
   0  -3   5   50.65    2.84
   0  -3  -5   47.77    2.82
   0   3   5   50.34    2.84
   0   3   5   51.92    2.86
  -1  -3  -5    6.74    0.47
   1   3   5    6.98    0.47
   1   3   5    6.72    0.52
  -2  -3  -5  118.95    6.55
  -2  -3  -5  117.89    6.50
  -2  -3  -5  110.47    6.53
   2   3   5  118.04    6.54
  -2   3  -5  114.52    6.62
   2   3   5  122.32    6.58
   2   3   5  120.05    6.51
  -2   3  -5  111.84    6.65
  -3  -3  -5   20.32    1.37
   3  -3   5   19.52    1.17
  -3   3  -5   16.00    1.16
   3   3   5   18.85    1.29
   3   3   5   19.09    1.20
   3   3   5   18.98    1.15
  -3   3  -5   18.74    1.35
   4   3   5   16.13    1.07
  -4   3  -5   17.18    1.23
  -4   3  -5   15.50    1.01
   4   3   5   15.33    1.30
   4   3   5   16.63    1.03
  -4   3  -5   15.76    1.17
  -5  -3  -5    6.22    0.51
   5  -3   5    6.87    0.55
   5  -3   5    6.88    0.73
   5   3   5    5.04    0.49
   5   3   5    5.12    0.52
  -6  -3  -5    6.88    0.51
  -6  -3  -5    7.02    0.50
   6  -3   5    7.55    0.58
   6   3   5    7.93    0.61
   6   3   5    6.33    0.60
  -6  -4   5    3.89    0.38
  -6  -4   5    3.74    0.56
   6  -4  -5    4.31    0.40
  -6   4   5    3.46    0.42
   6   4  -5    3.87    0.45
  -6   4   5    3.83    0.45
  -6   4   5    3.20    0.52
   5  -4  -5    2.31    0.39
  -5  -4   5    2.49    0.49
   5  -4  -5    2.11    0.43
  -5  -4   5    2.51    0.40
  -5   4   5    1.94    0.55
   5   4  -5    1.83    0.42
  -5   4   5    2.69    0.67
   4  -4  -5   36.21    2.06
  -4  -4   5   34.08    2.16
   4  -4  -5   34.27    2.34
   4  -4  -5   36.14    2.08
   4  -4  -5   36.62    2.07
   4  -4  -5   36.30    2.01
  -4  -4   5   32.91    2.21
  -4  -4   5   36.56    2.01
   4   4  -5   31.72    2.05
  -4   4   5   31.66    2.16
   4   4  -5   29.94    2.13
  -4   4   5   31.53    2.11
   3  -4  -5   -0.11    0.16
  -3  -4   5    0.08    0.27
  -3  -4   5   -0.14    0.15
   3  -4  -5   -0.07    0.15
   3  -4  -5    0.20    0.20
   3  -4  -5    0.14    0.53
   3  -4  -5    0.13    0.19
  -3   4   5   -0.03    0.18
  -3   4   5   -0.12    0.29
   3   4  -5    0.04    0.29
   3   4  -5    0.02    0.19
  -2  -4   5   77.37    4.33
   2  -4  -5   77.47    4.33
   2  -4  -5   76.54    4.34
   2  -4  -5   73.50    4.43
   2  -4  -5   76.57    4.31
   2  -4  -5   74.98    4.33
  -2   4   5   81.99    4.34
   2   4  -5   76.69    4.34
  -2   4   5   76.86    4.43
  -2   4   5   74.12    4.43
  -2   4   5   77.67    4.34
   2   4  -5   74.63    4.40
   2   4  -5   78.67    4.44
   1  -4  -5   85.56    4.90
   1  -4  -5   83.63    4.90
  -1  -4   5   82.60    4.90
  -1  -4   5   88.19    4.95
   1  -4  -5   77.67    4.95
   1  -4  -5   83.07    4.91
   1   4  -5   92.62    5.03
  -1   4   5   83.72    4.97
  -1   4   5   89.53    5.01
  -1   4   5   95.11    4.93
  -1   4   5   96.25    4.90
   1   4  -5   87.14    4.91
  -1   4   5   90.88    4.97
   0  -4  -5   45.38    2.50
   0  -4  -5   41.12    2.56
   0  -4   5   45.67    2.56
   0  -4   5   43.36    2.52
   0  -4  -5   47.40    2.54
   0  -4  -5   44.55    2.53
   0   4   5   46.27    2.52
   0   4   5   44.98    2.75
   0   4  -5   43.17    2.51
   0   4  -5   39.02    2.65
   0   4   5   42.90    2.60
   0   4   5   46.19    2.56
   0   4  -5   43.23    2.67
  -1  -4  -5    8.95    0.57
  -1  -4  -5    8.75    0.62
   1   4   5    6.70    0.57
   1   4   5    6.75    0.64
   1   4   5    6.94    0.51
   1   4   5    6.13    0.81
  -1   4  -5    7.10    0.72
  -2  -4  -5    1.38    0.27
  -2  -4  -5    1.13    0.24
   2  -4   5    1.21    0.24
  -2  -4  -5    0.94    0.23
  -2   4  -5    0.76    0.27
   2   4   5    0.89    0.26
   2   4   5    0.83    0.25
   2   4   5    1.29    0.24
   2   4   5    1.09    0.50
  -2   4  -5    0.96    0.46
   3  -4   5   12.95    0.84
  -3  -4  -5   13.91    0.86
  -3  -4  -5   13.24    0.85
   3   4   5   10.82    0.99
  -3   4  -5   10.57    1.01
   3   4   5   10.99    0.79
   4  -4   5    4.08    0.48
  -4  -4  -5    4.23    0.46
   4   4   5    4.64    0.43
  -4   4  -5    4.96    0.66
   4   4   5    3.24    0.65
   5  -4   5    6.00    0.51
   5  -4   5    5.56    0.71
  -5  -4  -5    6.09    0.47
   5   4   5    4.75    0.49
   5   4   5    5.03    0.55
  -6  -4  -5   34.85    1.94
   6  -4   5   33.89    1.96
  -6  -4  -5   32.36    1.94
   6   4   5   35.29    1.99
  -6  -5   5    2.23    0.50
   6  -5  -5    3.88    0.34
  -6   5   5    3.14    0.57
   6   5  -5    3.17    0.35
  -6   5   5    2.74    0.38
  -5  -5   5   18.02    1.11
  -5  -5   5   18.11    1.32
   5  -5  -5   19.24    1.16
   5  -5  -5   17.33    1.13
  -5   5   5   17.73    1.26
  -5   5   5   17.29    1.20
   5   5  -5   17.82    1.14
  -5   5   5   17.21    1.16
   4  -5  -5   34.87    2.03
  -4  -5   5   37.28    2.07
  -4  -5   5   31.69    2.29
   4  -5  -5   31.98    2.14
   4  -5  -5   35.29    2.07
  -4  -5   5   35.45    2.03
   4  -5  -5   36.93    2.09
   4   5  -5   35.68    2.08
   4   5  -5   33.72    2.13
  -4   5   5   32.67    2.13
  -4   5   5   34.92    2.22
  -3  -5   5    1.69    0.41
   3  -5  -5    1.52    0.61
  -3  -5   5    1.77    0.48
   3  -5  -5    1.51    0.38
   3  -5  -5    1.27    0.23
   3  -5  -5    1.58    0.34
  -3  -5   5    1.28    0.33
   2  -5  -5   15.66    0.99
  -2  -5   5   15.61    0.97
   2  -5  -5   15.59    0.98
   2  -5  -5   14.78    0.98
   2  -5  -5   15.14    0.94
  -2  -5   5   15.93    1.03
  -2   5   5   14.08    1.10
   2   5  -5   13.69    0.97
  -2   5   5   14.45    0.98
  -2   5   5   14.63    1.11
   2   5  -5   13.41    1.11
   2   5  -5   15.27    1.11
  -1  -5   5    0.90    0.34
   1  -5  -5    0.72    0.16
  -1  -5   5    0.62    0.18
  -1  -5   5    0.59    0.27
   1  -5  -5    0.97    0.36
   1  -5  -5    0.78    0.19
   1   5  -5    0.88    0.21
  -1   5   5    0.89    0.26
   1   5  -5    1.02    0.32
  -1   5   5    0.95    0.29
   0  -5  -5   25.20    1.48
   0  -5   5   24.13    1.60
   0  -5   5   25.00    1.49
   0  -5  -5   24.97    1.52
   0  -5  -5   22.93    1.55
   0  -5  -5   25.29    1.51
   0   5   5   25.63    1.61
   0   5  -5   25.51    1.61
   0   5  -5   25.75    1.49
   0   5   5   25.65    1.50
   0   5   5   25.99    1.58
   0   5   5   25.28    1.54
   0   5  -5   25.50    1.65
   0   5   5   24.90    1.58
   1  -5   5    8.41    0.63
  -1  -5  -5    8.15    0.66
  -1  -5  -5    8.67    0.68
  -1  -5  -5    8.85    0.67
   1   5   5    9.00    0.74
   1   5   5    9.07    0.77
   1   5   5    9.64    0.74
  -1   5  -5    9.27    1.54
  -1   5  -5    8.96    0.63
   1   5   5    9.79    0.64
  -2  -5  -5   30.41    1.86
  -2  -5  -5   32.26    1.82
   2  -5   5   32.94    1.82
  -2  -5  -5   31.01    1.84
  -2   5  -5   30.59    1.95
   2   5   5   30.51    1.91
   2   5   5   30.61    1.93
  -2   5  -5   29.20    2.04
   2   5   5   30.28    1.90
   2   5   5   30.05    1.81
  -3  -5  -5   17.52    1.09
  -3  -5  -5   17.76    1.06
   3  -5   5   16.89    1.06
  -3   5  -5   16.04    1.26
   3   5   5   15.49    1.23
   3   5   5   15.08    1.26
   3   5   5   16.81    1.14
   3   5   5   15.39    1.04
   4  -5   5   16.17    1.25
  -4  -5  -5   18.58    1.11
   4  -5   5   18.90    1.11
   4   5   5   14.92    1.15
  -5  -5  -5    1.89    0.29
   5  -5   5    1.78    0.37
  -5  -5  -5    1.63    0.29
   5  -6  -5    5.12    0.43
  -5  -6   5    4.85    0.38
  -5   6   5    4.47    0.52
   5   6  -5    4.50    0.40
  -5   6   5    4.40    0.42
  -4  -6   5    8.77    0.61
  -4  -6   5    7.80    0.63
   4  -6  -5    8.28    0.63
   4  -6  -5    8.48    0.63
   4  -6  -5    8.83    0.65
  -4   6   5    7.00    0.74
   4   6  -5    6.88    0.59
  -3  -6   5    2.14    0.33
   3  -6  -5    2.41    0.39
  -3  -6   5    1.39    0.72
  -3  -6   5    2.60    0.39
   3  -6  -5    2.66    0.38
   3  -6  -5    3.07    0.71
   3  -6  -5    2.38    0.35
   3   6  -5    2.52    0.58
  -3   6   5    1.81    0.52
  -3   6   5    2.27    0.59
   3   6  -5    1.62    0.34
   2  -6  -5   50.21    2.91
  -2  -6   5   50.14    2.94
   2  -6  -5   49.13    2.94
   2  -6  -5   47.55    2.98
   2  -6  -5   47.23    3.08
  -2  -6   5   49.23    3.21
  -2  -6   5   52.07    2.93
   2  -6  -5   49.46    2.93
  -2   6   5   52.74    3.05
   2   6  -5   53.64    2.93
  -2   6   5   54.15    3.11
   2   6  -5   53.71    3.00
   1  -6  -5   34.53    2.22
   1  -6  -5   35.67    2.18
   1  -6  -5   32.97    2.26
  -1  -6   5   34.87    2.19
  -1  -6   5   35.27    2.73
   1  -6  -5   35.47    2.18
  -1  -6   5   35.91    2.17
   1  -6  -5   33.46    2.14
  -1   6   5   39.84    2.24
  -1   6   5   39.00    2.28
   1   6  -5   40.77    2.27
   1   6  -5   40.09    2.31
  -1   6   5   38.81    2.22
   1   6  -5   41.27    2.17
  -1   6   5   38.33    2.31
   0  -6  -5   41.39    2.28
   0  -6  -5   41.38    2.29
   0  -6  -5   39.45    2.33
   0  -6  -5   40.14    2.35
   0  -6   5   39.68    2.31
   0  -6  -5   39.76    2.25
   0  -6   5   41.79    2.28
   0   6   5   37.13    2.33
   0   6   5   36.49    2.35
   0   6   5   37.82    2.39
   0   6  -5   37.27    2.36
   0   6  -5   38.01    2.26
   0   6  -5   38.02    2.39
   0   6   5   37.24    2.33
  -1  -6  -5   11.28    0.77
   1  -6   5   12.00    0.85
  -1   6  -5    8.48    0.81
   1   6   5    8.29    0.76
   1   6   5    8.89    0.77
   1   6   5    8.59    0.79
   1   6   5    8.25    0.81
  -2  -6  -5    0.65    0.28
  -2  -6  -5    0.25    0.37
   2  -6   5    0.00    0.18
  -2  -6  -5    0.27    0.26
   2  -6   5    0.42    0.36
  -2  -6  -5    0.23    0.19
   2   6   5    0.24    0.22
  -2   6  -5    0.30    0.27
   2   6   5    0.13    0.27
   2   6   5    0.55    0.40
  -3  -6  -5   65.49    3.82
   3  -6   5   63.68    3.87
  -3  -6  -5   68.42    3.85
  -3  -6  -5   65.40    3.90
   3  -6   5   66.15    3.82
  -3   6  -5   65.58    3.95
   3   6   5   69.17    3.90
   3   6   5   73.34    3.91
   4  -6   5    2.05    0.50
   4  -6   5    2.67    0.37
  -4  -6  -5    2.30    0.41
  -4  -6  -5    2.96    0.37
   4   6   5    3.60    0.60
   4   6   5    2.64    0.40
  -5  -6  -5    2.34    0.36
   5  -6   5    3.10    0.40
   5   6   5    3.27    0.42
   5  -7  -5    6.68    0.47
  -5   7   5    6.47    0.55
   5   7  -5    6.70    0.44
   4  -7  -5    4.60    0.41
  -4  -7   5    4.80    0.37
   4  -7  -5    4.32    0.52
   4   7  -5    4.39    0.37
  -4   7   5    3.84    0.49
   3  -7  -5   11.66    0.77
   3  -7  -5   10.54    0.81
   3  -7  -5   11.91    0.77
  -3  -7   5   12.38    0.76
  -3  -7   5   11.71    0.74
   3   7  -5    9.47    0.89
  -3   7   5   10.93    0.90
   3   7  -5    9.86    0.73
   2  -7  -5    9.94    0.78
   2  -7  -5   11.35    0.83
   2  -7  -5    9.61    0.77
  -2  -7   5    9.63    0.72
  -2   7   5   12.73    1.11
   2   7  -5   10.61    0.87
   2   7  -5   11.29    0.76
   1  -7  -5   49.19    2.78
  -1  -7   5   50.12    2.77
   1  -7  -5   49.77    2.78
  -1  -7   5   48.63    2.78
   1  -7  -5   50.83    2.95
   1  -7  -5   46.89    2.75
  -1   7   5   46.95    2.90
   1   7  -5   46.64    2.75
   1   7  -5   45.63    2.84
  -1   7   5   44.91    2.85
   0  -7  -5    7.42    0.55
   0  -7  -5    7.72    0.74
   0  -7  -5    7.13    0.55
   0  -7   5    7.39    0.55
   0  -7   5    7.19    0.60
   0  -7  -5    6.83    0.89
   0   7   5    6.24    0.63
   0   7  -5    6.44    0.69
   0   7   5    6.23    0.61
   0   7  -5    6.03    0.53
   0   7   5    6.29    0.70
  -1  -7  -5    0.64    0.18
   1  -7   5    0.44    0.19
  -1  -7  -5    0.72    0.29
  -1   7  -5    0.33    0.28
   1   7   5    0.47    0.21
   1   7   5    0.45    0.33
   1   7   5    0.51    0.22
   2  -7   5    0.83    0.20
   2  -7   5    1.02    0.27
   2  -7   5    0.98    0.33
  -2  -7  -5    0.75    0.28
  -2  -7  -5    0.83    0.19
  -2  -7  -5    0.84    0.26
   2   7   5    1.49    0.38
  -2   7  -5    1.59    0.45
  -3  -7  -5   14.08    0.91
   3  -7   5   13.67    1.02
   3  -7   5   13.72    0.89
   3   7   5   13.14    0.93
   3   7   5   14.02    0.94
  -4  -7  -5    7.66    0.55
   4  -7   5    6.56    0.53
   4   7   5    6.96    0.52
   4   7   5    5.40    0.69
   3  -8  -5    9.21    0.61
  -3  -8   5    9.02    0.58
   3  -8  -5    8.26    0.67
   3   8  -5    8.88    0.58
  -3   8   5    8.93    0.79
   2  -8  -5   28.50    1.74
   2  -8  -5   27.82    1.74
  -2  -8   5   29.33    1.74
   2   8  -5   31.13    1.72
   2   8  -5   30.16    1.90
  -2   8   5   31.33    1.83
  -2   8   5   30.42    1.84
   1  -8  -5    8.19    0.58
  -1  -8   5    7.22    0.58
  -1  -8   5    8.37    0.58
   1  -8  -5    8.27    0.59
   1   8  -5    8.47    0.56
  -1   8   5    8.46    0.75
   1   8  -5    8.27    0.72
  -1   8   5    8.45    0.68
   0  -8   5    7.11    0.57
   0  -8  -5    7.34    0.54
   0  -8  -5    7.64    0.55
   0  -8  -5    7.98    0.80
   0  -8   5    7.66    0.54
   0   8   5    7.70    0.77
   0   8   5    6.96    0.62
   0   8  -5    7.27    0.68
  -1  -8  -5    7.47    0.65
   1  -8   5    7.71    0.52
  -1  -8  -5    7.48    0.51
  -1  -8  -5    7.17    0.51
   1  -8   5    6.85    0.57
   1   8   5    6.02    0.57
   1   8   5    5.96    0.54
   1   8   5    5.96    0.85
  -1   8  -5    5.82    0.62
   2  -8   5    2.30    0.53
   2  -8   5    2.05    0.32
   2  -8   5    2.21    0.42
  -2  -8  -5    1.64    0.33
  -2  -8  -5    2.50    0.43
   2   8   5    2.09    0.36
   2   8   5    2.61    0.35
  -3  -8  -5   13.98    0.92
   3  -8   5   13.86    1.01
   3   8   5   16.23    0.93
   3   8   5   14.51    0.94
   2  -9  -5    1.38    0.27
  -2  -9   5    1.22    0.24
  -1  -9   5    3.09    0.31
  -1  -9   5    2.79    0.27
   1  -9  -5    2.40    0.32
   1  -9  -5    3.04    0.28
   0  -9   5    0.96    0.20
   0  -9  -5    0.93    0.22
   0  -9   5    0.70    0.22
   0  -9  -5    0.83    0.21
   0   9   5    1.41    0.33
   1   9   5    0.23    0.19
   7   0  -6    2.20    0.44
   7   0  -6    1.56    0.50
  -7   0   6    1.62    0.34
  -7   0   6    1.47    0.38
   6   0  -6   12.85    0.99
  -6   0   6   10.17    1.10
  -6   0   6   11.83    1.00
   5   0  -6   23.91    1.48
  -5   0   6   23.50    1.61
   5   0  -6   23.37    1.61
  -5   0   6   23.51    1.50
   5   0  -6   24.11    1.50
  -5   0   6   24.51    1.58
   4   0  -6   -0.02    0.41
   4   0  -6    0.52    0.37
   4   0  -6    0.41    0.21
  -4   0   6    0.17    0.19
  -4   0   6    0.05    0.17
   4   0  -6    0.09    0.13
   4   0  -6   -0.05    0.22
  -4   0   6   -0.27    0.45
  -4   0   6   -0.02    0.40
   3   0  -6  132.46    7.28
  -3   0   6  131.46    7.29
   3   0  -6  129.25    7.37
  -3   0   6  130.24    7.31
  -2   0   6    1.96    0.23
  -2   0   6    1.86    0.27
   2   0  -6    2.60    0.19
  -1   0   6   86.33    4.81
   0   0   6   61.11    3.39
   1   0   6    9.49    0.59
   2   0   6    0.78    0.24
  -3   0  -6   13.66    0.95
  -3   0  -6   13.09    0.88
   3   0   6   13.63    0.87
   4   0   6    0.68    0.55
  -4   0  -6    0.25    0.26
  -4   0  -6    0.14    0.20
   4   0   6    0.22    0.17
   5   0   6   40.03    2.33
   5   0   6   39.83    2.38
  -5   0  -6   39.22    2.29
  -5   0  -6   40.22    2.38
  -6   0  -6    0.24    0.23
   6   0   6    0.10    0.17
  -6   0  -6    0.15    0.24
   6   0   6    0.24    0.24
   7  -1  -6    7.82    0.55
  -7  -1   6    6.90    0.61
  -7  -1   6    8.01    0.60
  -7   1   6    7.80    0.59
  -7   1   6    7.80    0.57
   7   1  -6    7.16    0.56
   7   1  -6    6.94    0.75
  -6  -1   6   44.81    2.78
   6  -1  -6   43.92    2.84
   6  -1  -6   48.28    2.82
  -6  -1   6   44.62    2.79
  -6   1   6   52.07    2.85
  -6   1   6   47.29    2.80
   6   1  -6   47.51    2.80
   6   1  -6   48.19    2.73
  -5  -1   6    9.10    0.77
   5  -1  -6    9.39    0.94
   5  -1  -6    8.92    0.68
   5  -1  -6    8.19    0.72
  -5  -1   6    8.46    0.89
  -5  -1   6    8.44    0.79
   5  -1  -6    9.37    0.73
   5   1  -6    9.58    0.72
  -5   1   6    8.18    1.07
   5   1  -6    8.17    0.71
  -5   1   6    9.04    0.85
   5   1  -6    9.34    0.83
  -5   1   6    9.47    0.80
  -5   1   6    8.85    0.73
  -4  -1   6   23.53    1.40
   4  -1  -6   22.60    1.43
   4  -1  -6   23.17    1.39
   4  -1  -6   22.58    1.37
   4  -1  -6   20.26    1.51
  -4  -1   6   22.91    1.44
   4  -1  -6   23.31    1.55
  -4  -1   6   21.46    1.53
  -4  -1   6   23.57    1.67
  -4   1   6   23.06    1.62
   4   1  -6   24.38    1.54
   4   1  -6   23.41    1.44
   4   1  -6   23.82    1.38
  -4   1   6   23.76    1.41
  -4   1   6   22.88    1.40
  -4   1   6   22.68    1.70
   4   1  -6   23.41    1.50
   3  -1  -6    7.36    0.81
   3  -1  -6    7.69    0.51
   3  -1  -6    7.92    0.63
  -3   1   6    5.85    0.48
   3   1  -6    5.86    0.44
   3   1  -6    6.62    0.60
  -3   1   6    5.95    0.50
  -2  -1   6   43.62    2.78
  -2  -1   6   47.77    2.80
   2  -1  -6   48.34    2.76
   2   1  -6   53.69    2.74
   2   1  -6   46.21    2.79
  -2   1   6   55.29    2.80
   1  -1  -6  244.47   14.03
   1  -1  -6  267.95   14.05
  -1   1   6  249.53   14.04
   0   1   6   23.56    1.35
   1   1   6  144.17    8.00
   2   1   6  264.53   15.12
   2   1   6  282.47   15.16
   3  -1   6   25.18    1.63
  -3  -1  -6   28.16    1.67
  -3  -1  -6   27.50    1.62
   3   1   6   29.09    1.61
   3   1   6   26.17    1.76
   3   1   6   29.85    1.78
  -3   1  -6   25.14    1.61
  -3   1  -6   27.70    1.70
  -4  -1  -6    3.64    0.50
  -4   1  -6    4.87    0.46
   4   1   6    5.23    0.44
  -4   1  -6    5.06    0.56
   4   1   6    4.71    0.65
   4   1   6    3.84    0.98
   5  -1   6   10.86    0.76
  -5  -1  -6   10.72    0.82
   5  -1   6   10.04    0.90
  -5  -1  -6   10.56    0.72
  -5   1  -6   11.08    0.81
   5   1   6   10.71    0.83
  -5   1  -6   10.75    0.81
   5   1   6   10.79    0.74
  -5   1  -6   10.41    0.72
  -6  -1  -6   15.64    1.01
   6  -1   6   16.76    1.02
  -6  -1  -6   15.91    0.97
   6  -1   6   15.37    1.06
   6   1   6   16.44    1.04
   6   1   6   17.23    1.02
  -6   1  -6   16.78    1.04
   7  -2  -6    1.42    0.29
  -7   2   6    1.36    0.27
   7   2  -6    1.03    0.34
  -7   2   6    1.69    0.33
   6  -2  -6    1.07    0.60
   6  -2  -6    0.84    0.23
  -6  -2   6    0.33    0.35
  -6  -2   6    0.93    0.40
  -6  -2   6    0.92    0.24
  -6   2   6    0.67    0.27
   6   2  -6    0.53    0.24
  -6   2   6    0.56    0.26
   6   2  -6    0.67    0.30
  -5  -2   6   14.02    0.92
  -5  -2   6   13.45    1.07
   5  -2  -6   13.06    1.13
  -5  -2   6   13.48    1.00
   5  -2  -6   14.32    0.93
   5  -2  -6   13.67    0.86
   5  -2  -6   13.67    0.94
  -5  -2   6   13.72    1.01
   5   2  -6   11.80    0.89
  -5   2   6   11.56    1.12
   5   2  -6   12.24    0.98
  -5   2   6   11.16    0.97
  -5   2   6   10.21    0.97
   5   2  -6   10.41    0.89
  -4  -2   6   12.18    1.06
  -4  -2   6   13.10    0.92
   4  -2  -6   13.49    0.86
   4  -2  -6   12.65    1.14
  -4  -2   6   15.39    1.21
  -4  -2   6   12.85    0.85
   4  -2  -6   12.87    0.83
   4  -2  -6   13.29    0.97
   4  -2  -6   13.39    0.91
  -4   2   6   12.31    1.04
   4   2  -6   11.88    0.94
   4   2  -6   10.92    1.18
  -4   2   6   11.87    0.84
   4   2  -6   11.13    0.81
  -3  -2   6   49.24    2.96
  -3  -2   6   50.55    3.01
   3  -2  -6   46.22    2.98
   3  -2  -6   45.96    2.99
   3  -2  -6   43.63    3.07
   3  -2  -6   49.98    2.96
   3   2  -6   55.19    3.03
   3   2  -6   53.84    3.01
   3   2  -6   58.40    3.02
  -3   2   6   55.55    3.14
   3   2  -6   53.03    3.13
   3   2  -6   57.12    2.93
  -3   2   6   58.25    2.99
  -2  -2   6   37.72    2.37
  -2  -2   6   41.14    2.40
   2  -2  -6   41.30    2.36
  -2   2   6   42.99    2.37
  -2   2   6   45.10    2.40
   1  -2  -6  175.04    9.31
  -1  -2   6  166.57    9.32
  -1   2   6  162.82    9.33
   0  -2  -6   85.50    5.07
   0  -2  -6   96.46    5.06
   0   2   6   95.60    5.09
   0   2   6   86.68    5.07
   1   2   6   52.80    3.02
   1   2   6   54.80    3.06
  -2  -2  -6   82.98    4.90
  -2  -2  -6   82.04    4.93
   2   2   6   93.38    4.89
   2   2   6   91.08    4.94
   3  -2   6   38.00    2.20
  -3  -2  -6   39.64    2.24
  -3  -2  -6   39.49    2.19
   3   2   6   38.28    2.29
  -3   2  -6   38.54    2.34
  -3   2  -6   33.69    2.16
  -3   2  -6   35.67    2.27
   3   2   6   36.70    2.24
   3   2   6   38.64    2.17
  -4  -2  -6   10.39    0.75
   4  -2   6   11.37    0.78
  -4  -2  -6   10.73    0.81
   4   2   6    9.39    1.14
   4   2   6   10.92    0.83
  -4   2  -6   10.43    0.74
  -4   2  -6   11.57    0.86
   5  -2   6   17.79    1.14
  -5  -2  -6   18.42    1.12
   5  -2   6   17.24    1.47
  -5  -2  -6   17.59    1.17
   5   2   6   18.05    1.12
   5   2   6   18.21    1.16
  -5   2  -6   17.51    1.18
   6  -2   6    0.68    0.20
  -6  -2  -6    1.04    0.21
   6  -2   6    1.40    0.34
  -6  -2  -6    0.74    0.18
   6   2   6    0.76    0.20
   6   2   6    0.89    0.21
   7  -3  -6   18.86    1.04
  -7   3   6   17.58    1.05
   7   3  -6   17.08    1.11
  -7   3   6   16.85    1.06
   6  -3  -6   25.64    1.53
  -6  -3   6   24.15    1.61
  -6  -3   6   24.23    1.51
  -6   3   6   24.48    1.65
  -6   3   6   26.49    1.59
  -6   3   6   26.58    1.58
   6   3  -6   25.95    1.57
   5  -3  -6   16.75    1.09
  -5  -3   6   16.15    1.30
  -5  -3   6   17.12    1.28
   5  -3  -6   17.66    1.15
   5  -3  -6   17.92    1.40
   5  -3  -6   16.27    1.21
  -5  -3   6   16.48    1.12
   5   3  -6   17.18    1.11
   5   3  -6   18.68    1.19
  -5   3   6   17.62    1.21
  -5   3   6   18.57    1.35
  -5   3   6   16.70    1.20
   4  -3  -6   51.64    2.89
  -4  -3   6   52.50    2.91
   4  -3  -6   53.76    2.95
   4  -3  -6   52.16    2.92
  -4  -3   6   46.23    3.10
   4  -3  -6   52.00    3.09
   4  -3  -6   52.93    2.94
  -4  -3   6   51.64    3.01
   4   3  -6   47.82    3.01
  -4   3   6   48.96    2.90
   4   3  -6   46.91    2.90
  -4   3   6   49.94    3.02
  -4   3   6   49.51    3.08
   4   3  -6   49.22    2.96
   3  -3  -6   14.50    0.93
   3  -3  -6   12.78    1.10
   3  -3  -6   14.45    0.88
   3  -3  -6   15.26    0.93
   3  -3  -6   15.29    0.89
  -3  -3   6   14.94    0.90
  -3  -3   6   14.30    0.98
  -3   3   6   11.77    1.28
  -3   3   6   12.53    1.08
   3   3  -6   13.21    0.94
   3   3  -6   13.23    1.05
  -3   3   6   12.13    0.92
  -3   3   6   13.25    0.89
  -2  -3   6   53.50    3.12
   2  -3  -6   51.78    3.21
   2  -3  -6   52.76    3.13
   2  -3  -6   55.01    3.10
  -2  -3   6   56.99    3.17
   2  -3  -6   52.14    3.13
   2  -3  -6   57.30    3.11
   2   3  -6   56.97    3.17
   2   3  -6   54.19    3.14
  -2   3   6   58.20    3.14
   2   3  -6   57.18    3.25
  -2   3   6   52.64    3.23
  -2   3   6   55.43    3.11
   1  -3  -6  124.35    7.10
  -1  -3   6  124.92    7.12
  -1  -3   6  112.42    7.10
  -1   3   6  139.36    7.10
  -1   3   6  137.50    7.13
   0  -3  -6   95.49    5.28
   0   3   6   96.90    5.32
   0   3   6   91.73    5.28
  -1  -3  -6   18.75    1.12
   1   3   6   17.35    1.26
   1   3   6   17.74    1.07
   2   3   6    3.76    0.47
   2   3   6    4.16    0.35
   2   3   6    3.64    0.47
  -2   3  -6    4.46    0.82
   3  -3   6   19.07    1.33
  -3  -3  -6   20.10    1.32
   3   3   6   23.59    1.49
   3   3   6   23.71    1.31
   3   3   6   23.34    1.36
  -3   3  -6   18.63    1.74
   4  -3   6   76.58    4.54
  -4  -3  -6   79.09    4.55
   4   3   6   77.54    4.74
   4   3   6   83.48    4.54
   4   3   6   83.81    4.57
  -4   3  -6   80.94    4.59
   5  -3   6    1.73    0.45
   5  -3   6    0.87    0.23
  -5   3  -6    1.04    0.37
   5   3   6    0.81    0.20
   5   3   6    0.74    0.25
  -6  -3  -6    7.93    0.55
   6  -3   6    8.27    0.58
  -6  -3  -6    7.18    0.53
   6   3   6    9.23    0.63
  -6  -4   6    0.26    0.19
   6  -4  -6    0.34    0.18
  -6  -4   6    0.10    0.63
  -6   4   6    0.12    0.25
  -6   4   6    0.29    0.22
   6   4  -6    0.52    0.23
  -6   4   6    0.40    0.19
   5  -4  -6    6.99    0.63
   5  -4  -6    6.43    1.30
  -5  -4   6    6.39    0.99
  -5  -4   6    7.34    0.63
   5  -4  -6    7.74    0.65
  -5  -4   6    7.55    0.91
   5   4  -6    8.97    0.71
   4  -4  -6   20.51    1.28
   4  -4  -6   19.61    1.54
   4  -4  -6   21.24    1.29
  -4  -4   6   20.02    1.44
   4  -4  -6   19.19    1.30
   4  -4  -6   19.01    1.22
  -4  -4   6   20.26    1.24
   4   4  -6   19.24    1.28
  -4   4   6   19.13    1.42
  -4   4   6   19.16    1.38
   3  -4  -6    6.17    0.54
  -3  -4   6    6.56    0.51
   3  -4  -6    6.64    0.52
   3  -4  -6    6.01    0.49
  -3  -4   6    6.29    0.70
   3  -4  -6    5.86    1.15
  -3   4   6    4.80    0.70
   3   4  -6    5.19    0.53
   3   4  -6    5.25    0.64
   2  -4  -6   60.18    3.60
   2  -4  -6   62.35    3.58
  -2  -4   6   60.37    3.59
   2  -4  -6   59.46    3.59
   2  -4  -6   59.87    3.68
   2  -4  -6   59.95    3.60
  -2   4   6   68.67    3.62
   2   4  -6   68.87    3.73
   2   4  -6   64.22    3.60
  -2   4   6   63.63    3.58
  -2   4   6   65.89    3.72
  -2   4   6   64.60    3.72
   2   4  -6   65.27    3.63
   1  -4  -6    9.88    0.69
   1  -4  -6   10.42    0.66
   1  -4  -6    9.45    0.71
  -1  -4   6   10.29    0.80
   1  -4  -6    9.25    0.76
  -1   4   6   10.36    0.67
  -1   4   6    9.48    0.85
  -1   4   6    9.81    0.69
   1   4  -6    9.71    0.85
  -1   4   6    9.28    0.85
   1   4  -6    9.44    0.68
  -1   4   6   10.29    0.80
   0  -4  -6   49.29    2.89
   0  -4  -6   52.02    2.87
   0  -4  -6   49.80    2.84
   0  -4  -6   51.50    2.88
   0  -4  -6   54.14    2.87
   0  -4   6   49.62    2.87
   0   4  -6   48.21    2.84
   0   4  -6   48.65    2.98
   0   4   6   48.38    2.96
   0   4   6   48.31    2.94
   0   4   6   51.30    2.85
   0   4   6   51.26    2.90
   0   4  -6   49.81    3.00
  -1  -4  -6   16.41    1.06
  -1  -4  -6   17.77    1.04
  -1  -4  -6   16.29    1.10
  -1  -4  -6   16.58    1.01
  -1   4  -6   14.60    1.43
   1   4   6   17.38    1.01
   1   4   6   15.52    1.11
  -1   4  -6   17.00    1.20
   1   4   6   17.45    1.09
   1   4   6   15.60    1.28
  -2  -4  -6   36.61    2.11
   2  -4   6   33.24    2.12
  -2  -4  -6   38.38    2.09
  -2   4  -6   36.90    2.26
   2   4   6   37.84    2.23
   2   4   6   37.24    2.11
  -2   4  -6   34.44    2.32
   3  -4   6  138.71    8.19
  -3  -4  -6  143.51    8.22
   3   4   6  159.24    8.47
  -3   4  -6  145.01    8.34
   3   4   6  147.13    8.19
   3   4   6  147.74    8.29
   4  -4   6    9.29    0.66
  -4  -4  -6    8.80    0.63
   4   4   6    7.67    0.72
  -4   4  -6    7.51    0.80
   4   4   6    5.81    1.20
   4   4   6    7.63    0.60
   5  -4   6    6.66    0.58
   5   4   6    7.49    0.57
   5   4   6    8.31    0.64
  -6  -4  -6    0.38    0.14
  -6  -4  -6    0.03    0.10
   6   4   6    0.19    0.19
   6  -5  -6    6.17    0.50
  -6  -5   6    5.08    0.46
  -6   5   6    6.05    0.56
   6   5  -6    6.52    0.46
  -5  -5   6   12.16    0.81
   5  -5  -6   12.73    0.85
   5   5  -6   11.70    0.83
  -5   5   6   12.37    0.91
  -5   5   6   12.11    0.96
  -4  -5   6   14.07    1.50
  -4  -5   6   16.59    1.03
   4  -5  -6   13.48    1.36
  -4  -5   6   14.85    0.98
   4  -5  -6   15.65    1.02
   4  -5  -6   15.37    0.99
   4  -5  -6   15.83    1.02
   4  -5  -6   14.85    1.16
  -4   5   6   14.98    1.16
  -4   5   6   14.38    1.15
   4   5  -6   14.97    1.02
  -3  -5   6    3.91    0.83
  -3  -5   6    3.15    0.40
   3  -5  -6    2.93    0.50
   3  -5  -6    2.64    0.58
   3  -5  -6    3.18    0.43
   3  -5  -6    3.68    0.42
   3  -5  -6    2.97    0.40
  -3  -5   6    3.71    0.49
   3   5  -6    3.35    0.54
  -3   5   6    3.63    0.71
   3   5  -6    3.17    0.43
   3   5  -6    3.02    0.65
  -3   5   6    2.81    0.59
  -3   5   6    3.36    0.70
   2  -5  -6    5.06    0.46
  -2  -5   6    5.76    0.59
  -2  -5   6    5.54    0.48
   2  -5  -6    4.56    0.49
   2  -5  -6    4.80    0.47
   2  -5  -6    5.03    0.49
   2  -5  -6    5.16    0.74
   2   5  -6    5.46    0.62
  -2   5   6    4.77    0.61
   2   5  -6    4.87    0.47
  -2   5   6    4.71    0.68
   2   5  -6    5.02    0.70
  -2   5   6    5.59    0.53
   1  -5  -6   37.42    2.40
   1  -5  -6   40.59    2.28
  -1  -5   6   41.10    2.28
  -1  -5   6   39.16    2.33
   1  -5  -6   39.65    2.29
   1  -5  -6   39.23    2.25
  -1  -5   6   40.34    2.42
   1  -5  -6   40.84    2.28
  -1   5   6   38.12    2.30
  -1   5   6   38.01    2.39
   1   5  -6   38.57    2.39
   1   5  -6   38.85    2.26
   1   5  -6   36.88    2.35
  -1   5   6   37.56    2.26
   0  -5  -6    8.47    0.66
   0  -5  -6    9.80    0.82
   0  -5   6    9.30    0.67
   0  -5  -6    9.73    0.81
   0  -5  -6    9.61    0.68
   0  -5  -6    9.17    0.75
   0   5  -6    9.05    0.84
   0   5  -6    9.06    0.92
   0   5   6    9.52    0.81
   0   5   6    9.06    0.73
   0   5  -6    9.63    0.64
   0   5   6    9.33    0.66
  -1  -5  -6    6.42    0.58
  -1  -5  -6    6.21    0.62
   1  -5   6    6.48    0.59
  -1  -5  -6    6.05    0.62
   1   5   6    8.90    0.57
   1   5   6    8.60    0.68
  -1   5  -6    8.50    1.00
   1   5   6    8.67    0.71
  -1   5  -6    8.88    0.78
  -2  -5  -6    1.34    0.28
  -2  -5  -6    1.39    0.30
  -2  -5  -6    1.98    0.36
   2  -5   6    2.03    0.38
   2   5   6    1.98    0.41
   2   5   6    2.65    0.68
  -2   5  -6    2.98    0.87
  -3  -5  -6   18.54    1.52
  -3  -5  -6   21.96    1.38
   3  -5   6   20.88    1.36
   3   5   6   22.41    1.36
   3   5   6   24.48    1.46
   3   5   6   22.50    1.62
  -3   5  -6   23.84    1.58
   3   5   6   21.93    1.61
   4  -5   6   50.29    2.95
  -4  -5  -6   50.98    2.98
   4   5   6   53.02    3.04
   4   5   6   51.36    2.94
  -5  -5  -6    1.31    0.26
  -5  -5  -6    1.31    0.22
   5  -5   6    1.44    0.34
   5   5   6    1.51    0.33
   5  -6  -6    0.24    0.17
   5   6  -6    0.28    0.15
  -5   6   6    0.45    0.19
  -5   6   6    0.30    0.21
   4  -6  -6    8.85    0.67
   4  -6  -6    9.37    0.68
   4  -6  -6    7.22    0.82
  -4  -6   6    8.89    0.66
  -4  -6   6    8.98    0.65
  -4   6   6    9.75    0.80
   4   6  -6    9.26    0.64
   3  -6  -6   34.66    2.05
   3  -6  -6   33.65    2.03
   3  -6  -6   34.36    2.05
  -3  -6   6   35.17    2.05
  -3  -6   6   36.04    2.03
   3  -6  -6   32.81    2.52
  -3   6   6   34.39    2.17
  -3   6   6   35.33    2.22
   3   6  -6   33.57    2.03
   2  -6  -6   23.02    1.61
  -2  -6   6   24.93    1.57
   2  -6  -6   23.99    1.70
   2  -6  -6   24.70    1.55
  -2  -6   6   21.92    2.03
   2  -6  -6   24.59    1.55
   2   6  -6   27.67    1.69
   2   6  -6   27.86    1.54
   2   6  -6   25.65    1.65
  -2   6   6   27.77    1.73
  -2   6   6   27.15    1.68
   1  -6  -6   27.59    1.78
   1  -6  -6   28.68    1.73
   1  -6  -6   26.36    1.70
  -1  -6   6   29.13    1.72
  -1  -6   6   28.46    1.75
   1  -6  -6   28.72    1.73
   1  -6  -6   27.33    1.80
  -1   6   6   29.47    1.79
  -1   6   6   28.67    1.82
   1   6  -6   29.86    1.70
   1   6  -6   29.96    1.83
  -1   6   6   29.01    1.86
  -1   6   6   28.68    1.79
   1   6  -6   30.43    1.86
   0  -6   6   48.63    2.67
   0  -6   6   44.94    2.70
   0  -6  -6   48.41    2.68
   0  -6  -6   46.43    2.72
   0  -6  -6   48.72    2.68
   0  -6  -6   44.70    2.72
   0   6   6   45.50    2.75
   0   6   6   45.15    2.79
   0   6  -6   45.40    2.64
   0   6   6   45.37    2.75
   0   6  -6   45.74    2.79
   0   6  -6   45.34    2.77
  -1  -6  -6    1.95    0.38
   1  -6   6    1.41    0.24
   1  -6   6    1.96    0.45
  -1  -6  -6    1.11    0.26
   1   6   6    1.08    0.38
   1   6   6    1.33    0.32
   1   6   6    1.75    0.45
  -1   6  -6    1.00    0.33
   1   6   6    0.76    0.25
  -2  -6  -6    9.90    0.77
  -2  -6  -6    9.69    0.66
  -2  -6  -6    9.42    0.71
   2  -6   6    9.37    0.67
   2   6   6    9.36    0.77
   2   6   6    7.23    0.74
   2   6   6    8.14    0.98
  -2   6  -6    8.81    0.82
   2   6   6    8.42    0.78
   3  -6   6   35.19    2.07
  -3  -6  -6   31.06    2.17
  -3  -6  -6   34.20    2.09
  -3   6  -6   37.67    2.22
   3   6   6   38.77    2.17
  -4  -6  -6    1.56    0.30
  -4  -6  -6    1.53    0.29
   4  -6   6    2.05    0.36
   4   6   6    1.09    0.40
   4   6   6    1.84    0.36
  -5  -6  -6    7.27    0.49
   5   6   6    7.91    0.55
  -5   7   6    3.39    0.55
   4  -7  -6   11.58    0.76
   4  -7  -6   10.04    0.80
  -4  -7   6   11.60    0.74
  -4   7   6   12.00    0.86
   4   7  -6   12.47    0.73
  -3  -7   6   14.27    0.87
   3  -7  -6   13.58    0.88
  -3  -7   6   13.75    0.86
   3  -7  -6   13.83    0.87
   3   7  -6   12.24    0.83
  -3   7   6   12.02    0.99
   2  -7  -6    1.46    0.54
   2  -7  -6    0.94    0.23
  -2  -7   6    0.83    0.20
   2  -7  -6    0.81    0.19
  -2  -7   6    1.14    0.24
   2   7  -6    1.37    0.38
  -2   7   6    1.11    0.32
   1  -7  -6   17.79    1.11
   1  -7  -6   17.98    1.12
  -1  -7   6   18.24    1.11
   1  -7  -6   16.32    1.49
  -1  -7   6   16.19    1.15
  -1   7   6   17.94    1.27
   1   7  -6   17.80    1.09
  -1   7   6   17.91    1.22
   0  -7  -6    5.16    0.47
   0  -7   6    4.45    0.56
   0  -7  -6    4.99    0.46
   0  -7   6    5.33    0.46
   0  -7  -6    4.65    0.60
   0   7   6    5.14    0.56
   0   7   6    5.14    0.60
   0   7   6    4.46    0.53
   0   7  -6    4.94    0.65
   1  -7   6   14.15    0.93
  -1  -7  -6   13.53    1.04
   1  -7   6   13.58    1.00
  -1  -7  -6   14.36    0.97
   1   7   6   14.27    1.01
   1   7   6   15.75    1.16
   2  -7   6    3.07    0.38
   2  -7   6    2.88    0.47
  -2  -7  -6    3.10    0.40
   2  -7   6    3.69    0.61
  -2  -7  -6    3.30    0.42
   2   7   6    2.06    0.54
   2   7   6    2.63    0.48
  -3  -7  -6   28.71    1.78
   3  -7   6   28.94    1.87
   3   7   6   30.36    1.83
   3   7   6   33.12    1.83
  -4  -7  -6    0.25    0.13
   4   7   6   -0.07    0.14
   3  -8  -6   28.28    1.62
  -3  -8   6   28.18    1.62
   3  -8  -6   29.37    1.65
  -3   8   6   28.23    1.79
   3   8  -6   26.05    1.58
  -2  -8   6    2.66    0.30
  -2  -8   6    2.58    0.32
   2  -8  -6    2.91    0.30
   2  -8  -6    2.25    0.31
  -2   8   6    3.15    0.49
  -2   8   6    2.47    0.49
   1  -8  -6    8.88    0.63
  -1  -8   6    9.55    0.63
   1  -8  -6    8.87    0.97
  -1  -8   6    9.14    0.64
   1  -8  -6    9.19    0.62
  -1   8   6    8.89    0.72
   1   8  -6    8.85    0.79
  -1   8   6    9.11    0.79
   0  -8  -6    8.61    0.63
   0  -8  -6    8.38    0.81
   0  -8   6    8.66    0.66
   0  -8  -6    8.76    0.62
   0  -8   6    8.81    0.63
   0   8   6   11.03    0.73
   0   8  -6   10.34    0.80
  -1  -8  -6    4.94    0.44
   1  -8   6    5.36    0.44
   1  -8   6    5.51    0.56
  -1  -8  -6    4.97    0.42
  -1  -8  -6    5.25    0.54
   1   8   6    4.69    0.48
   1   8   6    4.24    0.74
  -2  -8  -6    0.00    0.22
   2  -8   6    0.07    0.18
   2   8   6   -0.01    0.17
   2   8   6    0.15    0.23
  -3  -8  -6    3.91    0.38
   3   8   6    3.88    0.38
  -1  -9   6   10.29    0.72
  -1  -9   6   11.42    0.67
   1  -9  -6   10.79    0.67
   0  -9   6    2.87    0.26
   0  -9  -6    2.30    0.29
   7   0  -7    7.50    0.74
  -7   0   7    8.21    0.62
  -7   0   7    8.02    0.59
   7   0  -7    6.17    0.56
   6   0  -7   47.38    2.84
   6   0  -7   48.14    2.76
  -6   0   7   48.60    2.83
  -6   0   7   46.57    2.84
  -5   0   7    5.71    0.66
   5   0  -7    4.95    0.71
  -5   0   7    5.16    0.75
  -5   0   7    4.22    0.60
   5   0  -7    4.76    0.54
   5   0  -7    5.35    0.53
   4   0  -7    5.36    0.68
   4   0  -7    5.51    0.44
  -4   0   7    5.62    0.51
   4   0  -7    5.29    0.66
  -4   0   7    5.44    0.80
  -4   0   7    5.57    0.50
   4   0  -7    5.25    0.54
  -4   0   7    5.35    0.94
   3   0  -7   17.58    1.18
  -3   0   7   18.09    1.10
  -3   0   7   19.23    1.12
   3   0  -7   17.24    1.18
   3   0  -7   18.62    1.05
   3   0  -7   17.10    1.18
   3   0  -7   16.32    1.16
  -2   0   7    6.97    0.51
  -2   0   7    7.44    0.51
   2   0  -7    7.44    0.44
  -1   0   7  182.32   10.10
   0   0   7   15.05    0.89
   1   0   7  339.44   18.73
   2   0   7    5.05    0.80
  -3   0  -7    1.99    0.42
  -3   0  -7    1.48    0.37
   4   0   7   49.13    2.91
  -4   0  -7   50.24    2.88
   4   0   7   50.73    2.82
  -4   0  -7   45.73    2.79
  -5   0  -7   16.81    1.10
   5   0   7   17.10    1.09
  -5   0  -7   16.79    1.14
   5   0   7   17.44    1.18
  -5   0  -7   17.20    1.04
   6   0   7    4.25    0.49
   6   0   7    4.69    0.40
  -6   0  -7    4.43    0.45
   7  -1  -7    5.50    0.87
   7  -1  -7    7.83    0.53
  -7  -1   7    7.19    0.60
   7   1  -7    5.85    0.64
  -7   1   7    7.00    0.54
  -7   1   7    7.15    0.56
   6  -1  -7   11.80    1.00
  -6  -1   7   12.88    0.92
  -6  -1   7   13.42    0.97
   6  -1  -7   12.52    0.84
  -6   1   7   11.09    0.94
   6   1  -7   11.30    0.93
   6   1  -7   11.49    0.83
  -6   1   7   12.04    0.90
   5  -1  -7   69.94    4.19
   5  -1  -7   66.73    4.08
   5  -1  -7   66.94    4.16
  -5  -1   7   70.27    4.20
  -5  -1   7   69.48    4.15
  -5  -1   7   67.64    4.06
  -5  -1   7   67.27    4.13
   5  -1  -7   69.98    4.09
  -5   1   7   74.67    4.21
   5   1  -7   77.65    4.18
  -5   1   7   74.86    4.11
  -5   1   7   72.99    4.29
   5   1  -7   76.37    4.09
   5   1  -7   72.80    4.06
  -5   1   7   76.97    4.19
  -4  -1   7   39.51    2.44
  -4  -1   7   41.90    2.35
  -4  -1   7   39.18    2.60
   4  -1  -7   39.75    2.32
  -4  -1   7   42.04    2.40
   4  -1  -7   41.59    2.33
   4  -1  -7   43.79    2.66
   4  -1  -7   38.78    2.45
   4  -1  -7   41.39    2.41
  -4   1   7   39.00    2.34
   4   1  -7   39.84    2.36
  -4   1   7   43.20    2.49
  -4   1   7   34.45    2.59
   4   1  -7   39.20    2.30
  -4   1   7   39.87    2.36
   4   1  -7   40.18    2.42
  -3  -1   7   36.87    2.00
   3  -1  -7   33.78    2.07
   3  -1  -7   34.27    2.00
   3  -1  -7   34.99    2.01
  -3  -1   7   36.77    1.97
  -3  -1   7   29.55    2.19
   3  -1  -7   36.52    1.94
   3  -1  -7   32.91    1.95
  -3   1   7   33.31    1.96
  -3   1   7   32.84    1.97
   3   1  -7   32.89    2.06
   3   1  -7   34.01    2.01
   3   1  -7   31.75    2.02
   3   1  -7   31.47    2.02
   3   1  -7   32.48    1.90
  -2  -1   7  108.25    5.98
  -2  -1   7  115.64    6.01
  -2   1   7  100.78    5.97
  -2   1   7  104.08    5.99
   1  -1  -7   25.42    1.45
  -1   1   7   26.42    1.50
   0   1   7    4.87    0.36
   1   1   7   22.40    1.33
  -2  -1  -7   35.89    2.30
   2   1   7   42.02    2.32
   2   1   7   39.93    2.25
   3  -1   7    9.55    0.77
  -3  -1  -7    9.45    0.66
  -3  -1  -7   10.19    0.74
   3   1   7    9.93    0.67
   3   1   7    9.38    0.99
  -3   1  -7    8.70    0.69
  -3   1  -7    9.44    0.76
   3   1   7    9.12    1.35
  -3   1  -7   10.41    0.78
  -4  -1  -7    3.28    0.48
  -4  -1  -7    3.03    0.38
   4  -1   7    3.15    0.42
  -4   1  -7    3.97    0.51
  -4   1  -7    3.23    0.40
   4   1   7    4.30    0.62
   4   1   7    3.55    0.38
  -4   1  -7    3.20    0.52
   5  -1   7   29.58    2.02
  -5  -1  -7   31.08    1.82
   5  -1   7   30.12    1.77
  -5  -1  -7   30.03    1.73
  -5   1  -7   29.58    1.81
   5   1   7   28.81    1.81
  -5   1  -7   28.28    1.77
   5   1   7   29.49    1.76
  -6  -1  -7   19.21    1.18
   6  -1   7   18.61    1.19
   6  -1   7   19.00    1.25
   6   1   7   20.81    1.20
   6   1   7   20.94    1.21
  -7  -2   7    1.60    0.31
   7   2  -7    1.22    0.30
  -7   2   7    1.33    0.33
  -7   2   7    1.96    0.33
   6  -2  -7    7.58    0.92
  -6  -2   7    7.93    0.77
  -6  -2   7    7.49    0.78
   6  -2  -7    8.24    0.63
  -6   2   7    8.33    0.68
   6   2  -7    8.70    0.63
   6   2  -7    8.10    0.70
  -6   2   7    7.89    0.72
  -5  -2   7    8.07    0.92
   5  -2  -7    6.88    0.88
   5  -2  -7    8.08    0.73
   5  -2  -7    8.03    0.68
  -5  -2   7    8.08    0.81
  -5  -2   7    6.48    0.89
   5  -2  -7    7.37    0.87
  -5  -2   7    7.55    0.84
   5   2  -7    9.54    0.77
  -5   2   7    8.67    0.81
  -5   2   7    9.23    0.77
  -5   2   7    7.91    0.80
   5   2  -7    9.00    0.69
  -5   2   7    8.38    0.99
   4  -2  -7   22.62    1.49
   4  -2  -7   22.90    1.46
   4  -2  -7   20.67    1.58
  -4  -2   7   22.83    1.82
   4  -2  -7   21.81    1.41
  -4  -2   7   22.31    1.43
  -4  -2   7   22.97    1.51
   4  -2  -7   21.86    1.42
   4   2  -7   24.78    1.48
   4   2  -7   25.32    1.51
   4   2  -7   24.32    1.37
  -4   2   7   26.07    1.59
  -4   2   7   25.20    1.46
  -4   2   7   24.21    1.46
  -4   2   7   24.09    1.69
   4   2  -7   23.57    1.65
   3  -2  -7   38.40    2.34
   3  -2  -7   39.58    2.35
  -3  -2   7   41.19    2.38
   3  -2  -7   40.55    2.30
   3  -2  -7   39.93    2.30
  -3  -2   7   39.91    2.32
   3  -2  -7   35.95    2.41
  -3   2   7   42.01    2.32
   3   2  -7   44.99    2.38
   3   2  -7   40.23    2.37
   3   2  -7   38.92    2.48
   3   2  -7   38.30    2.38
  -3   2   7   40.51    2.53
  -3   2   7   41.12    2.33
   2  -2  -7   70.50    3.75
   2  -2  -7   71.55    3.89
  -2  -2   7   64.91    3.77
  -2  -2   7   66.51    3.80
   2  -2  -7   59.53    3.78
  -2   2   7   65.94    3.78
  -2   2   7   69.22    3.77
   1  -2  -7  183.38    9.69
  -1  -2   7  179.61    9.71
  -1   2   7  166.25    9.69
  -1   2   7  170.81    9.72
   0  -2  -7  101.08    5.16
   0   2   7   89.43    5.21
   0   2   7   88.75    5.18
   1   2   7   71.33    4.08
   1   2   7   74.46    4.12
  -2  -2  -7   69.93    3.70
   2   2   7   67.88    3.70
  -2   2  -7   59.98    3.83
   2   2   7   63.63    3.75
  -3  -2  -7    8.39    0.62
   3   2   7    7.91    0.75
  -3   2  -7    9.90    0.80
   3   2   7    8.54    0.60
   3   2   7    7.72    0.89
  -4  -2  -7    5.71    0.48
  -4  -2  -7    5.06    0.55
   4  -2   7    5.88    0.53
  -4   2  -7    4.59    0.60
   4   2   7    4.30    0.56
   5  -2   7    1.98    0.71
   5  -2   7    2.63    0.36
  -5  -2  -7    2.09    0.31
   5   2   7    1.80    0.31
  -5   2  -7    1.15    0.50
   5   2   7    1.64    0.39
   6  -2   7    3.28    0.35
  -6  -2  -7    3.18    0.32
   6   2   7    3.42    0.37
  -7   3   7   12.82    0.78
  -7   3   7   11.86    0.79
   7   3  -7   12.62    0.86
  -6  -3   7    2.59    0.37
  -6  -3   7    3.46    0.64
   6  -3  -7    2.92    0.66
   6   3  -7    2.24    0.42
  -6   3   7    2.10    0.59
  -6   3   7    2.37    0.44
  -6   3   7    2.80    0.42
  -5  -3   7    0.81    0.53
   5  -3  -7   -0.13    0.41
   5  -3  -7   -0.11    0.37
   5  -3  -7    0.24    0.42
   5  -3  -7    0.22    0.22
   5  -3  -7    0.48    0.48
  -5  -3   7   -0.04    0.47
  -5  -3   7    0.18    0.27
  -5   3   7    0.35    0.39
   5   3  -7    0.31    0.26
  -5   3   7    0.08    0.32
  -5   3   7    0.34    0.31
   4  -3  -7   40.92    2.41
  -4  -3   7   42.02    2.76
   4  -3  -7   40.16    2.58
  -4  -3   7   42.24    2.44
   4  -3  -7   41.83    2.46
   4  -3  -7   42.89    2.46
   4   3  -7   37.54    2.43
   4   3  -7   42.11    2.48
   4   3  -7   42.05    2.56
  -4   3   7   45.29    2.58
  -4   3   7   41.36    2.62
   3  -3  -7   25.54    1.61
   3  -3  -7   25.89    1.59
   3  -3  -7   25.10    1.70
  -3  -3   7   26.23    1.67
   3  -3  -7   25.74    1.60
   3  -3  -7   27.90    1.58
  -3  -3   7   27.37    1.59
  -3   3   7   25.93    1.77
   3   3  -7   25.85    1.62
   3   3  -7   27.59    1.63
  -3   3   7   27.31    1.61
  -3   3   7   26.80    1.60
   3   3  -7   26.93    1.73
   2  -3  -7    2.11    0.53
   2  -3  -7    2.32    0.35
  -2  -3   7    2.70    0.44
  -2  -3   7    2.23    0.32
   2  -3  -7    1.70    0.33
   2  -3  -7    1.52    0.39
   2  -3  -7    2.32    0.25
  -1  -3   7   18.88    1.17
   1  -3  -7   18.59    1.16
  -1  -3   7   18.74    1.17
   1  -3  -7   17.98    1.17
   1  -3  -7   18.24    1.15
   1  -3  -7   20.51    1.10
   1   3  -7   16.73    1.29
  -1   3   7   18.30    1.11
  -1   3   7   17.93    1.13
   0  -3  -7   29.90    1.94
   0  -3  -7   33.14    1.90
   0   3   7   35.17    1.98
   0   3   7   34.72    1.91
  -1  -3  -7  193.02    9.84
  -1  -3  -7  181.43    9.89
   1   3   7  164.33    9.94
   1   3   7  183.87    9.93
   1   3   7  166.64    9.89
  -2  -3  -7    0.64    0.18
   2   3   7    0.30    0.14
  -2   3  -7    0.25    0.50
   2   3   7    0.49    0.27
   3   3   7   10.34    0.70
  -3   3  -7   10.15    0.94
   3   3   7   10.11    0.99
   3   3   7   10.16    0.77
  -4  -3  -7   14.75    0.91
   4   3   7   11.19    1.50
   4   3   7   14.85    0.95
  -4   3  -7   12.83    1.04
  -5  -3  -7   13.12    0.81
   5  -3   7   12.77    0.84
   5   3   7   11.16    0.81
  -6  -3  -7    0.73    0.15
   6  -3   7    0.40    0.20
   6   3   7    1.04    0.27
  -6  -4   7   14.17    0.86
  -6  -4   7   13.35    1.13
   6  -4  -7   13.91    0.86
  -6   4   7   13.19    0.99
  -6   4   7   13.11    0.91
   6   4  -7   13.73    0.89
  -6   4   7   13.90    0.91
  -5  -4   7    4.41    0.59
   5  -4  -7    4.64    0.86
   5  -4  -7    5.21    0.70
   5  -4  -7    6.38    0.72
  -5   4   7    5.31    0.62
   5   4  -7    4.90    0.60
  -5   4   7    4.45    0.68
   4  -4  -7   19.11    1.33
  -4  -4   7   21.55    1.54
   4  -4  -7   20.06    1.31
   4  -4  -7   20.73    1.32
   4  -4  -7   19.48    1.51
   4  -4  -7   19.67    1.28
  -4  -4   7   21.21    1.30
  -4   4   7   20.50    1.48
  -4   4   7   22.22    1.45
   4   4  -7   20.89    1.33
  -4   4   7   20.49    1.36
   4   4  -7   21.46    1.42
   3  -4  -7   13.27    0.98
   3  -4  -7   13.01    0.96
   3  -4  -7   13.66    1.15
  -3  -4   7   14.13    0.97
   3  -4  -7   13.46    0.95
   3  -4  -7   13.46    0.97
  -3  -4   7   12.97    1.14
   3   4  -7   16.82    1.12
  -3   4   7   17.03    1.19
   3   4  -7   16.57    1.00
  -3   4   7   17.03    1.28
  -3   4   7   16.67    1.01
   2  -4  -7    5.38    0.51
   2  -4  -7    5.87    0.47
  -2  -4   7    5.81    0.68
  -2  -4   7    5.93    0.50
   2  -4  -7    5.97    0.51
   2  -4  -7    5.72    0.50
   2  -4  -7    5.69    0.67
  -2   4   7    6.31    0.53
  -2   4   7    5.54    0.65
  -2   4   7    6.02    0.66
  -2   4   7    5.20    0.83
   2   4  -7    6.05    0.51
   2   4  -7    5.86    0.68
   2   4  -7    6.60    0.61
   1   4  -7    4.15    0.73
  -1   4   7    3.69    0.68
   1   4  -7    3.92    0.59
  -1   4   7    4.52    0.55
  -1   4   7    3.93    0.43
   1   4  -7    3.84    0.40
  -1   4   7    4.16    0.39
  -1   4   7    3.83    0.64
   0  -4  -7   49.27    2.76
   0  -4   7   48.76    2.76
   0  -4  -7   53.65    2.74
   0  -4  -7   50.53    2.75
   0  -4  -7   53.60    2.75
   0   4  -7   48.17    2.89
   0   4   7   47.76    2.79
   0   4  -7   43.10    2.88
   0   4  -7   42.68    2.70
   0   4   7   46.05    2.81
   0   4   7   42.87    2.89
   0   4   7   47.82    2.73
  -1  -4  -7   12.15    0.77
  -1  -4  -7   11.83    0.71
  -1  -4  -7   11.59    0.77
  -1  -4  -7   10.91    0.82
  -1  -4  -7   10.38    0.90
  -1   4  -7    8.63    1.18
   1   4   7   10.71    0.81
  -1   4  -7    9.28    0.94
   1   4   7   10.76    0.70
   1   4   7    9.69    0.82
  -2  -4  -7   18.52    1.27
  -2  -4  -7   20.93    1.27
   2   4   7   21.16    1.41
   2   4   7   20.98    1.23
  -2   4  -7   18.56    1.54
   2   4   7   20.84    1.34
  -3  -4  -7   15.75    1.03
   3  -4   7   15.06    1.04
   3   4   7   16.54    1.01
   3   4   7   16.04    1.12
  -3   4  -7   15.60    1.23
   3   4   7   16.14    1.34
   4  -4   7    9.68    0.67
   4   4   7    7.24    0.68
   4   4   7    7.34    0.59
  -5  -4  -7   13.05    0.81
  -5  -4  -7   12.56    0.81
   5  -4   7   12.82    0.85
   5   4   7   11.71    0.81
   5   4   7   12.62    0.88
  -6  -4  -7   13.73    0.83
   6   4   7   14.57    0.88
   6  -5  -7    0.15    0.17
  -6  -5   7    0.20    0.19
   6   5  -7    0.51    0.15
  -6   5   7    0.25    0.18
  -6   5   7    0.31    0.27
   5  -5  -7    2.55    0.36
  -5  -5   7    2.34    0.33
   5   5  -7    2.56    0.35
  -5   5   7    2.12    0.50
  -5   5   7    2.65    0.53
  -5   5   7    2.31    0.41
   4  -5  -7    1.22    0.27
  -4  -5   7    1.85    0.41
  -4  -5   7    1.78    0.35
   4  -5  -7    1.47    0.36
   4  -5  -7    1.56    0.34
  -4   5   7    1.79    0.46
   4   5  -7    1.59    0.37
  -4   5   7    1.77    0.53
   3  -5  -7   53.06    3.18
   3  -5  -7   53.63    3.15
   3  -5  -7   53.98    3.29
   3  -5  -7   52.66    3.18
  -3  -5   7   52.42    3.38
  -3  -5   7   54.85    3.20
   3  -5  -7   53.19    3.20
  -3  -5   7   56.30    3.18
   3   5  -7   58.17    3.19
  -3   5   7   55.41    3.19
   3   5  -7   58.46    3.31
  -3   5   7   56.61    3.31
  -3   5   7   57.81    3.35
   2  -5  -7   32.86    1.96
   2  -5  -7   30.15    1.90
  -2  -5   7   33.21    1.92
   2  -5  -7   32.53    1.84
   2  -5  -7   32.17    1.87
  -2  -5   7   31.17    2.10
   2  -5  -7   32.65    1.87
  -2  -5   7   33.06    1.86
  -2   5   7   29.02    1.96
  -2   5   7   28.94    1.98
   2   5  -7   29.72    1.84
   2   5  -7   28.90    1.96
  -2   5   7   31.10    1.91
   1  -5  -7   14.62    0.91
  -1  -5   7   14.14    0.89
  -1  -5   7   14.04    1.20
   1  -5  -7   12.90    0.90
   1  -5  -7   14.48    0.91
   1  -5  -7   14.13    0.90
   1  -5  -7   14.02    0.97
   1   5  -7   13.88    1.09
   1   5  -7   13.13    0.86
  -1   5   7   12.69    1.02
  -1   5   7   13.24    0.95
  -1   5   7   12.87    0.90
  -1   5   7   12.07    0.98
   1   5  -7   12.99    1.04
  -1   5   7   12.08    0.99
   0  -5  -7   27.09    1.60
   0  -5  -7   28.05    1.59
   0  -5   7   27.45    1.59
   0  -5  -7   27.02    1.62
   0  -5  -7   26.84    1.59
   0   5   7   24.51    1.56
   0   5   7   25.18    1.65
   0   5   7   25.92    1.66
   0   5  -7   25.62    1.74
  -1  -5  -7   32.66    1.88
  -1  -5  -7   32.55    1.87
  -1  -5  -7   32.17    1.91
  -1  -5  -7   31.76    1.89
   1  -5   7   32.86    1.88
  -1   5  -7   27.89    2.09
  -1   5  -7   30.39    2.01
   1   5   7   32.32    1.98
   1   5   7   32.89    2.01
   1   5   7   31.48    1.86
   1   5   7   32.06    1.95
   2  -5   7    8.99    0.68
  -2  -5  -7    8.51    0.67
  -2  -5  -7    8.86    0.74
  -2  -5  -7    9.01    0.69
   2   5   7    8.19    0.72
   2   5   7    8.06    0.96
   2   5   7    8.64    0.63
   2   5   7    7.60    0.91
   3  -5   7    6.69    0.60
  -3  -5  -7    7.28    0.61
  -3  -5  -7    7.12    0.59
  -4  -5  -7    1.69    0.32
   4  -5   7    1.82    0.39
  -4  -5  -7    1.88    0.34
   4   5   7    1.99    0.38
   4   5   7    1.98    0.38
  -5  -5  -7   12.40    0.78
   5  -5   7   12.16    0.83
  -5  -5  -7   13.57    0.78
   5   5   7   12.03    0.83
  -5  -6   7    3.97    0.34
   5  -6  -7    3.68    0.35
  -5   6   7    3.00    0.46
  -5   6   7    3.17    0.37
   5   6  -7    3.06    0.31
   4  -6  -7    2.92    0.39
  -4  -6   7    3.21    0.41
  -4  -6   7    3.37    0.38
   4  -6  -7    3.25    0.41
   4  -6  -7    5.45    1.32
  -3  -6   7    4.16    0.43
  -3  -6   7    4.10    0.45
   3  -6  -7    4.11    0.42
   3  -6  -7    4.31    0.43
   3  -6  -7    4.39    0.87
  -3   6   7    3.19    0.59
   2  -6  -7    4.82    0.47
   2  -6  -7    5.37    0.62
   2  -6  -7    3.95    0.64
  -2  -6   7    4.72    0.52
  -2  -6   7    4.62    0.46
   2  -6  -7    5.06    0.48
   2  -6  -7    5.09    0.71
  -2   6   7    4.99    0.67
  -2   6   7    4.92    0.65
  -2   6   7    3.82    0.85
   2   6  -7    4.34    0.62
   2   6  -7    5.72    0.83
   2   6  -7    4.95    0.45
  -1  -6   7    7.88    0.62
   1  -6  -7    7.21    0.62
   1  -6  -7    7.35    0.70
   1  -6  -7    7.15    0.72
  -1  -6   7    7.11    0.70
  -1   6   7    7.86    0.81
   1   6  -7    8.70    0.86
   1   6  -7    8.91    0.78
   1   6  -7    8.50    0.58
  -1   6   7    8.53    0.72
  -1   6   7    8.97    0.77
  -1   6   7    8.69    0.80
   0  -6  -7   20.23    1.26
   0  -6  -7   20.06    1.26
   0  -6  -7   19.07    1.33
   0  -6  -7   19.19    1.29
   0  -6   7   20.40    1.25
   0  -6   7   17.89    1.33
   0   6   7   20.13    1.39
   0   6  -7   20.86    1.40
   0   6   7   20.56    1.39
   0   6  -7   20.53    1.22
   0   6  -7   21.09    1.42
   0   6   7   21.40    1.35
  -1  -6  -7   34.88    2.11
  -1  -6  -7   31.28    2.13
  -1  -6  -7   35.95    2.07
  -1  -6  -7   34.77    2.08
   1   6   7   36.55    2.17
  -1   6  -7   37.80    2.22
   1   6   7   35.34    2.19
   1   6   7   33.89    2.23
   1   6   7   36.85    2.16
  -2  -6  -7   12.20    0.76
   2   6   7    9.03    0.75
   2   6   7    9.67    0.87
   2   6   7    9.70    0.80
   3  -6   7   11.60    0.81
  -3  -6  -7   12.68    0.82
  -3  -6  -7   11.29    0.85
   3   6   7   10.22    1.00
   3   6   7   13.05    0.88
  -4  -6  -7   10.08    0.91
  -4  -6  -7   11.56    0.72
   4  -6   7   11.29    0.77
   5   6   7    0.51    0.18
  -4  -7   7    0.58    0.14
   4  -7  -7    0.86    0.23
   4   7  -7    0.43    0.14
  -4   7   7    0.66    0.26
   3  -7  -7   11.31    0.77
  -3  -7   7   11.55    0.76
   3  -7  -7    9.51    1.15
   3  -7  -7   11.38    0.77
  -3  -7   7   11.46    0.77
  -3   7   7   12.05    0.90
   3   7  -7   12.27    0.73
   2  -7  -7   31.33    1.95
   2  -7  -7   32.33    2.08
   2  -7  -7   31.23    1.94
  -2  -7   7   32.42    1.94
  -2  -7   7   30.78    1.94
   2   7  -7   35.44    1.92
  -2   7   7   34.83    2.05
  -2   7   7   35.80    2.11
   1  -7  -7   15.04    0.99
   1  -7  -7   14.76    1.06
   1  -7  -7   14.24    1.05
  -1  -7   7   15.93    0.98
  -1  -7   7   15.32    0.95
   1   7  -7   13.66    0.92
   1   7  -7   12.77    1.11
  -1   7   7   14.44    1.35
  -1   7   7   14.91    1.07
   0  -7  -7   10.64    0.78
   0  -7  -7   10.03    0.98
   0  -7  -7    9.96    0.78
   0  -7   7   10.37    0.74
   0  -7   7   10.16    0.83
   0   7   7   11.89    0.99
   0   7  -7   12.48    0.94
   1  -7   7    5.91    0.53
  -1  -7  -7    6.78    0.56
  -1  -7  -7    5.86    0.54
   1  -7   7    5.73    0.70
  -1  -7  -7    6.72    0.58
  -1   7  -7    6.64    0.73
   1   7   7    7.48    0.68
   1   7   7    7.32    0.63
   1   7   7    7.60    0.62
  -2  -7  -7   15.78    1.02
   2  -7   7   14.88    1.10
   2  -7   7   17.15    1.02
   2   7   7   14.99    1.08
   2   7   7   16.62    1.06
   2   7   7   15.95    1.11
   3  -7   7   14.23    0.90
  -3  -7  -7   14.89    0.87
   3   7   7   12.72    1.03
   3   7   7   11.51    1.01
   3   7   7   14.96    0.91
  -4  -7  -7    3.28    0.29
   4   7   7    3.02    0.34
   3  -8  -7    7.68    0.58
   3  -8  -7    9.11    0.57
  -3  -8   7    8.21    0.55
  -3   8   7    8.80    0.66
  -2  -8   7    1.50    0.29
  -2  -8   7    1.63    0.26
   2  -8  -7    1.45    0.25
   2  -8  -7    1.87    0.30
  -2   8   7    1.55    0.44
  -2   8   7    1.50    0.45
   1  -8  -7    3.74    0.66
   1  -8  -7    3.16    0.35
  -1  -8   7    2.93    0.36
  -1  -8   7    3.24    0.34
   1  -8  -7    2.84    0.32
  -1   8   7    3.02    0.50
   0  -8  -7    5.20    0.41
   0  -8   7    4.45    0.55
   0  -8   7    4.91    0.43
   0  -8  -7    5.01    0.44
   0  -8  -7    4.88    0.56
   0   8   7    5.04    0.61
   0   8  -7    4.94    0.66
   0   8   7    5.29    0.51
   1  -8   7    4.61    0.41
  -1  -8  -7    4.57    0.46
  -1  -8  -7    3.95    0.49
   1  -8   7    4.49    0.40
   1  -8   7    3.82    0.81
   1   8   7    3.94    0.83
   1   8   7    4.56    0.47
   1   8   7    4.34    0.45
  -2  -8  -7   20.18    1.40
   2  -8   7   23.22    1.30
   2   8   7   20.50    1.33
   2   8   7   22.87    1.32
  -3  -8  -7    5.77    0.43
   3   8   7    5.39    0.46
  -1  -9   7   13.76    0.79
   1  -9  -7   12.91    0.80
  -7   0   8    3.16    0.43
   7   0  -8    2.57    0.54
  -7   0   8    3.82    0.48
  -6   0   8    6.86    0.74
  -6   0   8    6.84    0.67
   6   0  -8    6.32    0.69
   6   0  -8    7.24    0.58
   5   0  -8    0.88    0.40
   5   0  -8    0.83    0.28
   5   0  -8    0.37    0.43
  -5   0   8    0.85    0.36
  -5   0   8    0.81    0.47
  -5   0   8    0.75    0.33
   5   0  -8    1.01    0.29
  -5   0   8    0.87    0.34
  -4   0   8   16.17    1.04
  -4   0   8   16.08    1.43
   4   0  -8   15.27    1.14
  -4   0   8   16.31    1.08
   4   0  -8   15.61    0.99
   4   0  -8   17.28    1.13
  -4   0   8   16.31    1.22
   3   0  -8    2.57    0.24
  -3   0   8    2.86    0.35
   3   0  -8    2.27    0.55
   3   0  -8    2.59    0.46
  -3   0   8    2.74    0.35
   3   0  -8    3.05    0.49
   3   0  -8    2.49    0.45
  -2   0   8    2.86    0.32
  -2   0   8    2.91    0.31
  -1   0   8   30.19    1.74
   0   0   8   12.48    0.78
   1   0   8   43.19    2.85
  -2   0  -8  178.73    9.78
  -2   0  -8  173.27    9.81
  -3   0  -8   58.16    3.36
  -3   0  -8   55.73    3.28
  -3   0  -8   62.48    3.33
   3   0   8   56.58    3.30
   4   0   8    8.72    0.66
  -4   0  -8    9.13    0.69
  -4   0  -8    9.04    0.62
  -4   0  -8    8.65    0.73
  -5   0  -8   18.75    1.19
   5   0   8   18.18    1.27
  -5   0  -8   17.88    1.19
   5   0   8   17.75    1.13
  -6   0  -8    1.81    0.39
  -7  -1   8   -0.11    0.40
   7  -1  -8   -0.15    0.41
  -7   1   8    0.69    0.25
   7   1  -8    0.27    0.33
   6  -1  -8    2.95    0.61
   6  -1  -8    2.69    0.41
  -6  -1   8    3.32    0.63
  -6  -1   8    3.53    0.52
  -6   1   8    2.36    0.53
   6   1  -8    2.56    0.45
   6   1  -8    2.07    0.50
  -6   1   8    2.92    0.45
   5  -1  -8    8.92    0.86
  -5  -1   8    8.12    0.82
  -5  -1   8    8.94    0.97
   5  -1  -8    8.25    0.67
  -5  -1   8    9.26    0.80
   5  -1  -8    8.68    0.70
  -5  -1   8    8.54    0.80
   5  -1  -8    8.73    0.83
   5   1  -8    6.21    0.74
  -5   1   8    6.47    0.83
  -5   1   8    6.61    0.78
  -4  -1   8    3.77    0.76
  -4  -1   8    4.15    0.46
   4  -1  -8    3.92    0.51
  -4  -1   8    4.49    0.54
   4  -1  -8    4.83    0.58
  -4  -1   8    4.82    0.86
   4  -1  -8    5.15    0.65
   4  -1  -8    4.61    0.40
  -4   1   8    4.74    0.49
  -4   1   8    4.09    1.14
   4   1  -8    4.41    0.63
  -4   1   8    4.99    0.49
  -4   1   8    4.20    0.76
   4   1  -8    4.91    0.52
  -4   1   8    5.25    1.32
   4   1  -8    4.36    0.58
   4   1  -8    4.40    0.38
   3  -1  -8   10.91    0.70
   3  -1  -8   10.54    0.91
   3  -1  -8    9.51    0.82
  -3  -1   8   10.89    0.76
   3  -1  -8   10.34    0.88
   3  -1  -8   10.33    0.82
  -3  -1   8   10.44    0.79
   3   1  -8   12.55    0.67
   3   1  -8   11.86    0.87
   3   1  -8   13.07    0.84
   3   1  -8    9.65    1.17
  -3   1   8   13.07    0.78
  -3   1   8   13.05    0.77
   3   1  -8   11.31    0.84
  -2  -1   8   12.12    0.80
  -2  -1   8   13.28    0.83
   2  -1  -8   13.76    0.74
  -2   1   8   11.50    0.79
  -2   1   8   11.40    0.79
  -1   1   8   12.70    0.82
  -1   1   8   13.38    0.81
   0   1   8    3.71    0.34
   1   1   8   13.72    0.90
  -2  -1  -8   69.83    4.36
   2   1   8   80.41    4.50
  -2   1  -8   78.99    4.45
   2   1   8   79.62    4.37
  -2   1  -8   80.75    4.40
  -3  -1  -8    3.87    0.41
   3   1   8    4.20    0.41
  -3   1  -8    3.94    0.55
  -3   1  -8    4.32    0.52
  -4  -1  -8    0.44    0.27
   4  -1   8    0.46    0.22
  -4  -1  -8    0.34    0.19
   4   1   8    0.45    0.18
  -4   1  -8    0.58    0.31
  -4   1  -8    0.93    0.32
   4   1   8    0.94    0.38
  -5   1  -8    0.33    0.36
  -5   1  -8    0.82    0.29
   6  -1   8    8.07    0.57
  -6  -1  -8    8.19    0.56
   6   1   8    8.44    0.58
  -7  -2   8    7.96    0.73
  -7   2   8    8.72    0.60
  -7   2   8    7.07    0.56
   7   2  -8    7.42    0.60
   6  -2  -8   19.42    1.39
   6  -2  -8   20.57    1.24
  -6  -2   8   20.55    1.38
  -6  -2   8   19.21    1.35
   6   2  -8   19.66    1.29
  -6   2   8   20.61    1.34
  -6   2   8   20.43    1.31
  -5  -2   8   25.71    1.68
  -5  -2   8   26.95    1.55
   5  -2  -8   25.88    1.68
   5  -2  -8   24.51    1.58
   5  -2  -8   25.25    1.62
  -5  -2   8   26.10    1.65
  -5  -2   8   25.90    1.77
   5  -2  -8   26.59    1.56
   5   2  -8   23.63    1.53
   5   2  -8   24.77    1.61
  -5   2   8   24.36    1.66
  -5   2   8   24.46    1.63
  -5   2   8   24.59    1.79
  -5   2   8   21.66    1.61
   4  -2  -8    1.08    0.36
   4  -2  -8    1.36    0.32
   4  -2  -8    1.20    0.32
   4  -2  -8    1.53    0.29
  -4  -2   8    1.21    0.34
  -4  -2   8    1.60    0.34
  -3  -2   8    8.37    0.62
  -3  -2   8    8.17    0.69
   3  -2  -8    7.95    0.77
   3  -2  -8    8.57    0.58
   3  -2  -8    8.23    0.66
   3  -2  -8    7.62    0.65
   3   2  -8    8.46    0.69
  -3   2   8    8.78    0.63
  -3   2   8    7.69    1.02
   3   2  -8    8.88    0.91
  -3   2   8    9.40    0.62
  -2  -2   8   17.19    1.01
  -2  -2   8   16.77    0.96
   2  -2  -8   17.07    1.04
   2  -2  -8   17.22    1.00
   2   2  -8   12.87    1.16
  -2   2   8   12.70    0.94
   2   2  -8   12.21    1.02
   1  -2  -8  140.09    7.62
  -1   2   8  132.55    7.62
  -1   2   8  138.77    7.65
   0   2   8   49.27    2.73
   0   2   8   47.52    2.77
  -1  -2  -8  153.00    8.32
   1   2   8  147.65    8.28
   1   2   8  147.29    8.34
  -2  -2  -8    5.69    0.47
  -2   2  -8    4.40    0.62
   2   2   8    6.19    0.68
   2   2   8    5.14    0.70
   3   2   8   20.81    1.20
   3   2   8   18.42    1.52
  -3   2  -8   19.91    1.33
  -3   2  -8   19.33    1.27
   3   2   8   19.39    1.40
   4  -2   8    7.30    0.63
  -4  -2  -8    6.90    0.56
  -4   2  -8    8.32    0.70
  -5  -2  -8    0.26    0.21
   5  -2   8    0.04    0.20
   5   2   8    0.29    0.23
   5   2   8    0.15    0.17
   6  -2   8   32.60    1.87
  -6  -2  -8   33.07    1.86
   6   2   8   31.61    1.86
  -7   3   8    2.46    0.33
  -6  -3   8    3.23    0.56
   6  -3  -8    2.58    0.52
  -6  -3   8    2.76    0.36
  -6   3   8    1.88    0.43
   6   3  -8    1.67    0.38
  -6   3   8    2.15    0.38
  -6   3   8    2.04    0.47
   5  -3  -8   13.09    1.10
   5  -3  -8   13.71    0.94
  -5  -3   8   13.78    0.96
   5  -3  -8   13.23    1.13
  -5   3   8   14.42    1.04
  -5   3   8   14.84    1.07
   5   3  -8   14.06    0.98
  -5   3   8   13.81    1.17
   4  -3  -8   15.94    1.24
  -4  -3   8   16.81    1.07
  -4  -3   8   16.70    1.25
   4  -3  -8   16.87    1.10
   4  -3  -8   16.40    1.06
   4  -3  -8   15.77    1.08
  -4   3   8   16.11    1.10
   4   3  -8   16.51    1.11
   4   3  -8   15.30    1.20
  -4   3   8   15.62    1.28
   3  -3  -8    9.46    1.16
  -3  -3   8   10.12    0.76
   3  -3  -8    9.76    0.78
   3  -3  -8   10.79    0.73
  -3  -3   8   10.65    0.90
   3  -3  -8   10.55    0.79
   3   3  -8   11.75    0.80
  -3   3   8   12.06    0.78
  -3   3   8   11.75    0.79
   3   3  -8   12.18    0.82
  -2  -3   8   96.69    5.30
  -2  -3   8   92.82    5.40
   2  -3  -8   93.11    5.30
   2  -3  -8   95.53    5.34
   2  -3  -8  100.29    5.28
   2  -3  -8   92.84    5.31
  -2   3   8   87.21    5.39
  -2   3   8   93.72    5.32
   2   3  -8   97.01    5.33
   2   3  -8   97.36    5.42
   2   3  -8   89.37    5.29
  -2   3   8   95.34    5.29
   1  -3  -8   14.91    1.03
   1  -3  -8   15.36    1.01
   1  -3  -8   16.82    0.95
  -1  -3   8   14.61    1.04
   1  -3  -8   15.71    1.02
   1   3  -8   15.35    1.10
  -1   3   8   17.06    0.97
   1   3  -8   16.35    1.17
   1   3  -8   15.39    1.00
  -1   3   8   16.30    1.01
   0  -3  -8    1.68    0.26
   0  -3  -8    1.63    0.21
   0  -3  -8    1.76    0.32
  -1  -3  -8    9.11    0.68
  -1  -3  -8    8.85    0.75
   1   3   8    9.95    0.75
   1   3   8   10.14    0.63
  -1   3  -8   10.02    1.13
   1   3   8    8.52    0.85
  -2  -3  -8   16.61    1.11
   2   3   8   18.29    1.27
   2   3   8   19.12    1.10
  -3  -3  -8   38.90    2.36
   3   3   8   43.13    2.36
   3   3   8   39.97    2.61
   4  -3   8   30.44    1.79
  -4  -3  -8   30.23    1.76
   4   3   8   28.28    1.75
   5  -3   8   16.47    1.04
  -5  -3  -8   16.64    1.03
  -5  -3  -8   16.43    1.00
   5   3   8   15.62    1.01
  -6  -3  -8    7.44    0.52
   6   3   8    8.78    0.60
   6  -4  -8    2.85    0.33
  -6  -4   8    3.01    0.33
  -6   4   8    3.02    0.56
  -6   4   8    2.46    0.40
   6   4  -8    3.36    0.37
  -6   4   8    2.63    0.40
  -5  -4   8    4.60    0.53
  -5  -4   8    4.99    0.47
   5  -4  -8    5.09    0.63
   5  -4  -8    4.60    0.48
   5  -4  -8    3.31    0.74
  -5   4   8    5.21    0.57
  -5   4   8    3.93    0.65
   5   4  -8    4.58    0.48
   4  -4  -8    2.50    0.42
  -4  -4   8    2.22    0.38
  -4  -4   8    3.67    0.93
   4  -4  -8    2.40    0.49
   4  -4  -8    2.31    0.52
   4  -4  -8    2.58    0.40
  -4   4   8    1.95    0.59
  -3  -4   8   15.62    1.31
   3  -4  -8   17.39    1.14
   3  -4  -8   17.01    1.23
   3  -4  -8   15.18    1.10
  -3  -4   8   17.33    1.10
   3  -4  -8   16.87    1.12
   3  -4  -8   16.88    1.11
   3   4  -8   18.06    1.11
  -3   4   8   17.25    1.26
   3   4  -8   18.38    1.24
  -3   4   8   18.03    1.29
  -3   4   8   17.17    1.28
   2  -4  -8   62.05    3.40
   2  -4  -8   59.71    3.44
  -2  -4   8   58.28    3.49
  -2  -4   8   62.73    3.39
   2  -4  -8   59.87    3.52
   2  -4  -8   63.42    3.38
  -2   4   8   56.70    3.41
   2   4  -8   58.75    3.51
  -2   4   8   56.70    3.37
   2   4  -8   58.17    3.41
  -2   4   8   54.65    3.49
   1  -4  -8   72.86    4.23
   1  -4  -8   73.19    4.24
   1  -4  -8   78.71    4.23
   1  -4  -8   74.37    4.26
  -1  -4   8   76.25    4.24
   1   4  -8   71.38    4.28
  -1   4   8   76.59    4.29
  -1   4   8   75.58    4.35
  -1   4   8   77.70    4.23
   1   4  -8   75.93    4.21
  -1   4   8   71.57    4.33
   1   4  -8   80.72    4.38
  -1   4   8   69.57    4.31
   0  -4  -8    6.29    0.53
   0  -4  -8    6.74    0.56
   0  -4  -8    6.82    0.49
   0  -4  -8    6.71    0.58
   0   4   8    5.91    0.69
   0   4   8    6.29    0.58
   0   4  -8    6.17    0.77
   0   4   8    6.36    0.48
  -1  -4  -8   63.75    3.80
  -1  -4  -8   62.22    3.82
  -1  -4  -8   61.47    3.81
  -1  -4  -8   67.25    3.88
   1   4   8   67.64    3.87
  -1   4  -8   69.55    3.98
   1   4   8   69.71    3.90
  -1   4  -8   69.88    3.95
   1   4   8   72.35    3.80
  -2  -4  -8    8.30    0.64
  -2  -4  -8    8.98    0.69
   2   4   8    8.61    0.75
   2   4   8    8.45    0.60
   2   4   8    7.79    0.91
   3  -4   8   24.29    1.57
  -3  -4  -8   26.25    1.56
   3   4   8   26.91    1.54
   3   4   8   26.85    1.65
   3   4   8   23.65    1.89
  -4  -4  -8    0.90    0.25
   4  -4   8    0.78    0.28
   4   4   8    1.37    0.38
   4   4   8    0.91    0.20
   5  -4   8    1.65    0.38
  -5  -4  -8    1.36    0.24
  -5  -4  -8    1.46    0.27
   5   4   8    1.68    0.35
   6   5  -8    1.41    0.23
  -6   5   8    1.04    0.22
   5  -5  -8   18.25    1.04
   5  -5  -8   16.10    1.33
   5  -5  -8   17.21    1.12
  -5  -5   8   18.74    1.04
  -5   5   8   15.42    1.09
  -5   5   8   14.66    1.10
  -5   5   8   15.07    1.15
   5   5  -8   15.85    1.03
  -4  -5   8    4.56    0.51
   4  -5  -8    4.39    0.75
   4  -5  -8    4.36    0.47
  -4  -5   8    4.34    0.46
  -4   5   8    4.03    0.63
   4   5  -8    4.66    0.46
  -3  -5   8   62.28    3.63
   3  -5  -8   58.94    3.62
   3  -5  -8   60.86    3.60
   3  -5  -8   62.96    3.70
   3  -5  -8   61.56    3.61
   3   5  -8   66.86    3.74
  -3   5   8   60.74    3.73
  -3   5   8   63.68    3.65
  -3   5   8   64.58    3.78
   3   5  -8   66.40    3.60
   2  -5  -8   86.90    4.91
   2  -5  -8   85.90    4.90
   2  -5  -8   85.18    4.90
  -2  -5   8   87.52    4.90
   2  -5  -8   86.25    4.95
  -2  -5   8   83.38    4.92
  -2   5   8   83.82    5.02
   2   5  -8   89.17    4.87
  -2   5   8   88.27    4.95
  -2   5   8   86.71    4.99
   2   5  -8   88.45    5.02
   1  -5  -8   41.27    2.19
  -1  -5   8   39.67    2.18
   1  -5  -8   39.60    2.22
   1  -5  -8   40.27    2.18
   1  -5  -8   39.49    2.18
  -1  -5   8   36.87    2.27
   1   5  -8   35.83    2.30
   1   5  -8   35.33    2.12
  -1   5   8   33.48    2.23
  -1   5   8   34.18    2.28
  -1   5   8   35.75    2.23
  -1   5   8   35.73    2.17
  -1   5   8   33.40    2.25
   0  -5  -8   14.55    0.97
   0  -5  -8   14.47    0.98
   0  -5  -8   14.51    1.00
   0  -5  -8   14.61    0.97
   0  -5   8   14.39    0.99
   0   5   8   14.55    0.95
   0   5  -8   14.33    0.95
   0   5   8   16.27    1.14
   0   5   8   14.84    1.06
   0   5   8   15.26    1.08
   0   5  -8   15.30    1.21
   0   5  -8   15.84    1.17
   1  -5   8   25.81    1.61
  -1  -5  -8   25.30    1.61
  -1  -5  -8   25.97    1.59
  -1  -5  -8   25.90    1.61
   1   5   8   25.75    2.05
   1   5   8   28.46    1.58
   1   5   8   28.24    1.68
  -1   5  -8   24.87    1.80
  -1   5  -8   27.34    1.76
   1   5   8   26.44    1.79
  -2  -5  -8   41.14    2.44
  -2  -5  -8   41.86    2.46
   2  -5   8   41.05    2.43
   2   5   8   42.86    2.51
   2   5   8   40.31    2.64
   2   5   8   43.36    2.42
  -3  -5  -8   12.89    0.91
  -3  -5  -8   13.55    0.92
   3  -5   8   13.70    0.94
   3   5   8   13.98    0.98
   3   5   8   14.19    0.89
  -4  -5  -8   23.75    1.40
   4  -5   8   22.05    1.41
  -4  -5  -8   22.63    1.39
   4   5   8   22.76    1.39
   4   5   8   24.81    1.46
  -5  -5  -8   13.66    0.84
  -5  -5  -8   14.57    0.84
   5   5   8   13.36    0.89
   5  -6  -8    4.16    0.58
  -5  -6   8    4.37    0.39
   5   6  -8    4.76    0.36
  -5   6   8    4.99    0.43
  -5   6   8    5.01    0.53
   4  -6  -8   17.86    1.11
   4  -6  -8   18.13    1.12
   4  -6  -8   18.36    1.35
  -4  -6   8   17.81    1.11
  -4  -6   8   18.03    1.12
  -4   6   8   14.48    1.40
   4   6  -8   18.67    1.09
  -4   6   8   18.20    1.24
   3  -6  -8    1.23    0.32
   3  -6  -8    1.34    0.28
  -3  -6   8    1.69    0.33
   3  -6  -8    1.52    0.43
  -3   6   8    1.87    0.59
   3   6  -8    1.71    0.32
  -3   6   8    1.24    0.38
  -2  -6   8   31.03    1.68
   2  -6  -8   27.59    1.76
  -2  -6   8   28.98    1.70
   2  -6  -8   30.31    1.69
   2  -6  -8   30.04    1.69
   2  -6  -8   29.58    1.77
   2   6  -8   26.17    1.63
  -2   6   8   25.96    1.81
  -2   6   8   25.24    1.77
   2   6  -8   25.57    1.78
  -2   6   8   23.07    1.82
   1  -6  -8    7.58    0.64
   1  -6  -8    7.56    0.57
  -1  -6   8    7.39    0.70
   1  -6  -8    7.64    0.57
  -1  -6   8    6.49    0.60
   1   6  -8    5.98    0.88
   1   6  -8    5.61    0.69
  -1   6   8    5.33    0.77
   1   6  -8    5.97    0.50
  -1   6   8    5.85    0.70
   0  -6  -8   24.42    1.45
   0  -6  -8   24.58    1.42
   0  -6  -8   23.83    1.42
   0   6   8   22.55    1.51
   0   6  -8   23.31    1.57
   0   6   8   22.55    1.48
   0   6   8   22.47    1.54
   0   6   8   21.66    1.58
   0   6  -8   21.75    1.58
  -1  -6  -8    5.37    0.56
   1  -6   8    5.86    0.56
  -1  -6  -8    5.67    0.57
   1   6   8    6.89    0.61
   1   6   8    6.94    0.67
   1   6   8    6.07    0.93
   1   6   8    7.56    0.64
   1   6   8    7.86    0.77
  -1   6  -8    7.79    0.78
  -2  -6  -8    8.04    0.65
   2  -6   8    9.14    0.67
   2   6   8    8.04    0.68
   2   6   8    9.16    0.92
   2   6   8    9.26    0.73
  -3  -6  -8    9.35    0.70
  -3  -6  -8    9.86    0.64
   3  -6   8    8.76    0.68
   3   6   8    7.63    0.70
  -4  -6  -8    8.60    0.62
   4  -6   8    8.08    0.66
  -4  -6  -8    8.98    0.56
   4   6   8    7.42    0.61
  -4  -7   8    1.60    0.24
   4  -7  -8    1.12    0.34
   4  -7  -8    1.49    0.32
  -4   7   8    1.54    0.39
   4   7  -8    0.94    0.21
   3  -7  -8    5.25    0.47
  -3  -7   8    5.25    0.47
   3  -7  -8    5.57    0.46
  -3  -7   8    5.52    0.46
  -3   7   8    6.81    0.62
   2  -7  -8   33.53    1.96
  -2  -7   8   32.42    1.95
   2  -7  -8   31.36    1.94
   2  -7  -8   32.29    2.04
  -2  -7   8   34.17    1.95
   2   7  -8   34.11    1.90
  -2   7   8   32.93    2.04
  -2   7   8   34.41    2.09
  -1  -7   8   17.62    1.03
   1  -7  -8   16.22    1.03
   1  -7  -8   16.17    1.03
   1  -7  -8   15.43    1.09
  -1  -7   8   16.01    1.04
  -1   7   8   15.30    1.12
  -1   7   8   15.39    1.15
   0  -7  -8   27.53    1.56
   0  -7  -8   26.73    1.51
   0  -7  -8   26.81    1.52
   0  -7   8   27.45    1.51
   0  -7   8   27.09    1.56
   0   7   8   23.20    1.57
   0   7   8   21.97    1.60
   0   7   8   23.13    1.57
   0   7  -8   21.41    1.64
  -1  -7  -8    2.63    0.43
  -1  -7  -8    2.68    0.40
  -1  -7  -8    3.01    0.38
   1  -7   8    2.58    0.39
   1   7   8    2.69    0.48
   1   7   8    2.54    0.42
   1   7   8    3.22    0.52
  -2  -7  -8   42.93    2.50
   2  -7   8   43.62    2.49
   2   7   8   42.56    2.56
   2   7   8   43.71    2.57
   2   7   8   43.77    2.53
   3  -7   8   12.56    0.89
  -3  -7  -8   13.54    0.84
   3   7   8   13.35    0.99
   3   7   8   14.78    0.89
  -4  -7  -8    5.00    0.34
   4   7   8    4.23    0.46
   3  -8  -8    2.54    0.28
  -3  -8   8    2.47    0.28
  -3   8   8    2.98    0.39
   2  -8  -8   14.03    1.12
   2  -8  -8   13.60    0.83
  -2  -8   8   12.47    0.83
  -2  -8   8   13.11    0.91
   1  -8  -8    0.34    0.17
   1  -8  -8    0.83    0.38
  -1  -8   8    0.46    0.17
  -1  -8   8    0.41    0.21
   1  -8  -8    0.24    0.21
  -1   8   8    0.71    0.29
  -1   8   8    0.58    0.27
   0  -8   8    5.97    0.48
   0  -8  -8    5.58    0.56
   0  -8  -8    6.44    0.47
   0  -8   8    6.52    0.62
   0   8   8    6.27    0.57
   0   8   8    6.28    0.62
   1  -8   8    4.09    0.40
   1  -8   8    4.04    0.41
  -1  -8  -8    3.81    0.50
  -1  -8  -8    4.45    0.43
   1   8   8    3.51    0.77
  -2  -8  -8    2.51    0.33
   2   8   8    2.20    0.36
   7   0  -9   18.43    1.23
  -7   0   9   20.93    1.24
  -7   0   9   20.01    1.21
  -6   0   9   21.50    1.40
  -6   0   9   20.83    1.34
   6   0  -9   20.48    1.34
   6   0  -9   18.57    1.25
  -5   0   9    8.53    0.95
   5   0  -9    7.28    0.80
   5   0  -9    8.58    0.68
  -5   0   9    8.18    0.99
   5   0  -9    8.19    0.76
  -5   0   9    8.29    0.76
  -5   0   9    6.86    0.81
   4   0  -9   21.32    1.39
   4   0  -9   20.59    1.33
   4   0  -9   20.71    1.39
  -4   0   9   21.73    1.51
  -4   0   9   20.82    1.71
  -4   0   9   21.77    1.37
  -4   0   9   21.67    1.33
   4   0  -9   19.68    1.25
   4   0  -9   21.56    1.36
   3   0  -9  148.58    8.38
   3   0  -9  148.27    8.50
  -3   0   9  156.81    8.50
   3   0  -9  135.96    8.46
   3   0  -9  157.44    8.50
  -3   0   9  159.18    8.47
   3   0  -9  155.76    8.49
   2   0  -9  192.04   10.62
   2   0  -9  184.44   10.61
  -2   0   9  194.72   10.61
   2   0  -9  190.48   10.61
  -2   0   9  191.55   10.58
  -1   0   9   43.35    2.49
   0   0   9  243.46   13.91
   1   0   9    6.32    0.94
  -2   0  -9    0.72    0.24
  -2   0  -9    0.78    0.44
  -3   0  -9    4.18    0.46
  -3   0  -9    4.22    0.50
  -3   0  -9    3.76    0.43
   3   0   9    4.01    0.47
   4   0   9    7.39    0.60
  -4   0  -9    7.41    0.62
   5   0   9    7.22    0.79
   5   0   9    7.40    0.57
  -5   0  -9    7.58    0.58
   6   0   9    5.86    0.47
  -7  -1   9    4.79    0.60
   7  -1  -9    3.73    0.58
  -7   1   9    5.55    0.50
  -7   1   9    5.19    0.45
   7   1  -9    5.04    0.48
  -6  -1   9   28.15    1.71
   6  -1  -9   25.75    1.56
  -6  -1   9   26.36    1.65
   6  -1  -9   26.15    1.67
   6   1  -9   25.21    1.64
  -6   1   9   27.13    1.68
  -6   1   9   25.37    1.65
   5  -1  -9    8.98    0.74
  -5  -1   9   10.43    1.09
  -5  -1   9   10.27    0.88
  -5  -1   9    9.38    0.76
   5  -1  -9    9.37    0.86
  -5  -1   9    8.98    0.91
   5  -1  -9    9.16    0.87
   5   1  -9   10.31    0.79
  -5   1   9   10.80    0.96
   5   1  -9    9.68    0.83
  -5   1   9    9.72    0.88
  -5   1   9    8.80    0.87
  -4  -1   9   40.26    2.38
   4  -1  -9   39.33    2.39
   4  -1  -9   39.13    2.26
   4  -1  -9   40.74    2.35
   4  -1  -9   37.92    2.31
  -4  -1   9   39.91    2.31
  -4  -1   9   37.25    2.41
   4  -1  -9   39.26    2.35
  -4   1   9   40.12    2.31
  -4   1   9   39.81    2.35
   4   1  -9   40.55    2.34
  -4   1   9   40.33    2.52
   4   1  -9   38.82    2.37
   4   1  -9   39.37    2.37
   4   1  -9   36.73    2.34
   3  -1  -9   46.21    2.80
   3  -1  -9   44.02    2.79
   3  -1  -9   41.50    2.75
  -3  -1   9   46.59    2.75
   3  -1  -9   45.59    2.68
  -3  -1   9   46.17    2.78
   3  -1  -9   46.42    2.76
   3   1  -9   51.20    2.80
   3   1  -9   55.05    2.80
   3   1  -9   48.51    2.78
  -3   1   9   50.97    2.77
  -3   1   9   50.80    2.75
   3   1  -9   46.60    2.93
  -2  -1   9  136.36    7.48
   2  -1  -9  129.92    7.47
  -2  -1   9  130.33    7.44
   2  -1  -9  131.31    7.48
   2   1  -9  139.69    7.49
   2   1  -9  127.38    7.46
  -2   1   9  138.99    7.45
   2   1  -9  135.23    7.58
   2   1  -9  133.62    7.49
  -1  -1   9   21.40    1.49
  -1   1   9   26.01    1.45
  -1   1   9   26.68    1.46
   0   1   9   59.30    3.31
   0   1   9   57.54    3.31
  -1  -1  -9   33.15    2.10
   1   1   9   38.48    2.14
   1   1   9   36.66    2.08
  -2  -1  -9   38.92    2.03
  -2   1  -9   31.52    2.30
   2   1   9   34.65    2.03
  -2   1  -9   35.21    2.05
  -3  -1  -9   46.92    2.87
  -3  -1  -9   46.87    2.81
  -3  -1  -9   51.19    2.77
   3   1   9   45.63    2.74
  -3   1  -9   46.02    2.79
  -3   1  -9   50.64    2.78
  -4  -1  -9   90.56    4.95
  -4  -1  -9   84.57    4.88
   4  -1   9   88.32    4.93
   4   1   9   86.14    4.97
  -4   1  -9   90.26    4.94
   4   1   9   87.32    4.93
  -4   1  -9   84.98    4.97
   5  -1   9    1.08    0.25
  -5  -1  -9    1.14    0.25
   5   1   9    1.87    0.45
  -5   1  -9    1.50    0.32
  -6  -1  -9   27.73    1.68
   6   1   9   31.28    1.71
   7   2  -9   22.62    1.34
  -7   2   9   21.73    1.34
  -7   2   9   23.54    1.35
   6  -2  -9    2.78    0.38
   6  -2  -9    3.04    0.57
  -6   2   9    2.19    0.50
   6   2  -9    2.54    0.41
  -6   2   9    2.58    0.41
  -5  -2   9   15.57    1.18
  -5  -2   9   14.74    1.72
   5  -2  -9   15.21    1.15
   5  -2  -9   15.58    1.02
  -5  -2   9   14.30    1.25
   5  -2  -9   15.42    1.10
   5  -2  -9   12.85    1.09
  -5  -2   9   15.40    1.03
  -5   2   9   16.71    1.15
  -5   2   9   15.81    1.18
  -5   2   9   15.51    1.37
   5   2  -9   16.75    1.09
  -5   2   9   14.09    1.18
  -4  -2   9   35.23    2.24
   4  -2  -9   36.50    2.18
   4  -2  -9   34.32    2.18
  -4  -2   9   36.98    2.18
   4  -2  -9   37.76    2.11
  -4  -2   9   38.44    2.10
   4  -2  -9   34.50    2.08
   4   2  -9   35.71    2.11
   4   2  -9   33.25    2.11
  -4   2   9   30.00    2.29
   4   2  -9   32.19    2.23
  -4   2   9   34.23    2.08
   3  -2  -9   54.57    3.12
   3  -2  -9   52.38    3.06
   3  -2  -9   52.47    3.00
   3  -2  -9   52.22    3.06
  -3  -2   9   53.57    3.11
  -3  -2   9   55.12    3.06
   3   2  -9   52.29    3.07
  -3   2   9   46.66    3.24
   3   2  -9   54.27    3.19
  -3   2   9   54.45    3.05
  -3   2   9   52.30    3.07
   3   2  -9   56.66    3.10
   2  -2  -9   33.46    1.71
   2  -2  -9   30.08    1.79
  -2  -2   9   31.72    1.79
   2  -2  -9   31.24    1.81
   2  -2  -9   29.49    1.81
  -2  -2   9   32.32    1.84
  -2   2   9   28.88    1.77
   2   2  -9   27.76    1.81
   2   2  -9   28.61    1.80
  -2   2   9   29.08    1.75
   2   2  -9   26.84    1.78
   2   2  -9   29.66    1.91
   1  -2  -9   18.61    1.17
   1  -2  -9   18.36    1.12
   1   2  -9   17.61    1.18
   1   2  -9   17.39    1.20
  -1   2   9   19.20    1.12
   1   2  -9   16.89    1.28
  -1   2   9   18.09    1.08
   0  -2  -9   18.54    1.06
   0   2   9   16.83    1.08
   0   2   9   16.75    1.03
   0   2  -9   15.96    1.27
  -1  -2  -9   16.08    1.10
  -1  -2  -9   16.13    1.07
   1   2   9   18.49    1.18
  -1   2  -9   18.97    1.15
  -1   2  -9   16.31    1.37
   1   2   9   18.49    1.05
  -2  -2  -9   71.72    3.71
  -2  -2  -9   66.75    3.68
   2   2   9   63.32    3.67
  -2   2  -9   58.65    3.68
  -3  -2  -9   63.84    3.57
  -3   2  -9   62.80    3.59
   3   2   9   62.69    3.63
  -4  -2  -9    1.55    0.33
  -4  -2  -9    1.37    0.30
   4  -2   9    0.88    0.31
   4   2   9    1.03    0.30
   4   2   9    1.24    0.30
  -5  -2  -9   16.52    1.05
   5  -2   9   16.89    1.06
  -5  -2  -9   16.07    1.00
   5   2   9   17.55    1.05
   6  -2   9    0.37    0.24
   6   2   9    0.27    0.19
   6  -3  -9    3.22    0.37
   6  -3  -9    3.53    0.64
  -6  -3   9    3.28    0.38
   6   3  -9    2.67    0.39
  -6   3   9    3.14    0.41
  -6   3   9    3.36    0.48
   5  -3  -9    6.76    0.72
  -5  -3   9    6.59    0.62
   5  -3  -9    7.30    0.59
  -5   3   9    6.97    0.98
   5   3  -9    7.41    0.62
  -5   3   9    8.13    0.80
  -5   3   9    6.58    0.70
   4  -3  -9   12.06    0.89
  -4  -3   9   12.19    0.87
   4  -3  -9   11.11    0.86
   4  -3  -9   11.92    0.89
   4  -3  -9   11.90    1.02
  -4  -3   9   11.24    1.11
  -4   3   9   14.63    0.97
  -4   3   9   15.22    1.14
  -3  -3   9   19.37    1.46
   3  -3  -9   19.71    1.33
   3  -3  -9   19.78    1.28
  -3  -3   9   19.80    1.32
   3  -3  -9   19.73    1.40
   3  -3  -9   19.04    1.33
   3   3  -9   24.52    1.39
   3   3  -9   22.87    1.34
   3   3  -9   23.77    1.50
  -3   3   9   22.16    1.32
  -3   3   9   23.15    1.37
  -3   3   9   21.93    1.53
   2  -3  -9    1.52    0.24
   2  -3  -9    1.73    0.42
  -2  -3   9    1.33    0.26
   2  -3  -9    1.81    0.36
   2  -3  -9    1.78    0.43
  -2   3   9    1.96    0.58
  -1  -3   9  149.41    8.58
   1  -3  -9  153.39    8.59
   1  -3  -9  168.76    8.55
   1  -3  -9  163.79    8.60
   1  -3  -9  156.73    8.59
  -1   3   9  146.67    8.61
   1   3  -9  144.28    8.55
  -1   3   9  150.79    8.57
   1   3  -9  151.89    8.62
   1   3  -9  155.66    8.71
   0  -3  -9   79.57    4.51
   0  -3  -9   76.56    4.50
   0  -3  -9   79.61    4.50
   0   3  -9   82.42    4.64
   0   3   9   79.21    4.55
   0   3  -9   76.38    4.55
   0   3   9   85.28    4.49
  -1  -3  -9   29.45    1.85
  -1  -3  -9   29.66    1.82
   1   3   9   30.21    1.94
  -1   3  -9   31.49    2.06
   1   3   9   31.25    1.92
   1   3   9   34.43    1.81
  -2  -3  -9   20.63    1.33
  -2  -3  -9   20.41    1.31
   2   3   9   21.06    1.52
   2   3   9   23.67    1.30
  -3  -3  -9    0.84    0.21
   3   3   9    0.52    0.19
  -4  -3  -9   17.85    1.12
  -4  -3  -9   18.12    1.14
   4  -3   9   17.88    1.19
   4   3   9   18.54    1.13
  -5  -3  -9    1.27    0.27
  -5  -3  -9    1.17    0.25
   5  -3   9    0.97    0.38
   5   3   9    0.93    0.19
  -6  -3  -9   12.47    0.78
   6   3   9   13.91    0.83
  -6  -4   9   -0.06    0.15
   6  -4  -9    0.08    0.20
   6  -4  -9   -0.02    0.55
  -6   4   9    0.00    0.20
  -6   4   9    0.19    0.19
   6   4  -9    0.25    0.17
   5  -4  -9    8.50    0.69
  -5  -4   9    8.69    0.65
  -5  -4   9    8.30    0.63
   5  -4  -9    8.16    0.61
   5  -4  -9    8.11    0.80
  -5   4   9    7.02    0.79
  -5   4   9    6.53    0.70
  -5   4   9    7.64    0.71
   5   4  -9    7.16    0.61
   4  -4  -9    4.40    0.50
   4  -4  -9    4.50    0.63
   4  -4  -9    4.50    0.49
   4  -4  -9    4.53    0.71
  -4  -4   9    5.00    1.14
  -4  -4   9    4.86    0.49
   4   4  -9    4.87    0.65
  -4   4   9    4.54    0.69
  -4   4   9    3.22    0.78
  -4   4   9    5.03    0.73
   4   4  -9    4.75    0.48
   3  -4  -9   39.32    2.26
   3  -4  -9   37.36    2.27
   3  -4  -9   37.33    2.27
   3  -4  -9   39.05    2.35
  -3  -4   9   39.04    2.27
  -3  -4   9   39.00    2.64
  -3   4   9   36.88    2.43
   3   4  -9   38.67    2.26
  -3   4   9   38.76    2.32
  -3   4   9   38.39    2.28
   3   4  -9   39.41    2.40
   2  -4  -9   17.66    0.99
   2  -4  -9   17.21    1.07
  -2  -4   9   17.46    1.02
   2  -4  -9   16.43    1.03
   2  -4  -9   16.62    1.02
  -2   4   9   13.47    0.98
  -2   4   9   13.21    1.13
   2   4  -9   14.28    0.98
   2   4  -9   13.97    1.15
  -2   4   9   13.98    1.05
   2   4  -9   13.91    1.05
   1  -4  -9    1.53    0.28
  -1  -4   9    1.61    0.30
   1   4  -9    1.26    0.23
  -1   4   9    1.08    0.21
  -1   4   9    1.27    0.29
   1   4  -9    2.29    0.45
   0  -4  -9   23.34    1.32
   0  -4  -9   23.44    1.32
   0   4  -9   20.46    1.49
   0   4   9   20.71    1.27
   0   4   9   19.12    1.36
   0   4   9   19.56    1.40
  -1  -4  -9    0.90    0.33
  -1  -4  -9    0.44    0.17
  -1  -4  -9    0.68    0.33
  -1   4  -9    0.81    0.52
  -2  -4  -9   25.24    1.57
  -2  -4  -9   24.81    1.57
   2   4   9   27.58    1.55
   2   4   9   26.79    1.65
   2   4   9   24.96    1.82
  -3  -4  -9   28.44    1.65
  -3  -4  -9   28.28    1.65
   3   4   9   22.73    2.11
   3   4   9   27.88    1.73
   3   4   9   28.25    1.63
   4  -4   9    2.39    0.51
  -4  -4  -9    2.97    0.36
  -4  -4  -9    2.93    0.35
   4   4   9    2.67    0.34
   4   4   9    2.91    0.47
  -5  -4  -9    6.03    0.41
   5  -4   9    4.70    0.54
  -5  -4  -9    5.58    0.42
   5   4   9    6.15    0.50
   5   4   9    5.66    0.48
   6   5  -9    2.90    0.27
  -6   5   9    2.42    0.35
  -5  -5   9   -0.02    0.38
  -5  -5   9   -0.03    0.17
   5  -5  -9   -0.48    0.48
   5  -5  -9   -0.05    0.32
   5  -5  -9    0.27    0.19
  -5   5   9   -0.07    0.23
  -5   5   9   -0.34    0.30
  -5   5   9    0.14    0.30
   5   5  -9    0.18    0.18
   4  -5  -9    3.68    0.45
   4  -5  -9    3.99    0.44
   4  -5  -9    4.48    0.66
  -4  -5   9    3.18    0.49
  -4  -5   9    4.22    0.44
  -4   5   9    3.39    0.62
   4   5  -9    3.42    0.55
  -4   5   9    2.60    0.59
  -3  -5   9    0.42    0.21
   3  -5  -9    0.22    0.32
   3  -5  -9    0.31    0.20
   3  -5  -9    0.44    0.21
  -3  -5   9    0.50    0.27
  -3   5   9   -0.03    0.46
  -3   5   9    0.77    0.44
   3   5  -9    0.19    0.20
   3   5  -9    0.06    0.25
  -3   5   9    0.26    0.32
   2  -5  -9    9.64    0.77
   2  -5  -9    9.77    0.83
   2  -5  -9   10.10    0.80
  -2  -5   9   10.04    0.88
   2  -5  -9    9.43    0.75
  -2  -5   9   10.08    0.76
  -2   5   9   11.59    1.17
  -2   5   9   10.57    0.91
  -2   5   9    9.97    0.85
   2   5  -9   11.28    0.90
   2   5  -9   11.83    0.71
  -2   5   9   11.23    0.89
  -1  -5   9   22.35    1.52
   1  -5  -9   22.40    1.52
   1  -5  -9   21.55    1.51
   1  -5  -9   22.40    1.55
  -1   5   9   26.38    1.66
  -1   5   9   27.55    1.68
  -1   5   9   27.32    1.53
   1   5  -9   27.24    1.69
   1   5  -9   26.85    1.47
  -1   5   9   27.15    1.88
   0  -5  -9   17.96    1.15
   0  -5  -9   18.32    1.17
   0  -5  -9   18.60    1.15
   0  -5   9   18.12    1.18
   0   5   9   17.88    1.13
   0   5   9   17.65    1.38
   0   5   9   18.10    1.23
   0   5  -9   18.44    1.34
  -1  -5  -9   22.60    1.30
  -1  -5  -9   21.46    1.33
  -1  -5  -9   20.95    1.31
   1  -5   9   21.07    1.52
   1   5   9   19.46    1.48
  -1   5  -9   17.12    1.52
   1   5   9   20.74    1.26
   1   5   9   20.94    1.37
  -2  -5  -9    9.88    0.77
  -2  -5  -9    9.48    0.73
   2   5   9   10.93    0.84
   2   5   9   11.07    0.72
   2   5   9    9.40    1.19
   3  -5   9   13.35    0.98
  -3  -5  -9   14.53    0.93
  -3  -5  -9   16.32    0.99
   3   5   9   13.57    1.03
   3   5   9   12.78    0.90
  -4  -5  -9    7.11    0.55
  -4  -5  -9    7.43    0.54
   4   5   9    8.22    0.63
   4   5   9    8.00    0.58
  -5  -5  -9    0.70    0.16
   5   5   9    0.48    0.20
   5  -6  -9    8.72    0.63
  -5  -6   9    8.12    0.73
  -5   6   9   10.26    0.72
   5   6  -9   10.35    0.59
   4  -6  -9    1.99    0.37
  -4  -6   9    1.97    0.36
  -4  -6   9    1.85    0.33
   4  -6  -9    2.31    0.34
   4  -6  -9    2.73    0.63
   4   6  -9    2.85    0.29
  -4   6   9    2.33    0.50
  -4   6   9    3.01    0.46
   3  -6  -9   12.64    0.83
   3  -6  -9   11.94    0.82
  -3  -6   9   12.41    0.82
   3  -6  -9   12.57    0.95
  -3  -6   9   12.06    0.84
  -3   6   9   11.11    1.06
   3   6  -9   11.61    0.91
   3   6  -9   11.60    0.77
  -3   6   9   10.94    0.95
   2  -6  -9    3.06    0.40
   2  -6  -9    3.28    0.53
   2  -6  -9    3.54    0.42
  -2  -6   9    3.35    0.49
  -2  -6   9    3.85    0.42
  -2   6   9    2.64    0.55
   2   6  -9    3.15    0.35
  -2   6   9    2.15    0.76
   2   6  -9    2.58    0.51
   1  -6  -9    1.81    0.49
   1  -6  -9    1.56    0.38
  -1  -6   9    1.75    0.38
   1  -6  -9    1.98    0.35
  -1  -6   9    1.73    0.37
   1  -6  -9    1.77    0.40
   1   6  -9    2.16    0.35
  -1   6   9    1.65    0.39
  -1   6   9    1.58    0.48
  -1   6   9    1.54    0.47
   1   6  -9    1.27    0.33
   0  -6  -9   12.42    0.86
   0  -6   9   12.08    0.87
   0  -6  -9   12.55    0.86
   0  -6  -9   12.64    0.89
   0   6   9   13.66    1.00
   0   6   9   12.76    1.00
   0   6   9   11.85    1.14
   0   6  -9   12.78    1.04
   0   6  -9   12.80    1.14
   0   6   9   13.07    0.95
   0   6   9   11.77    0.91
   1  -6   9   12.00    0.81
  -1  -6  -9   11.56    0.85
  -1  -6  -9   11.90    0.80
  -1  -6  -9   11.80    0.81
   1   6   9   10.60    0.88
   1   6   9   10.32    0.98
   1   6   9   10.31    0.84
   1   6   9   10.10    0.79
   2  -6   9   27.50    1.71
   2   6   9   28.03    1.69
   2   6   9   29.72    1.76
  -3  -6  -9   24.07    1.38
   3  -6   9   21.19    1.57
   3   6   9   26.00    1.44
   3   6   9   20.21    1.51
  -4  -6  -9    8.36    0.52
   4   6   9    6.89    0.66
   4   6   9    8.14    0.58
   4  -7  -9    8.24    0.60
   4  -7  -9    8.61    0.58
  -4  -7   9    9.22    0.57
  -4   7   9    7.05    0.73
   3  -7  -9    0.50    0.22
  -3  -7   9    0.49    0.25
  -3  -7   9    0.76    0.19
   3  -7  -9    0.64    0.19
   3  -7  -9    0.20    0.40
   3   7  -9    0.84    0.17
  -3   7   9    1.03    0.30
  -2  -7   9    0.06    0.21
   2  -7  -9    0.21    0.20
   2  -7  -9   -0.15    0.28
  -2  -7   9    0.12    0.16
   2  -7  -9    0.00    0.16
  -2   7   9    0.47    0.26
  -2   7   9    0.00    0.42
  -1  -7   9    0.92    0.28
   1  -7  -9    0.96    0.22
   1  -7  -9    0.84    0.29
   1  -7  -9    0.74    0.24
  -1  -7   9    0.83    0.20
  -1   7   9    0.75    0.28
  -1   7   9    0.71    0.33
   0  -7  -9    0.99    0.27
   0  -7  -9    0.80    0.27
   0  -7  -9    0.79    0.22
   0   7   9    0.93    0.28
   0   7   9    0.86    0.28
  -1  -7  -9    4.47    0.45
  -1  -7  -9    4.07    0.51
   1  -7   9    4.12    0.46
   1   7   9    5.35    0.52
   1   7   9    5.50    0.56
   1   7   9    5.25    0.65
  -2  -7  -9    4.91    0.43
   2   7   9    5.47    0.50
   2   7   9    5.71    0.56
  -3  -7  -9    4.91    0.37
   3   7   9    4.46    0.61
   3  -8  -9   12.23    0.76
  -3  -8   9   11.30    0.77
  -3   8   9   14.09    0.85
   2  -8  -9   16.53    1.23
  -2  -8   9   18.25    1.08
   2  -8  -9   19.41    1.09
  -2  -8   9   17.94    1.09
  -2   8   9   18.33    1.24
   1  -8  -9    0.03    0.37
   1  -8  -9    0.70    0.17
  -1  -8   9    0.67    0.18
  -1  -8   9    0.83    0.26
  -1   8   9    0.24    0.42
  -1   8   9    0.38    0.26
   0  -8  -9   24.61    1.44
   0  -8  -9   20.92    1.52
   0  -8   9   24.63    1.40
   0  -8  -9   24.96    1.42
   0   8   9   24.90    1.49
   0   8   9   22.63    1.47
   1  -8   9    1.17    0.24
  -1  -8  -9    1.45    0.37
   1   8   9    1.45    0.34
   1   8   9    1.33    0.26
  -2  -8  -9   10.23    0.67
   2   8   9   11.09    0.90
   7   0 -10    3.10    0.43
  -7   0  10    3.32    0.71
  -6   0  10   26.21    1.74
  -6   0  10   26.39    1.69
   6   0 -10   28.90    1.69
  -5   0  10   12.96    1.00
   5   0 -10   13.55    0.98
  -5   0  10   12.12    1.20
   5   0 -10   12.42    0.98
  -5   0  10   10.90    1.05
   5   0 -10   12.86    0.93
  -5   0  10   12.83    0.93
  -4   0  10   66.28    3.92
   4   0 -10   68.01    3.91
  -4   0  10   69.74    3.89
   4   0 -10   69.09    3.92
   4   0 -10   67.09    3.93
   4   0 -10   63.29    3.87
  -4   0  10   71.82    4.02
   3   0 -10    4.88    0.51
  -3   0  10    4.36    0.50
  -3   0  10    4.83    0.46
   3   0 -10    5.55    1.12
   3   0 -10    4.55    0.51
   3   0 -10    4.62    0.57
   2   0 -10    1.87    0.40
   2   0 -10    2.01    0.41
   2   0 -10    2.24    0.50
   2   0 -10    2.83    0.79
  -2   0  10    2.26    0.38
  -2   0  10    1.71    0.42
   1   0 -10   25.45    1.48
  -1   0  10   22.14    1.43
  -1   0  10   24.40    1.46
   1   0 -10   24.36    1.58
   0   0 -10   10.06    0.85
   0   0 -10   10.62    0.73
  -1   0 -10   18.65    1.30
  -1   0 -10   19.72    1.18
  -2   0 -10   77.24    4.29
  -2   0 -10   74.54    4.38
   3   0  10   19.07    1.25
  -3   0 -10   20.63    1.25
   4   0  10    0.87    0.24
  -4   0 -10    0.79    0.24
   5   0  10    8.14    0.59
  -5   0 -10    7.77    0.58
   6   0  10    0.61    0.20
   7   1 -10    7.22    0.57
  -7   1  10    7.25    0.56
  -7   1  10    8.04    0.64
  -6  -1  10    1.95    0.53
  -6  -1  10    1.87    0.42
   6  -1 -10    1.97    0.37
   6  -1 -10    1.43    0.33
  -6   1  10    2.29    0.54
  -6   1  10    2.28    0.43
   6   1 -10    2.03    0.43
  -5  -1  10    1.18    0.44
  -5  -1  10    1.31    0.29
   5  -1 -10    1.15    0.30
   5  -1 -10    0.91    0.35
  -5  -1  10    1.63    0.73
  -5  -1  10    0.65    0.47
   5  -1 -10    0.97    0.32
  -5   1  10    0.40    0.41
  -5   1  10    0.20    0.45
  -5   1  10    0.27    0.39
   5   1 -10    0.85    0.33
   4  -1 -10   11.76    0.94
   4  -1 -10   11.68    0.93
   4  -1 -10   10.32    0.87
  -4  -1  10   10.89    0.95
  -4  -1  10    9.88    1.06
   4  -1 -10   11.53    0.89
  -4  -1  10   11.36    0.85
   4   1 -10   12.89    0.94
  -4   1  10   13.36    0.94
   4   1 -10   14.11    0.92
   4   1 -10   13.41    0.92
  -4   1  10   12.54    1.29
  -4   1  10   13.50    0.87
   3  -1 -10    5.52    0.73
   3  -1 -10    5.80    0.72
   3  -1 -10    6.54    0.64
  -3  -1  10    6.64    0.64
  -3  -1  10    6.55    0.56
   3  -1 -10    6.58    0.61
   3   1 -10    7.07    0.62
  -3   1  10    7.87    0.61
   3   1 -10    7.04    0.99
   3   1 -10    8.29    0.65
   3   1 -10    7.85    0.65
  -3   1  10    7.56    0.58
   2  -1 -10   47.37    2.93
  -2  -1  10   50.59    2.81
   2  -1 -10   47.45    2.78
  -2  -1  10   45.94    2.82
   2  -1 -10   48.53    2.78
   2  -1 -10   48.21    2.82
   2   1 -10   47.09    2.78
   2   1 -10   47.99    2.91
  -2   1  10   48.97    2.78
   2   1 -10   49.95    2.81
  -2   1  10   48.65    2.76
   2   1 -10   47.46    2.80
   1  -1 -10   11.04    0.79
   1  -1 -10   10.58    0.75
   1  -1 -10   11.95    0.81
   1  -1 -10   10.75    0.89
   1   1 -10   10.08    0.82
  -1   1  10   10.82    0.75
  -1   1  10   10.97    0.70
   1   1 -10   10.42    0.94
   1   1 -10    9.97    0.78
   0  -1 -10   59.71    3.54
   0  -1 -10   58.70    3.61
   0   1  10   63.54    3.54
   0   1  10   64.61    3.57
   0   1 -10   64.64    3.66
   0   1 -10   64.97    3.56
  -1  -1 -10   15.31    0.98
  -1  -1 -10   13.23    0.95
  -1   1 -10   16.69    0.98
  -1   1 -10   16.44    1.19
  -2  -1 -10   33.50    1.86
  -2  -1 -10   31.05    1.81
  -2   1 -10   31.54    1.84
  -2   1 -10   29.87    2.06
   2   1  10   30.61    1.83
  -3  -1 -10    3.74    0.42
  -3  -1 -10    3.46    0.39
  -3  -1 -10    3.67    0.73
   3   1  10    3.00    0.39
  -3   1 -10    2.47    0.41
   4  -1  10    3.14    0.48
  -4  -1 -10    2.85    0.39
  -4  -1 -10    2.68    0.35
  -4   1 -10    2.90    0.41
   4   1  10    2.31    0.43
   4   1  10    2.86    0.37
   5  -1  10   13.66    0.92
  -5  -1 -10   14.21    0.91
  -5   1 -10   14.10    0.93
   5   1  10   14.92    0.91
  -6  -1 -10   11.11    0.74
   6   1  10   12.89    0.78
   7   2 -10    2.93    0.32
  -7   2  10    1.93    0.34
   6  -2 -10   12.80    1.05
  -6   2  10   14.94    1.03
  -6   2  10   16.73    1.08
   6   2 -10   15.94    0.99
   5  -2 -10    8.76    0.81
  -5  -2  10    8.22    0.72
   5  -2 -10    8.09    0.76
  -5   2  10    9.62    0.84
   5   2 -10   10.35    0.75
  -5   2  10    9.60    0.91
  -4  -2  10    7.15    0.61
  -4  -2  10    6.27    0.81
   4  -2 -10    6.24    0.55
   4  -2 -10    6.93    0.63
   4  -2 -10    6.49    0.61
   4  -2 -10    7.55    0.70
  -4   2  10    6.73    0.61
  -4   2  10    5.01    1.04
   4   2 -10    6.63    0.62
   4   2 -10    6.58    0.62
  -4   2  10    6.02    0.67
   4   2 -10    6.44    0.87
   3  -2 -10   74.53    4.18
  -3  -2  10   76.51    4.14
   3  -2 -10   72.68    4.06
   3  -2 -10   72.47    4.19
   3  -2 -10   71.11    4.12
   3  -2 -10   72.80    4.14
  -3  -2  10   70.04    4.19
  -3   2  10   72.02    4.15
  -3   2  10   66.54    4.31
   3   2 -10   73.02    4.14
  -3   2  10   73.26    4.13
   3   2 -10   75.78    4.17
   2  -2 -10    2.66    0.44
   2  -2 -10    3.04    0.66
   2  -2 -10    3.10    0.53
  -2  -2  10    3.22    0.41
  -2  -2  10    2.46    0.60
   2  -2 -10    3.28    0.42
   2  -2 -10    3.13    0.82
   2   2 -10    3.36    0.65
  -2   2  10    2.95    0.36
   2   2 -10    3.13    0.44
  -2   2  10    2.98    0.39
   2   2 -10    2.77    0.48
   2   2 -10    2.15    0.44
  -2   2  10    2.76    0.55
   1  -2 -10   25.88    1.84
   1  -2 -10   28.20    1.82
   1  -2 -10   28.13    1.80
   1  -2 -10   27.10    1.76
   1   2 -10   33.59    1.94
  -1   2  10   35.58    1.82
   1   2 -10   32.58    1.83
   0  -2 -10   36.67    2.00
   0  -2 -10   36.17    2.02
   0  -2 -10   35.74    2.10
   0   2 -10   34.16    2.05
   0   2  10   30.62    2.03
   0   2 -10   32.93    2.15
   0   2  10   35.55    2.06
  -1  -2 -10   43.70    2.62
  -1  -2 -10   41.24    2.59
  -1   2 -10   45.27    2.78
   1   2  10   47.76    2.74
   1   2  10   47.71    2.60
  -1   2 -10   47.94    2.64
  -2  -2 -10    3.94    0.40
  -2  -2 -10    4.29    0.52
   2   2  10    3.51    0.37
  -2   2 -10    2.88    0.48
  -3  -2 -10   51.06    2.91
  -3  -2 -10   49.18    2.87
   3   2  10   51.58    2.89
  -3   2 -10   49.80    2.89
   4  -2  10   23.27    1.42
  -4  -2 -10   22.08    1.32
  -4  -2 -10   22.41    1.37
   4   2  10   21.18    1.35
  -5  -2 -10    7.52    0.53
   5  -2  10    6.98    0.60
   6   2  10    0.94    0.22
   6  -3 -10    2.99    0.54
  -6  -3  10    2.79    0.35
  -6   3  10    2.25    0.49
   6   3 -10    1.99    0.33
  -6   3  10    2.13    0.37
  -5  -3  10   12.11    0.89
   5  -3 -10   11.88    0.99
   5  -3 -10   12.52    0.94
   5  -3 -10   12.23    0.88
  -5   3  10   14.08    1.18
  -5   3  10   14.20    1.21
  -5   3  10   13.84    1.01
  -4  -3  10    0.13    0.27
   4  -3 -10    0.18    0.24
  -4  -3  10    0.53    0.53
   4  -3 -10    0.21    0.32
   4  -3 -10    0.17    0.24
   4  -3 -10    0.64    0.30
  -4   3  10    1.11    0.39
  -4   3  10    0.35    0.47
  -4   3  10    0.63    0.34
   4   3 -10    0.52    0.36
   4   3 -10    1.01    0.26
  -4   3  10    1.35    0.46
   3  -3 -10   18.55    1.16
  -3  -3  10   18.84    1.16
   3  -3 -10   18.90    1.17
   3  -3 -10   19.00    1.22
  -3  -3  10   18.36    1.37
   3  -3 -10   18.72    1.10
  -3   3  10   17.03    1.19
   3   3 -10   17.25    1.14
   3   3 -10   17.18    1.19
   3   3 -10   17.27    1.31
  -3   3  10   16.04    1.14
  -3   3  10   16.69    1.35
  -2  -3  10   76.01    4.34
   2  -3 -10   66.87    4.42
   2  -3 -10   72.08    4.33
   2  -3 -10   77.04    4.28
  -2   3  10   78.60    4.46
  -2   3  10   80.04    4.38
   2   3 -10   77.48    4.31
  -2   3  10   78.25    4.33
   2   3 -10   81.81    4.38
   1  -3 -10   10.90    0.77
   1  -3 -10   10.45    0.73
   1  -3 -10   10.16    1.15
  -1  -3  10    8.59    0.99
  -1   3  10   10.89    0.78
   1   3 -10   10.58    0.94
   1   3 -10    9.70    0.73
   1   3 -10   10.84    0.83
  -1   3  10   11.33    0.70
   0  -3 -10   23.35    1.50
   0  -3 -10   22.85    1.54
   0  -3 -10   23.07    1.47
   0   3 -10   24.20    1.58
   0   3 -10   26.26    1.68
   0   3  10   27.01    1.47
   0   3  10   26.60    1.57
  -1  -3 -10   14.34    0.96
  -1  -3 -10   13.62    0.92
   1   3  10   13.37    1.10
   1   3  10   16.13    0.91
  -1   3 -10   14.32    1.09
   1   3  10   14.17    1.11
  -1   3 -10   15.29    1.25
  -2  -3 -10    8.22    0.64
  -2  -3 -10    8.69    0.68
   2   3  10    8.00    1.08
   2   3  10    9.97    0.63
  -3  -3 -10   21.25    1.36
  -3  -3 -10   21.51    1.34
   3   3  10   23.36    1.35
   4  -3  10    5.77    0.68
  -4  -3 -10    5.93    0.56
  -4  -3 -10    6.10    0.72
  -4  -3 -10    5.94    0.50
   4   3  10    5.52    0.48
   5  -3  10   21.02    1.38
  -5  -3 -10   22.78    1.35
   5   3  10   23.15    1.35
   5   3  10   24.31    1.42
   6  -4 -10    1.71    0.44
  -6  -4  10    1.74    0.36
   6   4 -10    2.38    0.29
  -6   4  10    2.79    0.45
  -6   4  10    2.13    0.41
   5  -4 -10    6.27    0.70
   5  -4 -10    6.65    0.55
  -5  -4  10    6.07    0.55
  -5  -4  10    6.31    0.60
   5  -4 -10    6.92    0.62
   5   4 -10    7.14    0.55
  -5   4  10    6.99    0.64
  -5   4  10    7.20    0.76
  -5   4  10    6.85    0.65
   4  -4 -10    3.58    0.63
  -4  -4  10    3.51    0.46
   4  -4 -10    3.30    0.47
   4  -4 -10    3.81    0.47
   4   4 -10    4.79    0.45
  -4   4  10    4.51    0.70
  -4   4  10    3.16    0.79
   4   4 -10    4.82    0.64
   3  -4 -10   44.99    2.60
  -3  -4  10   45.36    2.59
   3  -4 -10   43.82    2.58
   3  -4 -10   45.26    2.64
   3  -4 -10   43.78    2.56
  -3   4  10   42.93    2.58
   3   4 -10   44.58    2.56
  -3   4  10   42.43    2.74
   3   4 -10   45.15    2.61
  -3   4  10   43.10    2.65
   3   4 -10   44.57    2.71
   2  -4 -10   80.84    4.71
  -2  -4  10   84.44    4.73
   2  -4 -10   83.96    4.74
   2  -4 -10   86.42    4.69
   2  -4 -10   83.42    4.75
   2   4 -10   83.57    4.68
   2   4 -10   85.02    4.75
   2   4 -10   85.92    4.87
  -2   4  10   79.26    4.71
  -2   4  10   81.23    4.84
  -2   4  10   82.25    4.78
  -1  -4  10   54.60    3.23
   1  -4 -10   54.61    3.23
   1  -4 -10   56.59    3.24
  -1   4  10   57.85    3.22
  -1   4  10   59.39    3.35
  -1   4  10   54.46    3.29
   1   4 -10   58.78    3.37
   1   4 -10   53.67    3.15
   0  -4 -10   57.15    3.28
   0  -4 -10   57.64    3.30
   0   4  10   56.12    3.37
   0   4  10   53.40    3.35
   0   4 -10   60.06    3.44
   0   4  10   59.92    3.27
  -1  -4 -10    8.33    0.75
   1   4  10   11.30    0.70
   1   4  10   10.57    0.98
   1   4  10    9.85    0.85
  -1   4 -10   10.22    1.07
  -2  -4 -10    6.29    0.51
  -2  -4 -10    6.12    0.54
   2   4  10    5.56    0.47
   2   4  10    4.24    1.13
   2   4  10    5.78    0.63
  -3  -4 -10    7.98    0.61
  -3  -4 -10    7.96    0.62
   3   4  10    8.19    0.59
   3   4  10    6.47    1.73
   3   4  10    8.33    0.72
  -4  -4 -10    6.89    0.52
   4  -4  10    7.64    0.72
  -4  -4 -10    7.17    0.50
   4   4  10    6.19    0.61
   4   4  10    6.49    0.51
  -5  -4 -10    3.21    0.28
   5   4  10    2.86    0.38
  -5  -5  10   12.13    0.78
  -5  -5  10   10.54    0.92
   5  -5 -10   11.72    0.78
   5  -5 -10   11.64    0.93
   5  -5 -10   11.61    1.02
   5   5 -10   13.01    0.76
  -5   5  10   11.18    0.84
  -5   5  10   12.28    0.91
  -5   5  10   12.84    0.85
  -4  -5  10    7.08    0.60
   4  -5 -10    6.42    0.58
   4  -5 -10    6.81    0.61
  -4  -5  10    6.10    0.62
   4  -5 -10    7.44    0.73
  -4   5  10    8.54    0.77
   4   5 -10    8.21    0.72
  -4   5  10    8.10    0.77
   4   5 -10    8.43    0.57
   3  -5 -10   29.38    1.76
   3  -5 -10   28.41    1.68
  -3  -5  10   29.70    1.69
   3  -5 -10   28.28    1.69
  -3  -5  10   28.46    1.72
  -3   5  10   25.82    1.82
  -3   5  10   24.26    1.83
   3   5 -10   28.09    1.64
   3   5 -10   26.40    1.79
   2  -5 -10   12.21    0.94
   2  -5 -10   12.54    0.90
   2  -5 -10   12.25    0.90
   2  -5 -10   11.52    0.96
  -2  -5  10   12.59    1.01
  -2  -5  10   12.54    0.91
  -2   5  10   14.04    0.95
   2   5 -10   15.51    1.06
  -2   5  10   14.98    1.06
   1  -5 -10   32.92    1.96
   1  -5 -10   33.11    1.95
   1  -5 -10   33.66    1.94
  -1  -5  10   33.77    1.95
  -1   5  10   30.59    2.05
  -1   5  10   31.70    1.93
  -1   5  10   32.86    2.07
   1   5 -10   32.59    2.08
  -1   5  10   31.69    2.08
   0  -5 -10   27.91    1.88
   0  -5 -10   31.19    1.89
   0  -5 -10   30.92    1.88
   0  -5  10   29.59    1.89
   0   5  10   31.63    2.03
   0   5  10   32.87    1.96
   0   5  10   33.75    1.86
   0   5 -10   33.94    2.05
  -1  -5 -10   41.60    2.34
  -1  -5 -10   38.97    2.36
  -1   5 -10   37.80    2.51
   1   5  10   41.61    2.31
   1   5  10   40.90    2.39
   1   5  10   37.28    2.52
  -2  -5 -10   25.91    1.50
  -2  -5 -10   25.54    1.50
   2   5  10   24.29    1.56
   2   5  10   25.81    1.49
   2   5  10   20.73    1.96
  -3  -5 -10   19.04    1.06
  -3  -5 -10   18.94    1.07
   3   5  10   14.42    1.04
   3   5  10   15.24    1.12
  -4  -5 -10    4.94    0.54
  -4  -5 -10    4.89    0.40
  -4  -5 -10    5.09    0.39
   4   5  10    4.95    0.49
   4   5  10    4.32    0.46
  -5  -6  10    1.45    0.24
  -5   6  10    1.66    0.33
   4  -6 -10    1.13    0.23
   4  -6 -10    2.35    0.53
  -4  -6  10    1.38    0.30
   4  -6 -10    1.46    0.35
  -4  -6  10    1.35    0.42
  -4   6  10    1.96    0.66
  -4   6  10    1.86    0.44
   4   6 -10    1.50    0.24
  -3  -6  10   15.05    0.97
   3  -6 -10   14.53    0.98
   3  -6 -10   14.98    1.06
  -3  -6  10   15.01    0.98
   3  -6 -10   14.92    0.97
  -3   6  10   14.85    1.11
  -3   6  10   14.51    1.15
   3   6 -10   15.01    1.06
   3   6 -10   14.98    0.91
  -2  -6  10   28.53    1.70
   2  -6 -10   30.09    1.83
  -2  -6  10   27.13    1.72
   2  -6 -10   27.65    1.71
  -2   6  10   29.16    1.85
   2   6 -10   28.56    1.82
   2   6 -10   26.78    1.66
   1  -6 -10    5.82    0.54
   1  -6 -10    6.37    0.59
  -1  -6  10    6.38    0.55
   1  -6 -10    6.32    0.61
  -1   6  10    6.62    1.34
  -1   6  10    6.31    0.78
   1   6 -10    6.02    0.67
  -1   6  10    5.89    0.67
   0  -6 -10    9.77    0.78
   0  -6 -10    9.86    0.73
   0  -6  10    9.68    0.74
   0  -6 -10    9.98    0.73
   0   6  10   10.39    0.83
   0   6  10    9.22    0.76
   0   6 -10    9.75    0.88
   0   6  10    9.19    0.92
   0   6  10    9.19    0.80
   0   6  10   10.02    1.21
  -1  -6 -10    5.48    0.49
  -1  -6 -10    4.82    0.60
   1  -6  10    6.31    0.58
   1   6  10    5.07    0.52
   1   6  10    5.02    0.59
  -2  -6 -10   22.91    1.43
   2  -6  10   22.04    1.47
   2   6  10   23.91    1.43
   2   6  10   26.49    1.51
  -3  -6 -10    1.34    0.24
   3  -6  10    0.78    0.37
   3   6  10    1.30    0.28
  -4  -6 -10   19.70    1.24
  -4  -6 -10   22.30    1.18
   4   6  10   21.48    1.23
   4   6  10   18.20    1.27
  -4  -7  10    9.80    0.60
   4  -7 -10    9.22    0.63
  -4   7  10    9.29    0.70
   3  -7 -10    3.63    0.34
   3  -7 -10    2.73    0.71
  -3  -7  10    3.72    0.36
  -3  -7  10    3.41    0.37
  -3   7  10    2.89    0.45
   2  -7 -10    4.09    0.52
   2  -7 -10    4.64    0.40
  -2  -7  10    4.16    0.43
   2  -7 -10    3.97    0.47
  -2  -7  10    4.23    0.41
  -2   7  10    3.33    0.51
   1  -7 -10    0.32    0.28
  -1  -7  10    0.36    0.31
   1  -7 -10    0.35    0.20
   1  -7 -10    0.51    0.24
  -1  -7  10    0.42    0.19
  -1   7  10    0.39    0.24
  -1   7  10    0.38    0.40
   0  -7  10   33.21    1.96
   0  -7 -10   32.84    1.97
   0  -7 -10   33.94    1.99
   0   7  10   33.93    2.03
   0   7  10   34.30    2.06
  -1  -7 -10    2.67    0.34
   1   7  10    2.29    0.43
   2  -7  10    0.99    0.29
  -2  -7 -10    0.79    0.19
   2   7  10    0.81    0.21
   2   7  10    1.12    0.28
  -3  -7 -10   20.20    1.04
   3   7  10   15.17    1.08
   2  -8 -10    0.64    0.16
  -2  -8  10    0.74    0.27
   2  -8 -10    0.11    0.34
  -2   8  10    0.55    0.19
   1  -8 -10    1.00    0.31
  -1  -8  10    0.79    0.19
   0  -8 -10    2.52    0.48
   0  -8  10    2.42    0.35
   0  -8 -10    2.70    0.36
   0   8  10    1.88    0.52
  -1  -8 -10    8.62    0.65
  -1  -8 -10    9.42    0.60
   1   8  10    8.43    0.72
  -2  -8 -10    7.03    0.48
   7   0 -11    4.43    0.43
  -6   0  11    7.84    0.69
  -6   0  11    7.53    0.97
   6   0 -11    7.89    0.64
  -5   0  11    5.65    0.63
   5   0 -11    6.02    0.62
  -5   0  11    6.13    1.01
  -5   0  11    5.40    0.71
   5   0 -11    6.05    0.65
  -4   0  11    8.80    0.98
  -4   0  11    8.88    0.88
  -4   0  11    9.67    0.73
   4   0 -11    9.18    0.76
   4   0 -11    8.85    0.75
   4   0 -11    9.01    0.78
  -3   0  11   17.11    1.11
   3   0 -11   17.97    1.14
   3   0 -11   17.89    1.15
  -3   0  11   17.46    1.18
   3   0 -11   15.71    1.44
   2   0 -11   45.05    2.64
   2   0 -11   43.85    2.61
  -2   0  11   44.84    2.60
   2   0 -11   47.69    2.64
   2   0 -11   44.17    2.74
   1   0 -11    0.57    0.29
   1   0 -11    0.13    0.31
  -1   0  11    0.23    0.22
   1   0 -11    0.52    0.27
   1   0 -11    0.49    0.24
   0   0 -11   64.02    3.61
   0   0 -11   63.48    3.70
  -1   0 -11   39.20    2.36
  -1   0 -11   38.91    2.25
  -2   0 -11   49.95    2.99
   3   0  11   11.22    0.81
  -3   0 -11   10.39    1.30
  -3   0 -11   11.05    0.77
   4   0  11    1.62    0.38
  -4   0 -11    1.68    0.34
  -5   0 -11   12.37    0.79
   7   1 -11    1.36    0.31
  -6  -1  11    3.93    0.97
  -6  -1  11    2.55    0.58
   6   1 -11    3.22    0.41
  -6   1  11    2.81    0.63
  -6   1  11    3.36    0.46
   5  -1 -11    1.88    0.37
   5  -1 -11    2.08    0.47
  -5  -1  11    2.43    0.60
   5  -1 -11    2.94    0.72
  -5  -1  11    2.15    0.46
  -5   1  11    1.50    0.79
   4  -1 -11   25.79    1.69
   4  -1 -11   28.04    1.70
   4  -1 -11   27.60    1.72
   4  -1 -11   28.14    1.73
  -4  -1  11   27.78    1.82
  -4  -1  11   27.34    1.79
  -4  -1  11   28.19    1.69
   4   1 -11   27.57    1.73
  -4   1  11   26.52    1.74
   4   1 -11   27.56    1.71
   4   1 -11   26.58    2.00
   4   1 -11   27.83    1.72
  -4   1  11   26.92    1.68
  -3  -1  11   15.60    1.02
   3  -1 -11   14.64    1.06
   3  -1 -11   16.15    0.95
   3   1 -11   11.76    0.95
   3   1 -11   11.69    1.17
  -3   1  11   12.73    0.95
  -3   1  11   11.63    0.89
   3   1 -11   12.42    0.92
   3   1 -11   12.53    0.95
   2  -1 -11   22.24    1.38
   2  -1 -11   21.72    1.34
   2  -1 -11   20.85    1.32
   2  -1 -11   21.90    1.50
  -2  -1  11   20.88    1.41
  -2  -1  11   19.33    1.30
   2   1 -11   22.42    1.36
   2   1 -11   21.38    1.49
   2   1 -11   20.82    1.32
  -2   1  11   21.35    1.34
  -2   1  11   22.09    1.31
   2   1 -11   20.91    1.36
   1  -1 -11   16.88    1.11
   1  -1 -11   17.19    1.10
   1  -1 -11   15.62    1.17
   1  -1 -11   15.46    1.06
   1   1 -11   17.53    1.10
   1   1 -11   15.93    1.13
  -1   1  11   17.66    1.12
   1   1 -11   17.70    1.23
  -1   1  11   17.20    1.05
   1   1 -11   18.57    1.14
   0  -1 -11   39.48    2.19
   0  -1 -11   40.00    2.21
   0  -1 -11   40.63    2.28
   0   1 -11   37.15    2.31
   0   1 -11   36.02    2.21
   0   1  11   36.22    2.18
   0   1 -11   36.76    2.37
  -1  -1 -11    6.28    0.50
  -1  -1 -11    6.12    0.63
  -1  -1 -11    5.43    0.51
  -1   1 -11    5.66    0.75
   1   1  11    6.04    0.54
  -1   1 -11    6.53    0.52
  -2  -1 -11   49.19    2.85
  -2  -1 -11   55.65    2.92
  -2   1 -11   46.84    3.05
  -3  -1 -11  100.22    5.81
  -3  -1 -11   87.75    5.64
  -3  -1 -11  103.11    5.73
   3   1  11  107.73    5.71
  -3   1 -11  109.74    5.72
  -4  -1 -11    9.40    0.66
   4  -1  11    9.41    0.74
  -4   1 -11    8.24    0.66
  -5  -1 -11   11.99    0.72
   5  -1  11   10.34    0.84
   5   1  11   10.95    0.73
  -5   1 -11   10.23    0.78
   6  -2 -11    2.82    0.47
  -6   2  11    2.84    0.46
  -6   2  11    2.11    0.38
   6   2 -11    2.43    0.35
   5  -2 -11    1.25    0.39
   5  -2 -11    1.15    0.35
  -5  -2  11    1.07    0.29
   5  -2 -11    1.47    0.32
  -5   2  11    0.62    0.43
  -5   2  11    1.21    0.39
   5   2 -11    1.23    0.29
   4  -2 -11   83.76    4.75
  -4  -2  11   88.08    4.76
   4  -2 -11   81.74    4.72
   4  -2 -11   86.33    4.80
  -4  -2  11   81.83    4.85
   4   2 -11   83.69    4.75
  -4   2  11   82.53    4.79
  -4   2  11   81.91    4.96
  -4   2  11   81.29    4.73
   4   2 -11   80.18    4.85
   4   2 -11   85.75    4.78
  -3  -2  11    4.22    0.47
   3  -2 -11    4.04    0.47
  -3  -2  11    3.82    0.74
   3  -2 -11    4.77    0.52
   3   2 -11    3.94    0.46
   3   2 -11    3.99    0.73
  -3   2  11    3.74    0.46
  -3   2  11    3.94    0.52
   2  -2 -11    2.92    0.75
   2  -2 -11    3.67    0.69
   2   2 -11    4.09    0.68
  -2   2  11    4.63    0.85
   2   2 -11    3.55    0.52
  -2   2  11    3.95    0.48
   2   2 -11    4.33    0.47
  -2   2  11    4.34    0.41
   2   2 -11    4.33    0.52
   1  -2 -11   13.59    0.82
   1  -2 -11   13.44    0.87
   1  -2 -11   13.02    0.93
   1  -2 -11   13.53    0.89
  -1   2  11   11.30    0.78
   1   2 -11    9.87    0.86
  -1   2  11   10.84    0.86
   0  -2 -11    5.37    0.51
   0  -2 -11    5.94    0.46
   0  -2 -11    6.51    0.66
   0   2 -11    4.45    0.70
   0   2  11    4.96    0.44
   0   2 -11    5.13    0.55
  -1  -2 -11   43.85    2.64
  -1  -2 -11   42.29    2.61
  -1   2 -11   46.95    2.65
   1   2  11   47.94    2.62
  -1   2 -11   48.72    2.81
  -2  -2 -11   68.40    3.99
  -2  -2 -11   74.53    4.04
   2   2  11   72.13    4.01
  -2   2 -11   72.73    4.03
  -2   2 -11   67.61    4.24
  -3  -2 -11   28.20    1.69
  -3  -2 -11   28.85    1.80
  -3  -2 -11   27.01    1.64
  -3   2 -11   28.15    1.69
   3   2  11   28.38    1.67
  -4  -2 -11    6.17    0.45
   4  -2  11    5.66    0.66
   4   2  11    4.65    0.47
  -5  -2 -11   11.30    0.72
   5  -2  11   10.22    0.78
   5   2  11   12.16    0.74
   6   3 -11    2.33    0.31
  -6   3  11    2.47    0.47
  -6   3  11    2.60    0.37
   5  -3 -11    8.37    0.67
   5  -3 -11    8.55    0.72
  -5  -3  11    8.17    0.65
   5  -3 -11    7.99    0.65
  -5   3  11    7.24    0.74
  -5   3  11    7.32    0.77
   4  -3 -11   13.79    0.96
   4  -3 -11   14.72    0.98
  -4  -3  11   15.18    0.97
   4  -3 -11   15.29    1.05
  -4  -3  11   12.38    1.43
   4   3 -11   14.30    0.95
  -4   3  11   14.62    1.20
   4   3 -11   13.02    1.08
  -4   3  11   12.25    1.08
  -4   3  11   12.70    1.02
  -3  -3  11   56.26    3.09
   3  -3 -11   56.18    3.08
   3  -3 -11   57.36    3.13
   3  -3 -11   57.02    3.09
  -3   3  11   52.02    3.24
   3   3 -11   50.08    3.05
  -3   3  11   48.53    3.06
  -3   3  11   48.13    3.17
   3   3 -11   53.63    3.12
   3   3 -11   52.27    3.21
   2  -3 -11   26.78    1.88
   2  -3 -11   28.17    1.77
  -2  -3  11   28.32    1.76
   2  -3 -11   27.79    1.79
   2  -3 -11   28.93    1.77
  -2   3  11   30.45    1.90
   2   3 -11   29.12    1.72
  -2   3  11   30.74    1.75
   2   3 -11   29.97    1.80
   2   3 -11   30.05    1.92
  -2   3  11   30.75    1.82
   1  -3 -11    6.27    0.57
   1  -3 -11    6.66    0.66
   1  -3 -11    7.45    0.75
  -1   3  11    5.21    0.47
   1   3 -11    5.16    0.63
  -1   3  11    5.91    0.60
   0  -3 -11    0.92    0.28
   0  -3 -11    0.68    0.31
   0   3 -11    1.05    0.37
  -1  -3 -11    1.27    0.30
  -1  -3 -11    1.47    0.28
   1   3  11    1.64    0.28
   1   3  11    0.86    0.45
   1   3  11    1.32    0.47
  -1   3 -11    1.85    0.40
  -2  -3 -11   82.36    4.62
  -2  -3 -11   87.43    4.65
   2   3  11   80.85    4.62
   2   3  11   77.78    4.71
  -3  -3 -11    1.12    0.23
  -3  -3 -11    1.00    0.21
   3   3  11    1.25    0.30
  -4  -3 -11    6.31    0.73
  -4  -3 -11    6.58    0.47
  -4  -3 -11    6.39    0.50
  -5  -3 -11   15.63    0.93
   5   3  11   14.76    0.93
   5   3  11   15.54    0.99
   6  -4 -11    1.12    0.39
  -6  -4  11    1.22    0.26
  -6   4  11    1.13    0.26
   6   4 -11    0.90    0.22
  -5  -4  11   26.97    1.59
  -5  -4  11   25.53    1.59
   5  -4 -11   26.79    1.65
   5  -4 -11   25.87    1.56
   5  -4 -11   28.02    1.59
  -5   4  11   24.95    1.70
   5   4 -11   27.51    1.56
  -5   4  11   25.00    1.63
  -5   4  11   25.77    1.64
   4  -4 -11   24.18    1.54
   4  -4 -11   24.40    1.61
  -4  -4  11   24.83    1.54
   4   4 -11   26.14    1.52
   4   4 -11   28.74    1.79
  -4   4  11   22.14    1.64
   3  -4 -11   36.78    2.22
   3  -4 -11   36.36    2.18
   3  -4 -11   36.93    2.16
   3   4 -11   38.22    2.14
  -3   4  11   35.12    2.25
  -3   4  11   37.11    2.33
   3   4 -11   35.87    2.19
   3   4 -11   35.60    2.29
   2  -4 -11   63.94    3.58
  -2  -4  11   65.86    3.57
   2  -4 -11   65.90    3.58
   2  -4 -11   63.47    3.55
   2  -4 -11   59.23    3.65
  -2   4  11   58.96    3.54
   2   4 -11   61.83    3.70
  -2   4  11   60.24    3.67
   2   4 -11   61.18    3.58
  -2   4  11   59.62    3.63
   2   4 -11   61.33    3.50
   1  -4 -11    0.67    0.22
   1  -4 -11    0.62    0.25
  -1  -4  11    0.60    0.32
  -1   4  11    0.39    0.33
   1   4 -11    0.87    0.36
   1   4 -11    0.46    0.35
  -1   4  11    0.59    0.19
  -1   4  11    0.95    0.31
   0  -4 -11    7.56    0.58
   0  -4 -11    7.86    0.75
   0  -4 -11    7.71    0.66
   0   4 -11    6.28    0.84
   0   4 -11    6.72    0.85
   0   4  11    7.04    0.55
   0   4  11    7.71    0.81
  -1  -4 -11   20.39    1.32
  -1  -4 -11   19.61    1.33
   1   4  11   21.89    1.46
   1   4  11   23.64    1.98
  -1   4 -11   21.84    1.60
   1   4  11   23.30    1.33
  -2  -4 -11   26.77    1.60
  -2  -4 -11   26.43    1.59
   2   4  11   24.84    2.15
   2   4  11   27.77    1.70
   2   4  11   26.52    1.68
  -3  -4 -11    7.32    0.59
  -3  -4 -11    6.79    0.56
   3   4  11    8.80    0.74
   3   4  11    8.56    0.59
  -4  -4 -11    6.91    0.48
  -4  -4 -11    7.13    0.68
  -4  -4 -11    6.86    0.50
   4   4  11    6.53    0.50
   4   4  11    6.20    0.58
  -5  -4 -11    4.36    0.33
   5   4  11    4.82    0.46
   5  -5 -11    0.46    0.27
   5  -5 -11    0.70    0.39
  -5  -5  11    0.41    0.17
  -5  -5  11    0.39    0.49
  -5   5  11    0.64    0.30
  -4  -5  11    4.01    0.45
  -4  -5  11    4.05    0.47
   4  -5 -11    4.42    0.49
   4  -5 -11    4.53    0.56
   4  -5 -11    4.06    0.44
   4   5 -11    4.19    0.56
   4   5 -11    4.41    0.38
  -4   5  11    4.08    0.60
  -4   5  11    4.37    0.58
  -3  -5  11   56.27    3.28
   3  -5 -11   59.01    3.27
   3  -5 -11   60.03    3.31
   3  -5 -11   58.69    3.30
  -3  -5  11   58.61    3.26
  -3   5  11   52.04    3.37
   3   5 -11   50.58    3.18
   2  -5 -11   24.23    1.55
  -2  -5  11   25.46    1.55
   2  -5 -11   24.84    1.58
   2  -5 -11   25.99    1.56
  -2  -5  11   25.07    1.63
   2   5 -11   25.28    1.47
  -2   5  11   25.45    1.67
  -2   5  11   23.83    1.69
   2   5 -11   26.17    1.68
  -2   5  11   25.03    1.55
   1  -5 -11   23.22    1.43
  -1  -5  11   23.11    1.49
   1  -5 -11   25.06    1.43
   1  -5 -11   24.22    1.43
   1   5 -11   20.51    1.54
  -1   5  11   21.41    1.52
  -1   5  11   21.88    1.40
  -1   5  11   21.59    1.57
   0  -5 -11    8.88    0.67
   0  -5  11    9.17    0.81
   0  -5 -11    9.31    0.71
   0   5  11    8.84    0.65
   0   5  11    9.15    0.78
   0   5  11    8.46    1.00
   0   5 -11    7.90    0.89
   0   5  11    8.31    0.88
  -1  -5 -11   28.52    1.59
  -1   5 -11   23.52    1.79
   1   5  11   23.56    1.91
   1   5  11   27.62    1.56
   1   5  11   26.00    1.66
  -2  -5 -11   11.52    0.78
   2   5  11   11.23    0.77
   2   5  11   11.44    0.92
  -3  -5 -11    2.01    0.29
  -3  -5 -11    2.19    0.33
   3   5  11    1.57    0.44
  -4  -5 -11    0.55    0.15
  -4  -5 -11    0.47    0.17
  -4  -5 -11   -0.03    0.43
   4   5  11    0.82    0.24
   4   5  11    0.13    0.22
  -5  -6  11    3.77    0.30
  -5   6  11    2.90    0.38
   4  -6 -11   -0.09    0.28
  -4  -6  11    0.39    0.18
  -4  -6  11    0.00    0.19
   4  -6 -11    0.25    0.19
  -4   6  11    0.54    0.27
  -4   6  11    0.45    0.41
  -3  -6  11   21.40    1.33
  -3  -6  11   20.86    1.32
   3  -6 -11   22.30    1.33
   3  -6 -11   21.47    1.33
   3  -6 -11   21.60    1.38
  -3   6  11   23.20    1.46
  -3   6  11   21.63    1.45
   3   6 -11   20.51    1.24
   3   6 -11   21.65    1.41
  -2  -6  11   20.98    1.33
   2  -6 -11   21.83    1.31
   2  -6 -11   20.03    1.30
   2  -6 -11   20.99    1.35
  -2  -6  11   21.12    1.30
   2   6 -11   19.64    1.39
  -2   6  11   21.04    1.42
   1  -6 -11    1.67    0.38
   1  -6 -11    1.77    0.39
   1  -6 -11    1.74    0.35
   1  -6 -11    1.74    0.43
  -1  -6  11    1.53    0.39
  -1   6  11    1.33    0.35
   0  -6  11    8.99    0.73
   0  -6 -11    8.57    0.68
   0   6  11    8.33    0.73
   0   6  11   10.16    0.88
   0   6  11    9.80    0.80
   0   6 -11    8.95    1.12
   1   6  11    7.07    0.65
   1   6  11    7.65    0.59
   1   6  11    6.27    0.67
  -2  -6 -11    4.37    0.39
   2   6  11    4.65    0.48
   2   6  11    4.40    0.48
   2   6  11    4.14    0.52
  -3  -6 -11    2.14    0.27
   3   6  11    2.96    0.42
   3   6  11    3.03    0.39
  -4  -7  11    0.63    0.19
  -4   7  11    0.55    0.26
  -4   7  11    0.28    0.28
  -3  -7  11    6.24    0.48
  -3  -7  11    5.89    0.49
   3  -7 -11    6.60    0.61
   3  -7 -11    6.27    0.47
  -3   7  11    6.52    0.58
  -2  -7  11    4.55    0.47
   2  -7 -11    4.41    0.48
  -2  -7  11    4.06    0.43
   2  -7 -11    4.09    0.39
  -2   7  11    4.45    0.52
  -1  -7  11    6.52    0.53
   1  -7 -11    6.94    0.51
   1  -7 -11    6.40    0.55
  -1   7  11    5.91    0.59
   0  -7 -11    6.70    0.65
   0  -7 -11    7.24    0.57
   0  -7 -11    7.30    0.58
   0   7  11    8.33    0.66
   0   7  11    8.26    0.83
   1  -7  11    2.83    0.45
  -1  -7 -11    1.98    0.30
   1   7  11    2.16    0.54
   1   7  11    2.93    0.41
  -2  -7 -11   15.36    0.86
   2   7  11   14.15    0.93
   2   7  11   12.12    0.93
  -3  -7 -11   10.99    0.72
  -3  -7 -11   10.99    0.66
   2  -8 -11   11.11    0.69
  -2   8  11   11.34    0.77
   1  -8 -11    5.81    0.47
   1  -8 -11    4.65    0.39
  -1   8  11    4.61    0.51
   0  -8 -11    3.80    0.40
   0   8  11    4.13    0.48
  -1  -8 -11   10.52    0.67
   6   0 -12    2.36    0.37
  -6   0  12    2.47    0.48
  -5   0  12    1.12    0.49
   5   0 -12    1.28    0.29
  -5   0  12    0.89    0.31
   4   0 -12   61.73    3.48
  -4   0  12   57.40    3.52
  -4   0  12   60.52    3.47
   4   0 -12   61.34    3.49
   4   0 -12   60.96    3.48
  -4   0  12   57.04    3.57
  -3   0  12   11.00    0.81
   3   0 -12   11.20    0.89
  -3   0  12   11.37    0.96
   3   0 -12   12.32    0.84
   3   0 -12   12.09    0.86
   3   0 -12   10.61    1.15
   2   0 -12   17.58    1.13
  -2   0  12   17.88    1.12
  -2   0  12   16.81    1.22
   2   0 -12   18.21    1.30
   2   0 -12   18.18    1.16
   2   0 -12   17.84    1.18
   1   0 -12   42.12    2.46
   1   0 -12   42.92    2.38
   1   0 -12   41.23    2.40
  -1   0  12   39.36    2.34
   1   0 -12   37.77    2.35
   0   0 -12    0.53    0.27
   0   0 -12    0.67    0.43
   0   0 -12    0.76    0.22
  -1   0 -12   10.81    0.73
  -1   0 -12   10.84    0.90
  -2   0 -12   51.69    3.03
  -2   0 -12   49.52    2.90
  -3   0 -12   47.66    2.66
   3   0  12   44.52    2.65
  -3   0 -12   45.39    2.84
   4   0  12    2.73    0.43
  -4   0 -12    3.33    0.45
  -5   0 -12   12.53    0.77
   5   0  12   11.75    0.81
  -6  -1  12   -0.64    0.58
   6  -1 -12   -0.07    0.22
  -6   1  12    0.10    0.27
   6   1 -12   -0.11    0.18
   5  -1 -12    1.90    0.42
  -5  -1  12    1.45    0.51
  -5  -1  12    1.29    0.30
   5  -1 -12    1.21    0.35
  -5   1  12    1.94    0.68
  -5   1  12    1.24    0.66
  -5   1  12    0.69    0.37
   5   1 -12    1.59    0.39
   4  -1 -12  153.12    8.62
   4  -1 -12  154.98    8.62
  -4  -1  12  144.92    8.67
  -4  -1  12  151.48    8.62
   4  -1 -12  154.64    8.64
  -4  -1  12  147.38    8.69
   4   1 -12  161.52    8.65
  -4   1  12  155.07    8.67
  -4   1  12  153.32    8.61
   4   1 -12  162.01    8.63
   4   1 -12  147.48    8.71
   4   1 -12  157.79    8.65
   3  -1 -12   23.67    2.41
   3  -1 -12   28.33    1.59
  -3  -1  12   26.00    1.57
   3  -1 -12   27.53    1.59
  -3  -1  12   26.54    1.71
   3  -1 -12   26.16    1.63
   3   1 -12   23.34    1.75
  -3   1  12   24.09    1.56
   3   1 -12   26.11    1.61
  -3   1  12   24.08    1.62
   3   1 -12   23.55    1.60
   3   1 -12   24.95    1.56
   2  -1 -12    7.97    0.60
   2  -1 -12    7.91    0.80
  -2  -1  12    6.69    0.56
  -2   1  12    6.49    0.65
   2   1 -12    5.72    0.59
  -2   1  12    5.91    0.53
   2   1 -12    5.02    0.77
   2   1 -12    5.59    0.55
   1  -1 -12   44.07    2.68
   1  -1 -12   44.83    2.63
   1  -1 -12   42.65    2.58
   1  -1 -12   45.59    2.60
   1   1 -12   47.35    2.65
  -1   1  12   43.04    2.65
  -1   1  12   46.69    2.57
   1   1 -12   40.46    2.58
   1   1 -12   46.74    2.72
   1   1 -12   48.10    2.62
   0  -1 -12   35.08    2.09
   0  -1 -12   37.48    2.11
   0  -1 -12   34.67    2.20
   0  -1 -12   35.80    2.19
   0   1 -12   38.02    2.12
   0   1 -12   37.07    2.23
   0   1 -12   35.58    2.22
   0   1  12   35.77    2.21
  -1  -1 -12   49.90    2.74
  -1  -1 -12   44.21    2.69
  -1  -1 -12   47.87    2.82
  -1   1 -12   48.72    2.85
  -1   1 -12   49.15    2.73
   1   1  12   45.41    2.71
  -2  -1 -12   13.09    0.81
  -2  -1 -12   13.02    0.96
   2   1  12   10.53    0.81
  -2   1 -12   11.19    1.07
  -2   1 -12   10.91    0.79
  -3  -1 -12   36.56    2.25
  -3  -1 -12   37.73    2.39
  -3   1 -12   41.21    2.25
   4  -1  12    9.19    0.75
   4   1  12    8.60    0.66
  -4   1 -12    9.13    0.66
  -5  -1 -12    2.09    0.27
   5   1  12    2.34    0.34
   6  -2 -12    3.25    0.44
   6   2 -12    3.36    0.36
  -6   2  12    4.20    0.64
  -6   2  12    3.46    0.42
   5  -2 -12    4.64    0.53
   5  -2 -12    4.74    0.53
  -5  -2  12    4.34    0.52
  -5   2  12    4.77    0.62
   5   2 -12    3.81    0.43
  -5   2  12    3.52    0.82
  -4  -2  12   39.72    2.74
  -4  -2  12   41.28    2.55
   4  -2 -12   43.37    2.54
   4  -2 -12   44.28    2.57
   4   2 -12   40.78    2.66
  -4   2  12   41.36    2.61
  -4   2  12   43.74    2.54
   4   2 -12   46.42    2.54
   4   2 -12   45.23    2.57
   3  -2 -12   70.43    4.07
  -3  -2  12   73.97    4.43
  -3  -2  12   65.81    4.05
   3  -2 -12   64.20    4.07
   3  -2 -12   67.53    4.05
  -3   2  12   72.37    4.25
   3   2 -12   74.36    4.04
  -3   2  12   72.57    4.10
   3   2 -12   73.33    4.09
  -3   2  12   72.80    4.05
   3   2 -12   71.21    4.18
   2  -2 -12   13.48    1.10
  -2  -2  12   12.86    0.94
   2  -2 -12   13.12    0.94
   2  -2 -12   14.39    1.04
   2  -2 -12   12.94    0.93
   2   2 -12   13.29    0.98
  -2   2  12   14.56    1.01
   2   2 -12   15.00    1.13
  -2   2  12   15.19    0.93
  -2   2  12   13.72    1.22
   1  -2 -12   11.99    0.84
   1  -2 -12   13.26    0.90
   1  -2 -12   12.11    0.95
   1  -2 -12   12.83    0.89
   1   2 -12   11.84    1.04
   1   2 -12   13.91    0.91
  -1   2  12   12.67    0.96
  -1   2  12   13.25    0.83
   0  -2 -12   38.07    2.16
   0  -2 -12   39.22    2.18
   0  -2 -12   38.95    2.25
   0  -2 -12   37.67    2.27
   0   2  12   32.93    2.26
   0   2  12   36.92    2.16
   0   2 -12   37.96    2.21
   0   2 -12   38.19    2.33
  -1  -2 -12    1.98    0.36
   1   2  12    2.63    0.33
  -1   2 -12    2.33    0.51
  -2  -2 -12    3.49    0.58
  -2  -2 -12    4.04    0.43
  -2  -2 -12    3.45    0.42
   2   2  12    4.18    0.41
  -2   2 -12    3.88    0.49
  -2   2 -12    3.83    0.98
  -3  -2 -12   39.90    2.36
  -3  -2 -12   37.09    2.20
  -3  -2 -12   38.83    2.26
  -3   2 -12   38.00    2.26
   3   2  12   39.49    2.25
  -4  -2 -12    3.68    0.37
   4   2  12    3.85    0.39
  -5  -2 -12   15.11    0.96
   5   2  12   16.76    1.04
   5   2  12   15.95    0.97
  -6  -3  12   16.41    1.04
   6  -3 -12   15.82    1.09
  -6   3  12   17.28    1.14
   6   3 -12   18.66    1.04
  -6   3  12   18.00    1.09
   5  -3 -12    0.22    0.25
  -5  -3  12    0.09    0.24
   5  -3 -12    0.31    0.26
  -5   3  12    0.45    0.33
   5   3 -12    0.26    0.21
  -5   3  12    0.53    0.39
   4  -3 -12   10.30    0.80
  -4  -3  12   10.44    0.81
   4  -3 -12    8.75    0.83
   4  -3 -12   10.26    0.84
   4   3 -12   10.89    0.96
  -4   3  12   11.86    1.03
  -4   3  12   10.64    0.86
  -4   3  12   11.93    1.10
   4   3 -12   12.33    0.78
   3  -3 -12   18.43    1.13
  -3  -3  12   18.19    1.13
   3  -3 -12   19.11    1.16
   3   3 -12   16.31    1.07
   3   3 -12   16.27    1.15
   3   3 -12   15.54    1.27
  -3   3  12   15.58    1.34
  -3   3  12   16.32    1.23
  -3   3  12   15.27    1.10
  -2  -3  12   18.14    1.26
   2  -3 -12   18.45    1.25
   2  -3 -12   18.03    1.24
   2  -3 -12   18.14    1.39
  -2   3  12   20.64    1.41
   2   3 -12   20.34    1.30
   2   3 -12   19.32    1.42
   2   3 -12   20.72    1.20
  -2   3  12   21.80    1.24
  -2   3  12   20.00    1.34
   1  -3 -12   31.59    2.09
   1  -3 -12   31.92    2.08
   1  -3 -12   29.72    2.14
   1   3 -12   36.84    2.26
  -1   3  12   40.43    2.22
   1   3 -12   37.34    2.14
  -1   3  12   38.28    2.07
  -1   3  12   37.49    2.18
   0  -3 -12    0.34    0.19
   0  -3 -12    0.79    0.26
   0  -3 -12   -0.07    0.40
   0   3 -12    0.46    0.31
   0   3  12    0.24    0.39
   0   3  12    0.29    0.16
   0   3 -12    0.40    0.37
  -1  -3 -12   86.91    4.79
  -1  -3 -12   89.27    4.80
   1   3  12   81.48    5.00
   1   3  12   85.50    4.79
  -1   3 -12   83.43    4.94
  -1   3 -12   83.89    4.82
  -2  -3 -12   70.58    3.86
  -2  -3 -12   73.13    3.90
   2   3  12   65.73    3.96
   2   3  12   68.60    3.88
  -2   3 -12   63.84    3.91
  -3  -3 -12    3.16    0.54
  -3  -3 -12    2.85    0.35
  -3  -3 -12    3.14    0.37
   3   3  12    2.95    0.55
   3   3  12    2.64    0.35
  -4  -3 -12   18.93    1.14
  -4  -3 -12   17.88    1.31
   4   3  12   18.56    1.23
   4   3  12   19.78    1.15
  -5  -3 -12    4.32    0.33
   5   3  12    4.25    0.40
   5   3  12    4.79    0.47
  -6  -4  12    0.30    0.16
  -6   4  12    0.48    0.24
   5  -4 -12   19.36    1.14
   5  -4 -12   19.91    1.19
  -5  -4  12   19.93    1.14
  -5  -4  12   15.96    1.15
   5   4 -12   17.44    1.09
  -5   4  12   16.96    1.21
  -5   4  12   17.21    1.18
   4  -4 -12    2.37    0.39
   4  -4 -12    2.57    0.55
  -4  -4  12    1.99    0.40
   4  -4 -12    2.64    0.47
   4   4 -12    2.14    0.55
   4   4 -12    3.15    0.36
  -4   4  12    2.77    0.61
  -4   4  12    2.25    0.64
  -3  -4  12    9.44    0.76
   3  -4 -12    9.27    0.82
   3  -4 -12    9.00    0.79
   3  -4 -12    9.57    0.75
   3   4 -12   10.18    0.79
   3   4 -12   11.47    0.71
   3   4 -12   10.34    0.91
  -3   4  12   10.38    0.80
  -3   4  12   11.28    0.98
  -3   4  12   10.42    1.00
  -2  -4  12   18.25    1.29
   2  -4 -12   17.73    1.30
   2  -4 -12   17.41    1.45
   2  -4 -12   19.30    1.30
   2   4 -12   21.85    1.46
   2   4 -12   21.68    1.35
   2   4 -12   21.46    1.21
  -2   4  12   21.87    1.43
  -2   4  12   22.09    1.29
  -2   4  12   21.43    1.44
   1  -4 -12    2.09    0.33
   1  -4 -12    1.58    0.36
   1  -4 -12    2.30    0.39
  -1  -4  12    2.36    0.59
  -1   4  12    2.24    0.53
   1   4 -12    2.10    0.40
  -1   4  12    2.37    0.35
   1   4 -12    2.04    0.45
  -1   4  12    1.54    0.44
   0  -4 -12   61.31    3.51
   0  -4 -12   59.69    3.53
   0  -4 -12   58.15    3.51
   0   4 -12   58.99    3.55
   0   4  12   61.70    3.75
   0   4 -12   64.08    3.67
   0   4  12   65.86    3.50
  -1  -4 -12   18.33    1.10
  -1  -4 -12   18.20    1.11
   1   4  12   17.89    1.31
  -1   4 -12   16.20    1.36
   1   4  12   17.93    1.09
   1   4  12   15.23    1.55
  -2  -4 -12   14.01    0.84
  -2  -4 -12   14.76    0.86
   2   4  12    8.60    2.38
   2   4  12   10.57    0.96
   2   4  12   11.59    0.82
  -3  -4 -12   17.87    1.16
  -3  -4 -12   16.92    1.13
   3   4  12   20.39    1.25
   3   4  12   20.72    1.17
  -4  -4 -12    4.50    0.61
  -4  -4 -12    4.18    0.36
   4   4  12    4.53    0.50
   4   4  12    3.91    0.38
  -5  -4 -12   10.23    0.62
  -5  -5  12    3.23    0.33
   5  -5 -12    3.29    0.42
   5  -5 -12    3.38    0.47
  -5   5  12    3.00    0.73
   5   5 -12    3.13    0.28
  -5   5  12    2.32    0.42
  -5   5  12    3.85    0.46
   4  -5 -12    9.67    0.72
   4  -5 -12    9.34    0.66
  -4  -5  12    8.46    0.67
  -4  -5  12    8.66    0.67
   4   5 -12    9.45    0.59
   4   5 -12    8.50    0.76
  -4   5  12    9.29    0.80
  -4   5  12    9.44    0.78
   3  -5 -12    1.47    0.31
   3  -5 -12    1.79    0.42
  -3  -5  12    1.37    0.33
  -3  -5  12    1.76    0.37
   3  -5 -12    1.17    0.37
  -3   5  12    2.34    0.54
   3   5 -12    2.25    0.53
   2  -5 -12    2.29    0.39
   2  -5 -12    1.97    0.43
  -2  -5  12    2.27    0.42
  -2   5  12    2.06    0.57
   2   5 -12    1.82    0.50
  -2   5  12    2.09    0.50
  -2   5  12    2.63    0.47
   1  -5 -12   21.43    1.24
   1  -5 -12   19.90    1.30
  -1  -5  12   18.75    1.24
   1  -5 -12   19.28    1.22
  -1   5  12   18.95    1.34
  -1   5  12   17.75    1.47
  -1   5  12   18.42    1.20
   1   5 -12   17.40    1.35
   0  -5 -12    2.10    0.44
   0  -5 -12    2.62    0.39
   0   5  12    2.83    0.37
   0   5  12    2.81    0.64
   0   5  12    3.02    0.49
  -1  -5 -12   39.78    2.37
   1   5  12   44.77    3.26
   1   5  12   39.95    2.46
  -1   5 -12   37.44    2.53
   1   5  12   42.55    2.36
  -2  -5 -12   27.53    1.60
  -2  -5 -12   25.88    1.56
   2   5  12   25.23    1.64
   2   5  12   26.36    1.56
  -3  -5 -12    9.96    0.63
  -3  -5 -12    9.67    0.65
   3   5  12    9.25    0.75
   3   5  12    9.48    0.66
  -4  -5 -12    6.49    0.67
  -4  -5 -12    6.75    0.47
   4   5  12    6.84    0.59
  -4  -6  12    2.07    0.33
   4  -6 -12    1.16    0.40
  -4  -6  12    2.36    0.37
   4  -6 -12    2.14    0.29
  -4   6  12    1.66    0.44
  -4   6  12    1.63    0.39
   3  -6 -12   20.40    1.31
   3  -6 -12   20.91    1.36
  -3  -6  12   20.86    1.32
  -3  -6  12   20.30    1.31
  -3   6  12   23.54    1.42
  -3   6  12   24.39    1.45
   3   6 -12   21.91    1.40
   2  -6 -12    2.38    0.35
   2  -6 -12    1.70    0.39
  -2  -6  12    1.91    0.36
  -2  -6  12    1.84    0.38
  -2   6  12    1.58    0.45
   1  -6 -12    7.75    0.77
   1  -6 -12    8.34    0.61
   1  -6 -12    8.29    0.63
  -1  -6  12    8.02    0.63
   1   6 -12    6.77    0.70
  -1   6  12    7.14    0.69
   0  -6 -12   13.25    0.95
   0  -6 -12   13.95    0.94
   0  -6  12   14.39    0.99
   0   6  12   14.13    0.98
   0   6 -12   14.43    1.09
   0   6  12   15.80    1.05
  -1  -6 -12    3.53    0.37
   1   6  12    2.73    0.45
   1   6  12    3.32    0.46
   1   6  12    4.15    0.64
  -2  -6 -12    6.19    0.46
   2   6  12    6.38    0.55
   2   6  12    5.87    0.63
   2   6  12    5.70    0.56
  -3  -6 -12    2.04    0.25
  -3  -6 -12    2.03    0.35
   3   6  12    2.55    0.35
   3   6  12    2.30    0.51
   3  -7 -12    4.62    0.47
  -3  -7  12    4.37    0.41
  -3  -7  12    4.19    0.41
  -3   7  12    4.65    0.51
  -2  -7  12   -0.10    0.18
   2  -7 -12    0.17    0.16
   2  -7 -12    0.13    0.21
  -2   7  12   -0.06    0.23
   1  -7 -12   14.68    0.93
   1  -7 -12   14.53    0.89
  -1  -7  12   13.72    0.90
  -1   7  12   13.65    0.98
   0  -7 -12    0.43    0.25
   0  -7 -12    0.27    0.27
   0  -7  12    0.69    0.24
   0   7  12    0.17    0.19
  -1  -7 -12   -0.02    0.17
  -1  -7 -12   -0.03    0.15
   1   7  12    0.20    0.22
  -2  -7 -12   10.54    0.77
  -2  -7 -12   12.47    0.87
   2   7  12   13.19    0.82
   1  -8 -12    3.69    0.40
  -1   8  12    3.96    0.45
   0  -8 -12    1.58    0.29
   6   0 -13   20.52    1.22
  -6   0  13   19.43    1.27
  -5   0  13    2.15    0.36
   5   0 -13    2.75    0.42
  -5   0  13    3.38    0.58
  -4   0  13   26.88    1.74
   4   0 -13   28.32    1.70
  -4   0  13   26.95    1.87
   4   0 -13   26.20    1.71
  -4   0  13   28.35    1.85
   4   0 -13   27.60    1.72
   3   0 -13   52.92    3.06
  -3   0  13   53.92    3.05
   3   0 -13   52.59    3.20
  -3   0  13   50.48    3.13
   3   0 -13   52.71    3.08
   3   0 -13   51.94    3.04
   2   0 -13   33.87    2.17
   2   0 -13   32.86    2.03
  -2   0  13   34.28    2.03
   2   0 -13   36.43    2.08
   2   0 -13   34.89    2.07
   1   0 -13   54.40    3.21
   1   0 -13   57.56    3.14
   1   0 -13   52.26    3.08
  -1   0  13   51.29    3.08
   1   0 -13   55.93    3.15
   0   0 -13    0.28    0.32
   0   0 -13    0.30    0.23
   0   0 -13    0.10    0.40
  -1   0 -13   26.06    1.57
  -1   0 -13   26.59    1.71
  -2   0 -13   17.82    1.29
  -2   0 -13   17.58    1.11
  -3   0 -13   12.98    0.86
  -3   0 -13   13.11    1.19
  -4   0 -13   57.19    3.20
   4   0  13   55.54    3.21
  -5   0 -13    7.66    0.58
   5   0  13    9.02    0.63
   6  -1 -13    4.22    0.43
   6   1 -13    4.79    0.41
  -6   1  13    5.55    0.50
  -5  -1  13   41.15    2.51
   5  -1 -13   42.72    2.45
   5  -1 -13   42.70    2.45
  -5  -1  13   39.92    2.42
   5   1 -13   42.86    2.43
  -5   1  13   37.13    2.42
  -5   1  13   42.76    2.51
  -4  -1  13   22.35    1.44
  -4  -1  13   20.57    1.72
   4  -1 -13   22.70    1.44
   4  -1 -13   23.64    1.45
   4  -1 -13   21.12    1.46
  -4  -1  13   22.31    1.59
   4   1 -13   24.99    1.48
   4   1 -13   20.84    1.68
  -4   1  13   23.86    1.44
   4   1 -13   21.62    1.46
   4   1 -13   24.13    1.44
   3  -1 -13    2.39    0.41
  -3  -1  13    1.66    0.57
  -3  -1  13    2.20    0.42
   3  -1 -13    1.39    0.58
  -3  -1  13    0.76    0.71
   3  -1 -13    1.96    0.40
   3  -1 -13    2.24    0.41
  -3   1  13    1.20    0.41
   3   1 -13    1.82    0.50
   3   1 -13    1.75    0.38
  -3   1  13    1.93    0.39
   3   1 -13    1.93    0.43
   3   1 -13    1.51    0.31
   2  -1 -13    3.52    0.44
   2  -1 -13    4.20    0.69
  -2  -1  13    3.36    0.45
   2  -1 -13    3.84    0.51
   2  -1 -13    3.08    0.47
   2   1 -13    3.15    0.47
  -2   1  13    2.70    0.64
   2   1 -13    3.97    0.51
  -2   1  13    4.16    0.43
   2   1 -13    3.63    0.67
   2   1 -13    3.95    0.45
   1  -1 -13    2.96    0.41
   1  -1 -13    2.70    0.49
   1  -1 -13    2.72    0.52
   1   1 -13    3.40    0.52
  -1   1  13    2.96    0.37
   0  -1 -13   59.36    3.40
   0  -1 -13   59.17    3.54
   0  -1 -13   62.37    3.59
   0  -1 -13   59.42    3.49
   0   1  13   60.54    3.41
  -1  -1 -13  120.74    6.61
  -1  -1 -13  120.27    6.71
  -1   1 -13  117.69    6.72
   1   1  13  113.93    6.59
  -1   1 -13  117.78    6.61
  -2  -1 -13   51.54    2.92
  -2  -1 -13   50.32    3.03
  -2   1 -13   50.67    2.92
  -2   1 -13   52.09    3.07
   2   1  13   49.50    2.91
  -3  -1 -13   14.12    1.14
  -3  -1 -13   13.28    0.93
  -3   1 -13   15.87    0.95
   3   1  13   14.42    0.95
  -4  -1 -13    0.84    0.20
   4  -1  13    0.42    0.33
  -4   1 -13    1.17    0.26
   4   1  13    0.79    0.23
  -5  -1 -13   10.17    0.60
   5   1  13    8.59    0.75
   5   1  13    8.40    0.63
   6  -2 -13   26.85    1.51
  -6   2  13   21.38    1.66
  -6   2  13   26.48    1.52
   6   2 -13   25.43    1.46
   5  -2 -13   20.64    1.26
  -5  -2  13   20.35    1.27
   5  -2 -13   21.55    1.28
  -5   2  13   18.38    1.32
   5   2 -13   18.37    1.22
  -4  -2  13    6.65    0.59
  -4  -2  13    5.14    1.36
   4  -2 -13    6.57    0.57
  -4   2  13    5.23    0.58
   4   2 -13    5.46    0.53
  -4   2  13    5.07    0.89
  -3   2  13    1.18    0.27
   3   2 -13    1.81    0.46
   3   2 -13    1.86    0.38
   3   2 -13    1.47    0.35
  -3   2  13    1.48    0.43
   2  -2 -13   19.96    1.23
  -2  -2  13   17.73    1.16
   2  -2 -13   17.44    1.14
   2  -2 -13   16.75    1.28
   2  -2 -13   18.31    1.17
   2   2 -13   17.23    1.11
  -2   2  13   18.82    1.14
   2   2 -13   17.93    1.19
   2   2 -13   16.71    1.31
  -2   2  13   16.85    1.25
  -2   2  13   17.02    1.41
   1  -2 -13   38.29    2.11
   1  -2 -13   36.59    2.17
   1  -2 -13   37.04    2.07
   1  -2 -13   39.79    2.10
  -1   2  13   29.82    2.17
   1   2 -13   34.70    2.11
  -1   2  13   32.14    2.04
   1   2 -13   33.54    2.21
   0  -2 -13   13.09    0.91
   0  -2 -13   13.40    1.01
   0  -2 -13   13.22    0.89
   0  -2 -13   11.28    1.03
   0   2 -13   15.45    0.96
   0   2 -13   15.40    1.12
   0   2  13   14.84    0.89
  -1  -2 -13   25.82    1.72
  -1  -2 -13   27.01    1.63
  -1  -2 -13   26.53    1.60
   1   2  13   28.16    1.62
  -1   2 -13   27.78    1.80
  -1   2 -13   28.34    1.65
  -2  -2 -13    8.92    0.66
  -2  -2 -13    8.54    0.62
  -2  -2 -13    8.93    0.79
  -2   2 -13    9.81    1.09
   2   2  13    9.11    0.66
  -2   2 -13    8.84    0.69
  -3  -2 -13    3.03    0.61
  -3  -2 -13    3.60    0.38
  -3   2 -13    3.76    0.49
   3   2  13    3.57    0.40
  -4  -2 -13   15.25    0.96
   4   2  13   15.75    0.98
   4   2  13   15.61    1.09
  -5  -2 -13    2.59    0.28
   5   2  13    2.29    0.34
   5   2  13    1.78    0.53
   6  -3 -13   10.01    0.71
  -6  -3  13    9.98    0.66
  -6   3  13   11.17    0.70
   6   3 -13   10.25    0.64
   5  -3 -13    9.17    0.69
   5  -3 -13    9.45    0.67
  -5  -3  13    8.36    0.68
   5   3 -13    8.84    0.62
  -5   3  13    8.92    0.73
  -5   3  13    8.31    0.92
   4  -3 -13   25.96    1.61
  -4  -3  13   26.00    1.62
   4  -3 -13   26.20    1.64
  -4   3  13   23.78    1.62
   4   3 -13   27.98    1.58
  -4   3  13   27.64    1.85
  -3  -3  13    9.12    0.77
   3  -3 -13    9.88    0.72
   3  -3 -13    9.52    0.74
   3   3 -13    8.58    0.75
   3   3 -13    9.30    0.65
   3   3 -13    8.13    0.87
  -3   3  13    6.97    0.92
  -3   3  13    7.87    1.01
   2  -3 -13   39.16    2.14
   2  -3 -13   37.35    2.23
   2  -3 -13   38.82    2.14
   2  -3 -13   37.17    2.45
  -2  -3  13   38.18    2.15
   2   3 -13   33.78    2.15
   2   3 -13   32.96    2.04
   2   3 -13   32.88    2.26
  -2   3  13   36.17    2.11
  -2   3  13   30.82    2.20
  -2   3  13   34.94    2.24
   1  -3 -13    5.45    0.64
   1  -3 -13    5.95    0.56
   1  -3 -13    5.77    0.66
   1  -3 -13    6.07    0.51
  -1   3  13    6.03    0.69
  -1   3  13    4.34    0.78
  -1   3  13    5.32    0.48
   1   3 -13    5.23    0.61
   0  -3 -13    6.73    0.58
   0  -3 -13    6.68    0.65
   0  -3 -13    6.63    0.53
   0  -3 -13    6.84    0.67
   0   3  13    6.39    0.51
   0   3 -13    5.98    0.74
   0   3 -13    5.32    0.75
  -1  -3 -13   52.46    3.10
  -1  -3 -13   52.94    3.12
   1   3  13   56.29    3.12
  -1   3 -13   56.08    3.29
  -1   3 -13   55.05    3.16
  -2  -3 -13   16.07    1.13
  -2  -3 -13   14.86    0.98
  -2  -3 -13   15.74    1.01
   2   3  13   17.39    1.01
  -2   3 -13   15.80    1.11
   2   3  13   15.02    1.21
  -3  -3 -13    1.45    0.29
  -3  -3 -13    1.22    0.40
  -4  -3 -13    3.22    0.33
   4   3  13    4.05    0.52
   4   3  13    3.96    0.37
  -5  -3 -13   15.98    0.93
  -5  -4  13    5.66    0.57
   5  -4 -13    6.64    0.54
  -5  -4  13    6.98    0.50
   5  -4 -13    6.57    0.52
   5   4 -13    5.48    0.43
  -5   4  13    5.13    0.55
  -4  -4  13    5.45    0.50
   4  -4 -13    5.96    0.50
   4   4 -13    3.79    0.60
   4   4 -13    4.43    0.42
  -4   4  13    4.97    0.72
  -4   4  13    4.28    0.63
   3  -4 -13   25.29    1.55
   3  -4 -13   24.21    1.57
  -3  -4  13   24.44    1.55
   3   4 -13   24.89    1.68
   3   4 -13   23.92    1.56
  -3   4  13   24.74    1.55
   3   4 -13   26.07    1.47
  -3   4  13   26.78    1.70
  -2  -4  13    0.22    0.26
   2  -4 -13    0.50    0.23
   2  -4 -13    0.63    0.44
   2  -4 -13    0.63    0.27
  -2   4  13    0.77    0.33
  -2   4  13    0.65    0.47
   2   4 -13    0.02    0.34
   2   4 -13    0.33    0.31
  -2   4  13    0.57    0.22
   1  -4 -13   32.63    2.15
   1  -4 -13   35.10    2.09
   1  -4 -13   33.50    2.09
  -1  -4  13   31.80    2.12
   1   4 -13   37.09    2.26
  -1   4  13   32.85    2.27
  -1   4  13   37.74    2.21
  -1   4  13   39.52    2.09
   1   4 -13   36.18    2.13
   0  -4 -13    7.05    0.66
   0  -4 -13    7.42    0.68
   0  -4 -13    8.12    0.58
   0   4 -13    6.49    0.81
   0   4 -13    6.64    0.75
   0   4  13    6.67    0.54
   0   4  13    6.60    1.13
  -1  -4 -13    6.98    0.56
  -1  -4 -13    6.49    0.51
   1   4  13    5.76    0.50
  -1   4 -13    5.03    0.88
  -2  -4 -13   13.93    0.84
  -2  -4 -13   14.37    0.86
   2   4  13   12.40    0.85
   2   4  13   10.66    1.09
  -3  -4 -13    2.05    0.29
  -3  -4 -13    2.37    0.31
  -3  -4 -13    2.51    0.45
   3   4  13    3.11    0.59
   3   4  13    2.29    0.31
  -4  -4 -13   16.37    0.93
  -4  -4 -13   13.76    1.10
   4   4  13   16.17    0.95
   4   4  13   15.54    1.06
  -5  -5  13    5.41    0.41
   5  -5 -13    5.79    0.49
   5  -5 -13    4.54    0.48
  -4  -5  13    4.62    0.46
   4  -5 -13    4.55    0.43
  -4  -5  13    4.67    0.45
   4  -5 -13    4.68    0.49
  -4   5  13    4.85    0.62
  -4   5  13    4.17    0.54
   3  -5 -13    1.50    0.32
  -3  -5  13    2.06    0.37
   3  -5 -13    1.45    0.29
  -3  -5  13    1.17    0.33
   3   5 -13    2.04    0.43
  -2  -5  13   29.70    1.92
   2  -5 -13   30.66    1.93
   2  -5 -13   31.13    1.95
  -2   5  13   33.20    1.93
  -2   5  13   36.05    2.08
   2   5 -13   32.94    2.05
   1  -5 -13    1.96    0.39
   1  -5 -13    2.92    0.40
   1  -5 -13    2.80    0.55
  -1  -5  13    2.48    0.54
  -1   5  13    3.09    0.41
   1   5 -13    2.43    0.57
  -1   5  13    3.27    0.54
   0  -5 -13    6.34    0.62
   0  -5 -13    6.09    0.57
   0   5  13    4.79    0.48
   0   5  13    4.63    0.58
  -1  -5 -13    2.14    0.34
  -1   5 -13    3.28    0.81
   1   5  13    3.07    0.34
  -2  -5 -13   35.95    2.09
  -2  -5 -13   35.15    2.10
   2   5  13   36.48    2.19
   2   5  13   37.20    2.10
  -3  -5 -13    7.06    0.52
  -3  -5 -13    6.95    0.47
  -3  -5 -13    7.49    0.60
   3   5  13    5.97    0.53
  -4  -6  13    1.31    0.26
   4  -6 -13    1.36    0.26
  -4  -6  13    1.96    0.39
   4  -6 -13    1.06    0.21
  -4   6  13    1.14    0.32
  -4   6  13    0.45    0.39
   3  -6 -13    1.42    0.35
   3  -6 -13    2.17    0.31
  -3  -6  13    2.30    0.40
  -3   6  13    2.68    0.53
   3   6 -13    1.53    0.37
  -3   6  13    2.44    0.47
  -2  -6  13   15.70    1.02
   2  -6 -13   16.59    1.05
   2  -6 -13   16.25    1.02
  -2   6  13   16.62    1.13
   2   6 -13   15.47    1.11
   1  -6 -13   10.79    0.79
   1  -6 -13   11.65    0.81
  -1  -6  13   10.98    0.83
   1  -6 -13   11.74    0.94
   1   6 -13   13.97    0.92
   0  -6 -13   20.19    1.31
   0  -6  13   20.85    1.50
   0  -6 -13   21.56    1.37
   0  -6 -13   22.54    1.32
   0   6  13   23.33    1.42
   0   6  13   20.92    1.33
   0   6 -13   20.79    1.43
  -1  -6 -13   10.59    0.68
  -1  -6 -13   10.09    0.76
   1   6  13    9.70    0.77
  -2  -6 -13    9.52    0.67
  -2  -6 -13    9.67    0.60
   2   6  13    8.18    0.68
  -3  -6 -13    1.58    0.34
   3   6  13    1.08    0.31
   3  -7 -13    3.27    0.42
   3  -7 -13    3.26    0.31
  -3   7  13    4.18    0.44
   2  -7 -13    2.27    0.34
  -2  -7  13    2.28    0.34
   2  -7 -13    2.26    0.28
  -2   7  13    1.57    0.40
   1  -7 -13    5.57    0.47
   1  -7 -13    6.40    0.49
  -1  -7  13    5.66    0.51
  -1   7  13    6.17    0.54
   0  -7  13    7.53    0.90
   0  -7 -13    7.99    0.56
   0  -7 -13    7.41    0.69
   0   7  13    7.74    0.61
  -1  -7 -13    5.85    0.43
  -1  -7 -13    5.24    0.60
   1   7  13    5.44    0.48
  -2  -7 -13    3.55    0.37
  -2  -7 -13    3.12    0.30
   2   7  13    2.56    0.39
   6   0 -14    5.59    0.44
  -6   0  14    5.80    0.61
  -5   0  14    8.41    0.74
  -5   0  14    6.54    0.66
   5   0 -14    7.78    0.61
   4   0 -14    0.30    0.26
  -4   0  14    0.15    0.23
   4   0 -14   -0.24    0.27
   4   0 -14    0.36    0.25
  -4   0  14    0.45    0.49
  -4   0  14    0.57    0.68
   3   0 -14    1.05    0.34
   3   0 -14    1.36    0.50
   3   0 -14    0.99    0.26
   3   0 -14    1.33    0.30
  -3   0  14    1.17    0.27
  -3   0  14    0.72    0.59
   2   0 -14    4.51    0.48
  -2   0  14    4.16    0.46
   2   0 -14    4.76    0.53
   2   0 -14    4.40    0.69
   2   0 -14    3.52    0.50
   1   0 -14   19.74    1.29
   1   0 -14   20.23    1.37
   1   0 -14   19.61    1.27
   1   0 -14   20.58    1.26
  -1   0  14   19.18    1.24
   0   0 -14   59.71    3.49
   0   0 -14   57.95    3.45
   0   0 -14   59.79    3.38
  -1   0 -14   52.78    3.12
  -1   0 -14   51.77    3.00
  -2   0 -14   15.20    1.00
  -2   0 -14   15.76    1.19
   3   0  14    2.74    0.58
  -3   0 -14    4.05    0.38
  -4   0 -14    5.46    0.45
  -6   1  14    0.42    0.27
   6   1 -14    0.31    0.16
   5  -1 -14   28.33    1.63
  -5  -1  14   26.45    1.72
  -5  -1  14   26.66    1.62
   5  -1 -14   28.04    1.63
  -5   1  14   26.73    1.68
  -5   1  14   23.24    1.64
   5   1 -14   26.84    1.60
   4  -1 -14    7.88    0.66
   4  -1 -14    7.70    0.66
  -4  -1  14    8.33    0.68
  -4  -1  14    7.01    0.86
   4  -1 -14    7.17    0.73
   4   1 -14    7.39    0.69
   4   1 -14    8.93    0.66
  -4   1  14    6.72    1.14
  -4   1  14    9.13    0.69
   4   1 -14    7.45    1.01
   3  -1 -14    9.65    1.02
   3  -1 -14    8.85    0.73
  -3   1  14    7.24    0.64
   3   1 -14    6.93    0.62
   3   1 -14    6.56    0.68
   3   1 -14    7.00    0.89
   3   1 -14    7.12    0.67
   2  -1 -14    9.71    0.80
   2  -1 -14    9.40    0.75
  -2  -1  14    8.99    0.77
   2  -1 -14   10.54    0.94
   2  -1 -14   10.17    0.80
   2   1 -14   11.21    0.84
  -2   1  14   11.36    0.77
   2   1 -14   11.10    0.96
   2   1 -14   11.74    0.82
   2   1 -14   11.15    0.76
   1  -1 -14   40.46    2.45
   1  -1 -14   40.86    2.56
   1  -1 -14   41.53    2.48
  -1  -1  14   39.95    2.48
   1  -1 -14   41.64    2.50
   1   1 -14   45.37    2.62
  -1   1  14   42.19    2.45
   1   1 -14   45.76    2.50
   1   1 -14   44.19    2.53
   0  -1 -14    4.29    0.62
   0   1  14    5.77    0.51
   0   1 -14    5.75    0.52
   0   1 -14    6.20    0.68
  -1  -1 -14  122.46    6.80
  -1  -1 -14  119.43    6.68
   1   1  14  117.82    6.66
  -1   1 -14  117.23    6.68
  -1   1 -14  119.13    6.80
  -2  -1 -14   17.80    1.01
  -2  -1 -14   17.71    1.19
   2   1  14   13.63    1.02
  -2   1 -14   14.48    1.01
  -2   1 -14   14.87    1.24
  -3  -1 -14   15.27    0.90
  -3   1 -14   12.96    0.90
   3   1  14   13.05    0.91
  -4  -1 -14    6.47    0.44
  -4   1 -14    5.31    0.50
   4   1  14    4.81    0.49
  -5  -1 -14   20.97    1.22
   6  -2 -14    2.22    0.32
   6   2 -14    2.67    0.28
  -6   2  14    3.35    0.36
  -5  -2  14   23.69    1.50
   5  -2 -14   23.54    1.50
   5  -2 -14   24.64    1.50
  -5   2  14   25.78    1.56
   5   2 -14   25.06    1.46
   4   2 -14    3.05    0.46
   4   2 -14    3.90    0.41
  -4   2  14    3.61    0.48
   3  -2 -14   26.99    1.64
   3  -2 -14   26.51    1.95
   3  -2 -14   27.42    1.65
   3  -2 -14   26.89    1.69
  -3   2  14   24.24    1.81
   3   2 -14   27.17    1.58
  -3   2  14   25.47    1.81
   3   2 -14   25.67    1.78
   3   2 -14   27.25    1.68
  -2  -2  14    0.40    0.27
   2  -2 -14    0.13    0.25
   2  -2 -14    0.13    0.21
   2  -2 -14    0.33    0.35
   2  -2 -14    0.50    0.33
  -2   2  14    0.23    0.20
  -2   2  14    1.39    0.81
   2   2 -14    0.62    0.26
   2   2 -14    0.42    0.28
   2   2 -14    0.37    0.34
  -2   2  14    0.03    0.58
   1  -2 -14    1.42    0.30
   1  -2 -14    1.27    0.34
   1  -2 -14    1.12    0.31
  -1   2  14    0.91    0.43
   1   2 -14    0.60    0.30
   0  -2 -14   36.27    2.17
   0  -2 -14   33.86    2.24
   0  -2 -14   36.68    2.27
   0  -2 -14   35.18    2.14
   0   2  14   39.07    2.16
   0   2 -14   39.01    2.20
   0   2 -14   39.29    2.34
  -1  -2 -14   27.93    1.73
  -1  -2 -14   27.78    1.57
  -1  -2 -14   27.88    1.61
  -1   2 -14   25.80    1.77
  -1   2 -14   25.71    1.62
   1   2  14   24.77    1.59
  -2  -2 -14    6.88    0.54
  -2  -2 -14    7.01    0.71
  -2   2 -14    7.01    0.59
  -2   2 -14    6.43    0.96
   2   2  14    6.58    0.55
  -3  -2 -14   41.66    2.32
   3   2  14   36.37    2.18
   3   2  14   38.57    2.54
  -3   2 -14   34.41    2.20
  -4  -2 -14    5.00    0.41
   4   2  14    5.03    0.90
   4   2  14    6.23    0.47
  -5  -2 -14    0.01    0.14
   6  -3 -14    7.71    0.55
  -6  -3  14    8.43    0.53
  -6   3  14    7.82    0.57
   5  -3 -14   32.42    1.92
  -5  -3  14   33.45    2.04
   5  -3 -14   31.86    1.90
   5   3 -14   31.83    1.86
  -5   3  14   32.48    1.95
   4  -3 -14    2.56    0.40
  -4  -3  14    3.43    0.43
   4  -3 -14    2.98    0.42
  -4   3  14    2.51    0.40
   4   3 -14    2.67    0.58
   4   3 -14    3.12    0.36
  -3   3  14    0.60    0.52
   3   3 -14    1.08    0.23
  -3   3  14    1.55    0.39
  -3   3  14    0.95    0.54
   3   3 -14    0.73    0.31
   3   3 -14    0.83    0.38
   2  -3 -14    3.31    0.55
   2  -3 -14    2.69    0.41
   2  -3 -14    2.40    0.47
  -2  -3  14    3.25    0.53
   2  -3 -14    3.05    0.45
  -2   3  14    2.77    0.66
   2   3 -14    2.03    0.44
  -2   3  14    2.46    0.39
   2   3 -14    2.22    0.39
  -2   3  14    1.71    0.52
   1  -3 -14    5.90    0.64
   1  -3 -14    5.98    0.53
   1  -3 -14    5.73    0.65
   1  -3 -14    5.97    0.59
   1   3 -14    6.38    0.62
  -1   3  14    6.22    0.51
  -1   3  14    4.19    0.99
   1   3 -14    4.93    0.74
  -1   3  14    6.64    0.73
   0  -3 -14   45.02    2.50
   0  -3 -14   45.14    2.52
   0  -3 -14   42.24    2.56
   0  -3 -14   44.09    2.61
   0   3 -14   41.98    2.54
   0   3  14   41.46    2.49
   0   3 -14   42.55    2.66
  -1  -3 -14   28.64    1.69
  -1  -3 -14   29.40    1.83
  -1  -3 -14   29.99    1.72
  -1   3 -14   28.84    1.91
  -1   3 -14   27.38    1.76
  -2  -3 -14   11.61    0.80
  -2  -3 -14   12.26    0.95
  -2  -3 -14   12.51    0.83
  -2   3 -14   14.59    0.95
  -3  -3 -14    0.46    0.17
  -3  -3 -14    0.71    0.30
   3   3  14    0.98    0.54
   3   3  14    0.41    0.18
  -4  -3 -14   13.89    0.89
   4   3  14   15.46    0.91
   5  -4 -14   16.73    0.99
  -5  -4  14   14.39    1.01
   5  -4 -14   15.35    1.04
  -5  -4  14   16.10    0.97
  -5   4  14   13.40    1.24
  -5   4  14   17.57    1.02
  -4  -4  14   15.34    0.98
   4  -4 -14   14.52    0.99
   4  -4 -14   16.42    0.98
  -4   4  14   14.41    1.21
   4   4 -14   14.47    1.07
   4   4 -14   14.29    0.89
   3  -4 -14    0.39    0.32
  -3  -4  14    0.35    0.23
   3  -4 -14    0.44    0.31
   3   4 -14    0.63    0.31
  -3   4  14    0.45    0.40
  -3   4  14    0.12    0.26
   3   4 -14    0.17    0.36
  -2  -4  14   17.29    1.15
   2  -4 -14   14.95    1.27
   2  -4 -14   17.52    1.13
   2  -4 -14   17.89    1.13
  -2   4  14   17.83    1.11
  -2   4  14   17.10    1.23
   2   4 -14   17.16    1.27
   2   4 -14   17.45    1.16
   1  -4 -14    7.81    0.71
  -1  -4  14    7.36    0.79
   1   4 -14    5.47    0.72
  -1   4  14    4.79    1.14
   1   4 -14    6.35    0.65
  -1   4  14    6.45    0.55
  -1   4  14    6.17    0.68
   0  -4 -14    0.94    0.33
   0  -4 -14    0.09    0.33
   0  -4 -14    0.17    0.26
   0  -4 -14    0.39    0.21
   0   4  14    0.31    0.17
   0   4 -14    0.12    0.37
   0   4  14    0.94    0.83
   0   4 -14   -0.09    0.37
  -1  -4 -14   10.98    0.71
  -1  -4 -14   11.01    0.75
  -1  -4 -14   10.76    0.83
  -1   4 -14    7.97    1.00
  -2  -4 -14    0.99    0.20
  -2  -4 -14    0.98    0.23
  -2  -4 -14    1.26    0.29
   2   4  14    1.61    0.30
  -3  -4 -14   12.22    0.78
  -3  -4 -14   12.52    0.89
   3   4  14   12.50    0.80
  -4  -4 -14    3.75    0.31
  -5  -5  14   12.83    0.75
   5  -5 -14   11.77    0.79
   4  -5 -14    6.10    0.46
  -4  -5  14    5.26    0.50
   4  -5 -14    5.34    0.49
  -4  -5  14    6.44    0.51
  -4   5  14    5.94    0.72
  -4   5  14    6.50    0.57
  -3  -5  14    0.28    0.21
   3  -5 -14    0.13    0.21
  -3  -5  14    0.00    0.31
   3  -5 -14    0.51    0.21
  -3   5  14   -0.11    0.30
   2  -5 -14   13.04    0.85
  -2  -5  14   13.23    0.87
   2  -5 -14   12.54    0.84
  -2   5  14   10.66    0.87
  -2   5  14   11.30    0.94
  -1  -5  14   18.26    1.19
   1  -5 -14   18.75    1.22
   1  -5 -14   17.65    1.13
  -1   5  14   16.67    1.45
  -1   5  14   17.43    1.13
   0  -5 -14   21.28    1.35
   0  -5 -14   23.57    1.41
   0   5  14   20.12    1.59
   0   5 -14   20.64    1.45
   0   5  14   21.01    1.31
  -1  -5 -14    1.30    0.29
  -1  -5 -14    1.43    0.38
  -1   5 -14    1.18    0.50
   1   5  14    1.28    0.29
   1   5  14    1.26    0.36
  -2  -5 -14    3.25    0.33
  -2  -5 -14    4.02    0.47
  -2  -5 -14    3.67    0.44
   2   5  14    3.41    0.35
  -3  -5 -14    5.27    0.49
  -3  -5 -14    5.05    0.46
   3   5  14    4.57    0.43
   4  -6 -14    4.15    0.41
   4  -6 -14    4.17    0.36
   3  -6 -14   14.88    0.92
  -3  -6  14   14.88    0.93
  -3  -6  14   12.91    0.97
   3  -6 -14   15.39    0.94
  -3   6  14   15.11    1.03
   3   6 -14   15.49    0.98
  -3   6  14   13.79    1.00
  -2  -6  14   15.36    1.00
   2  -6 -14   16.56    0.96
   2  -6 -14   16.46    0.97
  -2   6  14   13.41    1.03
   2   6 -14   13.29    1.02
  -1  -6  14    2.81    0.49
   1  -6 -14    3.30    0.66
   1  -6 -14    3.75    0.40
   1  -6 -14    3.15    0.40
  -1   6  14    4.38    0.47
   1   6 -14    4.53    0.54
   0  -6 -14    6.56    0.64
   0  -6 -14    7.35    0.61
   0  -6 -14    6.98    0.51
   0   6  14    5.55    0.63
   0   6  14    6.59    0.60
   0   6 -14    5.98    0.71
  -1  -6 -14   14.07    0.95
  -1  -6 -14   14.88    0.89
   1   6  14   12.64    0.95
   1   6  14   15.39    0.98
  -2  -6 -14    2.04    0.31
  -2  -6 -14    2.48    0.35
   3   6  14    8.47    0.69
   2  -7 -14    4.27    0.36
   2  -7 -14    3.71    0.40
  -2   7  14    4.81    0.47
   1  -7 -14   24.74    1.37
   1  -7 -14   20.54    1.34
  -1   7  14   23.65    1.51
   0  -7 -14    6.64    0.69
   0  -7 -14    7.67    0.56
   0   7  14    5.76    0.72
  -1  -7 -14    2.17    0.37
  -1  -7 -14    1.89    0.27
   1   7  14    1.47    0.31
   6   0 -15    0.28    0.16
  -5   0  15   42.86    2.57
  -5   0  15   43.79    2.54
   5   0 -15   44.15    2.52
   4   0 -15    6.81    0.60
   4   0 -15    5.72    0.62
   4   0 -15    6.49    0.57
  -4   0  15    6.67    0.60
   3   0 -15   68.08    3.98
   3   0 -15   67.42    3.83
  -3   0  15   66.04    4.02
   3   0 -15   69.11    3.88
   3   0 -15   65.43    3.88
   2   0 -15   -0.08    0.26
   2   0 -15    0.52    0.26
  -2   0  15    0.22    0.21
   2   0 -15    0.18    0.34
   2   0 -15    0.10    0.25
  -1   0  15    0.22    0.24
   1   0 -15    0.13    0.22
   1   0 -15    0.09    0.28
   1   0 -15    0.09    0.31
   0   0 -15   59.41    3.31
   0   0 -15   55.15    3.38
   0   0  15   57.09    3.34
   0   0 -15   58.84    3.42
  -1   0 -15    1.71    0.34
  -1   0 -15    1.30    0.37
  -2   0 -15    0.31    0.36
  -2   0 -15    0.10    0.20
  -3   0 -15   31.47    1.83
  -3   0 -15   30.52    2.06
   3   0  15   31.44    2.01
   4   0  15   32.48    2.00
  -4   0 -15   35.90    1.97
  -6   1  15    0.58    0.31
   6   1 -15    1.09    0.23
  -5  -1  15   12.89    0.87
   5  -1 -15   13.03    0.86
   5  -1 -15   13.28    0.84
  -5   1  15   10.29    0.96
   5   1 -15   12.40    0.81
  -5   1  15   13.11    0.91
  -4  -1  15    5.46    0.84
   4  -1 -15    5.50    0.53
   4  -1 -15    5.69    0.62
  -4  -1  15    6.51    0.55
   4  -1 -15    6.24    0.54
   4   1 -15    5.36    0.50
   4   1 -15    5.76    0.90
   4   1 -15    4.79    0.58
  -4   1  15    5.69    0.55
  -3  -1  15   15.92    1.08
   3  -1 -15   15.11    1.08
   3  -1 -15   14.52    1.10
   3  -1 -15   15.25    1.05
   3  -1 -15   14.38    1.28
  -3   1  15   14.54    1.51
   3   1 -15   16.65    1.26
  -3   1  15   17.93    1.08
   3   1 -15   17.07    1.04
   3   1 -15   17.82    1.12
   3   1 -15   16.85    1.11
   2  -1 -15   21.38    1.42
  -2  -1  15   21.05    1.41
   2  -1 -15   20.80    1.51
   2  -1 -15   21.05    1.38
   2  -1 -15   21.96    1.43
   2   1 -15   23.11    1.36
  -2   1  15   23.78    1.40
   2   1 -15   23.15    1.45
   2   1 -15   24.27    1.45
   2   1 -15   24.16    1.58
   1  -1 -15   43.86    2.46
   1  -1 -15   42.45    2.42
   1  -1 -15   43.03    2.56
   1  -1 -15   44.56    2.49
  -1  -1  15   42.18    2.46
   1   1 -15   40.42    2.46
  -1   1  15   39.45    2.43
   1   1 -15   41.15    2.50
   1   1 -15   40.56    2.58
   0  -1 -15    5.95    0.80
   0  -1 -15    5.98    0.66
   0  -1 -15    5.49    0.50
   0   1 -15    5.19    0.51
   0   1  15    5.15    0.51
   0   1 -15    4.79    0.67
   1   1  15    7.87    0.70
  -1   1 -15    9.35    0.87
  -1   1 -15    9.80    0.68
  -2  -1 -15   22.89    1.60
  -2  -1 -15   21.84    1.46
  -2   1 -15   26.38    1.68
  -2   1 -15   25.54    1.49
   2   1  15   25.37    1.49
  -3  -1 -15   22.53    1.30
  -3  -1 -15   20.56    1.45
  -3   1 -15   21.39    1.31
   3   1  15   21.41    1.31
  -4  -1 -15    8.34    0.55
   4   1  15    8.22    0.61
  -4   1 -15    7.71    0.60
   6  -2 -15    1.95    0.27
  -6  -2  15    2.02    0.26
  -6   2  15    1.35    0.34
   5  -2 -15    9.68    0.72
   5  -2 -15    9.56    0.70
  -5   2  15   11.47    0.80
   5   2 -15   10.63    0.67
   4  -2 -15    7.30    0.62
  -4  -2  15    7.38    0.63
   4  -2 -15    6.66    0.60
  -4   2  15    8.02    0.65
   4   2 -15    7.80    0.57
   4   2 -15    8.54    0.65
   4   2 -15    7.95    0.83
  -3  -2  15    7.96    0.71
   3  -2 -15    7.44    0.67
   3  -2 -15    7.82    0.68
   3  -2 -15    7.95    0.79
   3   2 -15    8.76    0.73
   3   2 -15    9.69    0.63
  -3   2  15    9.78    0.69
  -3   2  15    7.81    1.24
   3   2 -15    9.40    0.88
   2  -2 -15   58.52    3.47
   2  -2 -15   56.60    3.53
   2  -2 -15   57.60    3.48
   2  -2 -15   58.14    3.45
  -2  -2  15   57.33    3.46
  -2   2  15   64.84    3.46
   2   2 -15   63.25    3.61
  -2   2  15   61.48    3.84
   2   2 -15   63.85    3.50
   1  -2 -15   40.91    2.44
   1  -2 -15   40.44    2.37
   1  -2 -15   39.81    2.32
   1  -2 -15   39.60    2.34
   1   2 -15   40.22    2.49
  -1   2  15   39.61    2.32
  -1   2  15   37.76    2.48
   1   2 -15   40.53    2.37
   0  -2 -15  116.16    6.57
   0  -2 -15  120.67    6.68
   0  -2 -15  115.24    6.53
   0  -2 -15  110.92    6.60
   0   2 -15  123.48    6.72
   0   2 -15  115.93    6.58
   0   2  15  117.08    6.55
  -1  -2 -15   20.26    1.32
  -1  -2 -15   19.50    1.18
  -1   2 -15   17.25    1.19
  -1   2 -15   17.69    1.35
  -2  -2 -15   21.48    1.43
  -2  -2 -15   23.14    1.56
  -2   2 -15   24.86    1.46
   2   2  15   25.01    1.44
  -2   2 -15   24.46    1.67
  -3  -2 -15    5.85    0.49
  -3  -2 -15    5.92    0.70
  -3   2 -15    7.21    0.61
   3   2  15    7.92    0.55
  -4  -2 -15    4.74    0.39
   4   2  15    5.77    0.46
   5  -3 -15    6.19    0.51
   5  -3 -15    6.25    0.50
  -5  -3  15    5.46    0.55
  -5   3  15    7.04    0.55
   4  -3 -15   34.63    2.07
   4  -3 -15   33.44    2.07
  -4  -3  15   36.11    2.08
  -4   3  15   34.05    2.08
   4   3 -15   35.11    2.14
   4   3 -15   36.63    2.00
   3  -3 -15    9.39    0.77
   3  -3 -15    8.96    0.77
  -3  -3  15    9.48    0.79
   3   3 -15   11.69    0.93
   3   3 -15   11.50    0.81
  -3   3  15   11.98    0.78
   2  -3 -15    2.29    0.62
   2  -3 -15    2.51    0.42
   2  -3 -15    2.47    0.48
   2  -3 -15    2.28    0.40
   2   3 -15    1.67    0.40
   2   3 -15    2.11    0.45
  -2   3  15    1.65    0.48
  -2   3  15    1.47    0.35
   1  -3 -15   36.88    2.14
   1  -3 -15   35.08    2.15
   1  -3 -15   35.04    2.16
   1  -3 -15   34.99    2.23
  -1   3  15   36.17    2.25
   1   3 -15   36.51    2.17
   1   3 -15   36.54    2.29
  -1   3  15   38.01    2.18
   0  -3 -15    5.76    0.65
   0  -3 -15    5.83    0.53
   0  -3 -15    5.89    0.50
   0  -3 -15    4.30    0.72
   0   3  15    5.83    0.48
   0   3 -15    5.29    0.74
   0   3 -15    5.07    0.57
  -1  -3 -15    6.97    0.57
  -1  -3 -15    7.24    0.55
  -1  -3 -15    7.17    0.70
   1   3  15    7.42    0.57
  -1   3 -15    6.83    0.65
  -1   3 -15    6.65    0.85
  -2  -3 -15    2.68    0.41
  -2   3 -15    2.66    0.57
   2   3  15    3.02    0.36
  -3  -3 -15    0.12    0.29
  -3  -3 -15    0.47    0.18
   3   3  15    0.79    0.19
  -4  -3 -15   22.24    1.28
   4   3  15   21.63    1.29
   5  -4 -15    5.44    0.46
   5  -4 -15    5.61    0.45
  -5  -4  15    5.84    0.43
  -4  -4  15   -0.10    0.20
  -4  -4  15    0.21    0.24
   4  -4 -15   -0.02    0.19
   4  -4 -15   -0.05    0.16
  -4   4  15    0.17    0.31
   4   4 -15   -0.01    0.24
  -3  -4  15    0.24    0.23
   3  -4 -15    0.35    0.23
   3   4 -15    0.23    0.25
  -3   4  15   -0.10    0.31
  -3   4  15    0.11    0.26
   3   4 -15    0.11    0.24
  -3   4  15    0.45    0.43
   2  -4 -15    3.10    0.42
  -2  -4  15    2.51    0.50
   2  -4 -15    2.87    0.70
   2  -4 -15    3.18    0.42
  -1  -4  15   14.35    1.15
   1  -4 -15   15.92    1.12
   1  -4 -15   16.73    1.02
   1  -4 -15   15.96    1.03
  -1   4  15   14.26    1.11
   1   4 -15   14.55    1.15
  -1   4  15   14.90    0.99
   1   4 -15   14.93    1.06
   0  -4 -15   48.65    2.92
   0  -4 -15   47.56    3.01
   0   4  15   53.65    2.93
   0   4  15   53.43    3.04
   0   4 -15   51.84    3.07
  -1  -4 -15   15.98    1.07
  -1  -4 -15   16.26    1.06
   1   4  15   17.18    1.04
  -1   4 -15   17.24    1.28
  -2  -4 -15   15.32    0.99
  -2  -4 -15   15.70    1.08
  -2  -4 -15   14.89    0.95
   2   4  15   17.92    1.01
  -3  -4 -15   23.08    1.38
  -3  -4 -15   21.31    1.29
   3   4  15   21.58    1.30
  -4  -5  15   17.32    1.06
   4  -5 -15   17.76    1.05
   4  -5 -15   17.29    1.06
  -4  -5  15   16.39    1.05
   3  -5 -15   13.00    0.83
   3  -5 -15   12.43    0.81
  -3  -5  15   12.18    0.83
  -3   5  15   11.78    0.95
   3   5 -15   11.46    0.87
   2  -5 -15    1.55    0.32
  -2   5  15    0.98    0.30
  -2   5  15    1.23    0.33
   2   5 -15    0.77    0.25
   1  -5 -15   10.08    0.87
   1  -5 -15    9.52    0.77
   1  -5 -15   10.69    0.76
  -1  -5  15    9.12    0.88
  -1   5  15   12.46    0.78
   1   5 -15   12.34    0.90
  -1   5  15   12.71    0.88
   0  -5 -15   11.14    0.73
   0  -5 -15    9.86    0.89
   0  -5 -15   10.85    0.82
   0   5 -15   10.09    0.88
   0   5  15   10.60    0.82
   0   5  15   10.32    0.73
  -1  -5 -15   15.83    1.09
  -1  -5 -15   15.75    1.00
   1   5  15   17.01    1.03
   1   5  15   17.24    1.12
  -2  -5 -15   17.74    1.11
  -2  -5 -15   19.19    1.21
   2   5  15   20.47    1.22
   2   5  15   19.10    1.15
  -3  -5 -15    6.79    0.55
   3   5  15    5.87    0.49
  -3  -6  15    3.83    0.42
   3  -6 -15    3.90    0.43
   3  -6 -15    3.21    0.46
  -3   6  15    4.03    0.55
  -3   6  15    3.72    0.53
   2  -6 -15    3.21    0.37
   2  -6 -15    3.23    0.35
  -2   6  15    3.61    0.50
   2   6 -15    3.41    0.44
   1  -6 -15    5.81    0.52
   1  -6 -15    6.19    0.79
  -1  -6  15    5.88    0.63
   1  -6 -15    6.59    0.50
   1   6 -15    6.86    0.61
  -1   6  15    6.90    0.57
   0  -6 -15    3.71    0.50
   0  -6 -15    3.98    0.39
   0   6  15    5.68    0.78
   0   6  15    5.12    0.48
  -1  -6 -15    0.74    0.17
   1   6  15    0.55    0.20
   2   6  15    0.84    0.22
   2  -7 -15    1.69    0.29
   1  -7 -15    5.28    0.44
  -1   7  15    6.79    0.54
   0  -7 -15    3.96    0.34
   0   7  15    3.96    0.43
  -5   0  16    5.72    0.59
   5   0 -16    6.02    0.46
  -5   0  16    5.13    0.66
   4   0 -16    0.76    0.25
  -4   0  16    0.22    0.22
   4   0 -16    0.47    0.22
  -4   0  16    0.82    0.45
   4   0 -16    0.47    0.27
   3   0 -16    3.14    0.45
   3   0 -16    2.67    0.42
   3   0 -16    2.90    0.46
  -3   0  16    2.64    0.45
   3   0 -16    3.54    0.68
   2   0 -16    0.71    0.27
   2   0 -16    1.01    0.28
   2   0 -16    0.46    0.33
   2   0 -16    0.52    0.28
   1   0 -16   13.14    0.96
  -1   0  16   12.68    0.89
   1   0 -16   12.30    1.03
   1   0 -16   12.16    0.87
   0   0  16   99.18    6.00
   0   0 -16  111.53    6.15
   0   0 -16  110.69    6.04
  -1   0 -16   64.34    3.66
  -1   0 -16   63.59    3.77
  -2   0 -16   48.58    2.90
  -2   0 -16   47.83    2.78
  -3   0 -16    0.49    0.20
  -4   0 -16    5.95    0.46
   6  -1 -16    5.75    0.45
  -5  -1  16    1.46    0.30
   5  -1 -16    1.46    0.29
   5   1 -16    1.82    0.27
  -5   1  16    2.29    0.43
  -5   1  16    1.82    0.43
  -4  -1  16    5.88    0.52
   4  -1 -16    4.79    0.56
   4  -1 -16    5.37    0.52
   4  -1 -16    4.91    0.48
  -4   1  16    5.66    0.69
  -4   1  16    5.08    0.53
   4   1 -16    4.71    0.46
   4   1 -16    5.79    0.85
   4   1 -16    5.31    0.52
   3  -1 -16   12.07    1.08
  -3  -1  16   13.54    0.90
   3  -1 -16   13.05    0.92
   3  -1 -16   12.80    0.89
   3  -1 -16   12.76    0.86
   3   1 -16   11.12    1.03
   3   1 -16   11.85    0.82
  -3   1  16   11.90    0.87
   3   1 -16   12.46    0.90
   2  -1 -16   23.69    1.44
   2  -1 -16   23.56    1.55
   2  -1 -16   23.48    1.39
   2  -1 -16   23.24    1.45
  -2  -1  16   24.82    1.55
   2   1 -16   21.71    1.44
   2   1 -16   20.70    1.45
   2   1 -16   21.25    1.55
  -2   1  16   21.84    1.44
   1  -1 -16    3.32    0.56
   1  -1 -16    4.02    0.59
   1  -1 -16    4.30    0.48
   1  -1 -16    4.35    0.49
  -1  -1  16    3.69    0.57
   1   1 -16    3.90    0.46
   1   1 -16    4.11    0.64
  -1   1  16    3.82    0.46
   0  -1 -16    9.15    0.77
   0   1 -16   12.64    0.97
   0   1 -16   11.83    0.81
   0   1  16   11.39    0.79
  -1  -1 -16    0.74    0.33
  -1  -1 -16    0.62    0.24
   1   1  16    0.90    0.28
  -1   1 -16    1.15    0.39
  -1   1 -16    0.91    0.25
  -2  -1 -16   44.88    2.74
  -2  -1 -16   46.17    2.63
   2   1  16   45.32    2.63
  -2   1 -16   45.79    2.63
  -3  -1 -16   31.29    1.76
  -3  -1 -16   30.00    1.90
   3   1  16   28.62    1.77
  -3   1 -16   30.65    1.77
  -4  -1 -16   14.85    0.86
   4   1  16   15.26    1.02
  -4   1 -16   12.01    0.92
   5  -2 -16    5.41    0.46
  -5  -2  16    4.81    0.53
   5  -2 -16    5.18    0.44
   5   2 -16    5.56    0.53
  -5   2  16    6.35    0.52
   4  -2 -16    0.86    0.24
   4  -2 -16    0.96    0.23
  -4  -2  16    1.02    0.25
  -4   2  16    0.68    0.26
   4   2 -16    0.22    0.37
   4   2 -16    0.84    0.24
   3  -2 -16   57.04    3.43
   3  -2 -16   59.22    3.54
  -3  -2  16   63.94    3.44
   3  -2 -16   61.36    3.44
   3  -2 -16   60.97    3.41
  -3   2  16   56.36    3.41
   3   2 -16   57.94    3.53
   3   2 -16   58.41    3.44
   2  -2 -16   38.65    2.32
   2  -2 -16   38.07    2.40
  -2  -2  16   38.95    2.32
   2  -2 -16   38.90    2.33
   2  -2 -16   38.90    2.29
  -2   2  16   39.49    2.30
   2   2 -16   39.74    2.45
   2   2 -16   40.26    2.34
  -1  -2  16   23.05    1.69
   1  -2 -16   24.18    1.46
   1  -2 -16   25.66    1.44
   1  -2 -16   24.59    1.58
   1  -2 -16   24.35    1.50
   1   2 -16   22.03    1.59
   1   2 -16   21.91    1.46
  -1   2  16   21.91    1.44
   0  -2 -16   43.01    2.54
   0  -2 -16   45.26    2.66
   0  -2 -16   41.71    2.49
   0   2 -16   45.87    2.70
   0   2 -16   42.72    2.55
   0   2  16   43.15    2.52
  -1  -2 -16    0.27    0.20
  -1  -2 -16    0.14    0.29
  -1   2 -16    0.08    0.24
   1   2  16    0.01    0.20
  -1   2 -16   -0.25    0.36
  -2  -2 -16    3.48    0.44
  -2  -2 -16    3.89    0.55
  -2   2 -16    3.41    0.80
   2   2  16    3.43    0.43
  -2   2 -16    4.42    0.46
  -3  -2 -16    1.65    0.26
  -3  -2 -16    1.66    0.38
  -3   2 -16    1.66    0.34
   3   2  16    1.80    0.34
  -4  -2 -16   30.13    1.75
   4   2  16   29.59    1.82
   5  -3 -16    2.43    0.30
   5  -3 -16    2.56    0.33
  -5  -3  16    2.09    0.49
   4  -3 -16    3.48    0.39
   4  -3 -16    3.48    0.40
  -4  -3  16    4.05    0.43
  -4   3  16    2.94    0.48
   4   3 -16    3.72    0.55
  -4   3  16    3.67    0.59
   3  -3 -16    3.53    0.42
   3  -3 -16    3.49    0.44
  -3  -3  16    3.57    0.48
   3   3 -16    4.00    0.58
   3   3 -16    3.94    0.46
  -3   3  16    3.73    0.44
   2  -3 -16   35.62    2.12
   2  -3 -16   37.81    2.43
  -2  -3  16   34.04    2.11
   2  -3 -16   32.32    2.15
   2  -3 -16   36.67    2.10
  -2   3  16   33.27    2.27
  -2   3  16   36.24    2.09
   2   3 -16   36.71    2.13
   2   3 -16   35.90    2.23
   1  -3 -16    4.80    0.54
   1  -3 -16    5.58    0.62
   1  -3 -16    5.29    0.49
   1  -3 -16    4.47    0.55
   1   3 -16    3.93    0.64
  -1   3  16    3.86    0.69
   1   3 -16    5.19    0.54
  -1   3  16    4.10    0.46
   0  -3 -16    9.93    0.76
   0  -3 -16    9.21    0.78
   0  -3 -16    9.98    0.89
   0   3 -16   11.92    0.98
   0   3  16   12.58    0.78
   0   3 -16   12.40    0.84
   0   3  16   12.05    0.92
  -1  -3 -16    3.92    0.41
  -1  -3 -16    4.42    0.56
  -1  -3 -16    3.72    0.57
  -1   3 -16    3.31    0.73
  -2  -3 -16    2.96    0.47
  -2  -3 -16    2.95    0.35
   2   3  16    3.36    0.37
  -2   3 -16    2.89    0.51
  -3  -3 -16   18.63    1.17
  -3  -3 -16   18.01    1.06
   3   3  16   16.41    1.07
  -4  -3 -16    0.06    0.13
   5  -4 -16    1.73    0.28
  -5   4  16    1.56    0.35
   4  -4 -16    4.83    0.41
  -4  -4  16    4.68    0.43
   4  -4 -16    4.54    0.41
   4   4 -16    3.82    0.52
  -4   4  16    3.87    0.47
   3  -4 -16    3.17    0.37
  -3  -4  16    2.88    0.63
  -3  -4  16    2.87    0.42
   3  -4 -16    3.08    0.37
  -3   4  16    2.17    0.47
   3   4 -16    2.07    0.45
  -3   4  16    1.68    0.61
  -2  -4  16    9.92    0.76
   2  -4 -16   10.04    0.71
   2  -4 -16    9.50    0.70
   2  -4 -16    8.36    0.92
  -2   4  16    9.73    0.88
  -2   4  16    9.53    0.69
   2   4 -16    8.82    0.72
   2   4 -16    9.78    0.81
   1  -4 -16   29.82    1.74
   1  -4 -16   32.25    1.72
   1  -4 -16   32.19    1.83
   1   4 -16   27.18    1.85
  -1   4  16   27.44    1.72
   1   4 -16   25.95    1.74
  -1   4  16   26.67    1.80
   0  -4 -16   20.47    1.43
   0  -4 -16   22.16    1.37
   0  -4 -16   22.42    1.48
   0   4  16   24.91    1.40
   0   4 -16   23.63    1.54
   0   4 -16   22.35    1.44
   0   4  16   24.06    1.50
  -1  -4 -16    3.64    0.40
  -1  -4 -16    4.19    0.49
   1   4  16    4.45    0.40
  -1   4 -16    4.54    0.75
  -2  -4 -16    0.14    0.20
  -2  -4 -16    0.22    0.24
   2   4  16    0.17    0.16
  -3  -4 -16    5.19    0.41
  -3  -4 -16    5.70    0.54
   3   4  16    5.15    0.44
   4  -5 -16    1.34    0.26
   4  -5 -16    1.12    0.25
  -4   5  16    0.81    0.26
   3  -5 -16    3.27    0.35
  -3  -5  16    2.82    0.40
   3  -5 -16    2.89    0.34
   3   5 -16    2.94    0.42
  -3   5  16    2.87    0.52
  -2  -5  16    6.01    0.59
   2  -5 -16    6.48    0.52
   2  -5 -16    6.80    0.52
   2   5 -16    6.36    0.58
  -2   5  16    5.28    0.65
  -2   5  16    7.16    0.69
   1  -5 -16    2.64    0.42
  -1  -5  16    1.79    0.47
   1  -5 -16    2.71    0.52
   1  -5 -16    3.09    0.34
   1   5 -16    2.67    0.47
  -1   5  16    2.38    0.39
  -1   5  16    2.08    0.44
   0  -5 -16    3.98    0.51
   0   5  16    4.72    0.45
   0   5 -16    4.89    0.61
   0   5  16    5.08    0.52
  -1  -5 -16    4.89    0.42
  -1  -5 -16    5.70    0.51
   1   5  16    4.90    0.58
   1   5  16    5.08    0.52
  -2  -5 -16    9.94    0.68
   2   5  16    8.37    0.62
   2   5  16    8.56    0.66
   3   5  16    2.87    0.37
   3  -6 -16    1.73    0.26
   3  -6 -16    1.55    0.25
   2  -6 -16    3.95    0.40
   2  -6 -16    4.85    0.40
   2   6 -16    4.68    0.66
  -2   6  16    4.55    0.56
   1  -6 -16   23.15    1.55
   1  -6 -16   28.32    1.53
   1   6 -16   26.88    1.71
  -1   6  16   26.56    1.60
   0  -6 -16    0.46    0.27
   0   6  16    0.25    0.22
  -1  -6 -16    5.45    0.51
   1   6  16    6.79    0.52
   5   0 -17   18.92    1.08
  -5   0  17   17.82    1.18
   4   0 -17    1.16    0.26
  -4   0  17    1.12    0.44
   4   0 -17    1.01    0.22
  -4   0  17    1.20    0.26
   3   0 -17    0.95    0.47
  -3   0  17   -0.16    0.50
   3   0 -17    0.58    0.30
  -3   0  17    0.55    0.24
   3   0 -17    0.38    0.38
   3   0 -17    0.31    0.26
   2   0 -17   19.39    1.22
   2   0 -17   18.39    1.25
  -2   0  17   19.32    1.20
   2   0 -17   17.67    1.32
   1   0 -17    0.26    0.33
  -1   0  17    0.68    0.26
   1   0 -17    0.66    0.34
   1   0 -17    0.76    0.26
   0   0  17    7.90    0.72
   0   0 -17    7.35    0.62
   0   0 -17    8.31    0.80
  -1   0 -17    0.66    0.35
  -1   0 -17    1.10    0.25
  -2   0 -17    0.09    0.36
  -2   0 -17    0.31    0.20
  -3   0 -17   14.26    0.89
  -4   0 -17    1.51    0.31
   5  -1 -17    1.14    0.26
  -5  -1  17    1.14    0.30
  -4  -1  17    0.23    0.20
   4  -1 -17    0.58    0.29
   4  -1 -17    0.51    0.20
   4  -1 -17    0.21    0.21
  -4   1  17    0.70    0.35
  -4   1  17    0.14    0.23
   4   1 -17    0.35    0.19
   4   1 -17    0.20    0.19
   4   1 -17    0.67    0.49
   3  -1 -17    6.31    0.60
   3  -1 -17    6.27    0.78
   3  -1 -17    5.91    0.60
   2  -1 -17    0.61    0.27
   2  -1 -17    0.52    0.36
   2  -1 -17    0.09    0.25
   2  -1 -17    0.78    0.27
  -2  -1  17    0.60    0.27
  -2   1  17    0.40    0.22
   2   1 -17    0.63    0.26
   2   1 -17    0.46    0.34
  -1  -1  17   33.22    2.03
   1  -1 -17   34.25    2.13
   1  -1 -17   35.02    2.02
   1  -1 -17   33.47    2.05
   1   1 -17   33.09    2.02
  -1   1  17   33.88    2.00
   1   1 -17   33.54    2.14
   0  -1 -17   24.63    1.70
   0  -1 -17   25.12    1.58
   0   1 -17   27.31    1.60
   0   1  17   26.02    1.57
   0   1 -17   27.23    1.73
  -1  -1 -17    0.53    0.22
  -1  -1 -17    0.26    0.30
  -1   1 -17    0.24    0.34
   1   1  17    0.08    0.27
  -1   1 -17    0.19    0.22
  -2   1 -17    1.87    0.34
   2   1  17    1.69    0.31
  -2   1 -17    1.53    0.45
   3   1  17    0.65    0.28
  -3   1 -17    1.00    0.23
  -4  -1 -17    0.48    0.17
  -5  -2  17    3.25    0.54
  -5   2  17    4.02    0.43
   4  -2 -17    3.49    0.39
  -4  -2  17    3.76    0.41
   4  -2 -17    3.40    0.36
  -4   2  17    2.71    0.51
   4   2 -17    2.77    0.36
  -4   2  17    2.28    0.44
   4   2 -17    2.62    0.60
   3  -2 -17    4.79    0.47
  -3  -2  17    5.45    0.53
   3  -2 -17    4.91    0.50
   3  -2 -17    5.05    0.65
   3   2 -17    5.22    0.64
   3   2 -17    5.22    0.51
  -3   2  17    5.37    0.50
   2  -2 -17   30.07    1.91
   2  -2 -17   31.36    1.87
   2  -2 -17   31.97    2.03
   2  -2 -17   30.55    2.02
  -2  -2  17   31.06    1.92
   2   2 -17   32.72    2.03
  -2   2  17   33.16    1.90
   2   2 -17   33.42    1.93
   1  -2 -17    2.76    0.54
   1  -2 -17    2.50    0.50
   1  -2 -17    2.93    0.43
  -1  -2  17    2.77    0.55
   1  -2 -17    2.33    0.41
   1   2 -17    2.40    0.42
   1   2 -17    1.76    0.42
   0  -2 -17    5.31    0.65
   0  -2 -17    4.73    0.49
   0   2 -17    5.71    0.70
   0   2  17    5.68    0.50
   0   2 -17    5.33    0.52
  -1   2 -17    3.92    0.48
   1   2  17    3.37    0.43
  -1   2 -17    3.93    0.69
  -2  -2 -17    3.93    0.39
  -2  -2 -17    4.92    0.55
   2   2  17    4.07    0.43
  -2   2 -17    3.39    0.45
  -3  -2 -17    4.35    0.99
  -3  -2 -17    4.05    0.35
   3   2  17    3.90    0.41
  -4  -2 -17    6.28    0.43
   5  -3 -17    9.06    0.59
  -5  -3  17    8.73    0.61
  -5   3  17    9.62    0.64
  -4  -3  17    1.68    0.35
   4  -3 -17    0.95    0.23
   4  -3 -17    1.41    0.29
   4   3 -17    1.52    0.34
  -4   3  17    2.05    0.42
  -4   3  17    1.16    0.50
   3  -3 -17    0.90    0.22
   3  -3 -17    0.72    0.23
  -3  -3  17    0.95    0.26
   3   3 -17    0.60    0.29
   3   3 -17    0.47    0.22
  -3   3  17    0.30    0.31
  -3   3  17    0.34    0.22
   2  -3 -17    4.22    0.66
   2  -3 -17    4.47    0.43
  -2  -3  17    3.78    0.56
   2  -3 -17    3.82    0.46
   2   3 -17    4.61    0.58
   2   3 -17    3.81    0.49
  -2   3  17    4.11    0.44
   1  -3 -17   14.73    1.04
   1  -3 -17   16.73    1.22
   1  -3 -17   14.08    1.08
   1  -3 -17   14.61    1.07
  -1   3  17   16.79    1.23
  -1   3  17   18.61    1.06
   1   3 -17   18.15    1.09
   0  -3 -17   15.14    1.17
   0  -3 -17   17.56    1.38
   0   3  17   19.88    1.18
   0   3  17   19.28    1.30
   0   3 -17   20.76    1.34
   0   3 -17   20.00    1.22
  -1  -3 -17    3.17    0.38
  -1  -3 -17    3.33    0.47
  -1   3 -17    3.33    0.66
  -1   3 -17    2.71    0.49
   1   3  17    3.18    0.36
  -2  -3 -17   30.93    1.81
  -2  -3 -17   33.58    1.91
   2   3  17   29.20    1.81
  -3  -3 -17    2.13    0.52
  -3  -3 -17    2.47    0.26
   4  -4 -17   16.45    0.91
   4  -4 -17   15.04    0.89
  -4  -4  17   13.57    0.91
  -4  -4  17   12.59    0.94
  -4   4  17   15.28    0.94
   4   4 -17   12.99    0.96
  -3  -4  17    4.01    0.46
   3  -4 -17    3.73    0.40
   3  -4 -17    3.87    0.39
   3   4 -17    4.28    0.47
  -3   4  17    4.62    0.57
   2  -4 -17    8.18    0.89
   2  -4 -17    8.95    0.64
   2  -4 -17    8.42    0.65
  -2  -4  17    7.79    0.72
  -2   4  17   10.03    0.94
   2   4 -17    8.09    0.66
   2   4 -17    8.95    0.74
  -2   4  17    8.91    0.65
   1  -4 -17   29.22    1.76
   1  -4 -17   32.16    1.83
   1  -4 -17   31.33    1.73
   1   4 -17   27.52    1.76
  -1   4  17   29.32    1.74
  -1   4  17   26.58    1.81
   1   4 -17   29.36    1.85
   0  -4 -17    1.52    0.38
   0  -4 -17    0.94    0.28
   0   4  17    1.01    0.31
   0   4 -17    0.59    0.32
   0   4  17    0.53    0.20
   0   4 -17    0.83    0.39
  -1  -4 -17   18.14    1.15
  -1  -4 -17   18.83    1.21
   1   4  17   19.06    1.14
  -1   4 -17   17.99    1.32
   1   4  17   18.76    1.22
  -2  -4 -17    3.75    0.45
  -2  -4 -17    3.32    0.46
   2   4  17    3.81    0.44
   2   4  17    3.93    0.37
   3   4  17   16.08    1.00
   3  -5 -17    2.54    0.49
   3  -5 -17    2.73    0.38
  -3  -5  17    2.82    0.41
  -3   5  17    2.14    0.53
   3   5 -17    2.02    0.47
  -2  -5  17    2.19    0.50
   2  -5 -17    2.65    0.36
   2  -5 -17    3.11    0.35
   2   5 -17    3.31    0.40
  -2   5  17    3.76    0.68
   1  -5 -17    7.83    0.76
   1  -5 -17    7.97    0.83
   1  -5 -17    8.56    0.62
   1   5 -17   10.13    0.73
  -1   5  17    9.97    0.68
  -1   5  17   10.04    0.76
   0   5  17    1.14    0.23
   0   5 -17    1.23    0.33
   0   5  17    1.70    0.41
  -1  -5 -17    0.69    0.22
   1   5  17    0.78    0.25
   1   5  17    0.47    0.21
  -2  -5 -17   15.45    0.97
   2   5  17   15.52    0.98
   2  -6 -17    2.95    0.31
   1  -6 -17   43.47    2.41
  -1   6  17   43.82    2.49
   1   6 -17   41.45    2.46
   0  -6 -17    4.75    0.74
   0   6  17    4.98    0.49
   4   0 -18    5.43    0.49
  -4   0  18    5.59    0.50
   3   0 -18   18.57    1.21
   3   0 -18   19.27    1.31
   3   0 -18   18.32    1.22
  -3   0  18   19.37    1.20
  -2   0  18  199.65   11.33
   2   0 -18  207.29   11.37
   1   0 -18    5.31    0.50
  -1   0  18    4.84    0.55
   1   0 -18    4.86    0.64
   0   0 -18    2.60    0.56
   0   0 -18    2.73    0.38
  -1   0 -18   12.59    0.98
  -1   0 -18   12.44    0.84
  -2   0 -18    9.11    0.81
  -2   0 -18    9.34    0.65
  -3   0 -18   32.71    1.88
   4  -1 -18   14.44    0.91
   4  -1 -18   15.46    0.97
  -4  -1  18   14.38    0.97
  -4   1  18   14.75    1.06
  -4   1  18   15.78    1.03
   4   1 -18   15.04    0.95
   3  -1 -18   12.25    1.04
   3  -1 -18   12.69    0.90
  -3  -1  18   13.21    0.90
   3  -1 -18   12.42    0.90
   3  -1 -18   12.55    0.83
   3   1 -18   13.78    1.00
  -3   1  18   13.38    0.89
   3   1 -18   13.71    0.89
   2  -1 -18    6.10    0.65
   2  -1 -18    7.01    0.74
   2  -1 -18    7.63    0.62
  -2  -1  18    6.99    0.63
  -2   1  18    7.50    0.60
   1  -1 -18   20.84    1.34
   1  -1 -18   21.42    1.45
  -1  -1  18   21.82    1.40
   1  -1 -18   21.78    1.46
  -1   1  18   21.84    1.35
   1   1 -18   21.20    1.35
   1   1 -18   22.16    1.48
   0  -1 -18    0.63    0.24
   0  -1 -18    0.70    0.33
   0   1  18    0.66    0.26
   0   1 -18    0.53    0.24
   0   1 -18    0.20    0.34
  -1  -1 -18   36.91    2.19
  -1  -1 -18   36.18    2.09
  -1   1 -18   34.40    2.09
  -1   1 -18   35.72    2.20
   1   1  18   34.40    2.08
  -2  -1 -18   22.56    1.37
  -2  -1 -18   22.08    1.25
  -2   1 -18   19.61    1.40
   2   1  18   17.88    1.28
  -2   1 -18   20.87    1.26
  -3  -1 -18   13.87    0.82
  -3   1 -18   12.76    0.84
   4  -2 -18    4.91    0.44
   4  -2 -18    4.96    0.41
  -4  -2  18    4.84    0.46
  -4   2  18    4.41    0.51
  -4   2  18    5.47    0.54
   4   2 -18    4.78    0.67
  -3  -2  18   12.88    0.83
   3  -2 -18   12.98    0.78
   3  -2 -18   10.21    1.46
   3  -2 -18   10.93    0.89
   3  -2 -18   13.10    0.83
  -3   2  18   11.11    0.80
   3   2 -18   10.91    0.90
   3   2 -18   11.29    0.81
   2  -2 -18    6.52    0.54
  -2  -2  18    6.56    0.67
   2  -2 -18    6.72    0.62
   2  -2 -18    6.94    0.63
   2  -2 -18    6.71    0.72
   2   2 -18    8.12    0.72
  -2   2  18    8.48    0.59
   1  -2 -18   14.91    1.02
   1  -2 -18   15.12    1.13
   1  -2 -18   13.88    1.07
  -1   2  18   16.41    1.02
   1   2 -18   15.37    1.04
   1   2 -18   18.31    1.32
   0  -2 -18   20.94    1.26
   0  -2 -18   20.98    1.36
   0   2 -18   19.02    1.26
   0   2 -18   19.70    1.38
   0   2  18   19.95    1.25
  -1  -2 -18   10.08    0.82
  -1  -2 -18    9.62    0.70
   1   2  18   10.66    0.72
  -1   2 -18   10.48    0.88
  -1   2 -18   10.29    0.73
  -2  -2 -18   29.34    1.62
  -2  -2 -18   28.66    1.71
   2   2  18   25.60    1.62
  -2   2 -18   26.97    1.63
  -3  -2 -18   28.86    1.66
   4  -3 -18    5.44    0.45
  -4  -3  18    5.99    0.49
   4  -3 -18    6.16    0.46
  -4   3  18    4.79    0.50
   4   3 -18    4.18    0.61
   3  -3 -18    0.30    0.18
   3  -3 -18    0.30    0.22
   3   3 -18    0.21    0.23
   3   3 -18    0.18    0.19
  -3   3  18    0.12    0.27
  -3   3  18    0.40    0.24
   2  -3 -18   12.32    0.77
   2  -3 -18   12.42    0.95
   2  -3 -18   12.65    0.83
  -2  -3  18   12.83    0.89
   2   3 -18   10.97    0.81
   2   3 -18   10.71    0.89
  -2   3  18   11.42    0.80
   1  -3 -18   31.05    1.98
   1  -3 -18   32.94    2.06
   1  -3 -18   35.40    2.06
   1  -3 -18   36.51    2.13
  -1   3  18   37.18    2.05
   1   3 -18   36.62    2.16
   1   3 -18   34.57    2.06
   0  -3 -18    0.86    0.27
   0  -3 -18    0.84    0.27
   0   3 -18    0.87    0.32
   0   3 -18    1.17    0.30
   0   3  18    0.76    0.22
   0   3  18    1.12    0.42
  -1  -3 -18   22.50    1.34
  -1  -3 -18   23.28    1.42
   1   3  18   22.60    1.33
  -1   3 -18   21.65    1.37
   1   3  18   21.65    1.42
  -1   3 -18   21.74    1.47
  -2  -3 -18    5.34    0.44
  -2  -3 -18    5.74    0.55
   2   3  18    6.21    0.47
  -3  -3 -18    4.58    0.36
   4  -4 -18    4.68    0.50
   4  -4 -18    2.95    0.34
  -4   4  18    3.92    0.40
   3  -4 -18    7.32    0.51
  -3  -4  18    6.84    0.58
   3  -4 -18    7.31    0.52
   3   4 -18    7.08    0.58
   2  -4 -18    0.54    0.23
   2  -4 -18    0.60    0.65
  -2  -4  18    0.58    0.32
   2  -4 -18    0.38    0.19
   2   4 -18    0.76    0.25
  -2   4  18    0.91    0.25
   2   4 -18    0.86    0.27
   1  -4 -18    5.24    0.58
   1  -4 -18    5.36    0.44
   1  -4 -18    4.65    0.60
   1   4 -18    5.26    0.56
  -1   4  18    6.08    0.77
   1   4 -18    6.32    0.59
  -1   4  18    6.18    0.49
   0  -4 -18   14.58    1.03
   0   4  18   15.72    1.07
   0   4 -18   15.02    1.07
   0   4  18   15.67    0.97
  -1  -4 -18    1.09    0.30
   1   4  18    0.80    0.21
   1   4  18    0.57    0.23
  -2  -4 -18   -0.12    0.26
  -2  -4 -18    0.29    0.18
   3  -5 -18    0.48    0.19
   3   5 -18    0.24    0.21
  -3   5  18    0.20    0.26
   2  -5 -18    4.40    0.36
   2  -5 -18    4.79    0.43
   2   5 -18    4.46    0.53
   1  -5 -18   30.22    1.99
   1   5 -18   36.06    1.99
  -1   5  18   32.28    1.98
  -1   5  18   35.19    2.02
   0  -5 -18    4.28    0.61
   0   5 -18    4.57    0.63
   0   5  18    4.75    0.49
   0   5  18    4.36    0.53
  -1  -5 -18    2.80    0.36
   1   5  18    2.15    0.42
  -4   0  19    0.25    0.21
   3   0 -19    1.96    0.36
   3   0 -19    2.33    0.55
  -3   0  19    2.27    0.38
  -3   0  19    2.21    0.60
   2   0 -19    9.33    0.69
  -2   0  19    9.33    0.71
   2   0 -19    9.03    0.80
   1   0 -19    1.17    0.26
  -1   0  19    1.30    0.30
   1   0 -19    0.89    0.30
   0   0 -19    7.73    0.72
   0   0 -19    7.88    0.59
   0   0  19    6.60    0.76
  -1   0 -19    0.98    0.31
  -1   0 -19    1.44    0.26
  -2   0 -19   25.01    1.61
  -2   0 -19   26.13    1.51
  -3   0 -19    4.82    0.39
  -4   1  19    3.01    0.42
  -4   1  19    3.40    0.51
   3  -1 -19   51.58    3.08
   3  -1 -19   51.44    3.00
   3  -1 -19   52.58    3.02
  -3  -1  19   51.69    3.01
   3   1 -19   52.79    3.07
  -3   1  19   54.73    3.01
   3   1 -19   52.79    3.01
  -2  -1  19    8.36    0.65
   2  -1 -19    8.26    0.60
   2  -1 -19    8.00    0.71
   2  -1 -19    8.16    0.64
  -2   1  19    5.86    0.58
   2   1 -19    5.77    0.68
   2   1 -19    6.18    0.58
  -1  -1  19    3.56    0.62
   1  -1 -19    2.82    0.52
  -1   1  19    3.14    0.45
   1   1 -19    3.61    0.41
   1   1 -19    3.18    0.55
   0  -1 -19   10.68    0.71
   0  -1 -19   10.97    0.83
   0   1 -19   10.03    0.85
   0   1  19    8.25    0.74
   0   1 -19    9.43    0.71
  -1  -1 -19    5.66    0.62
  -1   1 -19    6.51    0.52
  -1   1 -19    6.69    0.69
  -2  -1 -19    2.05    0.28
  -2  -1 -19    2.09    0.49
  -2   1 -19    2.14    0.33
  -2   1 -19    3.16    0.72
   2   1  19    2.61    0.58
  -3  -1 -19    9.77    0.62
   4  -2 -19    0.02    0.18
  -4  -2  19    0.12    0.22
  -4   2  19    0.47    0.28
   3  -2 -19   10.05    0.88
   3  -2 -19   11.12    0.76
  -3  -2  19   11.89    0.96
  -3   2  19   11.55    0.77
   3   2 -19   11.23    0.84
   3   2 -19   11.20    0.75
   2  -2 -19    7.08    0.69
   2  -2 -19    5.90    0.59
  -2  -2  19    6.79    0.67
   2  -2 -19    7.53    0.61
   2   2 -19    6.74    0.57
  -2   2  19    7.76    0.58
   2   2 -19    7.03    0.67
   1  -2 -19    5.06    0.59
   1  -2 -19    4.82    0.50
   1  -2 -19    5.25    0.65
   1   2 -19    5.49    0.60
  -1   2  19    5.26    0.49
   1   2 -19    5.71    0.51
   0  -2 -19    0.18    0.20
   0  -2 -19    0.17    0.24
   0   2 -19    0.23    0.29
   0   2  19   -0.12    0.21
   0   2 -19    0.38    0.24
  -1  -2 -19   27.51    1.69
  -1  -2 -19   28.06    1.77
  -1   2 -19   29.40    1.71
  -1   2 -19   30.45    1.80
  -2  -2 -19    5.89    0.46
  -2  -2 -19    5.99    0.59
   2   2  19    7.52    0.55
  -2   2 -19    6.78    0.56
  -3  -2 -19    3.77    0.31
   4  -3 -19    2.22    0.28
  -4   3  19    1.72    0.35
  -3  -3  19    6.20    0.56
   3  -3 -19    5.98    0.50
   3   3 -19    5.95    0.56
  -3   3  19    6.63    0.55
   3   3 -19    6.56    0.48
  -2  -3  19   15.69    1.13
   2  -3 -19   16.01    1.05
   2  -3 -19   16.66    1.15
  -2   3  19   17.49    1.05
   2   3 -19   16.15    1.04
   2   3 -19   17.24    1.12
   1  -3 -19    4.72    0.94
   1  -3 -19    6.30    0.61
   1  -3 -19    5.83    0.61
  -1   3  19    6.43    0.51
   1   3 -19    6.00    0.52
   1   3 -19    6.20    0.60
   0  -3 -19    1.36    0.28
   0  -3 -19    1.24    0.28
   0   3 -19    2.13    0.39
   0   3 -19    1.23    0.31
   0   3  19    1.27    0.24
  -1  -3 -19    7.65    0.54
  -1  -3 -19    8.38    0.62
  -1   3 -19    6.82    0.66
   1   3  19    6.27    0.55
  -1   3 -19    5.75    1.04
   1   3  19    7.01    0.79
  -2  -3 -19   19.29    1.17
  -2  -3 -19   17.98    1.11
   2   3  19   19.11    1.16
   3  -4 -19   24.19    1.34
   3   4 -19   24.27    1.38
  -3   4  19   19.98    1.36
   2  -4 -19    4.88    0.47
  -2   4  19    4.46    0.52
   1  -4 -19   12.19    0.94
  -1   4  19   14.50    0.87
   1   4 -19   12.29    0.91
   1   4 -19   14.93    0.94
   0  -4 -19    1.70    0.37
   0   4  19    1.15    0.49
   0   4 -19    1.11    0.48
   0   4  19    0.99    0.22
  -1  -4 -19    0.03    0.31
   1   4  19    0.62    0.49
   1   4  19   -0.16    0.21
   0  -5 -19    3.27    0.47
  -4   0  20    0.17    0.27
  -3   0  20   -0.17    0.22
   3   0 -20    0.06    0.18
   3   0 -20    0.11    0.36
  -2   0  20   25.54    1.55
   2   0 -20   25.25    1.53
   2   0 -20   25.82    1.61
   1   0 -20    4.22    0.54
  -1   0  20    4.52    0.62
   1   0 -20    4.36    0.44
   0   0 -20    0.27    0.25
   0   0  20    0.36    0.41
   0   0 -20    0.28    0.19
  -1   0 -20    4.21    0.54
  -1   0 -20    4.47    0.40
  -2   0 -20    0.86    0.20
  -2   0 -20    0.90    0.45
   3  -1 -20   17.07    1.03
  -3  -1  20   18.12    1.04
   3  -1 -20   15.51    1.22
   3   1 -20   15.99    1.08
   3   1 -20   15.45    1.00
  -3   1  20   15.18    1.14
  -3   1  20   16.50    1.03
  -2  -1  20    5.20    0.55
   2  -1 -20    5.48    0.49
   2  -1 -20    4.36    0.58
  -2   1  20    4.70    0.49
   2   1 -20    5.72    0.57
   2   1 -20    5.03    0.46
   1  -1 -20   21.03    1.38
   1  -1 -20   20.03    1.30
  -1  -1  20   18.03    1.40
  -1   1  20   22.17    1.31
   1   1 -20   23.38    1.31
   1   1 -20   22.49    1.39
   0  -1 -20   11.09    0.78
   0  -1 -20   11.48    0.88
   0   1  20   11.52    0.85
   0   1 -20   12.02    0.79
   0   1 -20   12.58    0.90
  -1  -1 -20    0.74    0.26
  -1  -1 -20    1.18    0.25
  -1   1 -20    0.81    0.31
   1   1  20    0.02    0.35
  -1   1 -20    0.59    0.20
  -2  -1 -20   24.87    1.52
  -2  -1 -20   26.97    1.44
  -2   1 -20   22.05    1.43
  -3  -2  20    2.19    0.43
   3  -2 -20    2.44    0.35
   3   2 -20    2.13    0.30
  -3   2  20    2.92    0.39
   3   2 -20    2.81    0.49
   2  -2 -20    7.03    0.61
   2  -2 -20    7.33    0.59
   2  -2 -20    7.54    0.68
  -2  -2  20    6.53    0.67
   2   2 -20    7.08    0.54
   2   2 -20    6.39    0.62
   1  -2 -20    7.47    0.64
   1  -2 -20    8.02    0.71
  -1   2  20    8.87    0.67
   1   2 -20    9.00    0.72
   1   2 -20    9.67    0.64
   0  -2 -20   12.46    0.77
   0  -2 -20   12.36    0.85
   0   2  20   10.34    0.79
   0   2 -20   10.95    0.85
   0   2 -20   11.17    0.77
  -1  -2 -20    0.55    0.25
  -1  -2 -20    0.58    0.18
  -1   2 -20    0.44    0.24
  -1   2 -20    1.06    0.53
   1   2  20    0.26    0.25
  -2  -2 -20    4.00    0.34
  -2  -2 -20    4.37    0.53
   3  -3 -20    7.87    0.59
  -3   3  20    8.44    0.64
   3   3 -20    9.12    0.64
   2  -3 -20    0.62    0.45
   2  -3 -20    1.18    0.29
   2   3 -20    0.88    0.21
  -2   3  20    0.63    0.23
   2   3 -20    0.96    0.25
   1  -3 -20    3.63    0.49
   1   3 -20    3.96    0.41
  -1   3  20    4.04    0.41
   1   3 -20    3.68    0.47
   0  -3 -20   10.49    0.72
   0  -3 -20    9.12    0.67
   0   3 -20    9.27    0.73
   0   3  20    9.20    0.66
   0   3 -20    8.43    0.68
  -1  -3 -20    0.74    0.23
   1   3  20    0.82    0.24
   1  -4 -20    0.23    0.33
   1   4 -20    0.05    0.22
   0  -4 -20    7.39    0.59
  -1  -4 -20    6.10    0.51
   3   0 -21    6.15    0.85
  -3   0  21    6.74    0.54
   3   0 -21    6.50    0.49
   2   0 -21    1.43    0.40
   2   0 -21    1.05    0.24
  -2   0  21    0.79    0.27
   1   0 -21    0.58    0.24
   1   0 -21    0.77    0.21
  -1   0  21    0.34    0.33
   0   0 -21   32.79    1.91
   0   0 -21   33.19    1.99
  -1   0 -21    2.24    0.45
  -1   0 -21    1.80    0.27
  -2   0 -21   21.27    1.23
   3  -1 -21   13.11    0.96
  -3  -1  21   14.60    0.99
   3   1 -21   15.45    1.02
  -3   1  21   16.01    0.98
   3   1 -21   17.03    0.95
   2  -1 -21    6.94    0.61
   2  -1 -21    6.69    0.52
  -2  -1  21    6.24    0.64
  -2   1  21    6.09    0.54
   2   1 -21    6.05    0.57
   2   1 -21    5.66    0.49
   1  -1 -21   14.16    0.94
   1  -1 -21   14.42    1.01
   1   1 -21   15.96    0.94
   1   1 -21   15.61    1.02
  -1   1  21   14.32    0.99
   0  -1 -21    4.28    0.40
   0  -1 -21    5.18    0.51
   0   1 -21    4.13    0.41
   0   1  21    4.67    0.59
   0   1 -21    4.79    0.54
  -1  -1 -21    7.90    0.55
  -1  -1 -21    6.96    0.81
  -1   1 -21    9.09    0.70
  -1   1 -21    8.74    0.58
  -2  -1 -21   22.73    1.31
   3   2 -21    4.59    0.51
   2  -2 -21    9.07    0.79
   2   2 -21    9.94    0.65
   2   2 -21   10.34    0.72
  -2   2  21    9.49    0.69
   1  -2 -21    3.10    0.38
   1  -2 -21    2.32    0.42
   1   2 -21    1.71    0.32
   1   2 -21    2.13    0.41
  -1   2  21    2.62    0.41
   0  -2 -21    6.91    0.57
   0  -2 -21    7.98    0.59
   0   2 -21    7.02    0.63
   0   2  21    6.74    0.59
   0   2 -21    6.17    0.61
  -1  -2 -21    7.03    0.52
  -1  -2 -21    8.06    0.60
  -1   2 -21    7.75    0.77
   2   3 -21    0.73    0.23
   2   3 -21    1.05    0.22
   1  -3 -21    7.79    0.66
   1   3 -21    7.92    0.59
   1   3 -21    8.38    0.62
  -1   3  21    8.11    0.64
   0  -3 -21    2.95    0.40
   0   3 -21    3.45    0.50
  -1  -3 -21   16.45    1.02
   2   0 -22    7.10    0.60
   2   0 -22    6.06    0.48
   1   0 -22   12.89    1.02
   0   0 -22    3.89    0.36
   0   0 -22    4.39    0.46
  -1   0 -22   11.18    0.70
   2  -1 -22    9.75    0.76
   2  -1 -22    8.32    0.65
   2   1 -22   10.50    0.71
   2   1 -22   10.15    0.63
   1  -1 -22   16.41    0.97
   1  -1 -22   15.86    1.02
   1   1 -22   16.92    1.06
   1   1 -22   14.16    0.96
   0  -1 -22    2.43    0.39
   0  -1 -22    2.62    0.29
   0   1 -22    1.92    0.41
   0   1 -22    2.02    0.29
  -1  -1 -22    2.66    0.29
   2   2 -22    1.74    0.36
   2   2 -22    1.62    0.26
   1  -2 -22    8.09    0.65
   1   2 -22    9.10    0.63
   1   2 -22    7.70    0.56
   0  -2 -22    1.37    0.26
   0   2 -22    0.83    0.31
   1   0 -23   48.99    2.81
   0   0   0    0.00    0.00
;
_shelx_hkl_checksum              25606
loop_
_space_group_symop_operation_xyz
'x, y, z'
'-x, y+1/2, -z'
loop_
_atom_site_label
_atom_site_type_symbol
_atom_site_fract_x
_atom_site_fract_y
_atom_site_fract_z
_atom_site_U_iso_or_equiv
_atom_site_adp_type
_atom_site_occupancy
_atom_site_site_symmetry_order
_atom_site_calc_flag
_atom_site_refinement_flags_posn
_atom_site_refinement_flags_adp
Cl1 Cl -0.20116(7) 0.55602(7) 0.33395(3) 0.02424(14) Uani 1 1 d . .
O3 O 0.4577(2) 0.71188(19) 0.80350(8) 0.0216(3) Uani 1 1 d . .
O1 O 0.9135(2) 0.6798(2) 0.69514(9) 0.0220(3) Uani 1 1 d . .
H1 H 0.9161 0.7917 0.6974 0.033 Uiso 1 1 calc R U
O2 O 0.6948(3) 0.9185(2) 0.76827(9) 0.0299(4) Uani 1 1 d . .
C5 C 0.3867(3) 0.6556(3) 0.45817(11) 0.0163(4) Uani 1 1 d . .
H5 H 0.5278 0.7066 0.4513 0.020 Uiso 1 1 calc R U
C6 C 0.2199(3) 0.6417(3) 0.39750(12) 0.0183(4) Uani 1 1 d . .
H6 H 0.2455 0.6823 0.3496 0.022 Uiso 1 1 calc R U
C9 C 0.1440(3) 0.5199(3) 0.53778(12) 0.0173(4) Uani 1 1 d . .
H9 H 0.1175 0.4783 0.5855 0.021 Uiso 1 1 calc R U
C18 C 0.6259(3) 0.7682(3) 0.76763(11) 0.0193(4) Uani 1 1 d . .
C4 C 0.3530(3) 0.5967(2) 0.52911(11) 0.0152(4) Uani 1 1 d . .
C8 C -0.0233(3) 0.5042(3) 0.47791(12) 0.0184(4) Uani 1 1 d . .
H8 H -0.1636 0.4508 0.4841 0.022 Uiso 1 1 calc R U
C7 C 0.0153(3) 0.5671(3) 0.40846(10) 0.0174(4) Uani 1 1 d . .
C11 C 0.9936(3) 0.4317(3) 0.80769(12) 0.0179(4) Uani 1 1 d . .
H11 H 1.1085 0.4968 0.7880 0.022 Uiso 1 1 calc R U
C10 C 0.7830(3) 0.4633(3) 0.77727(11) 0.0170(4) Uani 1 1 d . .
H10 H 0.6669 0.3870 0.7897 0.020 Uiso 1 1 calc R U
C3 C 0.5331(3) 0.6229(3) 0.59158(12) 0.0165(4) Uani 1 1 d . .
H3 H 0.6631 0.6854 0.5809 0.020 Uiso 1 1 calc R U
C2 C 0.5330(3) 0.5682(3) 0.66146(10) 0.0165(4) Uani 1 1 d . .
H2 H 0.4114 0.4967 0.6730 0.020 Uiso 1 1 calc R U
C14 C 1.3631(3) 0.2144(3) 0.96617(12) 0.0198(4) Uani 1 1 d . .
H14 H 1.5146 0.2234 0.9893 0.024 Uiso 1 1 calc R U
C13 C 1.2891(3) 0.3181(3) 0.90420(12) 0.0182(4) Uani 1 1 d . .
H13 H 1.3911 0.3985 0.8856 0.022 Uiso 1 1 calc R U
C12 C 1.0672(3) 0.3069(3) 0.86849(11) 0.0165(4) Uani 1 1 d . .
C17 C 0.9231(3) 0.1841(3) 0.89625(12) 0.0186(4) Uani 1 1 d . .
H17 H 0.7731 0.1710 0.8721 0.022 Uiso 1 1 calc R U
C1 C 0.7198(3) 0.6156(3) 0.72358(11) 0.0179(4) Uani 1 1 d . .
C16 C 0.9963(3) 0.0814(3) 0.95847(12) 0.0218(4) Uani 1 1 d . .
H16 H 0.8958 -0.0007 0.9768 0.026 Uiso 1 1 calc R U
C15 C 1.2156(3) 0.0976(3) 0.99432(12) 0.0210(4) Uani 1 1 d . .
H15 H 1.2640 0.0292 1.0377 0.025 Uiso 1 1 calc R U
C19 C 0.3565(4) 0.8446(3) 0.84700(13) 0.0295(5) Uani 1 1 d . .
H19A H 0.4730 0.8975 0.8836 0.044 Uiso 1 1 calc R U
H19B H 0.2416 0.7880 0.8730 0.044 Uiso 1 1 calc R U
H19C H 0.2865 0.9379 0.8138 0.044 Uiso 1 1 calc R U
loop_
_atom_site_aniso_label
_atom_site_aniso_U_11
_atom_site_aniso_U_22
_atom_site_aniso_U_33
_atom_site_aniso_U_23
_atom_site_aniso_U_13
_atom_site_aniso_U_12
Cl1 0.0195(2) 0.0333(3) 0.0183(2) -0.0060(2) -0.00341(17) 0.0015(2)
O3 0.0242(8) 0.0210(8) 0.0202(8) -0.0043(6) 0.0050(6) 0.0009(6)
O1 0.0190(7) 0.0259(8) 0.0211(8) 0.0049(6) 0.0029(6) -0.0067(6)
O2 0.0463(10) 0.0198(8) 0.0232(8) -0.0023(7) 0.0025(7) -0.0093(7)
C5 0.0160(9) 0.0159(10) 0.0174(10) -0.0011(8) 0.0040(8) -0.0009(7)
C6 0.0215(10) 0.0197(10) 0.0144(10) 0.0008(8) 0.0047(8) 0.0027(8)
C9 0.0192(9) 0.0165(10) 0.0164(10) 0.0020(7) 0.0033(8) -0.0001(7)
C18 0.0225(10) 0.0209(10) 0.0127(9) 0.0011(8) -0.0045(8) -0.0017(8)
C4 0.0170(9) 0.0136(10) 0.0151(9) -0.0017(7) 0.0027(7) 0.0023(7)
C8 0.0170(9) 0.0160(9) 0.0223(11) -0.0009(8) 0.0033(8) -0.0013(7)
C7 0.0163(8) 0.0170(9) 0.0180(9) -0.0046(9) -0.0012(7) 0.0027(8)
C11 0.0171(9) 0.0200(10) 0.0172(10) -0.0019(8) 0.0039(8) -0.0036(8)
C10 0.0191(9) 0.0177(10) 0.0144(10) -0.0011(8) 0.0033(8) -0.0028(8)
C3 0.0159(9) 0.0151(9) 0.0189(10) -0.0017(8) 0.0038(8) -0.0003(7)
C2 0.0164(8) 0.0166(8) 0.0163(9) 0.0001(9) 0.0017(7) -0.0024(8)
C14 0.0169(9) 0.0243(11) 0.0181(11) -0.0032(9) 0.0015(8) 0.0042(8)
C13 0.0148(9) 0.0214(10) 0.0190(10) -0.0025(9) 0.0047(8) -0.0009(8)
C12 0.0175(9) 0.0171(10) 0.0151(10) -0.0038(8) 0.0035(8) 0.0019(8)
C17 0.0162(9) 0.0175(10) 0.0218(11) -0.0014(9) 0.0015(8) -0.0006(8)
C1 0.0154(9) 0.0219(10) 0.0165(10) 0.0011(8) 0.0024(8) -0.0039(7)
C16 0.0229(9) 0.0181(10) 0.0249(10) 0.0031(9) 0.0047(8) -0.0006(8)
C15 0.0244(10) 0.0204(11) 0.0184(10) 0.0029(8) 0.0033(8) 0.0062(8)
C19 0.0412(13) 0.0279(12) 0.0196(12) -0.0039(10) 0.0047(10) 0.0114(10)
loop_
_atom_type_symbol
_atom_type_description
_atom_type_scat_dispersion_real
_atom_type_scat_dispersion_imag
_atom_type_scat_source
C C 0.0181 0.0091 'International Tables Vol C Tables 4.2.6.8 and 6.1.1.4'
H H 0.0000 0.0000 'International Tables Vol C Tables 4.2.6.8 and 6.1.1.4'
O O 0.0492 0.0322 'International Tables Vol C Tables 4.2.6.8 and 6.1.1.4'
Cl Cl 0.3639 0.7018 'International Tables Vol C Tables 4.2.6.8 and 6.1.1.4'
loop_
_geom_angle_atom_site_label_1
_geom_angle_atom_site_label_2
_geom_angle_atom_site_label_3
_geom_angle
C18 O3 C19 116.21(17)
C1 O1 H1 109.5
C6 C5 C4 121.81(18)
C6 C5 H5 119.1
C4 C5 H5 119.1
C7 C6 C5 118.39(18)
C7 C6 H6 120.8
C5 C6 H6 120.8
C8 C9 C4 120.84(18)
C8 C9 H9 119.6
C4 C9 H9 119.6
O2 C18 O3 124.9(2)
O2 C18 C1 123.62(19)
O3 C18 C1 111.43(16)
C5 C4 C9 118.09(18)
C5 C4 C3 118.95(17)
C9 C4 C3 122.93(17)
C9 C8 C7 119.36(18)
C9 C8 H8 120.3
C7 C8 H8 120.3
C6 C7 C8 121.49(18)
C6 C7 Cl1 119.34(15)
C8 C7 Cl1 119.16(15)
C10 C11 C12 126.82(18)
C10 C11 H11 116.6
C12 C11 H11 116.6
C11 C10 C1 122.88(18)
C11 C10 H10 118.6
C1 C10 H10 118.6
C2 C3 C4 126.75(18)
C2 C3 H3 116.6
C4 C3 H3 116.6
C3 C2 C1 122.61(18)
C3 C2 H2 118.7
C1 C2 H2 118.7
C15 C14 C13 119.97(19)
C15 C14 H14 120.0
C13 C14 H14 120.0
C14 C13 C12 121.39(19)
C14 C13 H13 119.3
C12 C13 H13 119.3
C17 C12 C13 117.78(19)
C17 C12 C11 123.38(19)
C13 C12 C11 118.71(18)
C16 C17 C12 120.86(19)
C16 C17 H17 119.6
C12 C17 H17 119.6
O1 C1 C10 110.06(16)
O1 C1 C2 111.69(16)
C10 C1 C2 113.25(17)
O1 C1 C18 107.91(16)
C10 C1 C18 107.81(16)
C2 C1 C18 105.82(16)
C17 C16 C15 120.53(19)
C17 C16 H16 119.7
C15 C16 H16 119.7
C14 C15 C16 119.42(19)
C14 C15 H15 120.3
C16 C15 H15 120.3
O3 C19 H19A 109.5
O3 C19 H19B 109.5
H19A C19 H19B 109.5
O3 C19 H19C 109.5
H19A C19 H19C 109.5
H19B C19 H19C 109.5
loop_
_geom_bond_atom_site_label_1
_geom_bond_atom_site_label_2
_geom_bond_distance
Cl1 C7 1.7439(19)
O3 C18 1.336(3)
O3 C19 1.450(3)
O1 C1 1.413(2)
O1 H1 0.8400
O2 C18 1.199(3)
C5 C6 1.387(3)
C5 C4 1.397(3)
C5 H5 0.9500
C6 C7 1.384(3)
C6 H6 0.9500
C9 C8 1.380(3)
C9 C4 1.404(3)
C9 H9 0.9500
C18 C1 1.542(3)
C4 C3 1.468(3)
C8 C7 1.389(3)
C8 H8 0.9500
C11 C10 1.329(3)
C11 C12 1.467(3)
C11 H11 0.9500
C10 C1 1.515(3)
C10 H10 0.9500
C3 C2 1.329(3)
C3 H3 0.9500
C2 C1 1.519(3)
C2 H2 0.9500
C14 C15 1.387(3)
C14 C13 1.388(3)
C14 H14 0.9500
C13 C12 1.401(3)
C13 H13 0.9500
C12 C17 1.400(3)
C17 C16 1.386(3)
C17 H17 0.9500
C16 C15 1.391(3)
C16 H16 0.9500
C15 H15 0.9500
C19 H19A 0.9800
C19 H19B 0.9800
C19 H19C 0.9800
loop_
_geom_torsion_atom_site_label_1
_geom_torsion_atom_site_label_2
_geom_torsion_atom_site_label_3
_geom_torsion_atom_site_label_4
_geom_torsion
C4 C5 C6 C7 0.0(3)
C19 O3 C18 O2 -1.0(3)
C19 O3 C18 C1 179.89(17)
C6 C5 C4 C9 0.7(3)
C6 C5 C4 C3 -177.24(18)
C8 C9 C4 C5 -0.3(3)
C8 C9 C4 C3 177.50(18)
C4 C9 C8 C7 -0.7(3)
C5 C6 C7 C8 -1.2(3)
C5 C6 C7 Cl1 177.48(15)
C9 C8 C7 C6 1.5(3)
C9 C8 C7 Cl1 -177.14(15)
C12 C11 C10 C1 169.69(19)
C5 C4 C3 C2 -176.8(2)
C9 C4 C3 C2 5.4(3)
C4 C3 C2 C1 -174.74(18)
C15 C14 C13 C12 -0.5(3)
C14 C13 C12 C17 -1.5(3)
C14 C13 C12 C11 174.36(18)
C10 C11 C12 C17 9.2(3)
C10 C11 C12 C13 -166.5(2)
C13 C12 C17 C16 2.0(3)
C11 C12 C17 C16 -173.68(19)
C11 C10 C1 O1 17.2(3)
C11 C10 C1 C2 143.0(2)
C11 C10 C1 C18 -100.3(2)
C3 C2 C1 O1 -15.7(3)
C3 C2 C1 C10 -140.6(2)
C3 C2 C1 C18 101.5(2)
O2 C18 C1 O1 8.1(3)
O3 C18 C1 O1 -172.81(16)
O2 C18 C1 C10 127.0(2)
O3 C18 C1 C10 -54.0(2)
O2 C18 C1 C2 -111.6(2)
O3 C18 C1 C2 67.5(2)
C12 C17 C16 C15 -0.4(3)
C13 C14 C15 C16 2.1(3)
C17 C16 C15 C14 -1.6(3)
