#------------------------------------------------------------------------------
#$Date: 2017-03-04 15:59:57 +0200 (Sat, 04 Mar 2017) $
#$Revision: 193512 $
#$URL: file:///home/coder/svn-repositories/cod/cif/4/12/55/4125576.cif $
#------------------------------------------------------------------------------
#
# This file is available in the Crystallography Open Database (COD),
# http://www.crystallography.net/
#
# All data on this site have been placed in the public domain by the
# contributors.
#
data_4125576
loop_
_publ_author_name
'Campos, Michael P.'
'Hendricks, Mark P.'
'Beecher, Alexander N.'
'Walravens, Willem'
'Swain, Robert A.'
'Cleveland, Gregory T.'
'Hens, Zeger'
'Sfeir, Matthew Y.'
'Owen, Jonathan S.'
_publ_section_title
;
 A Library of Selenourea Precursors to PbSe Nanocrystals with Size
 Distributions near the Homogeneous Limit.
;
_journal_issue                   6
_journal_name_full               'Journal of the American Chemical Society'
_journal_page_first              2296
_journal_page_last               2305
_journal_paper_doi               10.1021/jacs.6b11021
_journal_volume                  139
_journal_year                    2017
_chemical_formula_moiety         'C5 H12 N2 Se'
_chemical_formula_sum            'C5 H12 N2 Se'
_chemical_formula_weight         179.13
_space_group_crystal_system      monoclinic
_space_group_IT_number           15
_space_group_name_Hall           '-C 2yc'
_space_group_name_H-M_alt        'C 1 2/c 1'
_symmetry_space_group_name_Hall  '-C 2yc'
_symmetry_space_group_name_H-M   'C 1 2/c 1'
_atom_sites_solution_hydrogens   geom
_audit_creation_date             2016-01-09
_audit_creation_method
;
Olex2 1.2
(compiled 2015.09.30 svn.r3233 for OlexSys, GUI svn.r5103)
;
_cell_angle_alpha                90
_cell_angle_beta                 94.681(3)
_cell_angle_gamma                90
_cell_formula_units_Z            4
_cell_length_a                   5.4557(2)
_cell_length_b                   12.6064(3)
_cell_length_c                   11.1113(3)
_cell_measurement_reflns_used    4915
_cell_measurement_temperature    200.00(10)
_cell_measurement_theta_max      71.4160
_cell_measurement_theta_min      7.0090
_cell_volume                     761.65(4)
_computing_cell_refinement
;
CrysAlisPro, Agilent Technologies,
Version 1.171.37.34 (release 22-05-2014 CrysAlis171 .NET)
(compiled May 22 2014,16:03:01)
;
_computing_data_collection
;
CrysAlisPro, Agilent Technologies,
Version 1.171.37.34 (release 22-05-2014 CrysAlis171 .NET)
(compiled May 22 2014,16:03:01)
;
_computing_data_reduction
;
CrysAlisPro, Agilent Technologies,
Version 1.171.37.34 (release 22-05-2014 CrysAlis171 .NET)
(compiled May 22 2014,16:03:01)
;
_computing_molecular_graphics    'Olex2 (Dolomanov et al., 2009)'
_computing_publication_material  'Olex2 (Dolomanov et al., 2009)'
_computing_structure_refinement  'ShelXL (Sheldrick, 2015)'
_computing_structure_solution    'ShelXS (Sheldrick, 2008)'
_diffrn_ambient_environment      N~2~
_diffrn_ambient_temperature      200.00(10)
_diffrn_detector                 'CCD plate'
_diffrn_detector_area_resol_mean 8.0549
_diffrn_detector_type            EosS2
_diffrn_measured_fraction_theta_full 1.000
_diffrn_measured_fraction_theta_max 0.999
_diffrn_measurement_details
;
#__ type_ start__ end____ width___ exp.time_
  1 omega   19.00  103.00   1.0000    1.0000
omega____ theta____ kappa____ phi______ frames
    -       35.5316   57.0000   90.0000 84

#__ type_ start__ end____ width___ exp.time_
  2 omega   16.00  105.00   1.0000    1.0000
omega____ theta____ kappa____ phi______ frames
    -       35.5316   37.0000   60.0000 89

#__ type_ start__ end____ width___ exp.time_
  3 omega   55.00  108.00   1.0000    1.0000
omega____ theta____ kappa____ phi______ frames
    -       35.5316 -178.0000  -90.0000 53

#__ type_ start__ end____ width___ exp.time_
  4 omega   57.00  108.00   1.0000    1.0000
omega____ theta____ kappa____ phi______ frames
    -       35.5316  178.0000 -120.0000 51

#__ type_ start__ end____ width___ exp.time_
  5 omega    1.00   74.00   1.0000    1.0000
omega____ theta____ kappa____ phi______ frames
    -       35.5316  -99.0000  -60.0000 73

#__ type_ start__ end____ width___ exp.time_
  6 omega   38.00   91.00   1.0000    1.0000
omega____ theta____ kappa____ phi______ frames
    -      108.0000  -30.0000  150.0000 53

#__ type_ start__ end____ width___ exp.time_
  7 omega   39.00  109.00   1.0000    1.0000
omega____ theta____ kappa____ phi______ frames
    -      108.0000  -94.0000   60.0000 70

#__ type_ start__ end____ width___ exp.time_
  8 omega   40.00   99.00   1.0000    1.0000
omega____ theta____ kappa____ phi______ frames
    -      108.0000  -45.0000  120.0000 59

#__ type_ start__ end____ width___ exp.time_
  9 omega   39.00  109.00   1.0000    1.0000
omega____ theta____ kappa____ phi______ frames
    -      108.0000  -94.0000 -120.0000 70

#__ type_ start__ end____ width___ exp.time_
 10 omega   40.00   99.00   1.0000    1.0000
omega____ theta____ kappa____ phi______ frames
    -      108.0000  -45.0000  -60.0000 59

#__ type_ start__ end____ width___ exp.time_
 11 omega   39.00  109.00   1.0000    1.0000
omega____ theta____ kappa____ phi______ frames
    -      108.0000  -94.0000 -180.0000 70

#__ type_ start__ end____ width___ exp.time_
 12 omega   87.00  178.00   1.0000    1.0000
omega____ theta____ kappa____ phi______ frames
    -      108.0000   30.0000   60.0000 91

#__ type_ start__ end____ width___ exp.time_
 13 omega   40.00   99.00   1.0000    1.0000
omega____ theta____ kappa____ phi______ frames
    -      108.0000  -45.0000   30.0000 59

#__ type_ start__ end____ width___ exp.time_
 14 omega   38.00   91.00   1.0000    1.0000
omega____ theta____ kappa____ phi______ frames
    -      108.0000  -30.0000 -120.0000 53

#__ type_ start__ end____ width___ exp.time_
 15 omega   91.00  176.00   1.0000    1.0000
omega____ theta____ kappa____ phi______ frames
    -      108.0000   45.0000  -90.0000 85

#__ type_ start__ end____ width___ exp.time_
 16 omega  -34.00   55.00   1.0000    1.0000
omega____ theta____ kappa____ phi______ frames
    -       35.5316  -37.0000  -30.0000 89

#__ type_ start__ end____ width___ exp.time_
 17 omega   19.00  103.00   1.0000    1.0000
omega____ theta____ kappa____ phi______ frames
    -       35.5316   57.0000  150.0000 84

#__ type_ start__ end____ width___ exp.time_
 18 omega    9.00  103.00   1.0000    1.0000
omega____ theta____ kappa____ phi______ frames
    -       35.5316   77.0000 -150.0000 94

#__ type_ start__ end____ width___ exp.time_
 19 omega   57.00  108.00   1.0000    1.0000
omega____ theta____ kappa____ phi______ frames
    -       35.5316  178.0000  150.0000 51

#__ type_ start__ end____ width___ exp.time_
 20 omega   16.00  105.00   1.0000    1.0000
omega____ theta____ kappa____ phi______ frames
    -       35.5316   37.0000  -30.0000 89

#__ type_ start__ end____ width___ exp.time_
 21 omega   91.00  176.00   1.0000    1.0000
omega____ theta____ kappa____ phi______ frames
    -      108.0000   45.0000  -30.0000 85

#__ type_ start__ end____ width___ exp.time_
 22 omega   81.00  176.00   1.0000    1.0000
omega____ theta____ kappa____ phi______ frames
    -      108.0000   77.0000 -150.0000 95

#__ type_ start__ end____ width___ exp.time_
 23 omega   70.00  178.00   1.0000    1.0000
omega____ theta____ kappa____ phi______ frames
    -      108.0000   15.0000 -150.0000 108

#__ type_ start__ end____ width___ exp.time_
 24 omega   39.00  109.00   1.0000    1.0000
omega____ theta____ kappa____ phi______ frames
    -      108.0000  -94.0000  -60.0000 70

#__ type_ start__ end____ width___ exp.time_
 25 omega   91.00  176.00   1.0000    1.0000
omega____ theta____ kappa____ phi______ frames
    -      108.0000   45.0000  -60.0000 85

#__ type_ start__ end____ width___ exp.time_
 26 omega   91.00  176.00   1.0000    1.0000
omega____ theta____ kappa____ phi______ frames
    -      108.0000   45.0000    0.0000 85

#__ type_ start__ end____ width___ exp.time_
 27 omega   81.00  176.00   1.0000    1.0000
omega____ theta____ kappa____ phi______ frames
    -      108.0000   77.0000   60.0000 95

#__ type_ start__ end____ width___ exp.time_
 28 omega   81.00  176.00   1.0000    1.0000
omega____ theta____ kappa____ phi______ frames
    -      108.0000   77.0000  120.0000 95

#__ type_ start__ end____ width___ exp.time_
 29 omega   81.00  176.00   1.0000    1.0000
omega____ theta____ kappa____ phi______ frames
    -      108.0000   77.0000 -180.0000 95

#__ type_ start__ end____ width___ exp.time_
 30 omega   87.00  178.00   1.0000    1.0000
omega____ theta____ kappa____ phi______ frames
    -      108.0000   30.0000  120.0000 91

#__ type_ start__ end____ width___ exp.time_
 31 omega  -32.00   52.00   1.0000    1.0000
omega____ theta____ kappa____ phi______ frames
    -       35.5316  -57.0000  -90.0000 84

#__ type_ start__ end____ width___ exp.time_
 32 omega    9.00  103.00   1.0000    1.0000
omega____ theta____ kappa____ phi______ frames
    -       35.5316   77.0000   30.0000 94

#__ type_ start__ end____ width___ exp.time_
 33 omega  -34.00   55.00   1.0000    1.0000
omega____ theta____ kappa____ phi______ frames
    -       35.5316  -37.0000  150.0000 89

#__ type_ start__ end____ width___ exp.time_
 34 omega    9.00  103.00   1.0000    1.0000
omega____ theta____ kappa____ phi______ frames
    -       35.5316   77.0000  -60.0000 94

#__ type_ start__ end____ width___ exp.time_
 35 omega  -32.00   52.00   1.0000    1.0000
omega____ theta____ kappa____ phi______ frames
    -       35.5316  -57.0000   90.0000 84

#__ type_ start__ end____ width___ exp.time_
 36 omega   91.00  176.00   1.0000    1.0000
omega____ theta____ kappa____ phi______ frames
    -      108.0000   45.0000   30.0000 85

#__ type_ start__ end____ width___ exp.time_
 37 omega   81.00  176.00   1.0000    1.0000
omega____ theta____ kappa____ phi______ frames
    -      108.0000   77.0000   30.0000 95

#__ type_ start__ end____ width___ exp.time_
 38 omega   81.00  176.00   1.0000    1.0000
omega____ theta____ kappa____ phi______ frames
    -      108.0000   77.0000  150.0000 95

#__ type_ start__ end____ width___ exp.time_
 39 omega   81.00  176.00   1.0000    1.0000
omega____ theta____ kappa____ phi______ frames
    -      108.0000   77.0000  -30.0000 95

#__ type_ start__ end____ width___ exp.time_
 40 omega   81.00  176.00   1.0000    1.0000
omega____ theta____ kappa____ phi______ frames
    -      108.0000   77.0000   90.0000 95

#__ type_ start__ end____ width___ exp.time_
 41 omega   39.00  109.00   1.0000    1.0000
omega____ theta____ kappa____ phi______ frames
    -      108.0000  -94.0000  150.0000 70

#__ type_ start__ end____ width___ exp.time_
 42 omega   38.00  116.00   1.0000    1.0000
omega____ theta____ kappa____ phi______ frames
    -      108.0000 -111.0000    0.0000 78

#__ type_ start__ end____ width___ exp.time_
 43 omega   81.00  176.00   1.0000    1.0000
omega____ theta____ kappa____ phi______ frames
    -      108.0000   77.0000    0.0000 95

#__ type_ start__ end____ width___ exp.time_
 44 omega   87.00  178.00   1.0000    1.0000
omega____ theta____ kappa____ phi______ frames
    -      108.0000   30.0000  -60.0000 91

#__ type_ start__ end____ width___ exp.time_
 45 omega   90.00  175.00   1.0000    1.0000
omega____ theta____ kappa____ phi______ frames
    -      108.0000   61.0000 -120.0000 85

#__ type_ start__ end____ width___ exp.time_
 46 omega   19.00  103.00   1.0000    1.0000
omega____ theta____ kappa____ phi______ frames
    -       35.5316   57.0000  -30.0000 84

#__ type_ start__ end____ width___ exp.time_
 47 omega   55.00  108.00   1.0000    1.0000
omega____ theta____ kappa____ phi______ frames
    -       35.5316 -178.0000 -180.0000 53

#__ type_ start__ end____ width___ exp.time_
 48 omega   19.00  103.00   1.0000    1.0000
omega____ theta____ kappa____ phi______ frames
    -       35.5316   57.0000 -180.0000 84

#__ type_ start__ end____ width___ exp.time_
 49 omega   19.00  103.00   1.0000    1.0000
omega____ theta____ kappa____ phi______ frames
    -       35.5316   57.0000   60.0000 84

#__ type_ start__ end____ width___ exp.time_
 50 omega   16.00  105.00   1.0000    1.0000
omega____ theta____ kappa____ phi______ frames
    -       35.5316   37.0000  -60.0000 89

#__ type_ start__ end____ width___ exp.time_
 51 omega   38.00  116.00   1.0000    1.0000
omega____ theta____ kappa____ phi______ frames
    -      108.0000 -111.0000   60.0000 78

#__ type_ start__ end____ width___ exp.time_
 52 omega   90.00  175.00   1.0000    1.0000
omega____ theta____ kappa____ phi______ frames
    -      108.0000   61.0000  150.0000 85

#__ type_ start__ end____ width___ exp.time_
 53 omega   87.00  178.00   1.0000    1.0000
omega____ theta____ kappa____ phi______ frames
    -      108.0000   30.0000  150.0000 91

#__ type_ start__ end____ width___ exp.time_
 54 omega   81.00  176.00   1.0000    1.0000
omega____ theta____ kappa____ phi______ frames
    -      108.0000   77.0000  -60.0000 95

#__ type_ start__ end____ width___ exp.time_
 55 omega   81.00  176.00   1.0000    1.0000
omega____ theta____ kappa____ phi______ frames
    -      108.0000   77.0000 -120.0000 95

#__ type_ start__ end____ width___ exp.time_
 56 omega   91.00  176.00   1.0000    1.0000
omega____ theta____ kappa____ phi______ frames
    -      108.0000   45.0000 -150.0000 85

#__ type_ start__ end____ width___ exp.time_
 57 omega   87.00  178.00   1.0000    1.0000
omega____ theta____ kappa____ phi______ frames
    -      108.0000   30.0000   90.0000 91

#__ type_ start__ end____ width___ exp.time_
 58 omega   57.00  150.00   1.0000    1.0000
omega____ theta____ kappa____ phi______ frames
    -      108.0000  178.0000 -120.0000 93

#__ type_ start__ end____ width___ exp.time_
 59 omega   90.00  175.00   1.0000    1.0000
omega____ theta____ kappa____ phi______ frames
    -      108.0000   61.0000  -60.0000 85

#__ type_ start__ end____ width___ exp.time_
 60 omega   90.00  175.00   1.0000    1.0000
omega____ theta____ kappa____ phi______ frames
    -      108.0000   61.0000   60.0000 85

#__ type_ start__ end____ width___ exp.time_
 61 omega   16.00  105.00   1.0000    1.0000
omega____ theta____ kappa____ phi______ frames
    -       35.5316   37.0000  120.0000 89
;
_diffrn_measurement_device       'four-circle diffractometer'
_diffrn_measurement_device_type  'SuperNova, Dual, Cu at zero, EosS2'
_diffrn_measurement_method       '\w scans'
_diffrn_orient_matrix_UB_11      -0.0423531000
_diffrn_orient_matrix_UB_12      0.1183334000
_diffrn_orient_matrix_UB_13      -0.0292575000
_diffrn_orient_matrix_UB_21      -0.2224092000
_diffrn_orient_matrix_UB_22      0.0007328000
_diffrn_orient_matrix_UB_23      0.0770631000
_diffrn_orient_matrix_UB_31      0.1705650000
_diffrn_orient_matrix_UB_32      0.0304197000
_diffrn_orient_matrix_UB_33      0.1119983000
_diffrn_radiation_monochromator  mirror
_diffrn_radiation_probe          x-ray
_diffrn_radiation_type           CuK\a
_diffrn_radiation_wavelength     1.54184
_diffrn_reflns_av_R_equivalents  0.0540
_diffrn_reflns_av_unetI/netI     0.0192
_diffrn_reflns_Laue_measured_fraction_full 1.000
_diffrn_reflns_Laue_measured_fraction_max 0.999
_diffrn_reflns_limit_h_max       6
_diffrn_reflns_limit_h_min       -6
_diffrn_reflns_limit_k_max       15
_diffrn_reflns_limit_k_min       -15
_diffrn_reflns_limit_l_max       13
_diffrn_reflns_limit_l_min       -13
_diffrn_reflns_number            9238
_diffrn_reflns_point_group_measured_fraction_full 1.000
_diffrn_reflns_point_group_measured_fraction_max 0.999
_diffrn_reflns_theta_full        67.684
_diffrn_reflns_theta_max         71.560
_diffrn_reflns_theta_min         7.025
_diffrn_source                   'sealed X-ray tube'
_diffrn_source_type              'SuperNova (Cu) X-ray Source'
_exptl_absorpt_coefficient_mu    5.936
_exptl_absorpt_correction_T_max  0.807
_exptl_absorpt_correction_T_min  0.659
_exptl_absorpt_correction_type   gaussian
_exptl_absorpt_process_details
;
CrysAlisPro, Agilent Technologies,
Version 1.171.37.34 (release 22-05-2014 CrysAlis171 .NET)
(compiled May 22 2014,16:03:01)
Numerical absorption correction based on gaussian integration over
            a multifaceted crystal model
Empirical absorption correction using spherical harmonics,
 implemented in SCALE3 ABSPACK scaling algorithm.
;
_exptl_crystal_density_diffrn    1.562
_exptl_crystal_description
;
;
_exptl_crystal_F_000             360
_exptl_crystal_size_max          0.1039
_exptl_crystal_size_mid          0.0736
_exptl_crystal_size_min          0.0475
_refine_diff_density_max         0.735
_refine_diff_density_min         -0.341
_refine_diff_density_rms         0.103
_refine_ls_extinction_method     none
_refine_ls_goodness_of_fit_ref   1.086
_refine_ls_hydrogen_treatment    constr
_refine_ls_matrix_type           full
_refine_ls_number_parameters     40
_refine_ls_number_reflns         748
_refine_ls_number_restraints     0
_refine_ls_restrained_S_all      1.086
_refine_ls_R_factor_all          0.0432
_refine_ls_R_factor_gt           0.0423
_refine_ls_shift/su_max          0.000
_refine_ls_shift/su_mean         0.000
_refine_ls_structure_factor_coef Fsqd
_refine_ls_weighting_details
'w=1/[\s^2^(Fo^2^)+(0.0820P)^2^+0.4110P] where P=(Fo^2^+2Fc^2^)/3'
_refine_ls_weighting_scheme      calc
_refine_ls_wR_factor_gt          0.1099
_refine_ls_wR_factor_ref         0.1112
_reflns_Friedel_coverage         0.000
_reflns_number_gt                718
_reflns_number_total             748
_reflns_threshold_expression     'I > 2\s(I)'
_cod_data_source_file            TMSU.cif
_cod_data_source_block           w1corr
_cod_depositor_comments
'Adding full bibliography for 4125565--4125579.cif.'
_cod_database_code               4125576
_chemical_oxdiff_formula         'C20 H48 N8 Se4 '
_chemical_oxdiff_usercomment     'clear block'
_shelx_space_group_comment
;
The symmetry employed for this shelxl refinement is uniquely defined
by the following loop, which should always be used as a source of
symmetry information in preference to the above space-group names.
They are only intended as comments.
;
_reflns_odcompleteness_completeness 100.00
_reflns_odcompleteness_iscentric 1
_reflns_odcompleteness_theta     66.97
_olex2_refinement_description
;
1. Fixed Uiso
 At 1.5 times of:
  All C(H,H,H) groups
2.a Idealised Me refined as rotating group:
 C4(H4A,H4B,H4C), C5(H5A,H5B,H5C)
;
_shelx_res_file
;
    w1corr.res created by SHELXL-2014/7

TITL w1corr in C2/c #15
REM reset to C2/c #15
CELL 1.54184 5.455682 12.606381 11.111332 90 94.6806 90
ZERR 4 0.000214 0.000274 0.000327 0 0.003 0
LATT 7
SYMM -X,+Y,0.5-Z
SFAC C H N Se
UNIT 20 48 8 4

L.S. 8
PLAN  5
TEMP -73.15
BOND
fmap 2 53
acta
REM <olex2.extras>
REM <HklSrc "%./w1corr.hkl">
REM </olex2.extras>

WGHT    0.082000    0.411000
FVAR       5.62694
SE1   4    0.000000    0.107309    0.250000    10.50000    0.08765    0.03619 =
         0.04020    0.00000    0.00295    0.00000
C2    1    0.000000   -0.038956    0.250000    10.50000    0.03564    0.04117 =
         0.02627    0.00000    0.00169    0.00000
N3    3   -0.115086   -0.095108    0.331773    11.00000    0.04501    0.04661 =
         0.03297    0.00060    0.01165   -0.00254
C4    1   -0.301250   -0.047376    0.402209    11.00000    0.04524    0.08468 =
         0.03954   -0.00389    0.01539    0.00130
AFIX 137
H4A   2   -0.224041   -0.023372    0.480200    11.00000   -1.50000
H4B   2   -0.428302   -0.100053    0.415594    11.00000   -1.50000
H4C   2   -0.376240    0.013305    0.358064    11.00000   -1.50000
AFIX   0
C5    1   -0.013433   -0.194819    0.381356    11.00000    0.07508    0.04262 =
         0.03815    0.00671    0.00390   -0.00573
AFIX 137
H5A   2   -0.127586   -0.252916    0.359072    11.00000   -1.50000
H5B   2    0.010450   -0.189530    0.469527    11.00000   -1.50000
H5C   2    0.144916   -0.208789    0.348676    11.00000   -1.50000
AFIX   0
HKLF 4

REM  w1corr in C2/c #15
REM R1 =  0.0423 for     718 Fo > 4sig(Fo)  and  0.0432 for all     748 data
REM     40 parameters refined using      0 restraints

END

WGHT      0.0824      0.4113

REM Highest difference peak  0.735,  deepest hole -0.341,  1-sigma level  0.103
Q1    1  -0.1319  0.0974  0.3006  11.00000  0.05    0.74
Q2    1   0.1334  0.1006  0.3034  11.00000  0.05    0.69
Q3    1   0.1394  0.1767  0.2762  11.00000  0.05    0.30
Q4    1  -0.1315 -0.0623  0.3431  11.00000  0.05    0.30
Q5    1  -0.4277 -0.0158  0.3594  11.00000  0.05    0.27
;
_shelx_res_checksum              99954
_shelx_hkl_file
;
   0   0   1 26.7568 13.4404  20
   0   0  -2 678194. 9918.49  61
   0   0  -2 704190. 9716.67   2
   0   0   2 638487. 10002.2  19
   0   0   2 597796. 9567.71  20
   0   0  -2 646228. 9744.66  49
   0   0  -2 663974. 9881.51   1
   0   0  -2 624791. 9720.74  32
   0   0  -3 54.8035 44.0112  49
   0   0   3 29.1111 76.5762   3
   0   0  -3 11.0109 30.0961  32
   0   0   3-101.179 85.2233  47
   0   0  -3-39.3664 34.6004   1
   0   0  -3-1.86693 37.9206  61
   0   0   3 9.42618 66.6587  35
   0   0  -3-23.4879 24.5198   2
   0   0   3 20.0451 73.8207  19
   0   0   4 48594.4 1907.40   4
   0   0   4 48918.8 1870.52  47
   0   0   4 46240.9 1586.91  35
   0   0   4 45103.4 1576.45  19
   0   0  -4 45681.0 1332.88  49
   0   0  -4 44666.7 1265.38  32
   0   0  -4 49765.1 1526.66   1
   0   0   4 47978.4 1755.07   3
   0   0  -4 49535.1 1550.13  61
   0   0   5 148.503 91.8725  35
   0   0  -5 17.0134 83.8606   1
   0   0   5-2.73609 71.9964  19
   0   0  -5 20.8877 33.0162  32
   0   0   5 35.9205 69.9844  33
   0   0   5-90.6658 82.6283   3
   0   0  -5-169.636 101.318  61
   0   0   5 220.278 181.146   4
   0   0  -5 4.63680 116.605  17
   0   0   6 179592. 4399.69  35
   0   0   6 181664. 4949.95  47
   0   0   6 175433. 5015.31   4
   0   0   6 164039. 4189.40  19
   0   0  -6 159188. 4046.31  61
   0   0  -6 186256. 4641.36  17
   0   0   6 149665. 4458.24   3
   0   0  -6 162088. 4059.99   1
   0   0   7 98.9177 116.310   4
   0   0   7 125.641 118.035  35
   0   0   7-44.9383 137.765  47
   0   0  -7 398.999 196.028  17
   0   0   8 125969. 5014.79   4
   0   0   8 132561. 4391.76  35
   0   0   8 136201. 4983.43  47
   0   0  -8 131255. 4655.47  17
   0   0   9 202.156 208.988  55
   0   0   9 56.3561 125.032   7
   0   0   9 96.0388 140.657  42
   0   0   9-39.0113 223.878  13
   0   0   9-381.326 361.431  51
   0   0   9-68.3749 286.963  58
   0   0   9 144.938 161.236  22
   0   0   9-19.6006 111.836  45
   0   0  10 46801.4 3206.64  58
   0   0  10 46960.6 2872.06  55
   0   0  10 42643.9 2759.81  41
   0   0  10 45720.8 2674.18   7
   0   0  10 43190.2 2562.98  13
   0   0  11-14.8015 191.607   7
   0   0  11 56.4379 332.668  58
   0   0  11 43.5672 182.815  41
   0   0  11-98.6050 82.4277  13
   0   0  11 165.064 169.012  55
   0   0  12 31864.0 2224.18  58
   0   0  12 30679.7 1910.53  41
   0   0  12 32632.2 1917.84   7
   0   0  12 27708.3 1743.42  13
   0   0  13 267.571 176.856  58
   0   0  13 140.927 117.638   7
   0  -2   0 158231. 2776.01  32
   0  -2   0 163764. 2866.43  34
   0   2   0 159245. 2778.52  18
   0  -2   1 38605.8 867.989  32
   0  -2  -1 39370.0 989.847  46
   0  -2   1 38762.5 1032.40  35
   0  -2  -1 37992.6 912.524  33
   0   2   1 41662.7 1119.07  47
   0   2  -1 38330.0 922.004  31
   0  -2  -1 38932.4 946.202  34
   0   2   1 42226.4 1055.75  18
   0   2   1 39010.5 1051.04   5
   0   2   2 62399.5 1544.75  16
   0   2   2 54471.7 1263.63  35
   0  -2  -2 58007.5 1447.33   2
   0   2  -2 54672.3 1300.72   1
   0  -2   2 56631.7 1485.92  20
   0  -2  -2 50293.1 1104.31  46
   0  -2   2 55747.5 1463.78  46
   0   2   2 57583.4 1651.76  47
   0   2  -2 48184.2 1041.97  31
   0  -2  -2 44315.3 1081.04  34
   0   2  -2 56290.4 1408.07  61
   0  -2   3 609216. 7717.50  47
   0   2   3 625947. 8363.25  47
   0   2   3 664825. 7938.43  16
   0   2  -3 622770. 7634.45  61
   0   2   3 622088. 7448.09  35
   0  -2  -3 620007. 7570.13   2
   0  -2  -3 628058. 7708.90  49
   0  -2   3 617789. 7659.81  20
   0  -2  -3 611488. 7718.50  32
   0   2  -3 587657. 7379.14   1
   0  -2   3 628310. 7665.73  46
   0   2  -3 640406. 7970.41  17
   0   2   3 632657. 8246.63  19
   0  -2   3 634062. 8237.03   3
   0  -2   3 621281. 7794.15  35
   0  -2   4 39055.6 1779.94   4
   0   2   4 39740.1 1529.30  16
   0   2   4 39450.9 1766.04  47
   0   2  -4 37337.6 1373.84  61
   0  -2  -4 40908.4 1515.66  61
   0  -2  -4 38889.7 1364.26   2
   0  -2  -4 38941.8 1473.52   1
   0   2   4 37244.4 1373.74  35
   0   2   4 39578.9 1742.44   4
   0  -2   4 36247.8 1512.37  47
   0   2  -4 39945.3 1598.04  48
   0   2  -4 37856.3 1329.31   1
   0   2  -4 40291.0 1589.23  17
   0   2   4 42405.0 1733.45  19
   0  -2   4 39118.2 1657.26   3
   0  -2  -4 38455.0 1421.94  49
   0  -2   4 38482.4 1495.21  35
   0  -2  -4 35715.4 1380.32  32
   0  -2  -5 341405. 6488.55  32
   0   2   5 349530. 6613.70  35
   0  -2   5 340966. 6744.38  35
   0  -2   5 340069. 7543.21   4
   0  -2   5 347340. 7172.22   3
   0   2  -5 363279. 7094.41  48
   0   2   5 341784. 7359.40   4
   0   2  -5 343893. 6970.16  17
   0  -2  -5 324019. 6437.97  49
   0   2  -5 314993. 6277.73   1
   0  -2   5 328401. 6848.57  33
   0   2  -5 335048. 6480.87  61
   0  -2  -5 321993. 6259.23   2
   0   2   5 360637. 7230.46  19
   0   2   5 355663. 7451.20  47
   0  -2   5 323542. 6897.07  47
   0  -2  -5 356227. 6732.09  61
   0  -2  -5 343013. 6660.97   1
   0  -2   6 20091.8 1590.00   4
   0  -2  -6 17582.6 1117.59  49
   0  -2  -6 18783.6 1133.87  32
   0  -2   6 18199.2 1364.84   3
   0  -2  -6 20322.9 1273.31   1
   0   2   6 21402.1 1581.28   4
   0  -2   6 18993.9 1274.13  33
   0  -2   6 19576.3 1290.34  35
   0   2   6 21066.6 1439.45  19
   0   2   6 21335.2 1568.11  47
   0   2  -6 18550.7 1159.47  61
   0   2  -6 22124.9 1451.63  17
   0   2   6 20052.6 1255.91  35
   0  -2   6 19108.3 1360.69  47
   0  -2  -6 20558.5 1275.59  61
   0   2  -6 20622.1 1445.83  48
   0  -2   7 92726.1 3567.27  47
   0  -2   7 102539. 3509.28  35
   0   2   7 105898. 3731.07  19
   0   2  -7 108989. 3809.70  17
   0   2   7 102442. 3409.24  35
   0   2   7 110369. 4164.08  47
   0   2  -7 111774. 3932.21  48
   0  -2  -7 88904.3 3203.59  61
   0  -2   7 81883.9 3498.37   3
   0  -2  -7 92760.7 3274.08   1
   0  -2   7 98033.9 4156.17   4
   0   2  -8 2359.65 572.144  17
   0   2  -8 1843.82 503.410  48
   0  -2   8 1265.82 437.477   3
   0  -2   8 2369.25 709.261   4
   0   2   8 1493.32 437.794  19
   0  -2   8 2377.90 538.024  35
   0   2   8 1813.90 554.007  47
   0  -2  -8 1590.12 476.152  17
   0  -2   9 54878.5 3515.06  58
   0  -2   9 49131.8 2786.28  13
   0  -2   9 48918.8 2757.54   7
   0   2   9 47331.4 2772.14  55
   0   2   9 54812.3 2884.31   7
   0   2   9 52129.1 2896.38  42
   0  -2   9 56883.6 3105.39  55
   0   2   9 46742.6 2659.59  51
   0   2   9 53851.7 3032.02  22
   0   2   9 45506.1 2619.54  13
   0  -2   9 49626.0 2917.01  45
   0   2   9 47912.6 3126.13  58
   0   2  10 2100.63 599.041  58
   0   2  10 2432.48 582.205  13
   0   2  10 2338.65 646.010  22
   0   2  10 1961.70 555.598   7
   0   2  10 1832.46 508.780  55
   0  -2  10 3773.60 920.339  58
   0  -2  10 2843.69 642.922   7
   0  -2  10 2407.92 647.605  55
   0  -2  10 2805.85 657.820  13
   0   2  10 3726.40 730.671  51
   0   2  10 2730.11 668.230  42
   0  -2  11 25530.2 2075.13  41
   0  -2  11 22244.8 1736.19   7
   0   2  11 21103.2 1735.29  55
   0   2  11 24816.4 1830.87   7
   0   2  11 22575.7 1999.75  58
   0   2  11 18747.7 1556.04  51
   0  -2  11 24707.4 1834.59  13
   0  -2  11 23671.7 1907.07  55
   0  -2  11 24601.8 2221.31  58
   0   2  12 8484.69 953.118   7
   0   2  12 6973.41 978.944  58
   0  -2  12 9915.07 1115.99  41
   0  -2  12 7790.58 915.045  13
   0  -2  12 7802.15 895.624   7
   0  -2  12 7221.70 1066.93  58
   0  -2  13 3629.30 620.040  58
   0   2  13 3936.86 525.141   7
   0   2  13 2659.73 465.643  58
   0  -2  13 3483.89 518.999  41
   0  -4   0 285726. 5365.09  46
   0   4   0 275155. 5129.25  19
   0  -4   0 285904. 5337.58   2
   0  -4   0 297321. 5383.72  20
   0   4   0 286392. 5340.45  16
   0   4   0 289241. 5181.52  18
   0  -4   0 303257. 5286.50  32
   0  -4   0 299803. 5389.04  34
   0  -4   0 275976. 5336.36  33
   0   4   0 298976. 5557.03  48
   0  -4  -1 10374.7 614.488  34
   0   4  -1 11045.2 739.346  48
   0   4   1 11375.6 744.168  48
   0  -4   1 10710.4 727.991  34
   0  -4  -1 11593.4 704.696   2
   0   4  -1 10660.8 665.141  18
   0   4  -1 8974.56 460.617  19
   0   4   1 11455.9 728.860  19
   0  -4   1 11243.0 599.750  32
   0  -4  -1 11394.6 646.659  33
   0  -4   1 10445.3 715.133  33
   0  -4  -1 11183.1 694.506  32
   0   4  -1 11745.3 733.305  17
   0   4   1 11372.6 698.625  16
   0   4   1 10712.8 607.461  47
   0  -4  -1 10744.3 652.598  46
   0   4   1 11512.6 635.313  18
   0   4  -1 11891.6 715.207  16
   0  -4   1 11205.5 716.819  46
   0  -4   1 11057.8 711.402  20
   0  -4   2 321224. 5436.54  32
   0   4  -2 339940. 6294.64  17
   0  -4   2 336806. 6282.77  46
   0   4   2 343560. 6515.83  19
   0  -4  -2 323539. 5639.89  33
   0  -4  -2 342826. 6145.28  49
   0  -4  -2 336210. 6213.24  32
   0  -4   2 330866. 6048.90  35
   0  -4  -2 296381. 5532.27  34
   0  -4  -2 323542. 5811.53  46
   0  -4   2 339809. 6504.47  34
   0   4  -2 345520. 6406.03  48
   0   4   2 355488. 6239.54  16
   0   4  -2 322766. 6191.67  18
   0  -4   2 348043. 6330.86  20
   0  -4  -2 346229. 6210.69   2
   0   4   2 330224. 6177.15  47
   0  -4  -3 28398.9 1291.36   2
   0  -4  -3 28207.2 1285.71  49
   0  -4   3 25502.4 1209.73  35
   0   4   3 26876.9 1277.46  16
   0  -4   3 28213.7 1336.87  46
   0   4  -3 27833.8 1373.78  48
   0   4   3 29210.2 1481.38  19
   0  -4   3 29138.5 1371.74  20
   0  -4  -3 24551.4 942.559  46
   0  -4   3 27350.0 1390.22  33
   0   4   3 27936.8 1393.11  47
   0  -4  -3 28632.3 1309.85  32
   0   4  -3 29249.1 1382.06  17
   0   4   3 24896.8 974.844  35
   0  -4   4 174534. 4169.89  35
   0   4   4 176473. 4556.07  47
   0  -4  -4 181980. 4212.52  49
   0  -4   4 168981. 4484.98  33
   0   4  -4 180238. 4464.33  48
   0  -4  -4 179346. 4167.79   2
   0   4   4 181657. 4663.61  19
   0   4  -4 176960. 4373.29  17
   0   4   4 174576. 4229.61  16
   0   4   4 160793. 3656.32  35
   0  -4  -4 178378. 4214.43  32
   0  -4   5 24078.1 1622.97   3
   0  -4  -5 23334.0 1387.18  32
   0   4  -5 24681.7 1548.42  48
   0   4  -5 24156.5 1512.71  17
   0  -4   5 24590.7 1561.84  33
   0  -4  -5 24119.3 1431.91   1
   0  -4  -5 22154.1 1318.93   2
   0   4   5 25300.5 1627.24  19
   0  -4  -5 22093.1 1334.52  49
   0   4   5 24074.2 1598.41  47
   0   4   5 21427.1 1343.71  16
   0  -4  -5 24010.2 1448.41  61
   0  -4   5 23790.2 1399.58  35
   0   4   6 41827.5 2073.05  16
   0  -4  -6 46837.3 2185.07  49
   0  -4  -6 46948.1 2222.91   1
   0  -4   6 48260.3 2408.46  33
   0   4   6 58554.0 2764.27  19
   0  -4   6 47342.1 2479.23   3
   0  -4   6 47801.2 2759.72   4
   0   4  -6 50815.8 2451.06  17
   0  -4   6 50405.4 2294.14  35
   0  -4  -6 47987.3 2276.12  61
   0   4   6 51757.4 2621.78  47
   0   4  -6 50576.4 2499.83  48
   0  -4  -6 46603.5 2143.66  32
   0   4   7 23660.1 1930.67  47
   0  -4   7 19530.1 1742.74   3
   0   4  -7 24785.0 1880.91  48
   0  -4   7 23082.1 1647.46  35
   0  -4  -7 20426.4 1492.78  32
   0  -4   7 23768.7 2107.51   4
   0  -4  -7 22164.9 1639.49   1
   0   4  -7 21136.6 1727.25  17
   0  -4  -7 21619.6 1608.56  61
   0   4   7 24910.6 1930.43  19
   0  -4  -7 19986.1 1497.06  49
   0  -4   7 21190.0 1685.63  33
   0   4   8 24697.5 1920.28  24
   0   4   8 26321.4 1984.26   7
   0   4   8 25053.4 1875.32  42
   0   4   8 25099.8 1949.81  29
   0   4   8 26556.8 2067.13  22
   0  -4   8 27233.2 2156.29  15
   0   4   8 23012.8 2052.47  58
   0   4   8 27114.2 1984.91  51
   0  -4   8 28843.0 2113.02  55
   0  -4   8 32083.7 2671.05  58
   0  -4   8 25440.0 1985.42  45
   0  -4   8 22454.6 1844.32   7
   0  -4   8 28364.0 2066.34  13
   0  -4   9 16106.4 1693.41  15
   0   4   9 13330.5 1444.99  29
   0  -4   9 15208.8 1895.34  58
   0  -4   9 16254.6 1585.77  13
   0   4   9 16903.9 1592.16  51
   0   4   9 17491.1 1648.97   7
   0   4   9 17317.6 1677.52  22
   0   4   9 14871.9 1477.61  42
   0  -4   9 16438.1 1647.90  55
   0  -4   9 14953.4 1532.79   7
   0   4   9 14753.5 1676.51  58
   0  -4  10 32838.0 2410.13  15
   0  -4  10 33370.5 2307.55  55
   0   4  10 34234.2 2216.99  51
   0  -4  10 30274.8 2157.35   7
   0   4  10 33354.4 2244.47   7
   0  -4  10 36254.6 2876.32  58
   0   4  10 31682.8 2293.90  22
   0   4  10 27239.6 2273.30  58
   0  -4  10 35633.8 2348.75  13
   0   4  10 33306.0 2189.13  42
   0  -4  11 47.8699 101.525  13
   0   4  11-156.790 225.582  58
   0  -4  11 350.719 341.030  58
   0  -4  11 179.280 191.571  41
   0   4  11 13.6562 130.490   7
   0   4  11 157.435 89.6346  51
   0   4  12 18459.9 1347.83   7
   0  -4  12 20851.7 1739.48  58
   0  -4  12 16341.1 1279.30  13
   0  -4  12 21099.0 1566.78  41
   0   4  12 15025.7 1140.76  51
   0  -4  13 199.916 128.848  41
   0  -4  13-48.3492 101.657  58
   0   4  13 329.070 182.125   7
   0  -6   0 167983. 4137.19  33
   0   6   0 159268. 3690.72  18
   0  -6   0 179341. 4155.13   2
   0  -6   0 169428. 4115.07  46
   0   6   0 180366. 4379.35  48
   0  -6   0 170489. 4073.17  34
   0  -6   0 173699. 3967.28  32
   0   6   0 155603. 3734.19  19
   0   6   0 175182. 4114.76  16
   0   6  -1 287911. 5861.98  16
   0  -6  -1 268838. 5708.77  46
   0  -6   1 279190. 5751.62   2
   0  -6   1 277567. 5468.23  32
   0  -6  -1 283121. 5890.40   2
   0   6  -1 279566. 5924.21  17
   0   6  -1 292621. 6149.44  48
   0  -6  -1 262304. 5505.12  34
   0  -6  -1 267670. 5691.79  33
   0  -6  -1 288927. 5829.01  32
   0   6   1 281258. 5819.67  16
   0  -6   1 276757. 6019.36  33
   0  -6  -1 281469. 5792.66  49
   0  -6   1 286231. 6010.87  34
   0   6  -1 250595. 5472.98  18
   0  -6   1 280914. 5943.95  46
   0   6   1 265391. 5771.93  19
   0  -6  -2 127904. 3389.24  46
   0   6  -2 140833. 3921.21  48
   0   6   2 135562. 3831.43  19
   0   6   2 136509. 3641.97  16
   0  -6   2 132192. 3458.24   2
   0   6  -2 118532. 3459.70  18
   0  -6   2 133860. 3749.03  46
   0  -6   2 136637. 3896.82  33
   0   6  -2 135313. 3734.35  17
   0  -6  -2 138227. 3683.90  32
   0  -6  -2 140701. 3690.35  49
   0   6  -2 145458. 3726.60  16
   0  -6  -2 144556. 3761.41   2
   0   6   3 59046.9 2491.64  19
   0   6  -3 55759.7 2418.02  48
   0  -6  -3 58308.4 2309.01   2
   0  -6  -3 56446.2 2247.15  49
   0   6   3 48630.7 2102.35  47
   0  -6   3 49373.2 1926.93   2
   0   6  -3 57297.0 2350.09  17
   0   6   3 56619.5 2239.90  16
   0  -6  -3 55927.1 2238.54  32
   0   6  -3 51852.4 2209.22  18
   0  -6   3 58580.9 2462.95  33
   0   6  -3 57606.7 2280.71  16
   0  -6   3 59318.0 2399.94  46
   0   6   4 43832.4 2287.10  19
   0   6  -4 40399.5 2095.00  17
   0  -6  -4 43547.7 2081.89  32
   0  -6  -4 44668.4 2106.43   2
   0   6  -4 39255.5 2079.39  18
   0   6   4 35669.8 1954.90  47
   0  -6  -4 44549.0 2068.86  49
   0   6   4 41290.6 2023.54  16
   0  -6   4 42290.9 2225.35  33
   0  -6   4 40095.6 1947.88  35
   0   6  -4 44946.3 2266.02  48
   0  -6   5 92085.5 3325.19  35
   0   6  -5 95104.9 3713.58  48
   0  -6  -5 98754.0 3534.88   1
   0   6   5 90239.9 3527.60  47
   0   6  -5 89723.7 3592.67  18
   0   6   5 104861. 3929.83  19
   0   6  -5 96836.2 3628.49  17
   0  -6  -5 98903.5 3482.35  49
   0  -6   5 95132.9 3884.44   3
   0  -6  -5 103478. 3555.27  32
   0   6   5 87885.6 3293.28  16
   0  -6   5 93549.9 3650.75  33
   0  -6  -5 91988.1 3374.86   2
   0  -6  -6 12350.4 1263.62   1
   0   6  -6 13986.3 1398.56  17
   0   6   6 12778.8 1399.47  19
   0   6   6 11075.9 1255.86  47
   0  -6   6 13976.9 1451.86  33
   0  -6  -6 13407.5 1294.36  32
   0  -6  -6 12643.7 1248.25  49
   0  -6   6 12375.7 1221.36  35
   0  -6  -6 13038.3 1331.74  61
   0  -6   6 13059.4 1573.74   4
   0  -6   6 11955.6 1370.59   3
   0   6   6 11202.5 1152.11  16
   0   6  -6 13148.0 1413.51  48
   0  -6   7 110725. 4498.44  15
   0  -6   7 117552. 4598.68  44
   0   6   7 107843. 4317.45  29
   0   6   7 120289. 4453.73  51
   0  -6   7 121913. 4897.85  59
   0   6   7 104777. 4419.48  10
   0  -6   7 119782. 4715.70  25
   0  -6   7 121009. 4582.85  13
   0  -6   7 85019.7 3806.46  55
   0  -6   7 121040. 5005.29  54
   0   6   7 103891. 4136.59  24
   0   6   7 96943.8 4110.86  38
   0  -6   7 120518. 5450.58  58
   0   6  -7 100743. 4241.04  53
   0   6   8 8740.47 1172.53  51
   0   6   8 7425.87 1044.55  24
   0  -6   8 7678.13 1202.91  25
   0  -6   8 7593.54 1152.49  13
   0  -6   8 9987.48 1370.36  59
   0   6   8 9465.45 1203.14   7
   0  -6   8 8000.58 1405.34  58
   0   6   8 6919.62 1081.01  10
   0   6   8 9583.87 1221.79  29
   0  -6   8 6552.68 1059.42  44
   0   6   8 7426.77 1003.55  42
   0  -6   8 7443.92 1069.21  55
   0  -6   8 9688.79 1368.75  54
   0  -6   8 7867.72 1186.67  15
   0  -6   9 32907.0 2417.53  25
   0  -6   9 33186.3 2563.21  54
   0  -6   9 37961.2 2993.64  58
   0   6   9 34167.1 2321.14  51
   0   6   9 27015.1 1930.75  42
   0  -6   9 33897.4 2464.41  15
   0   6   9 32863.3 2309.37  29
   0   6   9 37321.3 2407.97   7
   0  -6   9 34918.0 2568.79  59
   0  -6   9 32791.3 2348.11  13
   0   6  10 15020.3 1437.72   7
   0   6  10 12305.4 1279.91  51
   0   6  10 11956.1 1177.87  42
   0  -6  10 15616.9 1468.40  13
   0  -6  10 13509.5 1474.00  54
   0  -6  10 16764.5 1860.05  58
   0   6 -10 15269.6 1539.90  28
   0  -6  10 15362.6 1549.56  41
   0   6 -11 7051.85 932.028  28
   0   6  11 5919.47 773.019  51
   0  -6  11 7030.49 945.745  41
   0  -6  11 6109.73 924.344  11
   0  -6  11 6639.71 1024.39  58
   0   6  11 6355.43 833.196   7
   0  -6  12 11546.2 998.129  41
   0   6 -12 10639.4 926.871  28
   0   6  12 8763.54 754.845  51
   0   6  12 12111.5 963.295   7
   0  -6  12 11791.5 1144.37  58
   0  -6  12 9504.65 810.303   8
   0  -8   0 12560.2 1139.50  46
   0   8   0 12201.2 1090.32  16
   0   8   0 13164.7 1196.19  48
   0  -8   0 11354.7 1114.23  33
   0  -8   0 11318.6 1002.39  32
   0  -8   0 13878.7 1178.20   2
   0  -8   0 13050.7 1083.04  49
   0  -8   1 53946.6 2491.36  46
   0  -8  -1 50866.1 2325.80  46
   0  -8  -1 52268.6 2330.88  32
   0  -8   1 46861.1 2088.24  49
   0   8  -1 54341.7 2409.56  16
   0  -8   1 55127.2 2413.60   2
   0  -8  -1 56769.5 2526.34   2
   0   8  -1 52901.8 2547.05  48
   0  -8   1 49861.6 2498.61  33
   0  -8  -1 52845.5 2350.37  49
   0   8   1 50809.7 2327.11  16
   0   8   2 52124.4 2470.16  19
   0   8   2 55530.4 2508.27  16
   0   8  -2 56699.1 2704.53  48
   0  -8  -2 56813.2 2616.28   2
   0  -8   2 58830.6 2799.21  33
   0  -8  -2 57776.3 2558.41  49
   0   8  -2 60578.9 2624.13  16
   0  -8   2 54693.3 2421.85   2
   0  -8  -2 54876.8 2502.61  32
   0   8  -3 76907.4 3242.96  17
   0  -8   3 79718.4 3461.05  33
   0  -8  -3 76659.0 3138.76  49
   0   8  -3 78309.3 3366.79  48
   0   8  -3 80495.3 3173.27  16
   0  -8  -3 78013.8 3163.32  32
   0   8   3 75021.3 3212.80  19
   0   8   3 71330.8 3010.24  16
   0  -8  -3 78637.9 3248.76   2
   0   8  -4 57946.0 2937.58  17
   0  -8  -4 57412.3 2830.07  32
   0  -8  -4 59051.2 2819.74  49
   0   8   4 58777.4 2981.07  19
   0   8   4 54475.5 2711.24  16
   0   8  -4 59829.3 3065.02  48
   0  -8   4 58116.1 3030.41  33
   0   8  -4 62347.5 2841.30  16
   0  -8  -4 59113.0 2928.87   2
   0  -8   5 106642. 4399.81  25
   0   8   5 91290.8 3859.88  28
   0  -8   5 108842. 4561.74  54
   0   8  -5 100122. 4173.63  28
   0  -8   5 94925.3 4179.01  15
   0   8   5 108536. 4256.56  38
   0   8   5 99151.5 4056.24  29
   0  -8   5 103559. 4309.46  44
   0  -8   5 106706. 4485.53  21
   0  -8   5 109449. 4482.37  59
   0   8   5 79724.8 3646.68  24
   0   8   5 100064. 4097.55  52
   0   8   5 113671. 4535.04  10
   0  -8   5 95557.0 4252.75  39
   0   8  -5 101231. 4187.51  53
   0  -8   6 11205.8 1405.32  44
   0   8  -6 11125.7 1364.84  53
   0   8   6 11858.2 1375.53  29
   0   8   6 11136.5 1317.01  52
   0  -8   6 10932.3 1420.74  21
   0  -8   6 12109.2 1489.30  59
   0  -8   6 10523.9 1589.77  58
   0   8  -6 11597.3 1386.22  28
   0   8   6 12164.6 1435.21  10
   0   8   6 9060.97 1164.22  24
   0   8   6 12932.0 1437.34  38
   0   8   6 14693.2 1531.72  51
   0  -8   6 13509.3 1530.75  25
   0  -8   6 12827.5 1549.83  54
   0  -8   6 10646.8 1368.93  15
   0   8   7 57190.5 3065.64  24
   0  -8   7 67057.6 3726.40  54
   0  -8   7 69470.1 3595.03  44
   0  -8   7 62660.9 3422.26  15
   0  -8   7 67700.3 3691.40  59
   0   8   7 61805.4 3257.98  29
   0  -8   7 61880.8 3437.67  21
   0   8  -7 65758.0 3429.23  53
   0   8   7 58623.8 3187.57  38
   0   8   7 65142.8 3515.03  10
   0  -8   7 69430.6 4144.07  58
   0  -8   7 70058.6 3665.80  25
   0   8  -7 68305.7 3518.11  28
   0   8   7 71338.0 3513.74  51
   0   8  -8 5830.00 1048.78  23
   0   8  -8 5637.72 938.565  53
   0   8   8 5968.89 975.032  29
   0   8  -8 6084.88 1020.23  28
   0  -8   8 6912.69 1091.65  25
   0   8   8 5551.47 910.572  51
   0  -8   8 5829.99 1001.72  44
   0   8   8 4901.39 899.152   7
   0  -8   8 6994.77 1177.57  54
   0  -8   8 6186.27 1052.83  59
   0   8   8 4905.31 868.825  38
   0  -8   8 6840.43 1271.08  58
   0   8   8 4876.67 886.048  10
   0   8  -9 19439.6 1694.29  28
   0  -8   9 18526.5 1775.84  54
   0   8  -9 18238.5 1716.76  23
   0   8   9 19038.3 1608.91  51
   0  -8   9 20415.0 2040.65  58
   0  -8   9 15993.7 1590.01  44
   0  -8   9 16071.2 1504.06  41
   0  -8   9 18326.4 1732.66  59
   0  -8   9 17021.1 1637.40  25
   0   8   9 16274.4 1481.22  29
   0   8   9 15933.2 1522.74  10
   0   8   9 19886.9 1649.33   7
   0   8 -10 13502.1 1334.44  52
   0  -8  10 9840.14 1119.88  59
   0  -8  10 12109.5 1253.77  54
   0   8  10 12263.9 1143.17  51
   0  -8  10 12310.5 1418.19  58
   0  -8  10 10781.3 1111.07  41
   0   8  10 12378.9 1172.89   7
   0  -8  10 11349.3 1153.50  25
   0   8 -10 12139.7 1173.05  28
   0   8 -11 6324.27 759.409  52
   0  -8  11 7404.98 797.329   8
   0   8 -11 6313.07 796.743  38
   0   8 -11 4349.85 566.269  28
   0  -8  11 5468.07 664.153  41
   0  -8  11 6031.47 769.804  11
   0   8  11 5699.07 640.244  51
   0  -8  11 5894.88 829.570  58
   0   8  11 6079.70 690.544   7
   0 -10   0 116240. 4687.30  26
   0  10   0 91855.2 4367.63  14
   0  10   0 104827. 4156.00  52
   0  10   0 106197. 4201.50  53
   0  10   0 96718.1 3877.31  28
   0 -10   0 97408.9 4345.29  21
   0  10   0 111862. 4324.05  38
   0  10   0 105287. 4134.57  30
   0  10   0 87127.2 3978.11  23
   0 -10   0 102354. 4347.26  39
   0 -10  -1 20878.5 1921.94  26
   0  10  -1 17084.0 1683.66  23
   0 -10   1 21673.6 1918.99  39
   0  10   1 18370.3 1642.25  52
   0  10   1 19012.9 1684.35  38
   0  10   1 17372.6 1570.09  28
   0  10  -1 18412.3 1663.06  53
   0  10   1 13931.6 1478.95  23
   0  10  -1 17785.8 1618.17  30
   0 -10   1 17775.4 1786.77  21
   0 -10   1 12932.0 1537.86  44
   0  10  -1 14746.5 1685.98  14
   0  10  -1 18861.8 1677.11  52
   0  10  -1 17491.6 1629.46  38
   0  10   1 19431.2 1840.15  10
   0  10   1 14043.9 1606.35  14
   0  10   1 16709.4 1554.75  30
   0 -10   1 21874.1 1938.72  26
   0 -10  -1 17670.4 1719.81  39
   0  10  -1 17111.2 1555.51  28
   0  10   1 17854.8 1641.10  53
   0  10  -2 68893.9 3352.72  53
   0 -10   2 57838.4 3264.35  25
   0 -10   2 75255.4 3750.81  26
   0  10  -2 69856.3 3387.80  30
   0 -10   2 58072.9 3231.02  54
   0  10  -2 58203.9 3511.01  14
   0 -10   2 67183.2 3478.10  39
   0  10  -2 70198.9 3400.90  52
   0 -10  -2 64597.5 3369.71  39
   0  10  -2 71371.5 3475.41  38
   0  10   2 65502.7 3258.53  53
   0  10  -2 63351.2 3127.15  28
   0  10   2 70915.4 3365.98  52
   0 -10   2 73536.2 3745.47  21
   0 -10   2 58841.6 3373.12  44
   0  10   2 60025.0 3067.58  28
   0  10   2 73335.9 3663.25  10
   0  10   2 74273.4 3475.08  38
   0  10  -2 63201.9 3429.78  23
   0 -10  -2 73150.1 3756.23  26
   0 -10  -3 7927.43 1191.52  26
   0 -10   3 8058.79 1180.49  26
   0  10   3 6629.77 1006.93  53
   0  10  -3 9029.52 1212.60  38
   0 -10   3 7457.45 1156.48  25
   0  10   3 7010.41 1019.05  28
   0 -10   3 8139.52 1217.53  21
   0  10  -3 6517.98 1078.87  23
   0  10   3 7112.91 1061.93  52
   0 -10   3 7576.25 1190.49  44
   0  10   3 7244.14 1070.80  38
   0 -10   3 7413.35 1142.61  59
   0  10  -3 7438.01 1068.44  30
   0 -10   3 7415.98 1156.75  54
   0  10  -3 7957.14 1124.86  53
   0  10  -3 6915.65 1039.27  28
   0  10  -3 6112.10 1101.08  14
   0 -10   3 7742.15 1178.02  39
   0  10  -3 7704.34 1108.93  52
   0  10   3 8729.63 1223.72  10
   0  10  -4 22817.9 1942.04  28
   0 -10   4 26760.4 2236.46  54
   0 -10   4 27050.2 2236.81  59
   0  10   4 24582.3 1970.85  52
   0  10  -4 27014.1 2143.57  53
   0 -10   4 24996.8 2178.87  44
   0  10  -4 26611.3 2240.60  23
   0  10  -4 25922.3 2032.16  30
   0 -10   4 24251.6 2147.86  21
   0  10   4 27000.3 2093.32  38
   0  10   4 21129.9 1811.66  28
   0  10  -4 27896.2 2189.68  38
   0  10   4 23934.0 1943.83  53
   0  10   4 25778.3 2133.38  10
   0 -10   4 23420.2 2068.14  26
   0 -10   4 25250.4 2184.89  25
   0 -10   4 25892.7 2191.58  39
   0  10  -4 26395.3 2110.98  52
   0 -10   5 4441.94 876.299  39
   0  10   5 4116.49 766.740  29
   0  10  -5 4820.99 929.770  38
   0 -10   5 4067.87 878.415  54
   0  10   5 4761.17 940.723  10
   0  10  -5 5040.94 1004.29  23
   0  10   5 4049.27 781.318  28
   0  10  -5 4177.17 822.822  30
   0  10   5 3422.30 732.243  52
   0 -10   5 4417.38 904.545  44
   0 -10   5 5611.59 1028.78  21
   0  10  -5 4439.12 855.561  52
   0  10   5 5173.39 886.477  38
   0 -10   5 4787.47 934.435  59
   0  10  -5 4430.87 844.332  28
   0  10  -5 5559.79 973.926  53
   0 -10   5 5864.29 1035.30  25
   0  10  -6 13174.5 1416.53  28
   0 -10   6 13147.1 1666.48  58
   0  10  -6 13367.5 1501.82  38
   0 -10   6 13831.8 1583.45  21
   0  10  -6 15453.8 1566.88  53
   0  10   6 11014.2 1292.77  52
   0 -10   6 13958.0 1563.40  25
   0 -10   6 12509.4 1490.85  59
   0  10   6 10331.6 1228.11  29
   0  10   6 13237.4 1420.10  38
   0  10   6 15397.8 1537.08  51
   0  10   6 11742.3 1401.23  10
   0 -10   6 11469.3 1405.22  39
   0 -10   6 11917.8 1442.81  44
   0 -10   6 11629.5 1456.28  54
   0  10  -6 12799.0 1565.75  23
   0  10  -6 14736.3 1556.32  52
   0  10  -7 4638.61 867.903  38
   0  10   7 3775.32 770.283  10
   0  10   7 3723.18 733.194   7
   0  10  -7 3777.14 711.291  28
   0  10  -7 3698.74 734.890  53
   0 -10   7 4137.40 911.694  58
   0  10  -7 3573.70 703.672  52
   0 -10   7 4375.73 845.643  44
   0 -10   7 5489.25 937.411  59
   0 -10   7 4021.45 831.710  54
   0  10   7 4120.39 753.126  51
   0 -10   7 4123.18 817.762  25
   0  10   7 4297.54 763.377  38
   0  10  -7 4316.32 852.169  23
   0  10   7 3770.15 713.059  29
   0 -10   7 4402.80 856.513  21
   0  10  -8 17807.4 1478.29  53
   0 -10   8 17188.3 1592.23  59
   0  10  -8 16681.7 1411.72  28
   0  10  -8 19699.4 1636.44  52
   0 -10   8 18156.9 1616.77  25
   0  10   8 14811.6 1308.21  29
   0  10  -8 18745.6 1674.97  23
   0  10  -8 19966.8 1675.49  38
   0  10   8 18396.7 1505.15   7
   0  10   8 18161.1 1504.97  51
   0  10   8 15265.1 1446.27  10
   0 -10   8 15894.7 1521.79  44
   0 -10   8 17731.3 1768.88  58
   0 -10   8 16380.3 1580.54  54
   0  10  -9 2335.92 507.161  23
   0  10  -9 1792.48 395.724  28
   0 -10   9 2546.20 558.677  54
   0 -10   9 1688.18 445.284  25
   0 -10   9 1732.61 431.677  44
   0  10   9 2325.66 473.262   7
   0  10   9 2567.89 490.758  51
   0  10  -9 2605.21 547.113  38
   0  10   9 1729.53 413.505  10
   0 -10   9 1236.63 415.042  58
   0 -10   9 2112.68 508.284  59
   0  10  -9 2794.10 545.494  52
   0 -10  10 10011.6 867.280   8
   0 -10  10 8207.65 817.655  54
   0  10  10 9185.02 787.083   7
   0  10  10 9298.53 791.885  51
   0 -10  10 8190.75 799.053  59
   0  10 -10 10891.0 919.065  52
   0 -10  10 7803.10 877.173  58
   0  10 -10 11051.8 943.116  38
   0 -12   0 6492.29 1087.99  26
   0  12   0 6289.99 965.571  53
   0 -12   0 5101.19 914.602  43
   0  12   0 5527.00 901.446  38
   0  12   0 4687.88 806.217  52
   0  12   0 4273.23 776.068  28
   0  12   0 4638.06 855.035  23
   0 -12   0 5292.79 974.204  39
   0  12   0 5760.74 982.136  10
   0 -12   0 4896.42 965.006  21
   0  12   1 26346.0 1993.13  52
   0  12   1 27458.7 2044.48  38
   0 -12   1 25152.8 2033.34  43
   0  12  -1 25042.1 2055.80  23
   0 -12   1 28529.1 2295.35  26
   0 -12  -1 29000.7 2272.01  39
   0 -12   1 27022.3 2295.42  21
   0  12   1 29033.0 2095.09  53
   0 -12   1 26982.4 2200.96  39
   0  12   1 22400.1 1787.57  28
   0  12  -1 26365.3 2108.62  10
   0 -12  -1 28760.7 2337.80  26
   0 -12  -1 28634.0 2218.57  43
   0  12  -1 29103.7 2112.19  38
   0  12  -1 27741.4 2032.47  52
   0  12  -1 25465.8 1899.51  28
   0  12   1 31421.9 2353.64  10
   0  12  -1 25439.9 1967.02  30
   0  12  -1 29072.6 2101.02  53
   0  12  -2 2508.95 652.269  23
   0  12   2 1431.35 440.416  28
   0  12  -2 2176.96 564.391  52
   0 -12   2 2297.82 652.414  26
   0  12  -2 1458.37 516.384  30
   0  12   2 1806.70 532.757  38
   0  12   2 2482.33 599.375  53
   0  12  -2 2128.22 539.355  38
   0  12   2 2136.54 663.414  10
   0 -12   2 1507.38 515.188  44
   0 -12   2 1434.88 524.469  39
   0  12   2 2442.22 575.268  52
   0  12  -2 2622.93 621.319  53
   0 -12  -2 1595.82 522.267  39
   0 -12  -2 2760.63 739.288  26
   0 -12   2 2174.63 619.793  21
   0  12  -2 1370.30 419.136  28
   0 -12   3 39018.7 2601.45  54
   0  12  -3 44440.5 2783.58  23
   0  12   3 45412.2 2584.81  52
   0  12  -3 45907.8 2677.29  53
   0  12   3 49597.8 2712.28  38
   0  12  -3 40592.8 2382.94  28
   0 -12   3 36663.7 2623.74  44
   0 -12   3 43324.3 2755.80  39
   0 -12   3 35847.9 2515.83  25
   0  12  -3 46609.8 2673.96  38
   0  12   3 39194.9 2344.77  28
   0  12  -3 47939.8 2661.95  30
   0 -12   3 36024.2 2506.90  59
   0 -12   3 48541.7 2915.48  26
   0  12  -3 44849.7 2601.43  52
   0  12   3 45437.1 2780.10  10
   0  12   3 43170.3 2522.79  53
   0 -12  -3 48423.1 3007.24  26
   0 -12   3 48383.7 2997.81  21
   0 -12   4 1022.39 408.397  44
   0  12   4 1687.03 464.748  28
   0 -12   4 1646.40 530.225  54
   0  12  -4 2156.02 549.741  53
   0 -12   4 1072.74 452.920  39
   0 -12   4 1901.95 545.731  26
   0  12  -4 1428.50 528.272  23
   0  12   4 952.232 323.808  52
   0 -12   4 1560.49 494.957  25
   0  12  -4 1926.02 520.098  38
   0 -12   4 1716.04 536.518  58
   0 -12   4 1026.63 423.534  21
   0  12   4 1674.66 526.299  10
   0  12  -4 1468.94 418.754  28
   0  12  -4 1174.25 437.364  30
   0  12  -4 2244.56 560.329  52
   0 -12   4 1834.15 535.077  59
   0  12   4 1837.12 496.960  38
   0 -12  -4 1346.00 468.766  43
   0  12  -5 39866.7 2519.08  23
   0  12   5 35574.2 2166.56  52
   0 -12   5 34754.4 2386.88  44
   0  12  -5 42529.4 2421.65  53
   0  12  -5 33985.2 2040.89  28
   0  12   5 43244.5 2383.67  51
   0 -12   5 35253.7 2280.16  26
   0 -12   5 36574.9 2415.09  39
   0 -12   5 32291.5 2369.86  58
   0 -12   5 35860.8 2359.75  25
   0 -12   5 33852.1 2303.45  59
   0  12   5 36787.2 2322.71  10
   0  12  -5 39181.9 2340.74  38
   0 -12   5 38369.1 2452.93  54
   0 -12  -5 49806.0 2781.43  43
   0 -12   5 38400.5 2497.48  21
   0  12   5 37066.2 2234.20  38
   0  12  -5 38516.1 2184.29  30
   0  12  -5 40332.3 2346.75  52
   0  12  -6 6866.26 968.730  23
   0 -12   6 5412.78 856.273  25
   0  12   6 6257.07 843.069  38
   0 -12   6 6503.09 948.773  54
   0 -12   6 6589.52 945.242  21
   0  12   6 5730.83 811.688  51
   0  12  -6 5880.23 834.812  38
   0 -12   6 5061.51 760.928   8
   0 -12   6 4956.66 803.625  39
   0 -12  -6 7572.77 1034.37  36
   0 -12   6 4962.67 865.246  58
   0 -12   6 6103.66 920.433  59
   0  12  -6 4644.69 683.215  28
   0 -12   6 5403.57 860.523  44
   0  12   6 6439.07 821.734   7
   0  12  -6 5371.65 807.737  53
   0 -12  -6 7235.82 989.916  43
   0  12  -6 7311.37 926.699  52
   0  12   6 5888.66 884.306  10
   0  12  -7 18738.4 1478.94  23
   0  12  -7 18286.9 1373.48  38
   0  12   7 16043.2 1308.60  10
   0 -12   7 17250.6 1382.36  21
   0  12   7 14393.3 1117.60   7
   0  12  -7 18341.7 1361.94  52
   0 -12   7 14227.5 1280.15  25
   0  12   7 17499.9 1275.54  51
   0 -12   7 13105.9 1283.24  58
   0 -12   7 16936.3 1409.43  54
   0 -12   7 15240.5 1325.49  59
   0 -12   7 16302.8 1268.88   8
   0  12  -7 16687.9 1262.65  53
   0  12   7 15388.4 1219.21  38
   0 -12   7 13681.6 1263.41  44
   0  12  -8 3683.32 526.828  52
   0 -12   8 2920.51 497.349  59
   0  12   8 2266.10 365.559   7
   0  12  -8 2756.15 482.261  23
   0 -12   8 2916.83 504.170  54
   0 -12   8 2918.64 498.791  25
   0 -12   8 2020.39 427.592  58
   0  12  -8 3338.97 511.844  38
   0 -12   8 3159.56 487.344   8
   0  12   8 2680.02 461.156  10
   0  12   8 2560.90 414.854  51
   0 -14   0 34338.9 2163.41  39
   0  14   0 34206.6 1938.22  52
   0  14   0 27645.0 1630.91  28
   0  14   0 36532.1 2001.99  38
   0  14   0 32615.8 1957.24  10
   0 -14   0 35046.6 2108.73  43
   0  14   0 34941.4 1973.02  53
   0 -14   0 37989.7 2344.96  26
   0  14   1 273.151 133.623  38
   0  14  -1 242.223 157.128  53
   0  14  -1 117.945 136.725  52
   0 -14  -1-16.6034 211.763  43
   0 -14   1 197.463 251.743  26
   0 -14  -1-122.088 135.132  26
   0  14  -1-103.452 184.449  28
   0 -14   1 411.411 147.762  39
   0  14  -1 63.8905 129.982  38
   0 -14   1 2.14777 117.199  43
   0 -14   1 184.539 199.783  21
   0  14  -1-125.546 137.355  23
   0 -14  -1 208.933 162.200  39
   0  14   1-47.6765 131.104  10
   0  14   1 140.058 177.190  52
   0  14   1 96.0826 178.061  53
   0  14   1 22.8479 106.949  28
   0  14   2 25329.0 1602.21  53
   0 -14  -2 29485.9 2002.80  26
   0  14  -2 23299.8 1631.41  23
   0  14  -2 28350.1 1730.58  53
   0 -14  -2 30492.2 1954.14  43
   0  14   2 24705.5 1701.31  10
   0 -14   2 27004.8 1872.38  39
   0  14   2 19345.9 1320.03  28
   0  14   2 24562.1 1570.51  52
   0 -14  -2 25060.3 1719.64  39
   0 -14   2 30699.1 2015.00  26
   0  14  -2 26316.3 1659.02  38
   0 -14   2 25123.6 1845.35  21
   0  14   2 26139.3 1634.03  38
   0  14  -2 24811.1 1607.48  52
   0 -14   2 23810.2 1599.50  36
   0 -14   3 639.190 269.158  26
   0  14  -3 227.580 187.156  23
   0  14   3 367.538 191.311  51
   0 -14   3 368.067 251.942  39
   0  14  -3 696.869 287.357  53
   0  14   3 324.652 199.737  38
   0  14   3 686.375 252.731  10
   0 -14   3 565.456 260.705  21
   0 -14  -3 785.598 334.314  36
   0 -14  -3 264.126 208.800  43
   0  14   3 266.362 167.960  28
   0  14  -3 255.758 172.953  52
   0  14   3 463.773 244.907  52
   0 -14  -3 207.979 181.986  26
   0  14  -3 256.006 132.510  38
   0  14   4 14503.8 1107.54  38
   0 -14   4 16441.4 1356.89  21
   0 -14   4 15507.6 1223.53  26
   0 -14  -4 21069.3 1536.90  36
   0  14   4 14770.8 1085.73  51
   0 -14  -4 19802.2 1472.07  43
   0  14  -4 18048.3 1240.71  38
   0  14   4 16008.8 1249.81  10
   0  14  -4 16832.4 1196.51  52
   0  14  -4 16485.4 1289.24  23
   0  14   4 14556.0 1087.14  52
   0 -14   4 15851.6 1301.73  39
   0  14  -4 17437.0 1250.38  53
   0 -14   5 17.1133 83.3535  39
   0 -14  -5 76.9424 134.638  37
   0  14   5 154.747 96.1637  51
   0 -14  -5 347.574 186.538  43
   0 -14  -5 185.073 136.256  36
   0  14  -5 116.837 105.907  38
   0  14  -5 275.372 164.598  23
   0  14   5 329.006 192.656  10
   0  14  -5 254.251 135.627  52
   0 -14   5 225.959 160.594  21
   0  14  -5 182.853 167.060  53
   0  14   5 393.261 169.677  38
   0 -14  -5 375.624 210.398  12
  -1   1  13 3429.23 498.170  13
   1  -1 -13 3477.84 584.338  40
  -1  -1  13 4186.31 565.047  13
  -1   1  12 28009.6 1803.87  13
  -1  -1  12 27388.0 1792.76  13
  -1  -1  12 23892.0 1730.13  41
  -1  -1  12 22179.7 1785.92  58
   1   1 -12 30287.1 2014.78  40
  -1   1  12 27469.3 1823.87  55
  -1  -1  12 32078.0 2008.15  55
  -1  -1  11 10665.8 1257.31  45
  -1  -1  11 9388.79 1191.01  55
  -1   1  11 10851.7 1232.50  13
  -1   1  11 8574.70 1105.92  45
  -1  -1  11 10369.5 1202.97  13
  -1  -1  11 6425.39 1076.66  58
  -1   1  11 8989.72 1151.30  22
  -1   1  11 8059.19 1025.53   7
  -1   1  11 8691.62 1136.56  55
  -1  -1  10 59225.2 3081.32  13
  -1  -1  10 56593.2 3112.04  45
  -1   1  10 62144.4 3165.12  13
  -1  -1  10 59849.8 3220.94  55
  -1   1  10 50878.5 2806.59   7
  -1   1  10 57914.3 3138.72  22
  -1   1  10 57419.8 3124.90  45
  -1  -1  10 49875.2 3273.10  58
  -1  -1  10 49810.1 2908.78  22
  -1   1  10 62196.3 3267.21  55
  -1  -1   9 10696.7 1294.42  22
  -1   1   9 9907.43 1177.57   7
  -1  -1   9 10496.8 1459.38  58
  -1   1   9 10403.3 1273.55  45
  -1  -1   9 12166.6 1395.49  55
  -1   1   9 10702.5 1299.29  22
  -1   1   9 9341.41 1220.13  13
  -1  -1   9 10345.9 1273.06  13
  -1  -1   9 9961.11 1251.23  45
  -1   1   9 11936.5 1382.34  55
  -1  -1   8 43048.9 2727.32  47
   1  -1  -8 47663.8 2668.76  17
   1   1  -8 44642.0 2600.32  17
   1  -1  -8 43296.3 2398.15   1
  -1   1   8 42651.6 2817.43  47
   1   1  -8 39746.1 2281.17  61
  -1  -1   8 41112.3 2692.74   4
  -1   1   8 43922.9 2383.40  35
   1   1  -8 41077.7 2299.66   1
  -1   1   8 35667.7 2419.52   4
  -1  -1   8 44057.8 2381.32  35
   1  -1  -8 42219.7 2373.87  61
  -1   1   7 33130.1 2191.86  47
  -1  -1   7 33608.0 2178.67  47
   1   1  -7 33757.5 2025.83  17
  -1   1   7 27944.7 1952.25   4
   1  -1  -7 32807.2 1876.30   1
   1  -1  -7 32030.7 1971.67  17
  -1   1   7 32208.9 1850.16  35
  -1  -1   7 30954.3 2128.95   4
   1   1  -7 30473.6 1794.39   1
   1   1  -7 32860.7 1867.96  61
   1  -1  -7 31583.1 1861.96  61
  -1   1   7 29484.3 1783.48  19
  -1  -1   7 34460.5 1891.41  35
  -1  -1   6 84914.2 3265.47  47
  -1   1   6 87302.6 2879.12  35
  -1   1   6 86052.1 3331.73  47
   1   1  -6 89973.7 2947.67  61
  -1  -1   6 82411.2 3269.62   4
   1  -1  -6 85765.7 2929.07  61
   1  -1  -6 78999.6 2698.91  49
  -1  -1   6 84013.3 2841.00  35
   1   1  -6 85729.1 3049.83  17
   1  -1  -6 84699.4 2876.29   1
  -1   1   6 77266.8 3048.84   4
  -1   1   6 82649.0 2926.46  19
   1   1  -6 85084.2 2863.00   1
   1   1  -5 157156. 3773.69   1
  -1  -1   5 122611. 3385.96   3
  -1  -1   5 120723. 3202.58  19
  -1   1   5 144921. 3948.27   4
  -1  -1   5 148101. 4115.32   4
  -1   1   5 141929. 3800.96  19
   1  -1  -5 149267. 3717.97   1
   1  -1  -5 140495. 3580.74   2
   1  -1  -5 150259. 3761.50  61
   1  -1  -5 142010. 3439.94  32
   1  -1  -5 141847. 3565.42  49
  -1   1   5 149784. 3685.46  35
  -1  -1   5 130295. 3211.98  20
  -1  -1   5 145319. 3642.78  35
  -1   1   5 132598. 3209.16  50
   1   1  -5 141893. 3444.37  49
  -1  -1   5 153025. 3616.19  50
   1   1  -5 155841. 3905.81  17
   1   1  -5 158216. 3792.19  61
   1   1  -4 193749. 3983.97  49
  -1  -1   4 175584. 3772.06  20
   1  -1  -4 189554. 4074.61   1
   1   1  -4 208732. 4297.06  17
   1  -1  -4 193983. 4128.20   2
   1   1  -4 204714. 4181.71  61
   1   1  -4 197892. 4141.96   1
  -1   1   4 192037. 4067.95  35
  -1  -1   4 199509. 4091.84  50
  -1   1   4 177017. 3747.94  50
   1  -1  -4 195033. 4078.47  49
  -1  -1   4 174819. 3540.84  46
  -1  -1   4 197481. 4057.07  34
  -1  -1   4 172865. 3805.29   3
   1  -1  -4 186017. 3950.32  32
   1  -1  -4 191909. 4129.76  61
  -1   1   4 196736. 4301.81   4
  -1  -1   4 189386. 4067.60  35
   1  -1  -3 326776. 5776.80  49
  -1  -1   3 323809. 5705.62  35
  -1  -1   3 301141. 5584.29  20
  -1  -1   3 301522. 5346.72   3
   1   1  -3 333177. 5787.24  61
   1  -1  -3 332268. 5855.96   2
  -1   1   3 295517. 5506.97  50
  -1   1   3 324874. 5746.88   4
   1  -1  -3 331463. 5742.92  32
   1  -1  -3 328056. 5784.12  61
  -1   1   3 280959. 5005.77  34
  -1  -1   3 339128. 5811.24  34
  -1  -1   3 318531. 5751.11  50
   1   1  -3 341027. 5751.29  49
   1   1  -3 342794. 5834.96   1
   1  -1  -3 325810. 5740.50   1
   1   1  -3 336715. 5843.24  17
  -1  -1   3 306485. 5412.73  46
  -1   1   2 101402. 2140.53  34
  -1  -1   2 111095. 2079.19   3
   1  -1  -2 123538. 2574.71  32
   1   1  -2 119576. 2472.39  17
  -1  -1   2 117787. 2445.66  35
  -1  -1   2 112746. 2513.65  20
   1   1  -2 109685. 2565.62  31
  -1   1   2 108883. 2452.46  50
  -1   1   2 111731. 2254.20   4
  -1  -1   2 121909. 2611.45  34
  -1  -1   2 108410. 2376.41  46
   1  -1  -1 62423.9 1513.77   1
   1  -1  -1 66033.7 1548.40  61
   1   1  -1 67614.5 1573.54  61
  -1   1   1 70980.6 1647.02  16
  -1  -1   1 62792.1 1446.33  18
   1   1  -1 66091.6 1451.22  17
   1  -1   0 643776. 9488.08   2
   1  -1   0 568659. 9158.18  61
  -1   1   0 634000. 9508.54  48
  -1  -1   0 622878. 9345.77  18
   1   1   0 551857. 9028.89  17
  -1   1   0 637156. 9278.00  16
  -1  -1   0 661878. 9652.99  50
   1   1   0 583805. 9241.54  61
   1  -1   0 594349. 9153.73   1
   1  -1   0 653894. 9444.13  49
   1   1   1 300.408 111.075  31
   1  -1   1 344.983 114.137   4
  -1   1  -1 311.721 111.502  48
   1  -1   1 346.542 124.652   3
   1   1   1 215.390 60.2474  16
  -1  -1  -1 474.028 129.264  18
  -1  -1  -1 280.098 88.2487  50
   1  -1   1 292.664 81.5927   2
   1  -1   1 334.549 95.2523   5
  -1   1  -1 181.841 42.5467  16
  -1   1  -1 154.000 59.4205  17
   1  -1   2 999999. 12268.3   3
   1   1   2 938629. 11320.5  33
   1  -1   2 966130. 11982.2  33
   1  -1   2 902888. 11333.7   5
  -1   1  -2 947051. 11755.4  48
   1  -1   2 940348. 12207.4   4
  -1   1  -2 913463. 11366.9  17
   1   1   2 942453. 11006.0  16
   1   1   2 968360. 11760.9   5
  -1  -1  -2 930115. 11478.5  50
   1   1   2 999566. 12242.4   3
   1   1   2 939478. 11499.7  31
   1  -1   3 124921. 3204.20   4
   1   1   3 118969. 2505.07  35
  -1  -1  -3 103234. 2251.59  20
   1   1   3 114385. 2432.68  31
  -1  -1  -3 119276. 2245.37  61
   1   1   3 117636. 3005.88   3
   1   1   3 119613. 2977.36  47
   1   1   3 118884. 2704.39   5
  -1   1  -3 122574. 2790.95  48
   1   1   3 126688. 3213.06   4
  -1   1  -3 124589. 2656.38  17
   1  -1   3 122881. 2766.57  35
   1  -1   3 123872. 2831.32  33
   1  -1   3 122799. 3078.25   3
   1   1   3 110744. 2224.23  33
  -1  -1  -3 114274. 2366.83  50
   1   1   3 108237. 2178.23  16
   1  -1   3 114417. 2764.71  47
   1  -1   3 121765. 2524.04   5
   1  -1   4 168465. 3886.56  35
   1  -1   4 164143. 4001.08  47
   1   1   4 166354. 4250.89   3
   1  -1   4 169591. 3894.72  33
  -1  -1  -4 169532. 3643.87   1
   1  -1   4 179488. 3762.79   5
  -1   1  -4 172916. 3886.81  17
   1  -1   4 187791. 4612.13   4
  -1  -1  -4 167484. 3321.71  61
   1   1   4 174235. 4469.74   4
   1   1   4 178688. 3958.40   5
   1   1   4 170604. 3710.49  35
  -1  -1  -4 162609. 3473.46  49
   1   1   4 175250. 4273.89  47
  -1   1  -4 180368. 4068.71  48
   1  -1   4 174406. 4334.17   3
  -1  -1  -5 135409. 3379.35   1
  -1   1  -5 152652. 3839.79  17
   1  -1   5 154802. 3879.16  35
   1   1   5 149849. 4415.19   4
   1  -1   5 141322. 3637.42  33
  -1   1  -5 156142. 4027.51  48
   1  -1   5 147278. 3993.57  47
   1   1   5 148791. 3677.59  35
   1  -1   5 155458. 4549.65   4
  -1  -1  -5 136826. 3477.18  32
   1   1   5 143397. 4144.75   3
   1  -1   5 154176. 4322.83   3
   1   1   5 159058. 4338.79  47
   1   1   6 50349.5 2466.55  47
   1  -1   6 42738.8 2164.69  47
  -1  -1  -6 43651.4 2040.77  17
   1   1   6 41405.8 2359.64   4
  -1   1  -6 45342.0 2099.19  17
   1  -1   6 44831.2 2514.80   4
   1  -1   6 47683.0 2133.93  35
   1   1   6 44584.8 1968.52  35
  -1   1  -6 46466.0 2215.20  48
   1  -1   6 41343.5 2289.60   3
  -1   1  -7 35487.6 2046.42  17
   1  -1   7 35670.0 2019.74  35
   1  -1   7 34513.2 2422.94   4
  -1  -1  -7 33920.4 1982.42  17
   1  -1   7 29923.7 2091.00   3
  -1   1  -7 34548.9 2107.26  48
   1   1   7 35244.7 2286.03  47
   1   1   7 33651.3 1885.59  35
   1  -1   7 32399.2 2046.32  47
   1  -1   8 53057.6 2983.14  55
   1  -1   8 54471.0 2884.40  42
   1   1   8 46675.0 2754.52  41
   1  -1   8 54302.7 2767.74   7
   1  -1   8 55544.7 3149.07  41
   1   1   8 44814.1 2667.50  55
   1   1   8 48126.8 2639.28  51
  -1   1  -8 52632.6 2913.25  48
   1   1   8 53036.0 2726.09   7
   1   1   8 55029.3 2845.79  42
   1   1   8 55251.1 3306.93  58
   1  -1   8 52046.2 2713.22  35
  -1  -1  -8 46139.7 2645.90  48
   1  -1   8 44120.5 2843.66  11
   1  -1   8 46067.4 2610.06  51
   1  -1   8 55793.2 3428.40  58
   1  -1   9 11923.2 1355.76  51
   1   1   9 12522.7 1438.69  41
   1  -1   9 13218.9 1454.84  42
   1   1   9 13442.1 1422.88  42
   1   1   9 13892.0 1686.13  58
   1  -1   9 14075.4 1593.12  41
   1  -1   9 15109.2 1806.50  58
   1   1   9 12703.9 1371.65  51
   1   1   9 14633.5 1437.71   7
   1  -1   9 12706.5 1365.25   7
   1   1  10 27487.6 2013.01   7
   1   1  10 25126.4 2030.32  41
   1   1  10 27175.5 2010.51  51
   1  -1  10 30520.1 2135.42   7
   1  -1  10 34284.3 2487.38  41
   1   1  10 30023.1 2496.43  58
   1   1  10 30856.7 2155.29  42
   1  -1  10 30742.1 2163.28  51
   1  -1  10 30809.8 2582.10  58
   1   1  11 16015.9 1447.23   7
   1  -1  11 15624.5 1440.26  51
   1   1  11 15962.1 1717.57  58
   1   1  11 14889.5 1420.76  41
   1  -1  11 14859.8 1385.22   7
   1  -1  11 16709.4 1608.29  41
   1  -1  11 15518.9 1713.19  58
   1   1  11 13914.5 1338.86  51
   1  -1  12 10545.4 1034.16   7
   1  -1  12 10839.8 1256.74  58
   1  -1  12 10898.2 1112.90  41
   1   1  12 10752.3 1036.97  51
   1   1  12 11470.5 1080.75   7
   1   1  12 9844.39 1178.20  58
   1   1  13 2915.76 511.600  58
   1  -1  13 3014.58 533.389  58
   1   1  13 3341.26 478.787   7
  -1  -3  13 4068.51 546.774  41
  -1  -3  13 2977.77 498.381  58
  -1  -3  13 3606.58 513.145  13
  -1  -3  12 442.084 209.703  55
  -1  -3  12 469.334 266.162  41
  -1   3  12 183.939 110.605   7
  -1  -3  12 244.912 186.357  13
  -1  -3  12 132.127 131.639  58
  -1   3  12 32.5740 122.097  13
  -1   3  11 1805.90 520.787  13
  -1   3  11 1491.35 417.672   7
  -1  -3  11 1980.68 518.713  55
  -1   3  11 2153.42 570.317  22
  -1  -3  11 1430.88 473.256  13
   1   3 -11 1469.12 471.345  53
  -1  -3  11 1727.89 549.779  58
  -1   3  10 3803.13 769.840  13
  -1   3  10 3003.95 695.986  22
  -1  -3  10 2914.71 667.811  45
  -1  -3  10 3981.77 903.583  58
   1   3 -10 3103.12 716.594  40
  -1  -3  10 2980.32 678.052  13
  -1  -3  10 3149.89 712.977  15
  -1  -3  10 3180.83 736.639  55
  -1   3  10 3133.48 668.898   7
  -1   3   9 29275.3 2163.13  29
  -1  -3   9 36432.9 2406.30  13
  -1   3   9 29131.6 2130.33  56
  -1  -3   9 31486.3 2659.93  58
  -1   3   9 29843.3 2172.75   7
  -1  -3   9 34000.4 2389.71  15
  -1   3   9 35847.1 2477.74  22
  -1  -3   9 33746.2 2321.65  45
  -1  -3   9 35098.6 2381.52  55
   1   3  -8 19760.2 1625.87  61
  -1  -3   8 26444.1 1972.17  45
  -1  -3   8 21304.6 1758.16  22
  -1  -3   8 25474.5 2287.98  58
  -1   3   8 29832.4 2166.22  22
  -1  -3   8 26911.1 2025.40  13
  -1   3   8 27076.5 1948.55   7
  -1   3   8 23987.2 1870.52  29
  -1   3   8 20573.6 1637.52  35
  -1  -3   8 27504.2 2042.38  15
  -1   3   8 22711.9 1883.32  19
  -1   3   8 23637.7 1839.51  56
  -1  -3   8 29461.3 2084.28  55
   1   3  -7 122866. 4272.15  48
   1   3  -7 122765. 4284.27  17
  -1   3   7 118256. 4535.15  47
  -1   3   7 113433. 3828.98  35
   1   3  -7 102237. 3640.26   1
  -1  -3   7 112845. 4600.08   4
   1   3  -7 112219. 3863.92  61
  -1  -3   7 119164. 3927.13  35
   1  -3  -7 118513. 3996.46   1
   1  -3  -7 121014. 4091.83  61
  -1   3   7 127457. 4456.21  19
   1  -3  -7 107655. 3749.67  49
   1  -3  -6 8600.52 894.388   1
  -1   3   6 8239.70 1000.21  47
  -1  -3   6 7847.05 908.192  47
   1  -3  -6 9097.04 879.518  32
   1  -3  -6 8870.25 935.375  61
   1   3  -6 9209.80 900.046   1
   1  -3  -6 8284.74 872.792   2
  -1  -3   6 8466.81 819.830  20
   1   3  -6 9738.89 951.340  61
  -1  -3   6 9178.61 910.250  35
   1   3  -6 9432.07 981.248  48
  -1  -3   6 7736.66 1023.94   4
   1   3  -6 9275.91 983.658  17
  -1   3   6 9037.85 890.548  35
  -1   3   6 9410.75 1044.04  19
   1  -3  -6 8055.14 854.354  49
  -1  -3   5 143064. 3767.03  35
  -1  -3   5 136022. 3622.89  20
   1   3  -5 144659. 3975.82  48
   1  -3  -5 138213. 3807.80  49
  -1  -3   5 126901. 3641.90   3
   1  -3  -5 137304. 3812.69   2
  -1   3   5 144529. 4200.44  19
  -1   3   5 134947. 3917.09  16
  -1   3   5 142537. 4245.54  47
   1  -3  -5 142349. 3910.24  61
   1  -3  -5 140692. 3810.29   1
  -1   3   5 146416. 3784.08  35
  -1  -3   5 157176. 4166.56  34
   1   3  -5 133573. 3775.66  61
   1  -3  -5 142634. 3809.88  32
   1   3  -5 144855. 3791.20   1
  -1  -3   5 138426. 3515.48  46
   1   3  -5 145234. 4028.09  17
  -1  -3   4 2447.66 408.926   3
  -1   3   4 1992.47 272.198  50
  -1  -3   4 2405.13 347.709  46
   1  -3  -4 2704.82 411.053   1
   1  -3  -4 2840.98 425.320  49
   1  -3  -4 2478.18 406.391  61
  -1   3   4 2323.84 443.628  47
   1   3  -4 3346.09 474.243  17
   1   3  -4 2929.65 444.328  48
  -1  -3   4 3130.31 477.464  34
   1   3  -4 2428.40 376.650   1
   1   3  -4 2758.77 411.903  61
  -1   3   4 2692.73 388.660  35
  -1  -3   4 2593.53 391.796  35
  -1  -3   4 2825.79 420.620  20
  -1   3   4 2867.30 447.053  16
   1   3  -4 2458.22 345.636  31
   1  -3  -4 2609.76 417.722   2
   1  -3  -4 3373.01 464.826  32
  -1  -3   3 189421. 4124.38  20
   1  -3  -3 195700. 4260.11  32
   1   3  -3 201254. 4162.39   1
  -1  -3   3 195080. 4026.42  35
   1  -3  -3 187725. 4092.82   1
   1  -3  -3 187043. 4164.65  49
  -1  -3   3 207720. 4432.50  34
   1  -3  -3 194309. 4244.00   2
  -1  -3   3 196669. 4096.43  46
   1   3  -3 193372. 3972.83  31
   1   3  -3 187738. 4081.59  48
   1   3  -3 195276. 4131.19  61
  -1  -3   3 197736. 4201.84  50
   1  -3  -3 187173. 4163.64  61
   1   3  -3 193288. 4228.70  17
  -1   3   3 200642. 4344.88  16
  -1   3   2 69597.5 2048.34  16
  -1  -3   2 67639.7 2093.95  34
  -1  -3   2 65814.5 1955.43  46
   1   3  -2 68956.1 1973.31  17
   1   3  -2 65482.5 1894.91  61
   1  -3  -2 67878.2 2023.04  32
   1  -3  -2 66476.7 1960.10  49
  -1  -3   2 67363.3 1980.62  50
   1  -3  -2 66965.2 1907.01   1
   1  -3  -2 66177.9 1994.68   2
   1   3  -2 70624.3 1933.69  31
  -1   3   2 68182.6 2110.80  18
  -1  -3   2 66917.2 1988.54  20
   1  -3  -2 70501.0 1985.08  33
  -1  -3   2 67535.8 1789.95  35
   1   3  -2 61825.9 1824.48  48
  -1  -3   1 429567. 7159.12  35
   1  -3  -1 434756. 7472.92   1
   1  -3  -1 442880. 7735.65   2
   1   3  -1 437216. 7491.50   5
  -1  -3   1 455031. 7708.37  50
  -1   3   1 455505. 8037.51  18
   1   3  -1 467766. 7671.55  17
   1  -3  -1 448738. 7786.23  32
   1  -3  -1 438013. 7627.92  49
   1   3  -1 480509. 7741.17  31
   1   3  -1 435711. 7381.87  48
   1  -3  -1 465472. 7831.25  33
  -1   3   1 461872. 7717.43  16
  -1   3   0 239063. 4291.62  16
  -1   3   0 238422. 4777.12  18
  -1  -3   0 242560. 4447.52  20
   1  -3   0 243476. 4394.81   2
   1   3   0 227400. 4251.61   5
   1  -3   0 238826. 4236.65  49
   1   3   0 239070. 4004.44  48
  -1  -3   0 243237. 4660.24  34
  -1  -3   0 244550. 4327.02  50
   1  -3   0 238334. 4603.01  33
  -1   3   0 234588. 4571.66  48
   1  -3   0 251935. 4461.77  32
   1   3   0 241161. 4326.48  17
  -1   3  -1 69679.5 1746.54  16
   1  -3   1 74237.2 1886.83  32
   1   3   1 73812.8 1855.95  16
  -1  -3  -1 73444.6 1989.26  46
  -1   3  -1 70754.2 2063.89  48
   1   3   1 76701.8 1973.74  31
  -1  -3  -1 73814.3 1901.55  20
   1   3   1 70441.0 1872.40   5
   1  -3   1 69253.6 1805.67   2
  -1   3  -1 69540.7 2185.08  18
   1  -3   1 70103.2 1612.64  49
  -1  -3  -1 71509.1 2106.29  34
   1   3   1 68711.6 1926.56  19
  -1   3  -1 65410.5 1845.63  17
  -1  -3  -1 72928.2 1731.29  50
   1   3   2 8191.15 658.037  19
  -1   3  -2 7287.10 628.145  48
   1  -3   2 7613.74 676.736  33
   1   3   2 8801.55 628.000  31
  -1   3  -2 7885.47 720.148  18
   1  -3   2 5065.15 268.073   5
  -1  -3  -2 7948.07 596.822  46
   1  -3   2 7454.24 464.092   2
   1   3   2 7335.30 573.600   5
   1  -3   2 5640.26 279.880  49
  -1  -3  -2 8053.22 679.619  34
  -1  -3  -2 7193.62 402.831  50
  -1  -3  -2 7413.75 501.789  20
   1   3   2 8220.85 549.667  16
  -1   3  -2 7755.34 594.645  17
  -1   3  -2 7938.43 496.435  16
   1  -3   3 25827.4 1446.51   4
   1  -3   3 25192.7 1362.81  33
   1  -3   3 27276.4 1482.54   3
  -1   3  -3 25607.4 1198.52  17
   1   3   3 24932.6 1170.03  31
   1   3   3 24884.3 1318.01  19
  -1  -3  -3 25225.9 1144.03   2
  -1   3  -3 25285.7 1311.40  48
   1   3   3 27299.1 1107.79  16
  -1  -3  -3 21325.2 815.923  20
  -1   3  -3 26983.3 1495.53  18
  -1  -3  -3 24025.1 1269.51  34
  -1   3  -3 24066.6 974.527  16
  -1  -3  -3 23017.0 1077.86  46
   1   3   3 25872.8 1237.05   5
   1   3   4 5874.65 541.969  16
  -1   3  -4 5747.36 668.841  48
   1   3   4 6037.58 720.378  47
   1   3   4 5428.07 605.281   5
   1  -3   4 6551.07 664.215  35
   1  -3   4 6591.20 773.738   3
   1   3   4 6323.13 713.577  19
  -1  -3  -4 4957.66 500.723   2
   1  -3   4 6366.71 806.206   4
  -1  -3  -4 4726.84 596.559  34
  -1   3  -4 6281.34 771.736  18
   1  -3   4 5841.98 686.896  33
  -1  -3  -4 6468.11 675.071  32
  -1   3  -4 5803.57 620.377  17
  -1  -3  -5 146212. 3834.78  49
  -1   3  -5 152944. 4178.52  17
   1   3   5 154461. 4550.82  47
   1  -3   5 156895. 4441.98  33
   1   3   5 160792. 4491.11  19
   1  -3   5 146692. 4534.62   3
  -1   3  -5 156165. 4436.16  48
  -1  -3  -5 157956. 4132.16  32
   1  -3   5 156155. 4879.33   4
   1  -3   5 147588. 4114.57  35
  -1   3  -6 18975.1 1423.91  17
   1  -3   6 17460.7 1541.46   3
  -1   3  -6 20781.3 1574.94  48
   1   3   6 21055.4 1662.30  47
  -1  -3  -6 17610.5 1275.03   1
   1   3   6 20619.9 1567.52  19
   1  -3   6 19542.7 1481.04  33
   1  -3   6 18618.0 1383.78  35
   1  -3   6 18371.4 1701.84   4
  -1  -3  -6 18950.7 1321.78  32
   1  -3   7 101226. 4281.71   3
  -1   3  -7 114499. 4346.37  48
   1  -3   7 110351. 4803.73   4
   1   3   7 118229. 4553.45  47
   1  -3   7 112993. 4014.52  35
  -1   3  -7 102213. 3923.24  17
   1  -3   8 9902.75 1349.11  41
   1   3   8 8853.71 1149.67  24
   1   3   8 10423.3 1209.53  51
   1  -3   8 8499.16 1196.14  55
   1  -3   8 7602.27 1157.72  54
   1  -3   8 8676.04 1141.76   7
   1   3   8 11284.6 1276.54   7
   1   3   8 12108.8 1307.89  42
   1  -3   8 11252.2 1325.09  51
   1   3   8 10075.9 1384.31  58
   1  -3   8 9751.84 1151.23  13
   1  -3   8 10956.3 1592.56  58
   1  -3   9 41721.0 2657.60  51
   1   3   9 42763.0 2967.27  58
   1  -3   9 47331.4 3027.64  41
   1   3   9 41617.0 2523.63   7
   1   3   9 37605.0 2415.92  24
   1  -3   9 38956.5 2431.61  13
   1  -3   9 46957.6 3368.11  58
   1   3   9 43579.0 2577.43  51
   1  -3   9 41826.3 2605.52   7
   1  -3   9 40080.4 2942.30  11
   1   3   9 42855.5 2593.87  42
   1   3  10 1788.90 487.497  51
   1   3  10 2301.95 565.680  42
   1  -3  10 1590.06 560.278  41
   1  -3  10 2777.21 776.136  58
   1  -3  10 1491.40 504.587   7
   1  -3  10 1611.33 578.722  11
   1   3  10 2679.76 723.450  58
   1   3  10 2045.57 540.792   7
   1   3  11 12354.5 1250.37   7
   1  -3  11 13613.6 1626.29  58
   1   3  11 13621.5 1495.80  58
   1  -3  11 16134.2 1574.65  41
   1   3  11 13600.0 1278.93  51
   1  -3  11 12963.7 1284.95   7
   1  -3  11 12385.3 1352.12  11
   1   3  11 14406.2 1338.02  42
   1  -3  12 1550.64 423.054  41
   1  -3  12 1367.15 450.320  58
   1   3  12 1679.72 394.324   7
   1   3  12 959.145 302.423  51
   1   3  12 1334.17 395.319  58
   1  -3  13 2353.60 437.185  58
   1   3  13 2653.77 396.585   7
  -1   5  12 17904.9 1211.27  13
  -1  -5  12 24289.6 1603.00  41
  -1   5  12 21702.6 1353.13   7
   1  -5 -12 23778.6 1584.64  27
  -1  -5  12 21634.0 1648.70  58
  -1  -5  12 22821.0 1486.87  13
  -1  -5  11 8298.35 1231.76  58
  -1  -5  11 8779.17 1062.26  13
  -1   5  11 7740.46 954.379   7
  -1   5  11 7833.41 958.683  13
  -1   5  11 8012.34 1009.63  22
  -1  -5  11 8017.83 1016.60  15
   1   5 -11 10349.9 1231.87  28
  -1  -5  11 8026.77 989.773  55
   1   5 -11 9222.74 1071.27  53
  -1  -5  10 53823.3 2975.35  15
  -1  -5  10 49112.5 2732.77  55
   1   5 -10 50506.8 2910.40  53
  -1   5  10 54092.1 2824.56   7
  -1   5  10 53202.1 2947.44  22
  -1  -5  10 50362.3 3339.17  58
  -1  -5  10 53399.5 2872.27  13
  -1   5  10 43798.2 2584.39  29
  -1   5  10 51946.0 2814.45  13
  -1   5   9 3818.11 829.006  22
  -1  -5   9 2698.52 668.090  15
  -1  -5   9 2979.90 701.283  45
  -1  -5   9 3141.05 712.282  55
  -1  -5   9 3613.98 936.396  58
  -1   5   9 2681.82 659.742  29
  -1   5   9 4734.35 860.569   7
  -1   5   9 3398.63 692.583  51
  -1  -5   9 3387.83 765.832  13
   1   5  -9 3914.17 837.965  53
  -1  -5   8 33701.6 2311.84  44
  -1   5   8 33191.7 2210.74  51
  -1  -5   8 31585.1 2248.40  45
  -1  -5   8 32534.4 2430.08  54
  -1  -5   8 34031.3 2363.75  25
  -1   5   8 37823.1 2545.46  22
  -1   5   8 32809.4 2464.16  10
  -1  -5   8 37250.2 2480.91  15
  -1   5   8 35562.2 2367.79  29
  -1  -5   8 35879.5 2491.15  59
  -1  -5   8 35656.1 2857.20  58
  -1   5   8 38978.9 2486.64   7
  -1  -5   8 38390.8 2538.95  13
  -1  -5   8 32102.9 2243.35  55
   1  -5  -7 1528.34 449.434  49
  -1   5   7 1233.92 405.064  47
  -1   5   7 1857.13 554.357  22
  -1   5   7 1900.97 507.625  38
  -1   5   7 1947.01 547.119  29
   1  -5  -7 1812.11 486.802  32
  -1  -5   7 2578.40 687.205   4
  -1  -5   7 2582.19 628.369  25
   1   5  -7 2195.15 570.816  48
  -1  -5   7 2039.48 528.384  45
  -1  -5   7 2287.76 532.069  35
  -1   5   7 2530.36 673.306  10
  -1  -5   7 2778.81 631.915  15
  -1  -5   7 2445.41 698.394  58
   1  -5  -7 1613.57 464.913  61
  -1  -5   7 1831.78 539.751  33
  -1  -5   7 3284.20 705.833  13
  -1   5   6 33720.7 2042.27  16
   1  -5  -6 32859.6 1984.82  49
  -1   5   6 33243.3 2176.05  47
   1  -5  -6 34889.9 2046.99  32
  -1   5   6 39698.1 2427.50  19
   1  -5  -6 34211.8 2008.17   1
   1   5  -6 33961.6 2110.55  48
   1  -5  -6 34607.7 2052.84   2
   1   5  -6 36177.5 2184.17  17
   1  -5  -6 35729.9 2128.53  61
  -1  -5   6 35452.6 1978.81  35
  -1  -5   6 35726.6 1992.73  20
  -1  -5   5 26399.3 1586.71  20
   1  -5  -5 24221.4 1571.51  49
   1  -5  -5 24822.3 1607.48   2
  -1  -5   5 23800.7 1603.51   3
  -1   5   5 24958.9 1759.57  19
   1   5  -5 26299.3 1693.61  17
  -1   5   5 23986.5 1671.71  47
   1  -5  -5 25115.1 1643.40  61
   1  -5  -5 27095.3 1659.30  32
  -1  -5   5 24275.2 1487.69  35
  -1  -5   5 27862.5 1798.52  34
   1  -5  -5 25910.8 1581.93   1
   1   5  -5 26185.5 1682.50  48
  -1   5   5 23828.6 1433.95  35
  -1   5   5 22542.1 1548.01  16
  -1  -5   5 26040.6 1550.95  46
   1  -5  -4 105173. 3366.19  32
  -1   5   4 98324.2 3353.52  47
  -1  -5   4 114628. 3365.20  46
   1  -5  -4 106949. 3418.53   2
   1  -5  -4 106271. 3382.69  61
   1  -5  -4 102873. 3249.44   1
  -1  -5   4 113084. 3395.59  20
  -1   5   4 105274. 3638.98  19
  -1  -5   4 111901. 3190.92  35
  -1  -5   4 113278. 3626.90  34
   1   5  -4 107227. 3448.08  17
  -1   5   4 102460. 3346.96  16
   1  -5  -4 105186. 3296.42  49
   1   5  -4 104670. 3372.93  48
  -1  -5   3 26710.5 1423.47  20
  -1  -5   3 28306.4 1448.37  46
   1  -5  -3 23713.5 1384.47  32
  -1   5   3 25131.2 1426.91  16
  -1   5   3 21928.9 1313.60  47
   1  -5  -3 26192.7 1453.08   2
  -1  -5   3 24510.0 1233.38  35
  -1  -5   3 27345.3 1543.51  34
   1  -5  -3 24990.4 1394.13  49
   1   5  -3 26387.7 1416.83  48
   1   5  -3 26806.4 1279.14  31
   1  -5  -3 26264.9 1387.67   1
   1   5  -3 28095.6 1502.80  17
   1  -5  -2 218422. 4872.85  32
   1   5  -2 234393. 4695.15  31
   1  -5  -2 211248. 4747.56  49
   1   5  -2 187082. 4005.46   5
  -1  -5   2 222358. 4826.73  46
  -1  -5   2 222845. 4821.14  20
  -1   5   2 207735. 4755.06  16
   1  -5  -2 209030. 4803.06   2
  -1  -5   2 203228. 4246.62  35
  -1  -5   2 226634. 5024.86  34
   1  -5  -2 208684. 4684.54  33
  -1   5   2 178840. 4357.23  47
   1   5  -2 212067. 4700.35  48
   1   5  -2 224573. 4889.48  17
  -1   5   2 224601. 5006.57  18
   1  -5  -1 4614.01 540.124   2
   1   5  -1 3843.84 389.351   5
   1  -5  -1 3992.71 488.361  49
  -1   5   1 3070.98 340.448  47
  -1  -5   1 3844.69 484.036  46
   1  -5  -1 3922.37 516.007  33
  -1   5   1 3725.61 518.789  18
  -1  -5   1 4549.93 526.966  20
   1   5  -1 3835.69 485.470  17
   1   5  -1 4775.56 513.604  31
   1   5  -1 4679.10 506.996  48
  -1   5   1 4342.81 567.166  48
   1  -5  -1 3995.22 515.228  32
  -1   5   1 3904.86 483.903  16
  -1  -5   1 4084.30 524.432  34
  -1   5   0 203713. 4408.98  16
   1  -5   0 201259. 4321.07  49
  -1   5   0 204763. 4820.36  18
   1   5   0 194288. 4126.84   5
   1   5   0 207513. 4504.76  16
  -1  -5   0 200622. 4518.70  46
   1  -5   0 198071. 4468.96  32
   1  -5   0 199145. 4693.96  33
   1  -5   0 206577. 4543.74   2
  -1   5   0 187853. 4729.58  48
  -1  -5   0 205389. 4650.81  34
  -1  -5   0 214136. 4567.92  20
   1   5   0 208029. 4380.20  48
   1   5   0 216951. 4555.42  31
   1  -5   1 80101.1 2375.51  32
   1  -5   1 81526.3 2429.85   2
   1   5   1 80680.2 2434.66  19
   1   5   1 86980.1 2551.42  31
   1   5   1 89158.4 2528.47  16
  -1   5  -1 82380.5 2692.20  48
   1  -5   1 77254.4 2178.68  49
   1  -5   1 80731.5 2700.79  33
   1   5   1 83124.6 2363.93   5
  -1   5  -1 82794.3 2782.40  18
  -1  -5  -1 85217.8 2542.04  46
  -1  -5  -1 80829.7 2554.08  34
  -1  -5  -1 82571.2 2425.36  20
  -1   5  -1 82166.2 2391.03  16
   1   5   2 383069. 7496.50  19
   1   5   2 390469. 7275.01   5
  -1  -5  -2 368385. 7176.73  46
   1  -5   2 384916. 7771.16  33
   1   5   2 404703. 7299.56  16
  -1  -5  -2 421987. 7543.52   2
   1  -5   2 329599. 6730.82  32
   1   5   2 386725. 7375.18  31
  -1  -5  -2 362364. 7269.96  34
  -1   5  -2 369821. 7005.33  16
  -1  -5  -2 371874. 6931.10  20
  -1  -5  -2 401242. 7516.18  32
  -1   5  -2 367523. 7793.11  18
  -1   5  -2 365480. 7293.17  17
   1  -5   2 364045. 6963.84   2
  -1   5  -2 384059. 7691.70  48
  -1  -5  -3 55616.8 2103.71   2
  -1   5  -3 44899.3 1741.16  16
  -1   5  -3 50458.3 2355.12  18
   1  -5   3 50053.7 2269.57  33
  -1  -5  -3 51290.1 2127.43  32
  -1  -5  -3 44526.5 1773.78  46
  -1   5  -3 50646.9 2232.79  48
  -1  -5  -3 43183.3 1856.92  34
  -1   5  -3 47312.2 2020.52  17
   1   5   3 51810.1 1960.50  16
   1   5   3 51428.2 2210.37  19
   1   5   3 47343.2 1975.12   5
   1   5   4 221217. 5349.98  16
  -1  -5  -4 240473. 5562.23   2
  -1  -5  -4 262690. 5862.64  49
   1  -5   4 243218. 6481.65   3
   1   5   4 250974. 6157.47  19
   1  -5   4 226818. 6363.66   4
  -1   5  -4 239355. 6071.81  48
   1  -5   4 249968. 6233.45  33
  -1   5  -4 234828. 5722.21  17
  -1  -5  -4 254955. 5909.27  32
  -1   5  -4 241960. 6373.79  18
  -1   5  -5 2965.52 626.088  48
  -1   5  -5 3021.63 558.753  17
   1  -5   5 2096.00 563.574   4
  -1   5  -5 1964.31 528.929  18
   1  -5   5 2140.53 520.777  33
  -1  -5  -5 2404.06 517.289  32
   1   5   5 2460.90 542.149  19
  -1  -5  -5 1754.99 433.840  49
   1  -5   5 1821.88 501.633   3
  -1  -5  -6 49033.4 2551.14   1
  -1  -5  -6 48583.9 2461.41  32
  -1  -5  -6 41276.7 2247.50  49
  -1   5  -6 49127.7 2750.58  48
   1  -5   6 47377.0 2681.44  33
   1  -5   6 44456.0 2746.73   3
  -1   5  -6 48622.8 2936.35  18
   1   5   6 47396.2 2711.50  19
   1  -5   6 43868.2 2925.05   4
  -1   5  -6 41980.4 2392.21  17
   1   5   7 5271.39 844.377  24
   1   5   7 4918.49 839.677  51
   1  -5   7 3948.21 810.254   7
   1  -5   7 5840.95 1130.52  58
   1  -5   7 5724.38 1041.71  59
   1   5   7 3741.59 717.086  29
   1   5   7 4863.72 807.697  42
   1  -5   7 3995.77 789.232  13
   1   5   7 5191.36 879.944   7
   1  -5   7 3887.73 880.661  25
   1  -5   7 5351.98 1041.73  54
   1   5   7 4092.26 876.801  58
   1   5   8 15414.7 1494.27  42
   1  -5   8 12378.4 1610.92  54
   1   5   8 12687.2 1405.64  24
   1  -5   8 13864.3 1518.96   7
   1   5   8 14491.5 1470.02  51
   1  -5   8 13127.2 1419.39  13
   1   5   8 16223.9 1582.21   7
   1   5   8 13128.9 1623.39  58
   1  -5   8 10715.5 1467.27  59
   1  -5   8 16033.4 2002.77  58
   1  -5   8 15493.2 1726.68  41
   1   5   9 8994.19 1160.32  24
   1  -5   9 5838.47 1057.90  59
   1  -5   9 6404.50 1123.39  54
   1  -5   9 7527.97 1190.20  41
   1   5   9 9044.64 1190.99   7
   1   5   9 9642.72 1177.48  42
   1  -5   9 8027.58 1118.52  13
   1  -5   9 9422.96 1535.81  58
   1   5   9 7671.86 1229.45  58
   1   5   9 8672.89 1145.92  51
   1   5  10 22390.4 1741.71  51
   1   5  10 20784.5 1935.48  58
   1   5  10 23669.6 1801.73   7
   1   5  10 22795.2 1720.00  42
   1  -5  10 22997.2 1953.38  41
   1  -5  10 24598.6 2291.65  58
   1  -5  10 24524.6 2151.92  11
   1  -5  10 18162.5 1744.13  54
   1  -5  11 2108.93 532.800  41
   1   5  11 1210.34 426.500  58
   1  -5  11 2088.79 592.240  58
   1  -5  11 1755.64 484.614  11
   1   5  11 1433.70 413.070  42
   1   5  11 1607.03 429.018  51
   1   5  11 1393.84 393.368   7
   1   5  12 17912.3 1170.11  51
   1   5  12 19744.3 1255.26   7
   1  -5  12 14968.9 1108.14  11
   1  -5  12 19604.4 1324.83  41
   1  -5  12 19471.0 1482.28  58
   1   7 -12 54.7661 81.2504  52
  -1   7  12 49.7923 54.9786   7
  -1  -7  12-14.3392 100.968  41
   1   7 -12 46.6564 59.0502  28
   1   7 -11 10356.3 1051.88  23
  -1   7  11 8960.88 866.620  13
  -1  -7  11 10744.2 1073.15  41
  -1   7  11 11737.8 1047.97   7
   1   7 -11 9041.06 922.921  53
   1   7 -11 12288.6 1182.49  28
  -1  -7  11 11966.9 1307.34  58
  -1  -7  10 395.329 245.870  59
  -1   7  10 566.446 338.353   7
  -1   7  10 294.375 231.203  13
  -1   7  10 584.172 327.155  29
   1   7 -10 122.588 193.541  28
  -1   7  10 275.595 203.227  51
  -1   7  10 402.200 189.689  22
  -1  -7  10 381.811 253.736  25
  -1  -7  10 407.479 211.649  15
   1   7 -10 327.483 233.057  53
  -1  -7  10 393.664 205.938  58
  -1  -7   9 31497.1 2305.37  59
   1   7  -9 34088.1 2404.79  28
  -1  -7   9 29225.6 2161.99  15
  -1  -7   9 29830.3 2279.45  54
  -1   7   9 26597.4 1951.34  51
  -1   7   9 29318.9 2094.99  29
  -1  -7   9 29986.6 2155.66  44
  -1   7   9 27648.6 2028.03  22
  -1  -7   9 27579.5 2467.94  58
   1   7  -9 33394.1 2308.82  53
  -1   7   9 25846.6 2095.61  10
  -1   7   9 32184.3 2181.55   7
  -1  -7   9 23876.5 1830.45  55
  -1  -7   9 32099.4 2270.41  25
  -1  -7   9 31839.0 2302.81  13
  -1  -7   8-107.096 161.947  25
  -1  -7   8 170.383 242.520  13
   1   7  -8 117.631 132.092  28
  -1   7   8 40.3380 182.572  51
  -1  -7   8 394.691 302.288  15
  -1   7   8 94.1560 250.028  38
  -1  -7   8 350.943 263.462  54
  -1   7   8 187.949 281.930  10
  -1  -7   8-104.201 245.003  58
  -1   7   8 115.353 148.762  29
  -1  -7   8 323.559 269.857  59
   1   7  -8 241.605 154.533  30
  -1   7   8-11.3874 178.246  22
  -1  -7   8 743.440 415.612  44
   1   7  -8-160.292 136.972  53
  -1  -7   7 97750.1 4357.71  54
  -1  -7   7 97656.7 4195.02  25
  -1  -7   7 91306.5 4095.63  15
  -1  -7   7 98429.7 4345.56  13
  -1  -7   7 91569.3 4150.83  59
   1   7  -7 93043.8 4181.15  53
   1   7  -7 98926.1 4341.91  28
  -1   7   7 87125.8 3878.87  51
   1   7  -7 88113.5 3887.50  30
  -1  -7   7 92361.7 4717.57  58
  -1   7   7 95016.3 4080.27  29
  -1  -7   7 99043.2 4189.65  44
  -1   7   7 88006.1 4168.52  10
  -1   7   6 730.085 421.945  10
  -1   7   6 454.114 262.062  29
  -1  -7   6 531.479 277.226  25
   1   7  -6 275.087 236.279  53
  -1  -7   6 1074.58 411.563  15
  -1  -7   6 436.470 281.312  59
  -1  -7   6 527.645 297.669  44
  -1  -7   6 693.122 333.436  13
  -1  -7   6-80.4193 289.702  54
  -1   7   6 467.662 271.475  38
   1   7  -6-126.972 170.792  28
  -1  -7   6 151.932 253.677  21
  -1   7   6 448.641 214.936  52
   1   7  -6 732.180 355.115  30
   1   7  -5 154713. 5071.87  17
   1  -7  -5 146412. 4786.91  49
  -1   7   5 138830. 4707.92  16
   1   7  -5 152377. 5039.82  48
   1  -7  -5 160809. 5120.21  61
   1  -7  -5 157935. 4993.89  32
  -1  -7   5 159138. 4894.55  46
   1  -7  -5 146950. 4725.93   1
  -1  -7   5 153749. 5195.24  33
  -1   7   5 154003. 5274.60  19
   1  -7  -5 145900. 4918.66   2
   1  -7  -4 4134.82 669.204  49
  -1  -7   4 4340.29 688.658  46
   1  -7  -4 3369.34 603.935   1
  -1  -7   4 3842.94 662.027  20
   1   7  -4 3960.12 683.847  17
   1  -7  -4 3167.85 613.924   2
  -1  -7   4 4379.00 736.120  34
  -1   7   4 2986.52 589.167  16
  -1   7   4 3382.42 671.788  19
   1  -7  -4 3239.69 612.295  32
   1   7  -4 3626.92 660.006  48
   1  -7  -3 155084. 4610.01  32
  -1   7   3 156388. 4550.87  16
  -1   7   3 144094. 4628.32  19
   1   7  -3 152974. 4546.25  48
   1  -7  -3 153244. 4493.74  49
  -1  -7   3 162469. 4660.44  20
   1   7  -3 162048. 4702.41  17
   1  -7  -3 150217. 4574.70   2
   1  -7  -3 154012. 4442.55   1
  -1  -7   3 162039. 4814.98  34
  -1  -7   3 165174. 4616.44  46
   1   7  -2 1115.64 326.984  17
  -1  -7   2 1031.38 296.033  46
   1   7  -2 608.207 228.988  31
  -1   7   2 783.038 249.055  18
   1  -7  -2 670.198 274.546  32
   1  -7  -2 520.622 252.329   2
   1  -7  -2 402.258 201.680  49
  -1  -7   2 616.721 238.228  34
  -1   7   2 685.041 234.012  16
   1   7  -2 556.886 232.306  48
   1   7  -2 1024.80 320.501  16
  -1   7   2 500.572 242.178  19
  -1  -7   2 679.985 272.154  20
   1  -7  -1 149033. 4146.39  49
  -1  -7   1 156735. 4335.29  46
  -1  -7   1 161798. 4410.00  20
  -1  -7   1 157394. 4456.25  34
   1   7  -1 162008. 4288.47  31
   1   7  -1 162068. 4352.89  16
  -1  -7   1 148962. 3905.76  32
   1  -7  -1 143901. 4313.96  33
  -1   7   1 152744. 4338.01  18
   1  -7  -1 154381. 4363.89   2
   1  -7  -1 147995. 4262.23  32
  -1   7   1 152992. 4253.03  16
   1   7  -1 154863. 4274.49  48
  -1  -7   0 11442.4 1024.30  34
  -1  -7   0 12420.9 1057.34   2
   1  -7   0 11014.0 932.613  49
  -1   7   0 12105.1 1126.04  48
  -1   7   0 11184.4 1033.63  18
  -1  -7   0 11509.3 959.675  32
   1   7   0 12665.5 1044.85  16
  -1  -7   0 12362.7 1042.45  20
   1  -7   0 11490.6 1021.93   2
  -1  -7   0 12245.6 1046.06  46
   1  -7   0 10904.8 966.596  32
   1  -7   0 11558.4 1095.71  33
  -1   7   0 11657.3 987.557  16
   1   7   0 13358.8 1035.33  48
   1   7   1 182803. 4670.81  16
  -1   7  -1 161227. 4754.80  18
  -1   7  -1 178862. 4562.07  16
  -1  -7  -1 176235. 4614.06  46
   1  -7   1 169231. 4915.18  33
   1   7   1 162124. 4253.96   5
  -1  -7  -1 180389. 4593.25  20
  -1   7  -1 177997. 4951.28  48
   1  -7   1 174399. 4621.54   2
  -1  -7  -1 184107. 4699.13  32
  -1  -7  -1 163002. 4518.25  34
  -1  -7  -1 197316. 4962.89   2
   1  -7   2 6502.18 875.225  33
  -1   7  -2 5725.36 697.607  16
  -1  -7  -2 6374.03 800.456  32
  -1   7  -2 6163.26 824.859  18
   1   7   2 6555.11 766.801  16
  -1   7  -2 5820.23 801.314  48
  -1  -7  -2 5694.19 695.893  46
   1  -7   2 5137.22 657.816   2
   1   7   2 5840.68 746.983  19
  -1  -7  -2 5764.80 798.590   2
   1  -7   3 89902.6 3619.67  33
  -1   7  -3 86083.5 3475.51  48
  -1   7  -3 81380.7 2920.26  16
  -1  -7  -3 97925.4 3465.13   2
   1   7   3 85389.6 3130.55  16
  -1   7  -3 79491.9 3189.42  17
  -1  -7  -3 96322.6 3419.43  32
  -1   7  -3 77869.2 3381.50  18
   1   7   3 87844.6 3368.16  19
  -1   7  -4 2111.95 579.495  18
  -1  -7  -4 3437.25 640.835  49
   1  -7   4 2662.67 626.186  33
  -1   7  -4 2213.36 551.610  48
  -1  -7  -4 2322.30 523.181   2
  -1  -7  -4 1981.95 481.006  32
   1   7   4 2184.44 485.511  16
  -1   7  -4 2145.83 507.390  17
   1   7   4 2007.77 516.588  19
   1  -7   4 2355.99 649.882   4
  -1  -7  -5 79810.9 3513.05  32
   1   7   5 73111.1 3852.28   9
  -1  -7  -5 82281.3 3562.29  49
   1  -7   5 72257.3 3785.90   3
  -1   7  -5 77511.5 3660.47  48
   1  -7   5 80447.8 3881.96  59
   1   7   5 75621.9 3559.56  19
   1  -7   5 62300.4 3593.12   4
   1  -7   5 75932.7 3748.24  44
  -1   7  -5 69625.6 3276.83  17
   1  -7   5 80608.5 4014.31  54
   1  -7   5 75526.5 3712.49  25
   1  -7   5 79456.1 3754.03  33
   1   7   5 83232.7 3618.81  51
   1   7   5 75377.6 3325.13  24
   1   7   5 68817.1 3254.77  28
  -1   7  -5 68377.7 3565.44  18
   1  -7   6 1058.16 444.723  44
   1   7   6 1088.86 417.355  28
   1   7   6 1021.89 429.785  51
   1  -7   6 919.902 417.103  59
   1  -7   6 1167.37 573.644  54
   1  -7   6 1365.48 522.655  25
   1   7   6 756.482 369.171  52
   1   7   6 889.841 387.536  24
   1   7   6 1256.74 462.835   7
   1   7   6 765.666 342.721  38
   1  -7   6 483.269 317.559  39
  -1   7  -6 1148.80 461.040  23
   1   7   6 1249.96 404.162  42
   1   7   6 314.418 138.317  10
   1  -7   6 663.845 359.305  21
   1  -7   6 1378.83 529.983  58
   1  -7   7 120658. 5233.98  54
   1   7   7 120557. 4587.93  51
   1   7   7 108339. 4268.97  24
   1  -7   7 106662. 4778.71  25
   1  -7   7 96359.5 4315.99  41
   1   7   7 100720. 4071.56  42
  -1   7  -7 103434. 4541.93  23
   1  -7   7 114173. 5007.05  59
   1   7   7 100330. 4211.40  38
   1   7   7 115528. 4499.15   7
   1  -7   7 110242. 5381.84  58
   1  -7   7 94870.1 4545.02  44
   1  -7   8 700.180 308.537  59
   1  -7   8 336.758 297.537  25
   1  -7   8 933.790 477.198  58
   1   7   8 582.174 313.669  42
   1   7   8 546.295 329.932  51
   1   7   8 333.750 247.592  24
   1  -7   8 851.016 430.186  41
   1   7   8 889.892 438.249   7
   1  -7   8 891.652 425.799  54
   1  -7   8 950.649 416.362  44
   1  -7   9 58146.3 3342.10  54
   1  -7   9 52474.1 3045.97  25
   1   7   9 66209.6 3097.69  51
   1  -7   9 63799.0 3750.71  58
   1   7   9 53377.3 2772.16  24
   1   7   9 57197.5 2755.47  42
   1  -7   9 55167.2 3005.45  41
   1   7   9 64168.4 3079.43   7
   1  -7   9 55188.0 3198.72  59
   1  -7  10-78.1583 190.824  11
   1  -7  10 69.7478 170.481   8
   1   7  10-63.7565 80.1184  42
   1  -7  10 146.530 230.198  41
   1  -7  10 117.091 243.998  54
   1   7  10-37.9994 130.163  51
   1  -7  10-64.6070 210.786  58
   1  -7  10-10.1689 91.9686  59
   1   7  10 6.58074 140.551   7
  -1   7 -10 247.714 196.636  52
   1   7  11 9671.52 904.516  51
   1  -7  11 5571.10 690.876  54
   1  -7  11 8169.54 851.052  41
  -1   7 -11 8222.18 848.057  52
   1  -7  11 9587.56 909.633   8
   1   7  11 8897.41 859.311   7
   1   7  11 7014.46 710.121  42
   1  -7  11 9293.72 1001.26  11
   1  -7  11 8429.24 1001.56  58
   1   9 -11 1262.79 298.858  52
  -1  -9  11 1154.60 324.813  58
  -1   9  11 952.658 225.826   7
  -1   9  10 11481.4 959.246  51
  -1  -9  10 11316.2 1072.00  54
   1   9 -10 15304.9 1286.17  23
   1   9 -10 14252.0 1185.99  38
   1   9 -10 15105.4 1262.86  52
  -1   9  10 14279.4 1142.08   7
   1  -9 -10 13991.3 1206.66  37
   1   9 -10 14330.8 1184.19  28
  -1  -9  10 12366.3 1292.48  58
  -1  -9  10 10559.3 975.366  41
  -1  -9  10 13514.6 1165.20  59
  -1  -9  10 12418.6 1081.15  44
   1   9 -10 13693.7 1118.91  53
  -1  -9  10 14441.0 1182.13  25
  -1  -9   9 324.669 206.721  44
   1   9  -9 407.921 201.108  28
  -1   9   9 397.445 196.746  51
   1  -9  -9 266.729 143.425  37
   1   9  -9 534.265 304.923  23
  -1   9   9 407.258 267.293  10
   1   9  -9 212.394 217.935  52
  -1   9   9 32.6571 113.728   7
  -1  -9   9 469.444 375.945  58
   1   9  -9 319.971 193.310  53
   1   9  -9 72.1800 112.571  38
  -1  -9   9 158.678 142.463  25
  -1  -9   9-6.46466 158.373  59
  -1   9   9 332.023 210.966  29
  -1  -9   9 10.0848 159.921  54
  -1  -9   8 32036.8 2242.29  44
   1   9  -8 34198.0 2327.64  52
  -1  -9   8 37860.4 2513.81  54
   1   9  -8 34059.3 2284.51  28
  -1   9   8 30759.4 2104.61  29
  -1  -9   8 35336.8 2696.56  58
  -1  -9   8 37575.6 2415.11  25
   1   9  -8 29769.4 2182.04  38
  -1   9   8 31415.3 2077.29  51
  -1   9   8 27445.4 1968.62  38
  -1   9   8 28113.2 2141.83  10
   1   9  -8 29228.6 1977.62  30
  -1  -9   8 37048.8 2472.14  59
   1   9  -8 33894.6 2258.05  53
  -1  -9   8 30561.3 2190.07  15
  -1   9   7 1463.42 470.145  29
  -1   9   7 562.819 332.072  10
   1   9  -7 1368.19 507.772  52
  -1  -9   7 1385.65 471.084  25
  -1  -9   7 1149.91 430.300  44
  -1  -9   7 1649.17 584.187  58
  -1   9   7 1494.15 503.862  51
   1   9  -7 1119.15 447.914  53
  -1  -9   7 1302.01 461.225  54
  -1  -9   7 1367.71 483.870  15
  -1   9   7 1265.85 447.333  38
   1   9  -7 1059.72 410.285  38
   1   9  -7 1312.76 488.728  28
  -1  -9   7 1170.10 441.167  21
  -1  -9   7 1142.79 470.592  59
   1   9  -7 1041.53 386.097  30
  -1  -9   6 25220.6 2114.64  15
  -1   9   6 26806.3 2193.36  10
   1   9  -6 30057.4 2273.15  52
  -1  -9   6 26041.9 2151.96  54
  -1  -9   6 29568.5 2318.32  21
  -1  -9   6 26974.3 2158.71  44
  -1  -9   6 28533.1 2207.54  25
   1   9  -6 26530.4 2136.28  53
  -1   9   6 25017.7 1954.03  52
  -1   9   6 25592.8 2019.19  38
   1   9  -6 26870.2 2138.72  28
   1   9  -6 29513.6 2167.41  30
   1  -9  -6 27267.5 2270.68  36
  -1   9   6 29609.7 2208.03  29
  -1  -9   6 29598.9 2262.99  59
   1   9  -6 26638.6 2164.30  38
   1   9  -5 22714.5 1945.66  28
  -1  -9   5 20429.7 1879.84  15
   1   9  -5 22177.3 1944.43  38
  -1  -9   5 22188.1 1935.63  25
  -1   9   5 21312.0 1848.27  52
  -1   9   5 23456.3 1950.27  29
  -1   9   5 24245.9 1954.72  38
   1   9  -5 24368.2 2040.87  52
  -1  -9   5 21906.1 1952.61  54
   1  -9  -5 24097.0 2140.78  36
  -1  -9   5 25196.1 2075.58  21
  -1  -9   5 24068.2 2042.91  44
   1   9  -5 19684.0 1794.47  57
   1   9  -5 21969.3 1872.87  30
  -1  -9   5 20192.2 1866.84  39
  -1  -9   5 23616.4 2025.69  59
   1   9  -5 22309.6 1932.60  53
  -1   9   5 21975.3 1979.81  10
   1  -9  -5 21301.6 1978.55  43
  -1   9   4 31393.3 2202.73  52
  -1  -9   4 31686.8 2309.44  39
  -1  -9   4 34923.6 2412.05  59
  -1   9   4 26835.1 2098.10  53
   1   9  -4 29561.2 2377.76  14
   1   9  -4 30185.8 2220.77  28
   1  -9  -4 30969.9 2328.91  43
  -1  -9   4 35460.6 2452.65  21
   1   9  -4 34387.6 2401.17  52
  -1  -9   4 33046.4 2369.33  25
  -1   9   4 34304.2 2339.63  29
   1   9  -4 33321.8 2309.72  53
  -1  -9   4 33283.7 2384.08  54
   1   9  -4 30806.5 2263.61  38
   1   9  -4 31994.6 2269.05  57
  -1   9   4 32331.5 2244.03  38
  -1   9   4 31669.3 2376.91  10
  -1  -9   4 34173.9 2430.65  44
   1   9  -4 33342.7 2280.83  30
  -1  -9   3 27382.1 2110.53  54
   1   9  -3 26530.4 2000.47  28
  -1   9   3 22983.9 1920.05  23
  -1  -9   3 26821.4 2069.98  39
   1  -9  -3 22137.2 2006.03  26
  -1  -9   3 26636.4 2056.03  59
  -1   9   3 25847.5 2110.41  10
  -1   9   3 27060.5 2037.22  29
  -1   9   3 26461.0 1994.23  52
   1   9  -3 28677.3 2324.05  14
  -1  -9   3 25369.0 2014.63  25
   1   9  -3 25882.3 1999.46  38
  -1  -9   3 28803.8 2178.91  44
   1   9  -3 29111.2 2104.31  57
   1   9  -3 28270.3 2027.63  30
  -1  -9   3 30105.5 2239.09  21
   1   9  -3 26241.3 2033.53  52
  -1   9   3 23598.7 1915.15  53
   1   9  -3 25042.3 1957.07  53
  -1   9   3 28104.4 2042.13  38
  -1  -9   2 75973.9 3499.34  54
  -1   9   2 71348.6 3219.03  16
   1  -9  -2 68980.8 3187.59  32
   1  -9  -2 64437.5 3019.53  49
  -1   9   2 78943.7 3725.21  10
   1  -9  -2 80937.5 3867.42  26
   1   9  -2 87063.3 4068.58  14
   1   9  -2 82192.2 3570.11  53
  -1  -9   2 73692.3 3261.83   2
  -1   9   2 81288.7 3509.43  52
  -1  -9   2 72418.6 3446.55  33
  -1   9   2 85800.8 3693.16  29
  -1  -9   2 90116.7 3926.83  21
  -1  -9   2 72018.5 3349.82  34
   1   9  -2 87326.1 3661.32  28
   1   9  -2 83637.7 3520.36  30
  -1   9   2 80857.7 3500.04  53
   1   9  -2 81977.6 3614.65  52
  -1   9   2 83413.0 3588.28  38
   1  -9  -2 62564.0 2909.96   1
   1   9  -1 842.394 303.546  16
  -1   9   1 106.860 86.0138  16
   1  -9  -1 320.881 185.351   2
  -1  -9   1 220.589 216.155  33
  -1  -9   1 659.716 315.468  46
   1  -9  -1-2.74467 157.367  49
  -1  -9   1 432.531 207.108   2
  -1  -9   1 467.387 276.927  34
   1   9   0 92039.5 3563.14  16
  -1  -9   0 96242.0 3766.84   2
  -1   9   0 92417.3 3567.65  16
   1  -9   0 84335.6 3501.46   2
  -1  -9   0 91176.6 3595.88  46
   1  -9   1-48.2149 238.843  26
  -1   9  -1 753.713 290.859  16
   1   9   1-121.672 236.847  14
   1  -9   1 941.555 399.748  39
  -1  -9  -1-83.0257 130.488  49
  -1   9  -1-174.118 168.546  48
  -1  -9  -1 142.847 197.968  46
  -1  -9  -1 183.813 144.652   2
  -1   9  -1-396.966 251.404  38
  -1   9  -1 135.429 150.721  23
   1   9   1-307.784 199.687  16
   1   9   1 138.813 97.1734  28
   1  -9   1 232.108 191.805  33
  -1  -9  -1-16.4230 73.8210  32
   1  -9   1 121.979 91.2995   2
   1   9   2 65100.4 3004.09  16
  -1   9  -2 71546.8 3360.92  52
   1   9   2 75513.9 3406.52  38
   1  -9   2 70872.1 3646.65  26
   1  -9   2 55246.3 3274.12  44
   1   9   2 72231.2 3274.50  28
   1  -9   2 53703.5 3168.08  25
  -1  -9  -2 66116.4 3067.07  32
   1  -9   2 60844.3 3260.26  43
  -1   9  -2 62439.7 3248.87  29
   1   9   2 57946.6 2848.61  42
   1  -9   2 68352.2 3577.04  39
   1   9   2 66939.6 3121.55  30
  -1   9  -2 70054.5 3528.61  23
   1  -9   2 70868.9 3685.26  21
  -1   9  -2 76511.6 3502.90  38
   1   9   2 66339.9 3448.09  14
   1   9   2 59664.2 2939.69  40
   1   9   2 72570.9 3317.92  52
  -1   9  -2 68804.9 3277.72  53
  -1   9  -2 59548.7 2843.89  16
   1   9   3 8863.47 1138.11  52
  -1   9  -3 9170.38 1191.27  53
   1   9   3 8904.74 1150.71  38
   1   9   3 9449.77 1143.16  28
   1   9   3 7990.42 1142.66  14
   1  -9   3 7544.69 1157.41  25
   1   9   3 7231.77 1000.83  40
   1  -9   3 7315.99 1167.29  44
   1   9   3 8274.05 1027.48  42
  -1   9  -3 10860.9 1405.38  23
   1  -9   3 7723.22 1173.58  54
   1  -9   3 9888.61 1343.03  39
   1   9   3 11529.1 1372.27  10
   1  -9   3 9213.39 1313.00  21
   1  -9   3 7642.10 1183.40  59
  -1   9  -3 8059.51 1138.74  52
   1  -9   3 9508.57 1295.92  26
  -1   9  -3 9350.93 1222.71  38
  -1   9  -4 62718.2 3249.42  53
   1   9   4 61261.1 3143.25  52
   1   9   4 73055.9 3612.69  10
  -1   9  -4 62338.0 3462.78  23
   1  -9   4 53331.2 3234.78  44
   1  -9   4 58847.5 3380.01  25
   1   9   4 52347.2 2760.33  42
   1   9   4 62858.8 3233.22  38
  -1   9  -4 68408.8 3509.35  38
   1  -9   4 66839.6 3694.40  21
   1  -9   4 57693.5 3448.38  39
   1  -9   4 61697.3 3545.43  54
   1   9   4 54434.8 2898.82  24
   1  -9   4 57647.1 3421.60  59
  -1   9  -4 64813.5 3352.15  52
   1  -9   4 58237.0 3326.04  26
   1   9   4 56448.3 3017.55  28
   1  -9   5 8117.48 1251.86  44
  -1   9  -5 9305.56 1226.81  53
   1   9   5 7876.92 1104.50  52
  -1   9  -5 11304.8 1411.66  52
   1   9   5 10733.5 1309.87  51
   1   9   5 8068.13 1099.62  24
   1   9   5 9996.61 1322.07  10
   1  -9   5 9356.60 1379.66  39
   1   9   5 8291.17 1059.13  42
   1   9   5 8569.49 1132.41  28
   1  -9   5 8724.47 1313.27  59
   1   9   5 9723.51 1243.01  38
  -1   9  -5 9787.89 1344.19  38
   1  -9   5 9544.86 1419.91  21
   1  -9   5 8653.76 1278.50  25
   1  -9   5 9251.38 1371.45  54
  -1   9  -5 9599.84 1369.40  23
   1  -9   6 35439.4 2699.05  54
   1   9   6 33622.3 2281.68  24
  -1   9  -6 38579.9 2613.54  52
   1   9   6 41384.5 2621.99  51
   1   9   6 32786.4 2259.14  28
   1  -9   6 32093.7 2518.69  44
   1  -9   6 33177.0 2542.06  25
   1  -9   6 33002.8 2731.81  58
   1  -9   6 33023.4 2585.62  39
  -1   9  -6 38882.5 2724.51  23
  -1   9  -6 40554.0 2731.65  38
   1  -9   6 35734.8 2713.31  21
   1   9   6 37563.6 2567.07  10
   1   9   6 32158.5 2269.12   7
   1   9   6 30595.0 2065.31  42
   1  -9   6 33455.4 2566.38  59
   1   9   6 34848.6 2377.50  38
   1   9   6 31525.5 2205.78  52
   1  -9   7 3620.58 823.546  59
   1  -9   7 2780.05 700.982  54
  -1   9  -7 3022.34 709.653  52
   1   9   7 3526.36 723.518  24
   1   9   7 3030.38 681.050  38
   1  -9   7 3613.18 763.046  39
   1  -9   7 3383.68 787.256  44
   1   9   7 4696.07 871.671  42
   1  -9   7 2807.54 723.384  25
  -1   9  -7 3248.94 728.124  23
   1   9   7 3541.56 732.224  51
  -1   9  -7 4688.10 909.840  38
   1  -9   7 3917.20 855.496  21
   1  -9   7 3179.99 804.412  58
   1   9   7 3944.31 738.425   7
   1   9   7 2684.79 641.881  10
   1  -9   8 12706.3 1472.48  54
  -1   9  -8 13067.4 1387.40  52
   1  -9   8 10925.6 1336.42  25
   1   9   8 11397.1 1188.53  24
  -1   9  -8 14386.8 1496.45  38
  -1   9  -8 11914.3 1327.27  23
   1  -9   8 11974.5 1477.48  58
   1  -9   8 13541.6 1401.66   8
   1   9   8 11864.4 1239.82   7
   1  -9   8 11001.3 1338.93  59
   1   9   8 12738.9 1309.76  51
   1   9   8 9040.57 993.314  42
   1   9   9 3160.74 573.456  51
  -1   9  -9 2928.99 596.426  52
   1   9   9 2214.82 432.802  42
   1  -9   9 2222.89 565.036  54
   1  -9   9 2611.94 615.885  58
   1  -9   9 2853.29 593.318   8
  -1   9  -9 3021.67 632.825  38
   1   9   9 2716.60 539.812   7
   1  -9   9 2255.65 555.956  59
  -1   9 -10 7718.90 775.640  52
   1   9  10 9673.86 872.456  51
   1  -9  10 8433.22 898.691  54
   1  -9  10 10318.5 941.101   8
  -1   9 -10 11854.4 1071.42  38
   1   9  10 7806.25 756.497   7
   1  -9  10 7415.03 859.373  58
   1  -9  10 8559.18 956.658  11
  -1 -11   9 6900.43 779.762  54
  -1  11   9 5081.24 571.466  51
   1  11  -9 5695.58 634.079  28
  -1 -11   9 5208.99 654.104  44
   1  11  -9 5641.13 638.642  53
  -1 -11   9 6215.61 808.249  58
   1  11  -9 6431.17 704.897  52
  -1  11   9 4892.64 565.501  29
   1  11  -9 7071.61 780.978  23
   1  11  -9 5247.96 594.745  38
  -1  11   9 5749.56 634.717   7
   1 -11  -9 6054.51 761.703  37
  -1 -11   9 5652.40 694.918  59
  -1 -11   9 5474.64 673.228  25
   1  11  -8 5782.30 759.454  28
   1  11  -8 5322.83 740.598  52
  -1  11   8 4920.14 680.844  51
  -1 -11   8 5824.25 816.792  44
  -1 -11   8 5513.87 779.684  25
  -1 -11   8 5212.30 795.899  54
  -1 -11   8 5637.20 906.872  58
   1  11  -8 4732.55 681.566  38
   1  11  -8 6174.09 842.901  23
  -1 -11   8 5230.05 777.104  59
  -1 -11   8 4700.28 689.266  21
  -1  11   8 5831.90 761.520   7
   1  11  -8 4950.23 706.450  53
  -1  11   8 4854.14 737.196  10
   1 -11  -8 5143.96 802.436  37
  -1  11   8 4344.00 642.521  29
  -1 -11   7 11792.1 1300.79  54
   1  11  -7 14866.7 1373.60  52
  -1  11   7 11727.3 1155.62  29
   1  11  -7 10708.6 1095.03  30
  -1 -11   7 11218.6 1248.92  44
  -1 -11   7 12979.6 1318.21  25
   1  11  -7 13344.4 1378.27  23
   1 -11  -7 12605.4 1362.61  12
   1  11  -7 10753.0 1146.98  38
   1  11  -7 12045.8 1238.93  53
   1  11  -7 12079.3 1201.56  28
  -1 -11   7 12621.8 1312.66  59
  -1  11   7 10102.3 1086.91  38
  -1 -11   7 13311.6 1506.52  58
  -1  11   7 12957.6 1227.41  51
  -1  11   7 10853.0 1219.37  10
  -1 -11   7 13340.7 1331.75  21
  -1 -11   6 2085.62 627.469  58
   1  11  -6 924.531 336.221  53
   1  11  -6 1341.09 427.896  30
  -1 -11   6 1637.40 528.237  54
  -1  11   6 899.152 341.813  52
  -1  11   6 1666.80 459.493  51
  -1 -11   6 1409.17 453.699  25
   1 -11  -6 1157.70 404.507  43
   1  11  -6 1019.36 337.228  38
   1  11  -6 1431.45 501.297  23
  -1  11   6 1176.86 457.200  10
  -1  11   6 1879.81 473.704  38
   1  11  -6 1542.47 486.570  52
   1 -11  -6 1860.00 567.348  36
  -1  11   6 1184.44 387.106  29
  -1 -11   6 1558.77 481.501  39
   1 -11  -6 1586.05 541.263  12
  -1 -11   6 1407.17 470.914  21
   1  11  -6 1534.10 452.906  28
  -1 -11   6 1211.54 439.272  59
  -1 -11   6 1013.76 415.211  44
  -1 -11   5 35060.3 2459.82  54
   1 -11  -5 38478.2 2660.99  36
   1  11  -5 39581.5 2477.22  52
   1 -11  -5 36840.0 2545.17  43
  -1  11   5 36650.2 2361.75  29
  -1 -11   5 36322.9 2363.65  26
  -1  11   5 33177.9 2222.99  38
  -1 -11   5 37573.4 2568.97  44
   1  11  -5 38110.8 2571.12  23
   1  11  -5 37453.7 2385.18  30
   1  11  -5 35961.2 2352.45  53
  -1  11   5 34984.8 2233.57  52
  -1 -11   5 38830.7 2539.06  39
   1  11  -5 36393.3 2363.57  38
  -1 -11   5 41548.9 2670.59  21
   1  11  -5 37189.6 2366.30  28
  -1 -11   5 35848.9 2456.52  59
  -1  11   5 33118.7 2387.52  10
  -1 -11   5 40581.1 2624.22  25
   1  11  -4-163.623 180.746  53
  -1  11   4 105.361 137.386  52
  -1  11   4 563.052 279.950  29
  -1  11   4 252.622 237.475  53
   1  11  -4 149.178 205.223  30
  -1 -11   4 222.371 242.733  26
   1  11  -4-56.1305 105.374  14
  -1 -11   4 277.907 284.242  44
   1 -11  -4 73.3702 111.991  43
  -1 -11   4 193.181 173.937  54
   1  11  -4 260.058 234.225  52
   1  11  -4 112.434 146.631  23
  -1 -11   4 335.661 211.477  39
  -1  11   4 34.2608 132.477  38
   1  11  -4 358.231 124.655  38
  -1 -11   4 173.972 146.525  25
   1 -11  -4-294.648 322.170  36
  -1 -11   4 145.842 210.768  21
  -1  11   4 215.771 183.581  10
   1  11  -4 280.522 211.385  28
  -1 -11   4-178.419 205.957  59
  -1 -11   3 49752.3 2976.97  54
   1  11  -3 49655.4 2846.04  53
  -1  11   3 51311.2 2863.60  29
   1  11  -3 49067.6 2829.52  52
   1  11  -3 44618.4 3037.45  14
   1  11  -3 46946.8 2901.15  23
  -1  11   3 50076.1 2831.68  38
  -1  11   3 45573.0 2710.84  53
   1 -11  -3 45352.1 3006.58  26
  -1 -11   3 48305.6 2940.86  25
   1  11  -3 49522.6 2824.97  30
   1  11  -3 50566.3 2841.63  28
  -1  11   3 40828.6 2629.91  23
  -1  11   3 47122.2 2957.80  10
  -1 -11   3 53399.0 3073.81  39
  -1 -11   3 48263.3 2934.59  59
  -1 -11   3 52120.6 3139.78  21
  -1 -11   3 49418.7 3041.49  44
   1 -11  -3 50101.1 3070.85  43
   1  11  -3 43961.6 2690.98  38
  -1  11   3 47621.2 2722.53  52
   1  11  -2 6536.43 1009.25  28
   1  11  -2 5801.96 1066.31  14
  -1 -11   2 4533.83 892.804  54
  -1  11   2 6992.29 1043.05  53
   1  11  -2 6698.89 1022.04  53
   1 -11  -2 5869.81 1043.56  43
   1  11  -2 6127.85 943.396  30
   1  11  -2 6901.52 1031.63  52
  -1  11   2 4853.46 903.547  23
  -1 -11   2 5102.34 958.349  44
  -1  11   2 5451.66 1007.98  10
   1  11  -2 5673.42 979.313  23
  -1 -11   2 6088.97 1007.84  39
  -1  11   2 6598.84 1011.18  38
   1  11  -2 5293.47 885.319  38
  -1 -11   2 7285.00 1147.44  21
  -1  11   2 4587.32 839.529  29
   1 -11  -2 7432.60 1215.86  26
  -1  11   2 5597.97 934.808  52
   1  11  -1 31091.2 2182.09  28
  -1  11   1 30557.9 2192.18  52
   1  11  -1 29028.8 2127.87  52
  -1  11   1 27458.7 2201.40  23
  -1  11   1 31468.0 2246.84  38
   1 -11  -1 29919.2 2328.39  43
  -1 -11   1 31190.2 2346.62  39
   1  11  -1 30842.1 2195.67  38
   1  11  -1 29026.6 2143.47  53
   1 -11  -1 29690.7 2427.86  26
  -1 -11   1 32672.4 2492.14  21
  -1  11   1 29577.2 2152.72  53
   1  11  -1 29867.7 2434.66  14
   1  11  -1 28980.4 2104.24  30
  -1  11   1 25883.1 2154.53  10
   1 -11  -1 24951.2 2178.84  39
  -1  11   1 28302.9 2121.79  29
  -1  11   0 24060.9 1979.71  53
   1  11   0 24209.1 1919.51  28
  -1  11   0 24556.3 1958.32  52
   1  11   0 23537.2 1902.43  53
   1 -11   0 22982.5 2123.20  26
   1  11   0 26257.3 2016.20  52
   1 -11   0 22307.5 2018.54  43
  -1  11   0 23448.0 2051.36  23
   1 -11   0 21538.2 2046.17  39
  -1 -11   0 24598.6 2067.27  39
   1  11   0 25590.4 1995.08  38
  -1  11   0 24129.6 1963.73  38
   1 -11   0 21981.5 2111.90  21
  -1 -11   0 23735.5 2098.92  21
   1  11   0 23798.5 1891.61  30
   1  11   0 21573.9 2048.46  14
  -1  11   0 21824.4 1870.21  29
  -1  11  -1 32752.9 2298.78  53
   1  11   1 30260.7 2151.29  28
   1  11   1 30971.6 2202.54  52
   1  11   1 31184.7 2217.67  38
  -1  11  -1 30990.1 2235.22  38
  -1  11  -1 28551.9 2286.10  23
   1 -11   1 28805.0 2376.72  39
   1  11   1 24595.1 2177.49  14
   1 -11   1 27850.4 2392.97  21
   1 -11   1 28929.3 2277.74  43
  -1 -11  -1 30851.9 2352.65  39
   1  11   1 28983.3 2096.33  53
   1  11   1 23382.2 1841.19  40
  -1  11  -1 30046.9 2180.24  52
   1  11   1 27317.8 2038.05  30
   1 -11   1 28148.9 2335.65  26
  -1  11  -1 30172.9 2184.68  29
  -1  11  -2 9523.19 1233.55  53
   1  11   2 10722.3 1277.12  52
  -1  11  -2 11740.6 1349.01  52
   1  11   2 9553.06 1176.03  53
   1 -11   2 10556.3 1423.18  26
   1 -11   2 8552.11 1273.43  39
   1 -11   2 6483.20 1104.57  25
   1 -11   2 8569.32 1202.71  43
   1  11   2 7982.81 1059.91  40
  -1  11  -2 9296.81 1197.77  29
  -1  11  -2 9652.51 1326.41  23
  -1 -11  -2 11081.5 1412.29  39
  -1  11  -2 10974.3 1319.85  38
   1 -11   2 8529.86 1323.08  21
   1  11   2 8827.55 1300.73  14
   1  11   2 11216.9 1316.66  38
   1  11   2 9966.66 1224.29  28
   1  11   2 10564.7 1371.77  10
  -1  11  -3 44692.2 2760.00  53
   1  11   3 40861.9 2525.19  52
  -1  11  -3 44017.6 2676.98  52
   1  11   3 50406.2 2975.92  10
   1 -11   3 34080.7 2545.08  54
  -1 -11  -3 48163.9 3064.05  26
  -1  11  -3 46379.9 2923.53  23
  -1  11  -3 42285.7 2631.04  29
   1 -11   3 40520.7 2810.11  39
  -1 -11  -3 42987.7 2747.03  39
  -1  11  -3 43449.6 2699.32  38
   1  11   3 40079.4 2471.63  28
   1 -11   3 39168.2 2817.04  21
   1  11   3 45059.5 2678.14  38
   1 -11   3 32123.6 2458.22  59
   1 -11   3 30886.0 2438.34  25
   1 -11   3 43731.4 2909.14  26
   1 -11   4 3573.82 849.957  44
  -1  11  -4 4173.15 829.793  29
   1  11   4 5820.62 971.322  10
  -1  11  -4 4527.49 855.848  53
   1  11   4 4076.11 747.548  28
   1  11   4 5040.53 853.984  52
   1  11   4 4199.90 799.424  38
   1 -11   4 4519.65 893.067  26
   1  11   4 4618.77 830.320  51
   1 -11   4 3590.58 758.062   8
   1 -11   4 3847.07 844.737  25
   1 -11   4 4244.53 887.041  54
  -1  11  -4 3750.94 757.905  52
  -1  11  -4 3708.79 830.430  23
  -1  11  -4 4330.99 840.664  38
   1 -11   4 4510.84 952.721  21
   1 -11   4 4030.98 854.650  59
   1 -11   4 4886.51 965.504  39
  -1  11  -5 28258.5 2017.64  53
   1  11   5 32233.9 2157.42  51
   1  11   5 25746.7 1885.08  52
   1 -11   5 24287.9 2080.86  54
   1 -11   5 23026.5 2000.95  25
   1 -11   5 28474.8 2107.74   8
  -1  11  -5 24851.5 1969.40  29
   1 -11   5 26378.4 2200.05  21
  -1  11  -5 34457.4 2442.85  23
   1 -11   5 26730.2 2212.53  39
  -1  11  -5 31327.3 2213.56  38
   1  11   5 31674.1 2243.03  10
   1  11   5 25576.4 1878.36  28
   1  11   5 27667.8 2011.25  38
  -1  11  -5 29469.5 2109.66  52
   1 -11   5 26768.1 2156.08  59
   1 -11   6 1856.48 530.660  54
  -1  11  -6 2106.54 540.083  29
  -1  11  -6 2062.82 517.053  53
   1 -11   6 1941.27 567.013  25
   1  11   6 1576.10 436.307  24
   1  11   6 1667.35 491.227  51
   1  11   6 2041.00 554.965  10
  -1  11  -6 2464.29 619.256  23
   1 -11   6 2642.03 660.525  39
   1  11   6 1851.72 488.311  38
  -1  11  -6 1862.80 551.374  38
  -1  11  -6 2185.53 538.261  52
   1 -11   6 1420.96 483.621  21
   1 -11   6 1718.96 560.106  59
   1 -11   6 1655.59 486.866   8
   1 -11   7 11822.3 1273.92  54
  -1  11  -7 12702.6 1201.12  52
   1  11   7 12590.0 1187.59  51
   1 -11   7 10363.2 1176.04  25
   1 -11   7 10352.6 1176.84  59
   1  11   7 11641.6 1184.62  10
   1 -11   7 13010.8 1249.39   8
  -1  11  -7 14008.9 1355.68  23
   1 -11   7 9286.46 1093.86  39
  -1  11  -7 14049.1 1336.52  38
   1 -11   7 10997.0 1204.34  21
  -1  11  -7 10914.6 1143.86  29
   1 -11   8 149.102 167.144  54
  -1  11  -8 253.623 124.847  29
  -1  11  -8 396.580 210.659  52
   1  11   8 109.353 105.866  51
   1 -11   8 326.964 191.393   8
  -1  11  -8 280.814 168.237  23
  -1  11  -8 342.572 192.636  38
   1 -11   8 274.953 184.444  59
   1  11   8 276.638 168.284  10
   1  11   9 6005.99 602.835  51
   1 -11   9 5646.66 656.053  54
   1 -11   9 7116.15 686.791   8
  -1  11  -9 6613.18 684.654  38
   1 -11   9 5848.75 679.787  11
  -1 -13   7 4274.27 586.730  54
  -1  13   7 4410.97 522.293  51
   1  13  -7 4177.19 522.895  53
   1  13  -7 4617.36 587.967  23
   1  13  -7 4341.39 525.015  52
   1 -13  -7 4814.57 637.690  37
  -1  13   7 3741.54 513.686  10
  -1  13   7 3699.61 464.761   7
  -1 -13   7 3939.20 554.153  59
  -1 -13   7 3774.05 583.526  58
  -1 -13   7 3706.93 535.690  25
  -1 -13   6 13752.8 1185.07  54
   1  13  -6 12287.7 976.124  28
   1  13  -6 13767.9 1091.45  53
   1 -13  -6 14800.2 1249.52  12
  -1  13   6 10580.2 929.238  38
  -1 -13   6 12639.9 1129.39  44
  -1 -13   6 12859.1 1130.08  25
  -1  13   6 12882.2 1021.52  51
   1  13  -6 13303.0 1135.50  23
  -1  13   6 11661.4 1056.85  10
   1 -13  -6 13636.5 1145.97  43
   1  13  -6 13274.8 1049.06  52
   1  13  -6 10913.5 915.368  38
   1  13  -6 11721.1 940.218  30
   1 -13  -6 13728.3 1194.57  37
  -1 -13   6 12327.6 1191.32  58
  -1 -13   6 13977.3 1212.80  21
   1 -13  -6 12675.3 1139.53  36
  -1 -13   6 11458.2 1071.60  59
  -1  13   6 9533.46 815.226  29
  -1 -13   5 12018.0 1183.98  54
  -1  13   5 11059.8 1117.52  10
   1  13  -5 13791.6 1178.56  53
   1  13  -5 11771.6 1049.75  28
  -1  13   5 10909.8 1021.08  52
   1  13  -5 11845.7 1079.00  52
  -1  13   5 11854.2 1065.54  38
  -1 -13   5 11045.2 1048.51  26
  -1 -13   5 11253.2 1134.94  25
  -1  13   5 10323.6 940.935  29
  -1  13   5 11886.1 1092.10  51
   1 -13  -5 13498.6 1270.22  43
  -1 -13   5 12593.8 1199.16  39
   1  13  -5 12445.3 1072.15  38
  -1 -13   5 11071.6 1235.10  58
   1  13  -5 12457.0 1185.53  23
   1 -13  -5 12795.9 1229.33  37
  -1 -13   5 10079.6 1095.94  44
  -1 -13   5 14685.5 1343.37  21
   1 -13  -5 12831.6 1277.04  36
   1 -13  -5 13223.1 1302.09  12
   1  13  -5 11880.9 1072.77  30
  -1 -13   5 12437.7 1197.66  59
  -1 -13   4 12905.0 1294.61  54
   1  13  -4 14303.3 1266.09  53
   1  13  -4 12120.1 1127.71  28
  -1 -13   4 13976.0 1328.60  26
  -1  13   4 11040.4 1052.64  29
  -1  13   4 11978.5 1138.28  38
   1  13  -4 12640.8 1245.73  23
  -1 -13   4 10961.6 1198.85  44
  -1 -13   4 12282.0 1237.73  25
  -1  13   4 11378.9 1196.70  10
  -1 -13   4 14391.2 1379.53  39
   1  13  -4 12064.7 1128.77  38
   1 -13  -4 12249.5 1241.65  37
   1 -13  -4 15219.0 1483.87  36
  -1 -13   4 14238.8 1422.50  21
  -1 -13   4 11829.6 1204.90  59
   1  13  -4 13860.6 1234.91  30
   1  13  -4 12538.4 1182.06  52
  -1  13   4 11931.3 1130.86  52
   1 -13  -4 14290.6 1393.34  43
   1  13  -3 16004.4 1395.62  53
   1  13  -3 14927.2 1298.52  28
   1  13  -3 14113.6 1279.36  52
   1  13  -3 13555.3 1315.25  23
   1 -13  -3 12213.7 1356.36  26
  -1 -13   3 11749.0 1268.67  44
  -1  13   3 11593.8 1249.99  10
  -1 -13   3 16191.9 1521.54  26
  -1  13   3 13237.7 1231.86  52
  -1 -13   3 17133.9 1559.52  39
   1  13  -3 13494.3 1241.79  38
   1 -13  -3 12618.7 1272.69  37
   1 -13  -3 15699.1 1505.25  43
  -1 -13   3 15784.9 1537.41  21
   1 -13  -3 16164.6 1557.11  36
  -1 -13   3 13189.9 1335.78  54
   1  13  -3 15423.5 1342.94  30
  -1  13   3 12473.8 1169.89  29
  -1  13   3 14835.9 1320.37  38
   1  13  -2 18403.0 1523.90  53
   1  13  -2 18869.3 1498.63  28
  -1  13   2 18462.3 1509.45  52
   1  13  -2 19075.8 1522.47  52
   1 -13  -2 17261.0 1676.47  26
  -1  13   2 15004.3 1389.11  23
   1 -13  -2 17187.7 1595.95  43
   1  13  -2 15863.7 1423.18  23
   1  13  -2 17360.1 1462.26  30
  -1  13   2 18532.9 1501.52  38
  -1 -13   2 19182.1 1686.99  39
   1  13  -2 17828.5 1468.77  38
  -1  13   2 16674.3 1464.49  53
   1  13  -2 20873.3 1702.47  10
  -1 -13   2 22314.5 1840.27  26
   1 -13  -2 18393.4 1700.78  36
  -1 -13   2 20886.3 1805.43  21
  -1  13   2 15654.4 1476.12  10
  -1  13   2 15988.1 1370.06  29
   1  13  -1 8398.19 1035.43  53
   1  13  -1 7274.38 932.025  28
  -1  13   1 8518.64 988.466  29
  -1  13   1 8886.57 1048.49  52
   1 -13  -1 10394.6 1300.71  26
   1 -13  -1 8058.55 1113.97  43
  -1  13   1 10680.1 1167.27  53
  -1 -13   1 10154.6 1255.72  26
   1 -13  -1 9526.35 1204.50  39
  -1 -13   1 9065.13 1102.23  43
   1  13  -1 7917.57 966.679  38
  -1  13   1 7595.28 1030.92  23
   1 -13  -1 8495.17 1177.67  36
  -1 -13   1 10430.6 1292.88  21
  -1 -13   1 10253.4 1243.34  39
   1  13  -1 9537.40 1074.81  52
   1  13  -1 9664.77 1097.58  30
  -1  13   1 9055.84 1057.18  38
   1  13  -1 9953.88 1206.95  10
  -1  13   0 33226.3 2130.65  53
   1  13   0 29604.7 1936.96  28
  -1  13   0 26002.7 1801.07  29
  -1  13   0 30350.2 1986.32  52
   1 -13   0 30829.5 2274.96  26
   1 -13   0 23772.7 1997.86  21
   1 -13   0 28643.0 2114.51  43
  -1 -13   0 31855.9 2153.26  43
   1  13   0 34781.2 2088.46  52
  -1  13   0 27762.5 2064.40  23
   1 -13   0 28409.3 2156.64  39
  -1  13   0 32302.3 2048.13  38
   1  13   0 30871.6 1971.94  38
  -1 -13   0 31732.2 2241.21  21
   1 -13   0 31824.5 2242.58  36
  -1 -13   0 34427.8 2309.63  39
   1  13   0 31178.8 2000.58  53
  -1 -13   0 41185.8 2585.51  26
   1  13   0 35003.9 2300.90  10
   1  13   1 7774.40 949.935  53
  -1  13  -1 7343.39 978.723  53
   1  13   1 7258.44 929.697  52
  -1  13  -1 6229.73 879.317  52
   1 -13   1 6716.24 1039.67  26
  -1  13  -1 6425.93 851.961  29
   1  13   1 8723.96 1142.02  10
   1  13   1 7029.13 919.063  28
  -1  13  -1 7023.40 1027.36  23
   1 -13   1 7212.94 1075.49  39
  -1 -13  -1 7664.93 1076.59  39
   1  13   1 6370.45 870.025  38
  -1  13  -1 8344.47 1027.09  38
   1 -13   1 6293.34 1018.93  21
   1 -13   1 6244.19 969.012  36
   1 -13   1 5490.44 899.648  43
  -1 -13  -1 8262.59 1145.46  26
  -1  13  -2 21168.9 1661.72  53
   1  13   2 20422.1 1555.48  52
  -1 -13  -2 26156.7 2022.02  26
   1  13   2 19440.7 1536.72  38
   1 -13   2 19541.0 1756.26  26
  -1  13  -2 18252.7 1447.08  29
   1 -13   2 16424.7 1499.23  43
   1  13   2 21053.0 1595.69  28
  -1  13  -2 21337.8 1652.00  38
  -1  13  -2 20274.1 1719.51  23
  -1 -13  -2 24636.9 1878.02  39
  -1  13  -2 22842.5 1675.80  52
   1 -13   2 17945.0 1719.58  21
   1  13   2 24902.7 1880.75  10
   1  13   2 20090.4 1513.57  53
   1 -13   2 19904.4 1778.65  39
   1  13   3 5524.06 769.290  28
  -1  13  -3 5745.22 897.011  23
   1  13   3 5945.69 796.527  52
   1 -13   3 5783.23 902.693  26
   1 -13   3 5706.52 914.765  39
   1  13   3 7582.79 1002.11  10
  -1  13  -3 5116.81 737.276  29
  -1 -13  -3 5681.98 860.074  39
  -1  13  -3 5833.52 831.310  38
   1  13   3 5336.62 771.216  38
   1 -13   3 6130.32 965.397  21
  -1  13  -3 8229.97 942.866  56
   1  13   3 5517.75 747.262  51
  -1  13  -3 6387.70 866.715  53
  -1 -13  -3 6930.47 990.841  26
  -1  13  -3 6119.78 841.633  52
  -1  13  -4 8524.86 954.205  53
   1  13   4 7554.08 850.230  52
   1 -13   4 8858.26 1050.12  26
  -1  13  -4 10388.9 1056.31  52
   1 -13   4 8340.93 1063.31  39
   1 -13   4 4685.08 724.792  59
   1  13   4 8709.53 931.728  38
   1  13   4 7383.52 833.860  51
  -1  13  -4 9764.75 1022.18  38
  -1  13  -4 7319.99 865.865  56
  -1  13  -4 9849.32 1114.76  23
   1  13   4 9116.79 954.623  28
   1  13   4 9652.63 1083.58  10
   1 -13   4 8634.56 1089.15  21
  -1  13  -5 5884.82 711.272  53
  -1  13  -5 5453.06 718.228  52
   1  13   5 5741.82 688.499  51
   1  13   5 5094.63 664.113  38
  -1  13  -5 6744.45 804.037  38
  -1 -13  -5 7752.94 943.021  43
  -1  13  -5 7432.14 928.079  23
   1 -13   5 4773.64 758.212  21
  -1  13  -5 5985.45 745.429  56
   1 -13   5 3704.45 609.030  59
   1 -13   5 6442.43 867.085  39
   1  13   5 5477.46 744.324  10
   1 -13   5 4169.60 644.449  54
   1 -13   6 6800.23 765.861  54
  -1  13  -6 10385.3 881.420  52
  -1 -13  -6 12239.1 1068.37  43
  -1  13  -6 10963.6 1008.53  23
   1 -13   6 9906.79 944.049  39
  -1  13  -6 11672.9 967.509  38
   1  13   6 9875.20 905.084  10
   1 -13   6 9186.08 940.132  21
   1  13   6 9855.68 813.105  51
   1 -13   6 6738.37 764.389  59
  -1  13  -6 9645.84 855.570  56
   1  15  -2 7429.78 672.997  53
  -1 -15   2 9846.88 907.946  26
   1 -15  -2 7843.73 808.813  36
  -1 -15   2 8968.37 869.216  39
   1 -15  -2 8504.20 840.609  12
  -1  15   2 7227.06 670.012  52
  -1  15   2 7725.46 696.678  38
   1 -15  -2 7617.89 799.666  43
   1  15  -1 3136.33 433.259  28
  -1  15   1 3391.22 473.652  52
   1  15  -1 2856.85 404.366  52
  -1 -15   1 5045.60 666.735  26
   1 -15  -1 3839.42 590.806  26
   1 -15  -1 3403.79 527.663  43
  -1 -15   1 4103.50 598.311  39
   1  15  -1 3919.11 490.482  53
   1 -15  -1 3505.44 539.318  12
   1 -15  -1 3619.47 548.359  36
  -1 -15   1 4042.90 552.387  36
  -1  15   1 3539.30 479.498  38
   1  15   0 7273.06 672.170  28
   1  15   0 7109.89 644.247  53
   1 -15   0 7402.49 828.273  26
  -1 -15   0 10134.4 965.070  26
  -1  15   0 8213.16 745.266  38
  -1 -15   0 9406.17 913.435  39
   1 -15   0 7406.70 773.024  43
   1 -15   0 7586.77 767.343  12
   1  15   0 6123.54 600.261  52
   1  15   0 7821.89 750.155  10
  -1  15   0 8771.56 761.728  52
   1 -15   0 7021.89 739.952  36
  -1  15  -1 2721.65 436.069  53
  -1  15  -1 2840.77 430.041  52
   1  15   1 2305.64 369.885  28
  -1 -15  -1 4090.96 602.910  26
  -1 -15  -1 3453.83 514.710  43
  -1  15  -1 3006.58 443.776  23
   1 -15   1 2726.48 479.082  39
  -1 -15  -1 3380.71 519.612  39
  -1  15  -1 2963.45 444.507  38
   1  15   1 2501.12 423.194  10
   1 -15   1 2865.22 507.150  26
  -1  15  -2 11100.6 823.436  52
   1 -15   2 10994.2 932.875  26
   1  15   2 12712.1 937.971  10
  -1 -15  -2 13111.5 1008.78  43
   1  15   2 8938.30 713.281  28
  -1  15  -2 10828.2 869.782  23
  -1  15  -2 11851.1 856.932  38
  -1 -15  -2 14060.1 1076.99  36
  -1  15  -2 11211.6 849.996  53
   1 -15   2 9618.22 889.166  39
  -2   0  13 0.67702 92.7405  13
   2   0 -13 3.25261 96.8160  40
  -2   0  13 90.5468 76.5875  55
  -2   0  12 9001.97 980.502  13
   2   0 -12 10522.7 1160.11  40
  -2   0  12 7804.06 927.539  45
  -2   0  12 9840.98 1050.26  55
  -2   0  11 326.331 214.133  45
   2   0 -11-154.926 264.207  30
  -2   0  11-58.6971 163.053  13
  -2   0  11-53.0878 94.4537  22
  -2   0  11-53.3625 104.811  55
  -2   0  10 74212.5 3578.08  45
  -2   0  10 77401.5 3625.29  13
  -2   0  10 69071.8 3481.12  22
   2   0 -10 73428.6 3655.18  30
  -2   0  10 80797.3 3703.27  55
  -2   0   9-49.6166 102.818  45
  -2   0   9 146.463 150.901  13
  -2   0   9-3.82848 139.942  55
  -2   0   9-51.4371 186.633  22
  -2   0   8 158741. 5289.99  45
  -2   0   8 161213. 5446.29  13
  -2   0   8 155716. 5310.00  22
  -2   0   8 167629. 5401.18  55
   2   0  -8 129538. 5041.14  57
  -2   0   8 149949. 5106.06  56
   2   0  -8 126529. 5014.39  27
   2   0  -7 274.250 232.007  17
   2   0  -7 20.2259 151.173  61
   2   0  -7-74.7342 103.280   1
  -2   0   7 72.9542 108.446  35
  -2   0   6 66145.2 2630.15  50
   2   0  -6 76190.2 2932.25  61
   2   0  -6 76412.9 2976.65   1
  -2   0   6 77464.0 2886.37  35
   2   0  -6 68623.9 2814.34  49
   2   0  -6 73911.9 2927.23  17
   2   0  -5 17.6642 83.0550  17
   2   0  -5 333.750 151.330  49
   2   0  -5 94.1802 100.658  61
   2   0  -5-51.6184 111.058   1
  -2   0   5-51.4958 71.5217  35
  -2   0   5 38.5586 105.801  50
  -2   0   5 8.04658 46.6820  20
  -2   0   4 54895.4 2039.11  35
   2   0  -4 53645.2 2078.11  49
  -2   0   4 40974.2 1602.05  46
   2   0  -4 53966.9 2068.70   1
  -2   0   4 48628.4 1783.59  34
  -2   0   4 46568.8 1815.95   4
   2   0  -4 53543.9 2027.24  61
  -2   0   4 45893.3 1895.15  20
   2   0  -4 51005.2 1924.42  17
  -2   0   4 53748.8 2067.22  50
   2   0  -3-37.7364 93.5799  17
   2   0  -3-250.170 124.213  61
  -2   0   3 866.956 250.487  50
  -2   0   3 936.892 222.183  46
   2   0  -3 60.6202 95.3225  49
   2   0  -3 62.9859 69.4120   1
  -2   0   3 197.018 131.515  20
  -2   0   3 46.2661 106.855  34
  -2   0   2 261829. 5456.32  50
   2   0  -2 262958. 5015.24  61
  -2   0   2 251547. 5463.20  20
  -2   0   2 276169. 5316.19  18
   2   0  -2 270981. 5180.90   1
  -2   0   2 257029. 5360.00  34
   2   0  -1 14.3307 29.9368  17
  -2   0   1 13.8819 91.5415  50
  -2   0   1-56.1398 73.1644  34
   2   0  -1-24.5380 69.7032  61
  -2   0   1 219.502 144.511  18
   2   0  -1-21.4677 74.0514   1
   2   0  -1 120.190 130.692  31
   2   0   0 339820. 6533.15  31
   2   0   0 319901. 5670.44  61
  -2   0   0 385749. 6838.42  50
   2   0   0 311736. 5748.29   3
  -2   0   0 401885. 6820.44  18
  -2   0  -1-1.47988 31.4847  48
   2   0   1-14.9754 60.2581   3
   2   0   1 60.6052 87.5912   5
   2   0   1-61.4970 84.5354  31
  -2   0  -1-41.8845 133.222  18
  -2   0  -1 74.0700 67.2282  50
  -2   0  -2 400878. 7536.05  18
  -2   0  -2 377791. 7259.51  50
   2   0   2 393147. 6996.57   5
  -2   0  -2 340206. 6236.26  48
   2   0   2 390887. 7055.12  33
   2   0   2 356141. 6675.06  31
   2   0   2 365329. 7105.84   3
  -2   0  -3-85.5000 110.250  18
   2   0   3-72.8378 78.9019   3
   2   0   3 0.27195 64.7606   5
   2   0   3 74.0078 66.2181  33
   2   0   3-42.3251 56.0114  31
  -2   0  -3-41.3652 108.946  50
   2   0   4 243168. 5385.30  33
  -2   0  -4 295494. 6641.16  18
   2   0   4 298533. 5806.50   5
   2   0   4 262272. 6210.57   3
  -2   0  -4 226125. 5468.37  50
   2   0   5 164.387 186.636   3
   2   0   5-52.6988 114.573   5
  -2   0  -5 58.5089 121.018  18
  -2   0  -6 98328.0 4055.38  18
   2   0   6 84462.4 3629.86   3
   2   0   7 24.3987 153.592  58
   2   0   7 213.298 179.354  42
  -2   0  -7 59.1677 164.737  18
   2   0   7-59.4829 281.057  41
   2   0   7 114.840 113.184   7
   2   0   7 245.014 223.109  11
   2   0   8 38454.9 2412.81  51
   2   0   8 40810.0 2476.26   7
   2   0   8 43259.5 2788.32  41
   2   0   8 39892.7 2441.36  42
   2   0   8 42069.2 2792.61  11
   2   0   8 42508.1 3077.12  58
   2   0   9 200.926 250.098  42
   2   0   9-179.519 262.159  41
   2   0   9-58.4758 144.962   7
   2   0   9-209.096 283.259  51
   2   0   9 65.7377 170.683  11
   2   0   9-110.383 235.961  58
   2   0  10 28168.0 1978.68  51
   2   0  10 28792.6 2149.57  41
   2   0  10 29098.3 2015.49   7
   2   0  10 23588.7 1921.28  11
   2   0  10 28504.4 2392.55  58
   2   0  10 28024.5 1968.62  42
   2   0  11 112.000 160.905  41
   2   0  11 44.6225 138.987   7
   2   0  11 47.9794 198.882  58
   2   0  12 8762.23 846.871  41
   2   0  12 10183.4 1087.20  58
   2   0  12 11149.6 960.064   7
   2   2 -13 12112.0 987.918  28
  -2  -2  13 9260.40 796.857  13
  -2   2  13 9645.73 793.868  13
   2  -2 -13 12624.0 1031.77  40
  -2  -2  13 9485.64 816.679  55
   2   2 -12 1950.11 478.886  53
  -2   2  12 1390.82 364.091  55
  -2  -2  12 1075.67 320.738  45
  -2   2  12 1509.77 365.210  45
  -2  -2  12 1357.13 396.308  13
  -2   2  12 1312.25 368.925  13
   2   2 -12 1916.33 467.383  40
  -2   2  12 1304.24 352.658  22
  -2  -2  12 1155.93 344.293  55
   2  -2 -11 14358.7 1456.98  27
  -2   2  11 14596.2 1384.86  45
  -2  -2  11 16553.4 1501.79  13
  -2  -2  11 15124.0 1442.48  45
   2   2 -11 19040.2 1706.05  40
  -2   2  11 14241.4 1405.27  13
  -2   2  11 16027.8 1493.15  22
   2  -2 -11 16033.8 1535.80  30
  -2   2  11 15529.9 1437.48  55
  -2  -2  11 15943.9 1477.69  55
   2   2 -11 14531.4 1392.28  30
  -2  -2  10 15471.9 1542.41  15
  -2   2  10 14236.6 1486.53  45
  -2  -2  10 14835.8 1552.91  13
  -2   2  10 14705.1 1518.52  13
   2   2 -10 17712.5 1771.07  40
  -2  -2  10 17112.0 1620.58  45
  -2  -2  10 12000.7 1354.59  22
  -2   2  10 15201.3 1548.39  22
   2  -2 -10 15930.2 1661.24  27
  -2  -2  10 15800.2 1554.14  55
   2   2 -10 15603.6 1587.74  30
  -2   2  10 16097.2 1577.06  55
  -2   2   9 8614.25 1170.44  45
   2   2  -9 9709.39 1281.65  30
  -2   2   9 7650.61 1099.48  55
  -2  -2   9 6954.50 1079.44  45
  -2   2   9 8542.51 1183.74  13
  -2  -2   9 9200.10 1214.45  15
  -2  -2   9 9287.45 1276.10  13
  -2  -2   9 6868.19 1055.49  22
  -2   2   9 9166.14 1240.03  22
  -2  -2   9 10210.2 1258.40  55
  -2   2   9 8200.52 1132.38  56
  -2   2   9 7234.83 1075.66  29
  -2   2   8 6980.61 1037.77  56
  -2  -2   8 6591.04 996.242  45
  -2   2   8 6653.21 1014.60  45
  -2  -2   8 7262.84 1036.15  55
   2  -2  -8 4825.50 904.052  60
  -2  -2   8 6719.61 1040.27  13
   2   2  -8 6657.90 1050.18  30
  -2  -2   8 5689.42 943.539  22
  -2   2   8 9018.78 1188.63  22
  -2   2   8 7658.03 1080.29  55
  -2   2   8 5513.37 916.891  29
  -2  -2   8 6656.03 988.554  15
   2  -2  -8 5955.89 995.628  57
   2  -2  -7 34150.8 2125.56   1
   2  -2  -7 33417.5 2143.99  17
   2  -2  -7 35871.1 2172.37  61
  -2   2   7 32100.6 2310.60  47
   2  -2  -7 31717.8 2038.01  49
  -2   2   7 28839.2 2032.22  19
   2   2  -7 36875.6 2209.51   1
   2   2  -7 33939.5 2116.38  61
  -2  -2   7 33954.8 2041.95  35
  -2   2   7 31909.5 2013.90  35
   2   2  -7 33696.1 2162.90  17
   2   2  -6 20.6179 129.287  17
   2  -2  -6-53.3321 104.763  32
   2  -2  -6 115.712 112.156   1
   2  -2  -6 120.433 145.339  49
  -2  -2   6 239.604 133.740  50
  -2  -2   6 168.176 87.1396   4
   2   2  -6 132.701 179.341   1
  -2  -2   6-54.3500 83.7715  35
  -2   2   6 5.33881 108.288  35
   2   2  -6-62.4552 102.095  61
   2  -2  -6 94.1626 184.681  61
  -2  -2   5 198955. 4957.79  50
   2  -2  -5 192456. 4948.05   1
   2  -2  -5 193176. 5029.63  49
   2  -2  -5 189943. 4914.67  61
   2  -2  -5 186589. 4979.40   2
  -2   2   5 164096. 4458.39  50
   2   2  -5 204824. 5061.15   1
   2  -2  -5 197762. 5066.49  32
   2   2  -5 199239. 4941.49  61
  -2  -2   5 197015. 4843.81  35
  -2   2   5 201408. 4948.86  35
  -2  -2   5 199127. 4904.49  34
  -2  -2   5 180066. 4650.92  20
   2   2  -5 168803. 4752.39  31
   2   2  -5 188613. 4862.34  17
  -2   2   4 21671.6 1293.33  50
   2  -2  -4 25254.5 1452.39  49
  -2   2   4 18687.6 1208.87  20
   2  -2  -4 24725.8 1397.43   1
   2  -2  -4 27082.4 1532.86  32
   2   2  -4 26126.9 1443.33   1
  -2  -2   4 22897.2 1241.24  46
  -2  -2   4 24819.5 1390.95  20
   2  -2  -4 25200.8 1479.20   2
  -2  -2   4 23958.7 1389.83  50
   2   2  -4 23210.7 1303.67  17
   2   2  -4 25277.6 1387.06  61
   2  -2  -4 24576.0 1384.76  61
  -2  -2   4 25804.3 1356.46  35
  -2  -2   4 26227.1 1456.00  34
   2   2  -4 22509.5 1392.11  31
  -2   2   3 270571. 6053.56  50
   2  -2  -3 290276. 6169.69  49
   2  -2  -3 297199. 6029.64   1
  -2  -2   3 285062. 5946.19  46
   2   2  -3 307336. 6136.07   1
   2  -2  -3 290769. 6226.74   2
   2  -2  -3 310607. 6393.33  32
   2   2  -3 298615. 6005.29  61
  -2  -2   3 292649. 6173.89  20
  -2  -2   3 304134. 5935.86  35
  -2  -2   3 302303. 6288.64  34
   2  -2  -3 291580. 5998.31  61
   2   2  -3 281835. 6209.82  31
  -2  -2   3 307032. 6230.22  50
   2   2  -3 283529. 5788.32  17
  -2   2   3 325224. 6487.63  18
   2  -2  -2 78312.5 2471.05   2
   2  -2  -2 86062.7 2650.65  32
   2  -2  -2 83456.0 2505.57  49
  -2  -2   2 81331.0 2547.25  50
  -2   2   2 72933.0 2484.92  50
  -2  -2   2 80342.5 2551.94  20
  -2   2   2 80628.7 2620.14  18
   2   2  -2 83056.2 2441.78   1
  -2  -2   2 80249.3 2233.61  35
  -2  -2   2 83585.0 2663.90  34
   2  -2  -2 81233.4 2518.11  33
   2   2  -2 81601.5 2325.90  61
   2   2  -2 78561.9 2538.05  31
   2   2  -2 74838.8 2079.45  17
   2  -2  -2 79408.7 2294.06   1
   2  -2  -2 76748.0 2253.79  61
  -2  -2   2 74568.4 2405.26  46
   2  -2  -1 172886. 3647.57   1
   2  -2  -1 162725. 3594.42  61
   2   2  -1 159297. 3310.61  17
  -2  -2   1 181983. 4142.70  50
  -2   2   1 166650. 4188.72  50
   2  -2  -1 178316. 3952.74  49
   2  -2  -1 175449. 4002.11   2
   2   2  -1 172721. 4056.69  31
   2  -2  -1 183055. 4156.45  33
   2  -2  -1 184774. 4208.12  32
  -2  -2   1 167816. 3439.09  18
  -2   2   1 185118. 4343.46  18
  -2  -2   1 166089. 4049.65  46
  -2  -2   1 181918. 4407.84  34
   2   2  -1 176951. 3693.81  61
  -2  -2   1 169669. 4171.55  20
   2  -2   0 1371.40 221.440  61
  -2   2   0 1436.03 278.365  48
   2  -2   0 1445.15 295.079   2
   2  -2   0 1750.89 343.463  33
  -2  -2   0 1445.63 316.789  46
   2  -2   0 1756.91 287.005   3
   2  -2   0 1594.84 281.585  49
  -2  -2   0 1433.05 316.295  20
   2   2   0 1733.24 317.000  31
   2  -2   0 1431.53 218.198   1
  -2  -2   0 1970.59 414.549  34
  -2   2   0 1860.25 363.361  18
  -2  -2   0 1485.45 234.905  18
  -2  -2   0 1755.97 329.166  50
   2   2   0 1856.66 339.280   5
   2   2   1 94713.2 2371.11  16
   2  -2   1 116057. 3025.55   3
  -2  -2  -1 114390. 2813.22  18
   2  -2   1 104924. 2676.96   2
   2   2   1 114914. 2956.35  31
   2   2   1 110853. 2946.40   5
  -2  -2  -1 117312. 3038.96  50
   2  -2   1 101434. 2787.82   5
  -2   2  -1 117780. 3416.50  18
  -2  -2  -1 118835. 3530.03  34
   2  -2   1 117609. 3188.83  33
  -2  -2  -1 111360. 3091.54  20
  -2   2  -1 107067. 2800.00  48
  -2  -2  -2 30673.3 1392.61  50
  -2   2  -2 30707.6 1387.17  48
  -2   2  -2 32326.9 1730.93  18
   2  -2   2 32592.4 1573.39   3
   2   2   2 32413.1 1451.89   5
  -2  -2  -2 29304.0 1380.30  18
   2  -2   2 29053.4 1250.90   5
   2  -2   2 25760.0 1329.93   4
  -2  -2  -2 31136.2 1778.89  34
   2  -2   2 35236.6 1640.89  33
  -2  -2  -2 29710.9 1436.19  20
   2  -2   2 23353.0 1133.78  31
   2   2   2 33038.0 1411.55  31
  -2   2  -3 62479.7 2228.35  48
   2   2   3 65803.4 2259.49   5
  -2   2  -3 66729.2 2766.76  18
   2  -2   3 60399.8 2406.54   4
   2  -2   3 68051.4 2494.46  33
  -2  -2  -3 59019.7 2667.71  34
  -2  -2  -3 54705.6 2051.56  20
   2   2   3 65208.6 2126.77  31
  -2  -2  -3 59064.2 2251.25  18
   2  -2   3 57422.0 1897.88   5
   2  -2   3 63014.2 2498.59   3
   2  -2   4 77119.2 3027.96   3
  -2   2  -4 75291.2 2702.92  48
   2   2   4 83039.6 2750.80   5
  -2   2  -4 84358.4 3339.95  18
   2  -2   4 72332.8 2992.44   4
   2   2   4 73458.2 2406.14  31
  -2  -2  -4 74942.1 2852.86  18
   2  -2   4 77127.2 2836.44  33
  -2   2  -5 67841.7 3207.83  18
  -2   2  -5 59311.7 2582.36  48
   2  -2   5 60405.4 2600.21  33
   2   2   5 66811.1 2676.36   5
   2  -2   5 58406.7 2854.72   3
   2  -2   5 61118.7 2987.11   4
  -2  -2  -5 58904.3 2726.24  18
  -2   2  -6 8901.12 1240.32  18
   2  -2   6 7874.38 1160.04   4
  -2  -2  -6 6109.02 922.993  18
   2  -2   6 6835.62 1010.10   3
   2  -2   7 52209.2 3103.75  54
   2   2   7 63954.1 3597.52  58
   2  -2   7 52732.5 2739.37  42
   2   2   7 57899.1 2881.12  24
   2  -2   7 58282.7 3593.34  58
   2   2   7 54738.3 2956.58  41
   2  -2   7 72828.3 3580.12  41
   2   2   7 61247.6 2971.65  51
   2  -2   7 63399.4 3064.59   7
   2  -2   7 62921.2 3081.45  51
   2   2   7 58910.9 2947.34   7
   2   2   7 49453.3 2887.70  11
   2  -2   7 66840.8 3660.48  11
   2   2   7 64478.7 3042.36  42
   2  -2   8 137.807 274.249  54
   2  -2   8 174.673 160.211  42
   2   2   8-78.1340 148.633  41
   2  -2   8-32.0856 117.979  41
   2   2   8 133.356 145.793  42
   2  -2   8 357.994 234.193   7
   2  -2   8 687.216 329.591  51
   2   2   8 353.055 196.584   7
   2   2   8-82.4750 137.977  51
   2  -2   8-18.2622 234.189  11
   2   2   8 0.97453 234.003  58
   2  -2   8 340.657 324.173  58
   2  -2   9 38273.9 2463.41  51
   2   2   9 39500.4 2862.29  58
   2   2   9 33072.0 2301.94  41
   2  -2   9 41325.0 2772.85  41
   2  -2   9 43397.9 3164.04  58
   2  -2   9 36368.8 2378.26   7
   2   2   9 39785.5 2480.63   7
   2   2   9 39332.7 2409.11  42
   2  -2   9 39231.2 2804.57  11
   2   2   9 34972.2 2283.36  51
   2   2  10 2901.22 612.515  41
   2   2  10 4566.84 769.403  42
   2   2  10 3771.25 695.498  51
   2  -2  10 4280.30 855.413  41
   2   2  10 4772.70 953.854  58
   2  -2  10 3559.83 713.711   7
   2   2  10 4215.11 745.121   7
   2  -2  10 4120.04 834.917  11
   2  -2  10 4677.96 954.849  58
   2  -2  10 7001.58 1042.65  51
   2   2  11 17424.4 1383.07  51
   2   2  11 16485.7 1333.25  42
   2  -2  11 17497.2 1537.58  41
   2  -2  11 17552.3 1401.41   7
   2   2  11 16518.6 1368.79   7
   2  -2  11 14602.2 1357.64  11
   2   2  11 16755.4 1602.82  58
   2  -2  11 17303.1 1660.89  58
   2  -2  12 2725.97 488.910  41
   2  -2  12 3533.84 621.797  58
   2   2  12 3371.98 520.504   7
   2   2  12 4393.42 592.898  51
   2   2  12 2748.97 535.973  58
  -2   4  12 9984.46 940.887  13
   2   4 -12 13526.4 1192.03  28
   2  -4 -12 10862.7 1039.30  27
  -2  -4  12 10655.2 978.209  55
  -2  -4  12 11213.2 1031.30  13
  -2   4  12 10106.2 965.964  22
  -2  -4  12 8338.30 839.805  15
   2   4 -12 9868.59 936.109  40
   2   4 -12 11700.6 1066.09  53
   2  -4 -11 58.9348 263.643  27
  -2  -4  11 68.5082 149.554  15
  -2  -4  11-83.6899 115.304  45
  -2  -4  11 21.3184 114.351  13
   2   4 -11 157.665 128.210  53
  -2   4  11-96.6911 145.985  13
   2   4 -11 202.551 107.195  40
  -2   4  11-36.4530 101.586  22
  -2  -4  11 39.9094 203.286  58
  -2  -4  11 409.871 249.871  55
  -2  -4  10 25548.0 1969.39  15
  -2  -4  10 24289.9 1902.46  45
  -2   4  10 25195.0 1964.01  13
   2  -4 -10 21627.7 1883.68  60
   2   4 -10 26188.1 2057.07  40
  -2  -4  10 26847.7 2047.86  13
  -2   4  10 28434.3 2089.49  22
   2   4 -10 22994.5 1866.15  30
  -2  -4  10 21081.4 1997.80  58
  -2  -4  10 23121.8 1836.35  55
  -2   4  10 19879.4 1622.55   7
  -2   4  10 20888.0 1740.24  56
  -2   4  10 20474.9 1713.70  29
  -2   4   9-154.644 168.737  29
  -2  -4   9-132.793 218.299  45
   2   4  -9 205.551 297.123  30
  -2  -4   9 377.475 244.055  15
  -2   4   9 93.2631 179.846  56
  -2  -4   9 128.102 215.404  55
  -2  -4   9 306.701 223.763  13
   2   4  -9 132.102 243.615  40
  -2   4   9 39.1201 116.183  22
   2  -4  -9 130.252 161.419  57
  -2   4   9 128.102 226.370   7
  -2  -4   9-143.836 343.332  58
  -2  -4   8 42265.5 2743.13  13
  -2  -4   8 43406.6 2645.42  45
  -2  -4   8 41180.5 2535.47  44
  -2   4   8 37715.5 2554.40  23
   2   4  -8 44823.9 2847.39  40
  -2  -4   8 41437.2 2577.12  55
  -2  -4   8 44338.0 2690.69  15
  -2   4   8 49805.1 2933.76  22
  -2   4   8 36516.9 2373.76   7
   2   4  -8 43053.7 2739.62  30
  -2  -4   8 33996.9 2696.47  58
   2  -4  -8 41662.7 2804.41  57
  -2   4   8 41042.8 2606.28  56
  -2   4   8 38291.6 2518.10  29
  -2  -4   8 36848.8 2461.42  25
  -2   4   7 15815.2 1547.62  56
   2   4  -7 12681.7 1404.90  57
   2  -4  -7 10382.9 1235.63  32
  -2  -4   7 15583.1 1501.46  45
  -2  -4   7 15703.2 1512.43  15
   2  -4  -7 10864.4 1261.72   2
  -2  -4   7 13852.3 1406.82  44
  -2  -4   7 12325.3 1332.35  25
  -2  -4   7 9687.90 1334.57   4
  -2  -4   7 14430.5 1512.58  13
  -2   4   7 15755.0 1521.67  29
  -2   4   7 13231.8 1475.33  23
   2   4  -7 15199.0 1571.03  40
  -2   4   7 16178.7 1613.55  22
  -2  -4   7 12950.9 1356.15  59
  -2  -4   7 11724.7 1502.20  58
   2   4  -7 14720.6 1516.39  30
  -2  -4   7 14054.6 1409.57  55
   2   4  -6 50592.5 2604.40  17
   2  -4  -6 49344.8 2576.36  49
   2   4  -6 44255.1 2369.25  48
  -2   4   6 43319.0 2601.99  47
   2  -4  -6 51961.2 2583.15   1
  -2   4   6 52607.1 2848.77  19
   2  -4  -6 51904.8 2682.39   2
   2   4  -6 53449.0 2588.88  61
   2  -4  -6 53446.5 2686.46  32
  -2  -4   6 51589.1 2463.92  35
  -2   4   6 53094.7 2564.70  35
  -2  -4   6 53328.6 2652.85  34
  -2  -4   6 46039.7 2302.11  20
   2  -4  -6 50076.2 2560.83  61
   2   4  -5 30136.7 1775.16  61
  -2  -4   5 34092.9 1906.10  50
   2  -4  -5 29076.9 1806.83  49
  -2   4   5 24904.6 1767.86  47
   2  -4  -5 33436.5 1992.14  32
   2   4  -5 26239.0 1615.94  48
  -2  -4   5 28092.4 1615.73  46
   2  -4  -5 30164.5 1887.21   2
   2  -4  -5 30390.1 1803.49   1
  -2  -4   5 29152.2 1687.18  35
  -2   4   5 29817.9 1766.26  35
  -2  -4   5 33632.6 1947.33  34
  -2  -4   5 29565.5 1741.13  20
   2  -4  -5 30134.1 1817.68  61
   2   4  -5 30949.3 1827.79  17
   2  -4  -4 38355.5 2040.62  32
  -2  -4   4 40183.8 1944.81  50
   2  -4  -4 35309.8 1884.88  49
  -2  -4   4 36209.8 1779.19  46
   2  -4  -4 36873.5 1961.73   2
   2  -4  -4 35445.7 1818.15   1
   2   4  -4 35014.6 1766.94  31
  -2   4   4 34254.1 1872.78  16
  -2  -4   4 35352.8 1693.07  35
  -2  -4   4 38104.0 1989.66  34
  -2  -4   4 38446.0 1933.71  20
   2   4  -4 36664.6 1825.42  61
   2  -4  -4 34428.1 1829.80  61
   2   4  -4 35837.7 1821.00  17
  -2   4   3 2509.58 456.886  16
   2  -4  -3 3350.07 585.415  32
  -2   4   3 1897.82 401.141  50
   2   4  -3 2861.09 470.806  61
   2  -4  -3 2781.71 498.984   2
   2   4  -3 3080.46 485.978   5
   2  -4  -3 2647.37 453.765   1
  -2  -4   3 3025.52 425.350  35
  -2  -4   3 3140.88 535.617  34
  -2  -4   3 2624.73 487.668  20
   2  -4  -3 3016.31 499.158  33
   2  -4  -3 2657.28 451.226  61
  -2   4   3 2495.05 490.154  18
   2   4  -3 2857.76 463.767  31
   2  -4  -3 2975.74 505.992  49
  -2  -4   3 2995.92 496.495  50
   2   4  -3 2928.01 464.824  17
  -2  -4   3 2732.09 460.455  46
  -2  -4   2 43760.3 1885.36  50
  -2   4   2 34742.6 1783.84  50
   2  -4  -2 38186.8 1792.28  49
  -2   4   2 36627.3 1689.96  16
   2  -4  -2 41676.7 1973.07  32
   2  -4  -2 40255.9 1879.09   2
   2   4  -2 36657.7 1679.54   5
   2  -4  -2 36762.3 1601.10   1
  -2  -4   2 40626.1 1945.10  34
  -2  -4   2 41095.7 1870.10  20
   2  -4  -2 39507.2 1849.20  33
   2  -4  -2 36844.1 1673.25  61
   2   4  -2 41067.8 1816.39  31
  -2   4   2 40716.6 1978.56  18
   2   4  -2 38195.4 1635.71  17
  -2  -4   2 40293.5 1831.90  46
  -2   4   1 47213.0 1816.92  16
   2   4  -1 51235.9 1816.18  17
  -2  -4   1 52586.0 2029.23  50
   2  -4  -1 49257.4 1945.30  49
   2  -4  -1 54441.9 2238.21  32
  -2  -4   1 51911.4 2092.74  46
   2   4  -1 48902.3 1925.45   5
   2  -4  -1 46587.5 1694.79   1
   2  -4  -1 50967.6 2076.75   2
  -2  -4   1 54316.5 2268.61  34
  -2  -4   1 54341.7 2148.05  20
   2  -4  -1 51926.6 2149.50  33
   2  -4  -1 47405.0 1809.09  61
   2   4  -1 53285.5 2032.47  31
  -2   4   1 49810.4 2207.22  18
  -2  -4   0 152453. 3775.31  50
   2  -4   0 157961. 4115.92  32
   2  -4   0 145235. 3612.54  49
  -2   4   0 147841. 3919.94  48
  -2  -4   0 148284. 3993.43  46
   2   4   0 145371. 3719.85   5
   2  -4   0 144813. 3801.79   2
  -2  -4   0 160026. 4337.82  34
  -2  -4   0 154565. 3993.49  20
   2  -4   0 146706. 4053.28  33
   2   4   0 158824. 3895.23  31
  -2   4   0 150075. 4250.31  18
  -2   4   0 128560. 3330.77  16
  -2   4  -1 52367.5 2363.38  18
   2   4   1 53982.8 1854.43  16
   2  -4   1 44825.7 1671.26  49
  -2  -4  -1 52447.6 2168.04  46
   2   4   1 51942.2 1977.79   5
   2  -4   1 47488.9 1867.21   2
  -2  -4  -1 50077.3 1876.66  50
  -2  -4  -1 55233.7 2426.82  34
  -2  -4  -1 50760.1 2065.98  20
   2  -4   1 51798.3 2233.57  33
   2  -4   1 51752.8 2109.48  32
  -2   4  -1 50306.1 2071.82  48
   2   4   1 52992.9 2028.82  31
   2   4   2 163473. 3761.69  16
  -2   4  -2 170802. 4867.65  18
  -2   4  -2 160728. 4320.19  48
   2  -4   2 166422. 4754.21   3
  -2  -4  -2 159511. 4368.35  46
   2   4   2 166633. 4149.11   5
   2  -4   2 164745. 4612.42  33
  -2  -4  -2 162482. 4777.10  34
  -2  -4  -2 154292. 4050.92  20
   2   4   2 174190. 4247.04  31
  -2   4  -3 6340.61 772.728  48
  -2  -4  -3 6139.52 752.180  46
  -2   4  -3 8110.17 999.064  18
   2   4   3 6027.42 701.424   5
   2  -4   3 6227.18 825.057  33
   2  -4   3 7040.77 904.164   3
  -2  -4  -3 5695.84 814.349  34
   2   4   3 6064.76 685.307  31
   2  -4   4 110509. 4089.54   3
  -2   4  -4 109999. 3788.69  48
   2   4   4 113461. 3588.32   5
   2  -4   4 97365.9 3834.03   4
  -2  -4  -4 96252.7 3866.38  34
   2  -4   4 113282. 4029.09  33
  -2   4  -4 111077. 4236.72  18
   2   4   4 106542. 3426.92  31
   2  -4   5-91.6744 223.249  33
  -2   4  -5 74.3534 176.446  48
  -2   4  -5 20.1170 179.338  18
   2  -4   5-45.9501 188.185   3
   2   4   5-42.8272 155.270   5
   2  -4   5 52.3236 166.108   4
  -2  -4  -5 4.68130 154.309  32
  -2   4  -6 37792.4 2438.27  48
  -2   4  -6 45519.2 3035.86  18
   2   4   6 43564.5 2472.37  24
   2  -4   6 42971.8 2688.17  41
   2  -4   6 40417.0 2489.72   7
   2  -4   6 36436.1 2664.86   4
   2   4   6 41037.2 2391.14  42
   2   4   6 39752.8 2365.24  51
   2  -4   6 43624.4 2929.92  54
  -2  -4  -6 42020.0 2511.73  32
   2   4   6 43672.8 2867.77  58
   2  -4   6 37015.0 2614.88   3
   2  -4   7 27499.4 2373.06  54
   2  -4   7 20804.7 2054.38  59
   2  -4   7 27163.2 2509.99  58
   2   4   7 24917.2 2131.54   9
   2   4   7 27663.6 2049.87  51
   2   4   7 25956.2 1937.11  42
   2  -4   7 27324.3 2185.40   8
   2  -4   7 27000.9 2234.28  41
   2   4   7 29375.8 2091.67  24
   2   4   7 25286.5 1916.08   7
   2  -4   7 31414.7 2614.33  11
   2  -4   7 26518.4 2049.71   7
   2   4   7 25428.0 2245.86  58
   2  -4   8 17375.9 1887.91  54
   2   4   8 16703.6 1610.79  51
   2   4   8 16959.4 1568.07  42
   2  -4   8 17958.3 1768.92   8
   2  -4   8 17917.1 1835.97  41
   2  -4   8 18628.0 1705.99   7
   2   4   8 19384.5 1712.37  24
   2   4   8 14965.0 1535.51   7
   2  -4   8 18946.0 2055.56  11
   2  -4   8 13429.2 1618.55  59
   2   4   8 15855.0 1787.05  58
   2  -4   8 18251.4 2083.68  58
   2   4   9 10483.0 1197.11  42
   2   4   9 11607.2 1293.93  51
   2  -4   9 10389.7 1381.44  54
   2   4   9 10420.3 1217.89  24
   2  -4   9 12585.1 1494.60  41
   2   4   9 9536.51 1181.07   7
   2   4   9 10188.9 1397.28  58
   2  -4   9 11553.2 1548.31  11
   2  -4   9 11115.3 1555.54  58
   2   4  10 7714.20 983.205  51
   2   4  10 6046.23 844.250  24
   2   4  10 8047.11 982.733  42
   2  -4  10 7810.67 1087.27  41
   2   4  10 8308.19 1166.51  58
   2   4  10 7710.91 1000.49   7
   2  -4  10 8383.18 1188.44  11
   2  -4  10 8222.86 1230.80  58
   2   4  11 4.30876 119.483  58
   2   4  11 264.943 219.034  42
   2  -4  11 79.6198 147.799  41
   2   4  11 3.26517 145.824   7
   2  -4  11 422.336 253.876  11
   2  -4  11 30.3031 122.701  58
   2   4  11 76.9125 142.284  51
   2   4  12 6198.57 639.545  51
   2   4  12 5803.43 609.906   7
   2  -4  12 5088.42 603.933  41
   2   6 -12 3334.46 500.857  28
   2  -6 -12 3718.63 550.477  27
  -2   6  12 2600.53 395.550  13
  -2  -6  12 2783.65 455.059  41
   2   6 -11 5530.26 795.707  28
  -2  -6  11 4434.94 693.550  15
   2  -6 -11 5864.46 849.025  27
  -2  -6  11 4356.24 690.604  13
  -2   6  11 4912.39 701.813  13
  -2   6  11 4246.27 655.368  22
  -2   6  11 3920.34 576.961   7
  -2  -6  11 4309.70 626.367  55
  -2  -6  11 4307.12 738.792  58
   2   6 -11 4767.31 717.824  53
   2   6 -10 18675.1 1622.27  53
  -2   6  10 15601.8 1396.83  29
   2  -6 -10 17664.7 1625.99  60
   2   6 -10 16463.0 1424.64  30
  -2  -6  10 14587.7 1356.69  44
  -2   6  10 14376.0 1324.98  56
  -2  -6  10 18518.7 1606.73  13
   2   6 -10 18594.1 1655.24  28
   2   6 -10 15505.4 1411.70  40
  -2  -6  10 17762.0 1566.34  15
  -2   6  10 17786.5 1552.32  22
  -2   6  10 17324.3 1438.59   7
  -2  -6  10 15991.4 1680.60  58
  -2  -6  10 14258.5 1318.66  55
   2   6  -9 29968.7 2230.69  53
  -2  -6   9 30167.1 2165.72  15
  -2  -6   9 25984.0 1991.43  45
  -2  -6   9 29587.7 2113.62  44
  -2  -6   9 31623.4 2201.47  25
  -2  -6   9 28088.7 2416.86  58
  -2  -6   9 32414.6 2310.78  13
   2   6  -9 30368.9 2182.01  40
  -2   6   9 31763.2 2256.15  22
   2   6  -9 27147.1 2028.68  30
  -2   6   9 27724.4 2041.86  56
  -2   6   9 28355.5 2040.05   7
  -2  -6   9 28523.8 2119.09  59
   2  -6  -9 31527.2 2357.78  57
   2   6  -9 35802.2 2448.73  28
  -2   6   9 28550.6 2059.81  29
  -2  -6   9 25749.8 1923.54  55
  -2  -6   8 23887.8 2052.35  13
  -2  -6   8 20931.3 1894.53  54
   2   6  -8 21978.5 1941.58  53
   2   6  -8 21011.8 1926.37  28
  -2  -6   8 21156.1 1843.71  15
  -2   6   8 22148.6 1881.59  56
  -2  -6   8 18270.2 1701.98  45
  -2  -6   8 20235.3 1803.14  44
  -2  -6   8 22815.6 1913.40  25
   2   6  -8 21611.6 1903.05  40
  -2   6   8 23160.3 1998.14  22
   2  -6  -8 17954.7 1799.55  37
  -2  -6   8 22013.6 1924.28  59
  -2  -6   8 19982.9 2095.68  58
   2   6  -8 21194.6 1863.70  30
  -2   6   8 21105.6 1835.20  29
  -2  -6   8 17583.6 1612.24  55
  -2  -6   7 41642.0 2710.52  13
   2   6  -7 36401.9 2511.60  40
   2   6  -7 44444.5 2803.27  28
  -2  -6   7 44724.5 2725.88  15
  -2  -6   7 34261.2 2331.30  45
   2   6  -7 41369.7 2632.59  30
  -2  -6   7 42286.1 2617.43  44
  -2  -6   7 43043.2 2683.28  25
  -2   6   7 35338.0 2472.23  23
  -2   6   7 42034.6 2625.07  29
   2  -6  -7 36925.5 2671.58  12
  -2   6   7 29398.7 2179.93  38
  -2   6   7 46750.1 2877.66  22
   2  -6  -7 40566.0 2754.21  37
  -2  -6   7 41637.4 2628.52  59
  -2   6   7 38312.9 2717.76  10
  -2  -6   7 41863.7 3028.29  58
  -2  -6   7 40564.7 2636.64  54
   2   6  -7 38410.1 2520.43  57
   2   6  -7 42338.6 2711.52  53
  -2   6   7 39488.0 2561.05  56
   2   6  -6 13780.1 1508.10  28
  -2  -6   6 14364.9 1469.66  15
  -2  -6   6 14685.4 1484.99  44
  -2  -6   6 12741.3 1373.43  25
  -2   6   6 14466.0 1484.90  29
  -2  -6   6 10875.5 1327.58  13
  -2   6   6 13534.5 1479.49  23
   2  -6  -6 12846.0 1529.19  12
  -2   6   6 13862.6 1528.13  22
  -2  -6   6 13770.1 1439.37  59
   2   6  -6 13713.2 1457.78  40
   2   6  -6 11956.2 1362.14  57
  -2  -6   6 11233.4 1286.93  21
   2   6  -6 13791.0 1447.97  30
   2   6  -6 13516.7 1457.24  53
  -2  -6   6 12712.5 1410.43  54
  -2   6   6 13146.3 1419.22  56
  -2   6   6 11136.8 1411.77  10
  -2   6   5 35179.9 2218.58  16
   2  -6  -5 39133.9 2325.66  49
  -2  -6   5 38654.0 2158.76  46
   2   6  -5 39149.1 2287.82  17
   2  -6  -5 39120.1 2411.39  32
   2  -6  -5 41187.1 2453.48   2
   2  -6  -5 38593.0 2227.45   1
  -2   6   5 35623.8 2089.84  35
  -2  -6   5 43638.5 2488.07  34
  -2  -6   5 41249.0 2300.15  20
   2  -6  -5 38865.4 2303.22  61
   2  -6  -4 13428.6 1263.25  49
  -2  -6   4 12984.6 1185.76  46
   2  -6  -4 12375.7 1274.21  32
  -2   6   4 11710.5 1176.05  16
   2  -6  -4 11821.4 1223.79   2
   2  -6  -4 11901.8 1137.12   1
  -2  -6   4 13984.4 1332.82  34
  -2  -6   4 12129.8 1176.32  20
   2  -6  -4 10777.5 1118.88  61
   2   6  -4 13087.7 1219.94  17
  -2   6   3 100542. 3585.63  16
   2  -6  -3 108236. 3753.84  49
  -2  -6   3 112876. 3736.60  46
   2  -6  -3 104949. 3481.38   1
   2  -6  -3 108273. 3858.95   2
   2   6  -3 105557. 3597.98  17
  -2  -6   3 120006. 4004.15  34
  -2  -6   3 118659. 3863.61  20
   2  -6  -3 101755. 3607.39  61
   2   6  -3 112554. 3598.27  31
  -2   6   3 122857. 4124.66  18
   2  -6  -3 113757. 3982.46  32
  -2   6   2 17232.7 1280.76  16
   2  -6  -2 17735.3 1342.09  49
   2  -6  -2 19366.9 1505.18  32
  -2  -6   2 18743.5 1374.00  46
   2  -6  -2 17823.8 1398.17   2
  -2  -6   2 18245.5 1471.39  34
  -2  -6   2 20957.4 1471.84  20
   2  -6  -2 18552.4 1406.56  33
  -2   6   2 13141.1 1190.53  50
   2   6  -2 19080.4 1325.85  17
   2  -6  -2 16718.2 1183.91   1
   2   6  -2 20127.8 1370.52  31
  -2   6   2 20024.7 1516.29  18
  -2   6   1 125782. 3764.35  16
   2   6  -1 143361. 4039.21  16
   2  -6  -1 123227. 3821.87  49
  -2  -6   1 140912. 4146.16  46
   2   6  -1 151213. 4132.80  31
   2  -6  -1 125165. 4064.07   2
  -2  -6   1 146296. 4379.07  34
  -2  -6   1 142610. 4173.33  20
   2   6  -1 122735. 3568.59   5
   2  -6  -1 129627. 4152.15  33
  -2   6   1 135922. 4332.49  18
   2  -6  -1 137151. 4286.98  32
   2   6   0 28946.2 1627.26  16
   2  -6   0 25701.2 1488.12  49
  -2   6   0 28807.5 1759.65  48
  -2   6   0 25899.7 1465.42  16
  -2  -6   0 28277.1 1714.07  46
   2   6   0 26023.4 1469.66   5
   2  -6   0 28850.4 1813.94  33
   2  -6   0 28024.4 1760.42  32
   2   6   0 31745.0 1729.85  31
  -2  -6   0 31676.5 1890.68  34
   2  -6   0 27139.7 1672.51   2
  -2  -6   0 29691.4 1714.74  20
  -2   6   0 29120.2 1859.07  18
   2   6   1 75853.0 2721.81  16
  -2   6  -1 76941.7 3030.58  48
  -2  -6  -1 75384.3 2944.57  46
   2   6   1 78416.3 2847.10  31
   2   6   1 75096.1 2676.98   5
   2  -6   1 65984.4 2665.49   2
  -2  -6  -1 72094.0 3015.38  34
  -2  -6  -1 74006.7 2800.40  20
   2  -6   1 70702.3 3051.13  33
  -2   6  -1 72805.5 3150.71  18
   2   6   2 78523.1 2790.09  16
  -2   6  -2 75385.5 3372.24  18
  -2  -6  -2 72372.7 2930.23  46
   2   6   2 77718.8 2864.13   5
  -2   6  -2 77514.6 3177.74  48
  -2  -6  -2 71762.8 3092.01  34
   2  -6   2 75743.2 3249.33  33
   2   6   2 78405.8 2969.16  31
  -2   6  -3 49179.6 2836.24  18
   2  -6   3 51948.5 2962.68   3
  -2  -6  -3 54604.5 2568.60   2
  -2  -6  -3 47143.1 2344.22  46
  -2  -6  -3 55440.1 2681.22  32
   2   6   3 52405.7 2422.87   5
   2   6   3 52062.2 2447.61  31
  -2  -6  -3 44886.7 2475.46  34
   2  -6   3 49512.7 2719.42  33
  -2   6  -3 49672.7 2602.04  48
   2  -6   4 68023.8 3595.15   3
  -2   6  -4 68929.8 3293.52  48
   2   6   4 69273.2 2994.45   5
  -2   6  -4 67407.4 3548.00  18
  -2  -6  -4 77579.3 3406.38  32
   2  -6   4 69350.4 3421.77  33
   2  -6   5 41120.4 2922.45  54
   2   6   5 35678.3 2274.24  28
   2   6   5 42286.7 2847.19   9
   2   6   5 37713.0 2355.41  51
  -2  -6  -5 40150.4 2570.29  49
   2  -6   5 37626.5 2671.30  25
   2   6   5 43984.2 2514.84  24
   2   6   5 41521.4 2432.98  42
   2  -6   5 43809.1 2720.06   8
   2  -6   5 40561.5 2883.22  39
   2  -6   5 37274.3 2743.78  21
   2  -6   5 39835.3 2799.24  59
   2  -6   6 13758.0 1721.33  54
   2   6   6 14120.8 1673.58   9
   2   6   6 14598.2 1493.58  51
   2  -6   6 12307.3 1574.72  25
   2   6   6 15478.2 1503.24  24
   2  -6   6 10379.8 1297.25  41
   2  -6   6 14409.9 1707.61  39
   2  -6   6 17290.7 1769.23   8
   2  -6   6 12637.6 1610.12  59
   2   6   6 15205.5 1783.81  58
   2   6   6 14690.2 1447.57  42
   2  -6   7 38260.3 2887.93  54
   2   6   7 36140.6 2728.98   9
   2   6   7 37757.2 2453.21  51
   2   6   7 40008.0 2448.21  42
   2   6   7 42989.7 2568.42  24
   2  -6   7 41476.1 2785.35   8
   2  -6   7 36120.4 2537.02  41
   2  -6   7 30516.3 2464.09  39
   2   6   7 33954.6 2266.05   7
   2  -6   7 30679.0 2570.46  59
   2   6   7 37698.6 2796.42  58
   2   6   8 2400.28 662.157   9
   2   6   8 2478.37 611.985  51
   2  -6   8 2757.90 696.807   8
   2  -6   8 2716.46 774.337  54
   2   6   8 2233.82 593.828  24
   2   6   8 2969.92 639.677  42
   2  -6   8 2262.68 579.588  41
   2   6   8 2546.84 590.688   7
   2  -6   8 1599.28 521.942  59
   2  -6   8 2973.09 794.352  11
   2   6   8 1665.99 543.502  58
   2  -6   8 2428.12 759.025  58
   2  -6   9 26995.4 2184.52  54
   2   6   9 29508.7 1929.26  42
   2   6   9 31404.4 2058.63  51
   2  -6   9 25877.0 2225.38  58
   2   6   9 30010.2 1999.63  24
   2  -6   9 34519.8 2283.42   8
   2  -6   9 28707.7 2075.83  41
   2   6   9 27735.4 1902.20   7
   2  -6   9 32814.4 2483.26  11
   2   6  10 3347.11 578.391  24
   2   6  10 3791.01 629.654  42
   2  -6  10 3731.10 665.235  41
   2   6  10 3553.73 616.803  51
   2   6  10 3484.74 599.472   7
   2  -6  10 4000.13 769.836  11
   2  -6  10 2790.62 636.334  58
   2  -6  10 3772.75 643.584   8
   2  -6  10 2824.42 597.593  54
   2   6  11 9326.63 844.625  51
   2   6  11 8848.75 814.047  42
   2  -6  11 8641.91 835.730  41
  -2   6 -11 8022.37 820.151  38
   2   6  11 7913.36 740.474   7
   2  -6  11 9166.29 942.728  11
   2  -6  11 6296.75 744.459  58
   2   8 -11 4878.33 596.791  28
   2   8 -11 4009.89 531.596  52
   2  -8 -11 5428.42 684.629  27
   2   8 -11 4618.91 569.381  53
   2   8 -11 4354.56 583.679  23
  -2   8  11 3526.58 462.185  13
  -2  -8  11 4034.09 550.218  41
  -2  -8  11 3776.46 576.547  58
   2   8 -10 5851.80 787.136  53
   2   8 -10 6494.98 832.591  28
   2   8 -10 4582.69 687.336  52
  -2  -8  10 4990.97 727.982  15
   2  -8 -10 6279.33 844.474  60
  -2  -8  10 4974.64 705.114  44
  -2  -8  10 5475.42 738.494  25
  -2   8  10 5017.03 715.527  13
  -2   8  10 3918.52 603.220  29
  -2   8  10 4215.30 601.212  22
  -2   8  10 5336.11 689.570   7
  -2  -8  10 5446.99 734.664  59
  -2  -8  10 5180.40 849.022  58
   2   8 -10 4378.60 609.793  30
  -2  -8   9 8189.98 1069.17  54
   2   8  -9 9237.04 1105.07  53
   2   8  -9 8835.40 1074.03  28
   2   8  -9 7954.38 1044.95  52
  -2  -8   9 8801.01 1066.69  44
  -2  -8   9 9517.89 1113.74  25
   2   8  -9 7675.70 953.463  30
   2  -8  -9 8777.29 1122.23  37
  -2  -8   9 7566.75 1138.10  58
  -2  -8   9 8388.56 1060.79  15
  -2   8   9 8847.28 1027.37  22
   2  -8  -9 8699.27 1138.07  57
  -2   8   9 8770.92 1012.77   7
  -2  -8   9 9540.21 1146.93  59
  -2   8   9 7982.17 991.794  29
  -2   8   8 3775.18 727.367  29
  -2   8   8 3542.46 768.902  10
   2   8  -8 4280.39 803.624  28
   2   8  -8 3497.53 717.688  53
  -2  -8   8 3900.59 783.482  15
  -2  -8   8 3660.38 775.301  54
  -2  -8   8 4469.24 820.047  25
   2   8  -8 2585.00 575.605  40
  -2  -8   8 3849.47 745.439  44
  -2   8   8 3744.78 724.776  22
  -2  -8   8 4292.94 820.502  59
   2  -8  -8 3051.93 705.282  12
   2  -8  -8 3692.01 806.995  37
  -2  -8   8 3958.52 893.486  58
   2   8  -8 3445.31 726.189  30
  -2   8   8 3006.16 641.136  56
  -2  -8   7 15603.9 1637.18  54
   2   8  -7 19288.5 1786.28  28
  -2  -8   7 15229.3 1592.63  15
  -2   8   7 18213.2 1672.98  29
  -2  -8   7 17771.1 1690.69  44
  -2  -8   7 16475.2 1636.61  25
   2   8  -7 13965.2 1448.39  40
   2  -8  -7 16669.8 1774.09  12
  -2   8   7 11820.9 1342.75  38
  -2   8   7 15396.7 1572.38  22
   2  -8  -7 14853.3 1654.70  37
  -2   8   7 13981.9 1430.08  51
  -2  -8   7 15551.5 1559.98  21
  -2  -8   7 18086.8 1716.13  59
  -2   8   7 14153.9 1603.71  10
  -2  -8   7 15449.2 1847.52  58
   2   8  -7 16822.9 1603.36  57
   2   8  -7 17306.2 1644.81  30
   2   8  -7 15469.7 1586.91  53
  -2   8   7 15520.1 1533.65  56
   2   8  -6 15611.7 1599.19  53
  -2   8   6 13102.0 1430.77  52
   2   8  -6 16326.2 1659.95  28
  -2   8   6 16600.2 1622.05  29
  -2  -8   6 16044.8 1676.49  54
  -2  -8   6 14905.6 1583.87  44
  -2  -8   6 16423.1 1682.89  15
   2   8  -6 15913.6 1604.73  30
  -2   8   6 14371.2 1566.18  23
   2   8  -6 13641.5 1458.55  40
   2  -8  -6 15774.7 1755.73  12
  -2   8   6 13239.4 1438.22  38
  -2   8   6 15969.5 1612.50  22
   2   8  -6 15281.1 1600.48  57
   2  -8  -6 15097.9 1716.92  36
  -2  -8   6 18787.6 1729.50  25
  -2  -8   6 16663.9 1692.41  21
  -2  -8   6 15769.1 1618.72  59
  -2   8   6 13656.5 1601.11  10
  -2   8   6 16730.2 1622.86  56
  -2  -8   5 54434.1 3060.69  54
   2   8  -5 54514.0 3040.21  53
  -2   8   5 46862.6 2752.05  52
   2   8  -5 56614.4 3090.63  28
   2   8  -5 46376.1 2804.09  52
   2   8  -5 53418.9 2944.76  30
  -2  -8   5 52379.7 2991.37  15
  -2   8   5 57080.8 3057.31  29
   2   8  -5 53690.9 3251.54  14
  -2   8   5 50102.8 2992.24  23
  -2  -8   5 58159.6 3112.76  25
   2  -8  -5 45244.1 2907.61  43
  -2  -8   5 58219.7 3162.81  44
   2   8  -5 46249.1 2737.97  40
   2  -8  -5 50574.4 3170.21  12
  -2   8   5 43454.2 2642.06  38
  -2   8   5 50370.5 2943.38  22
   2  -8  -5 52125.6 3228.15  36
  -2  -8   5 54658.5 3058.31  21
  -2  -8   5 56164.0 3044.09  59
  -2   8   5 46814.5 3003.38  10
   2   8  -5 49581.8 2937.26  57
  -2   8   5 54854.5 3000.15  56
   2   8  -4 26749.0 2047.60  53
  -2  -8   4 30196.6 2200.32  25
   2   8  -4 30287.9 2191.47  28
  -2   8   4 23743.1 1883.60  52
   2   8  -4 23651.9 1902.71  52
  -2   8   4 27146.9 2068.19  56
   2   8  -4 28480.6 2341.37  14
  -2  -8   4 30020.7 2236.33  44
   2  -8  -4 25887.7 2168.67  43
   2   8  -4 30083.9 2178.99  57
  -2   8   4 24876.7 2066.84  23
   2   8  -4 25259.7 1949.50  40
  -2  -8   4 28509.5 2158.14  54
  -2   8   4 22772.6 1835.61  38
  -2   8   4 26878.1 2081.30  22
   2  -8  -4 26519.4 2243.92  36
   2   8  -4 26539.7 1993.71  30
  -2   8   4 24685.3 2095.18  10
  -2  -8   4 26534.4 2082.32  59
  -2   8   4 29899.0 2152.61  29
  -2   8   3 100217. 4136.80  53
   2   8  -3 98831.1 4035.87  53
   2   8  -3 110650. 4275.18  28
  -2   8   3 96151.8 3890.70  52
   2  -8  -3 90228.7 4278.25  26
   2   8  -3 111728. 4709.64  14
  -2  -8   3 109058. 4364.18  44
  -2  -8   3 108185. 4263.14  25
   2  -8  -3 104936. 4498.21  43
  -2   8   3 99720.4 4269.13  23
   2   8  -3 101891. 4013.79  40
  -2   8   3 86364.2 3683.96  38
  -2   8   3 87314.9 3887.78  22
   2  -8  -3 102845. 4503.17  36
  -2   8   3 106216. 4199.21  29
  -2   8   3 104475. 4156.49  56
  -2   8   3 84922.4 3976.78  10
  -2  -8   3 106897. 4262.11  59
   2   8  -3 112626. 4283.46  57
  -2  -8   3 106787. 4245.22  54
   2   8  -3 104005. 4082.60  30
  -2  -8   2 21153.4 1800.63  54
  -2   8   2 15196.8 1385.33  16
  -2   8   2 18580.9 1657.56  53
   2   8  -2 17152.1 1464.61  31
   2   8  -2 18844.6 1568.21  16
   2  -8  -2 15118.0 1398.25  49
   2   8  -2 20648.2 1670.26  30
   2  -8  -2 15925.8 1530.97  32
   2  -8  -2 18854.1 1834.40  26
  -2  -8   2 17537.1 1523.27  46
   2   8  -2 22740.7 1979.98  14
   2  -8  -2 19135.0 1827.18  43
   2   8  -2 20686.2 1665.36  40
  -2   8   2 20496.4 1819.15  23
   2  -8  -2 16995.9 1569.49   2
   2  -8  -2 19717.6 1852.55  36
  -2  -8   2 19289.5 1681.04  34
  -2  -8   2 18871.4 1608.26  20
  -2   8   2 20106.3 1714.74  56
  -2   8   2 15793.8 1507.31  18
   2   8  -2 19419.6 1669.17  57
   2   8  -2 22658.9 1826.95  28
  -2   8   2 19202.6 1673.63  29
  -2   8   1 46816.5 2450.29  16
   2   8  -1 58536.0 2751.46  16
  -2  -8   1 61691.8 2911.50  46
   2  -8  -1 45188.3 2633.86  33
   2  -8  -1 53098.2 2781.76   2
  -2  -8   1 54330.8 2832.66  34
  -2  -8   1 61608.2 2938.89  20
   2  -8  -1 48479.4 2699.08  32
   2   8  -1 59008.8 2775.06  31
  -2   8   1 48876.7 2696.72  18
   2   8   0 17178.0 1425.60  16
  -2  -8   0 15484.4 1360.89  32
  -2  -8   0 16128.9 1460.52  46
   2   8   0 17550.1 1484.76  31
   2  -8   0 14730.4 1395.15   2
  -2  -8   0 15321.0 1458.76  34
  -2  -8   0 16781.7 1461.20  20
   2  -8   0 15170.7 1499.84  33
  -2   8   0 14398.8 1434.83  18
   2   8   1 23432.3 1674.66  16
  -2   8  -1 24126.4 1887.97  48
  -2  -8  -1 24182.2 1812.49  46
   2   8   1 24257.2 1817.40  40
  -2   8  -1 25571.7 2045.52  23
  -2  -8  -1 23979.0 1781.14  32
  -2  -8  -1 22173.0 1762.67  34
   2  -8   1 21851.4 1874.73  33
  -2   8  -1 21746.3 1829.01  29
  -2   8  -1 21682.6 1815.53  18
  -2  -8  -1 27986.6 2001.72   2
   2   8   2 27670.2 2002.25  28
   2   8   2 29109.9 2436.28   9
   2  -8   2 25161.1 2204.12  26
  -2  -8  -2 21610.6 1720.90  46
   2   8   2 20840.6 1589.75   5
   2  -8   2 18478.3 1825.32  25
   2   8   2 24955.2 2014.65  14
   2  -8   2 22419.6 1879.36   8
   2   8   2 23563.1 1768.13  24
   2  -8   2 24630.6 2125.55  43
   2   8   2 26694.1 1937.52  40
  -2   8  -2 24014.7 2024.70  23
   2  -8   2 26980.7 2301.36  39
  -2   8  -2 21460.3 1813.38  38
   2  -8   2 24723.5 2189.96  21
   2  -8   2 18695.5 1838.00  59
  -2   8  -2 21159.8 1881.39  18
   2  -8   3 29712.0 2422.65  54
   2  -8   3 26134.3 2225.99  25
   2   8   3 35369.5 2304.36  28
   2  -8   3 33979.5 2601.05  26
   2  -8   3 29181.0 2332.86  43
   2   8   3 34373.5 2204.97  24
   2  -8   3 31129.6 2340.37   8
   2   8   3 34277.1 2269.92  42
   2   8   3 32425.1 2179.31  40
  -2   8  -3 35178.2 2513.90  23
   2  -8   3 33017.6 2618.81  39
  -2   8  -3 29850.9 2228.58  38
   2  -8   3 32835.6 2611.31  21
   2  -8   3 27740.1 2315.69  59
   2   8   3 37959.9 2793.87   9
   2  -8   4 21000.9 2088.67  54
   2   8   4 21568.5 1838.78  28
   2   8   4 19707.3 1729.13  51
   2   8   4 28465.3 2181.49  10
   2   8   4 21096.3 2124.12   9
   2  -8   4 19136.3 1935.77  26
   2  -8   4 18476.4 1887.58  25
   2   8   4 22150.6 1810.62  24
   2  -8   4 19876.6 1876.64   8
   2   8   4 24919.0 1918.78  42
   2   8   4 19913.9 1721.93  40
  -2   8  -4 22149.2 1989.23  23
   2  -8   4 25692.4 2339.57  39
  -2   8  -4 22063.6 1965.13  38
   2  -8   4 20835.3 2124.63  21
   2  -8   4 20459.9 2038.73  59
   2  -8   5 34079.4 2717.72  54
   2   8   5 30835.3 2222.94  28
   2   8   5 34377.9 2680.29   9
   2   8   5 33084.1 2299.34  51
   2  -8   5 28010.9 2370.41  25
   2   8   5 35321.0 2356.42  24
   2   8   5 35815.4 2343.37  42
   2  -8   5 32622.1 2426.60   8
  -2   8  -5 30759.2 2367.25  23
   2  -8   5 35885.9 2813.91  39
  -2   8  -5 34515.9 2530.01  38
   2  -8   5 31899.4 2644.96  21
   2  -8   5 27324.7 2410.15  59
   2  -8   6 11759.4 1554.76  54
   2   8   6 13694.1 1703.01   9
   2   8   6 13936.9 1488.22  51
   2  -8   6 10087.8 1419.45  25
   2   8   6 13737.2 1430.31  24
   2   8   6 14607.1 1443.40  42
   2  -8   6 13831.2 1568.20   8
   2  -8   6 13858.1 1688.53  39
  -2   8  -6 15226.0 1648.30  38
   2  -8   6 12613.0 1623.79  21
   2  -8   6 10432.2 1416.30  59
   2  -8   7 20666.1 2014.16  54
   2   8   7 22245.4 1826.38  51
   2   8   7 21204.2 1746.25  24
   2   8   7 21629.9 1726.64  42
   2  -8   7 22162.6 1953.99   8
   2  -8   7 21502.1 1997.79  39
  -2   8  -7 24643.6 2052.06  38
   2  -8   7 19385.3 1897.76  21
   2  -8   7 17882.3 1845.26  59
   2  -8   8 3700.34 812.345  54
   2   8   8 4654.84 769.480  51
   2   8   8 4263.39 715.763  24
   2  -8   8 5653.80 890.264   8
  -2   8  -8 4429.13 825.473  38
   2   8   8 5041.39 775.896  42
   2  -8   8 3399.30 771.065  59
   2  -8   8 4253.28 861.548  11
   2  -8   9 16513.1 1495.00  54
   2   8   9 18865.7 1428.52  51
   2   8   9 16483.0 1311.50  24
   2  -8   9 18860.6 1502.28   8
   2   8   9 17030.3 1286.42  42
  -2   8  -9 19771.3 1536.84  38
   2  -8   9 17521.5 1582.43  11
   2   8  10 2458.77 410.950  42
   2  -8  10 2443.92 434.752   8
  -2   8 -10 2707.78 464.845  38
   2   8  10 1951.57 369.704  51
   2  -8  10 2804.73 526.459  11
  -2  10   9 1790.66 383.565  29
  -2 -10   9 1626.63 417.829  54
   2  10  -9 1639.56 370.917  53
   2  10  -9 1682.36 413.466  28
   2  10  -9 1400.96 331.484  52
  -2 -10   9 1887.80 420.110  25
   2  10  -9 1612.18 384.999  23
   2 -10  -9 1483.03 402.065  57
   2 -10  -9 2151.54 457.727  37
  -2 -10   9 1826.02 420.612  59
  -2  10   9 1376.50 334.998   7
  -2 -10   9 2245.83 525.045  58
   2  10  -9 1095.28 282.465  30
  -2 -10   9 1712.77 396.734  44
  -2 -10   8 20526.5 1617.93  54
   2  10  -8 16368.6 1341.55  52
  -2 -10   8 16572.0 1417.58  15
  -2  10   8 14687.5 1152.62  51
  -2 -10   8 19775.2 1564.97  44
  -2 -10   8 19917.3 1560.25  25
   2  10  -8 18157.7 1443.06  53
   2  10  -8 19404.0 1575.19  23
   2 -10  -8 19247.6 1554.71  12
   2 -10  -8 18233.9 1566.56  37
   2  10  -8 17062.1 1377.10  28
  -2 -10   8 19803.6 1584.01  59
  -2 -10   8 19992.6 1781.53  58
   2  10  -8 17423.3 1358.54  30
  -2  10   8 16911.3 1343.29  29
   2  10  -7 5495.55 862.734  53
   2  10  -7 5094.20 803.502  28
  -2  10   7 4181.49 690.233  51
  -2 -10   7 4618.35 813.762  15
  -2 -10   7 5770.36 900.963  25
  -2 -10   7 4871.36 829.400  44
  -2  10   7 3945.53 677.451  38
  -2 -10   7 6506.84 986.286  54
   2 -10  -7 5652.42 928.072  37
   2  10  -7 5594.91 823.860  30
   2 -10  -7 5086.40 898.693  12
  -2 -10   7 4840.24 831.564  21
  -2 -10   7 5862.36 895.719  59
  -2 -10   7 6004.67 1026.91  58
   2  10  -7 4973.30 790.711  52
  -2  10   7 6174.73 867.076  29
  -2  10   7 4341.61 825.464  10
  -2 -10   6 24412.1 1975.95  54
   2  10  -6 23554.6 1865.41  53
  -2  10   6 18691.3 1650.99  23
   2  10  -6 20248.0 1706.68  52
   2  10  -6 23590.4 1832.24  28
  -2 -10   6 26392.5 2057.13  44
  -2 -10   6 26972.3 2035.00  25
   2  10  -6 21750.7 1756.09  30
   2 -10  -6 23454.0 2043.60  12
  -2  10   6 18630.1 1571.76  38
   2 -10  -6 22140.8 1938.50  37
   2 -10  -6 23581.0 2025.33  36
  -2 -10   6 27716.6 2107.07  21
  -2  10   6 20300.2 1641.00  56
  -2 -10   6 19431.5 1720.99  15
  -2 -10   6 25784.0 1999.51  59
  -2  10   6 18017.6 1730.15  10
  -2  10   6 25210.4 1887.60  29
   2  10  -5 5139.00 868.189  28
  -2  10   5 4087.58 767.820  29
  -2 -10   5 3887.78 798.999  54
   2  10  -5 4015.82 778.763  53
   2  10  -5 3661.50 756.380  52
  -2 -10   5 3535.83 783.828  44
   2  10  -5 4145.07 855.700  14
   2 -10  -5 4592.83 890.807  43
   2  10  -5 2808.67 616.082  40
  -2  10   5 3167.10 740.671  10
  -2  10   5 2830.68 684.504  23
  -2 -10   5 4203.25 779.755  39
  -2  10   5 3189.32 674.962  38
   2  10  -5 4278.32 788.607  30
   2 -10  -5 3240.35 803.733  12
   2 -10  -5 4240.78 895.319  36
  -2 -10   5 4612.38 881.812  21
  -2  10   5 4055.44 759.404  52
  -2 -10   5 4734.38 899.123  59
  -2 -10   5 4078.30 811.689  25
   2  10  -5 3830.53 750.147  57
  -2  10   5 2681.24 634.188  56
   2 -10  -5 3101.82 753.854  37
  -2  10   4 4608.24 912.296  10
  -2 -10   4 4806.75 912.433  54
   2  10  -4 5662.01 939.402  53
  -2  10   4 4869.36 870.093  52
   2  10  -4 4462.67 856.839  57
   2  10  -4 3974.61 761.540  52
  -2 -10   4 5884.59 1019.53  44
   2  10  -4 5062.26 993.242  14
   2 -10  -4 5057.78 997.287  43
   2  10  -4 4516.15 796.901  40
   2  10  -4 5237.36 874.846  30
  -2  10   4 4407.72 876.354  23
  -2 -10   4 4792.13 906.683  39
  -2  10   4 4554.04 823.160  38
   2 -10  -4 6594.56 1087.29  37
  -2 -10   4 5979.88 1013.67  25
  -2 -10   4 7386.31 1102.46  21
   2 -10  -4 4764.88 995.914  36
  -2 -10   4 5281.22 921.218  59
   2  10  -4 6154.33 966.829  28
  -2  10   4 4646.48 828.300  56
  -2  10   4 6150.80 1006.95  29
  -2 -10   3 1629.15 539.659  25
  -2  10   3 1123.43 444.479  10
  -2  10   3 2139.43 614.483  29
  -2 -10   3 2462.43 626.810  54
  -2  10   3 1794.30 547.309  53
   2  10  -3 1741.56 537.387  53
   2  10  -3 1956.48 543.309  28
  -2  10   3 2056.76 565.698  52
   2  10  -3 1592.36 448.660  52
   2 -10  -3 1693.79 607.046  26
  -2 -10   3 1511.04 497.326  44
   2  10  -3 2428.54 686.900  14
   2 -10  -3 1506.03 527.093  43
   2  10  -3 2060.07 519.106  40
  -2  10   3 1660.46 531.477  23
  -2 -10   3 1864.55 560.661  39
   2 -10  -3 1803.10 606.344  37
   2  10  -3 1433.63 486.142  23
  -2  10   3 1192.39 474.217  38
   2 -10  -3 1301.57 503.570  36
  -2 -10   3 1748.90 556.768  21
   2  10  -3 2041.34 566.544  30
  -2 -10   3 1639.39 530.019  59
   2  10  -3 1655.09 502.250  57
  -2  10   3 941.602 396.097  56
  -2 -10   2 12400.6 1488.43  54
  -2  10   2 11672.0 1386.25  53
   2  10  -2 10497.5 1255.95  53
   2  10  -2 12885.3 1402.03  28
  -2  10   2 9783.01 1217.01  52
   2 -10  -2 11363.3 1539.56  26
   2  10  -2 12982.6 1591.48  14
   2 -10  -2 12615.7 1551.11  43
   2  10  -2 10116.8 1215.99  40
  -2  10   2 10534.9 1384.56  23
  -2  10   2 11190.9 1309.10  38
   2 -10  -2 9985.45 1337.48  37
   2 -10  -2 11621.5 1499.56  36
  -2 -10   2 13637.7 1570.21  21
  -2 -10   2 11486.0 1382.81  59
   2  10  -2 12372.3 1361.19  30
  -2  10   2 12073.5 1389.88  56
  -2  10   2 12324.3 1401.01  29
  -2  10   1 5488.38 938.402  53
   2  10  -1 6176.38 966.413  53
   2  10  -1 6074.31 959.926  28
  -2  10   1 5381.90 919.705  52
   2 -10  -1 7053.37 1203.16  26
   2  10  -1 7376.17 1187.30  14
   2 -10  -1 6438.85 1109.46  43
   2  10  -1 5446.06 885.603  40
  -2  10   1 5520.45 1001.46  23
   2 -10  -1 4785.01 915.384  39
  -2  10   1 5312.42 892.660  38
   2  10  -1 5882.89 937.127  30
  -2 -10   1 6054.18 1020.03  54
  -2 -10   1 7616.03 1181.16  21
   2 -10  -1 6127.24 1094.89  36
   2 -10  -1 4219.88 903.099  21
  -2  10   1 5070.10 923.863  56
  -2  10   1 6277.76 986.415  29
  -2  10   0 60039.4 3198.23  53
   2  10   0 65776.0 3263.67  28
  -2  10   0 59345.1 3070.82  52
  -2  10   0 60210.1 3234.15  56
   2 -10   0 61096.3 3607.55  26
  -2 -10   0 53709.4 3066.90  54
   2  10   0 60276.0 3480.65  14
   2 -10   0 55866.7 3388.61  43
   2  10   0 58862.7 3041.24  40
  -2  10   0 58968.8 3321.98  23
   2 -10   0 55120.5 3433.22  39
  -2  10   0 59661.6 3084.96  38
   2 -10   0 50891.7 3355.52  21
   2 -10   0 60270.3 3493.52  36
  -2 -10   0 67679.7 3583.59  21
   2  10   0 59909.2 3063.29  30
  -2  10   0 62779.2 3245.02  29
  -2  10  -1 10391.7 1288.87  53
   2  10   1 11097.9 1293.72  28
  -2  10  -1 9182.88 1198.00  52
   2 -10   1 12141.6 1572.53  26
   2  10   1 10643.3 1409.78  14
   2 -10   1 9876.17 1399.02  43
   2  10   1 11310.1 1293.12  40
  -2  10  -1 12242.2 1495.94  23
   2 -10   1 11386.6 1525.77  39
  -2  10  -1 10460.8 1274.10  38
   2 -10   1 10088.2 1478.50  21
   2 -10   1 11172.0 1446.33  36
   2  10   1 10989.7 1255.51  30
  -2  10  -1 10089.5 1298.70  29
  -2  10  -2 40979.1 2572.66  53
   2  10   2 46404.7 2728.09  28
  -2  10  -2 45948.5 2990.74  23
  -2  10  -2 39829.0 2476.28  52
   2 -10   2 43039.4 3016.94  26
   2  10   2 40240.3 2768.51  14
   2 -10   2 40176.1 2825.53  43
   2 -10   2 36789.6 2538.39   8
   2  10   2 44594.0 2637.10  42
   2  10   2 45278.7 2631.49  40
   2 -10   2 41155.4 2991.28  39
  -2  10  -2 45787.0 2736.77  38
  -2  10  -2 45358.6 2791.90  29
   2 -10   2 40440.1 2958.80  21
   2  10   2 40895.9 2449.50  30
   2  10   3 5952.29 953.839  28
   2 -10   3 4076.73 865.567  54
  -2  10  -3 7110.66 1097.02  29
   2  10   3 6556.96 1114.61  10
   2 -10   3 5732.86 1074.39  26
   2  10   3 4120.68 822.231  14
   2 -10   3 5938.86 1020.45  43
   2  10   3 6305.90 958.948  42
   2  10   3 6094.25 933.022  40
  -2  10  -3 7002.32 1144.23  23
   2 -10   3 5800.43 984.459   8
   2 -10   3 4841.69 1004.13  39
  -2  10  -3 6743.60 1032.59  38
   2 -10   3 6201.01 1152.65  21
   2 -10   3 4995.69 993.780  59
  -2  10  -4 14678.6 1579.14  29
   2 -10   4 12176.8 1504.09  54
   2  10   4 15267.4 1523.04  28
   2 -10   4 14386.4 1652.58  26
   2  10   4 15640.7 1473.07  24
   2 -10   4 16357.2 1654.81   8
   2  10   4 16514.2 1535.34  42
  -2  10  -4 17868.5 1800.71  23
   2 -10   4 14564.6 1740.54  39
  -2  10  -4 15934.2 1591.02  38
   2 -10   4 14919.4 1744.59  21
   2 -10   4 13603.2 1594.25  59
   2  10   4 18167.9 1768.15  10
   2 -10   5 2308.82 631.532  54
   2  10   5 4174.68 815.094  10
   2  10   5 4426.34 806.714  28
   2  10   5 3467.45 694.709  51
   2  10   5 3532.50 674.870  24
   2  10   5 3058.52 630.590  42
   2 -10   5 3576.36 758.633   8
  -2  10  -5 4277.04 849.551  23
   2 -10   5 4513.10 935.441  39
  -2  10  -5 3832.04 772.875  38
   2 -10   5 3289.15 804.353  21
   2 -10   5 2937.70 716.757  59
   2 -10   6 15456.9 1611.87  54
   2  10   6 15937.6 1428.77  51
   2  10   6 16675.7 1426.14  24
   2 -10   6 16628.6 1544.21   8
  -2  10  -6 18804.2 1661.64  23
   2 -10   6 16467.5 1683.51  39
  -2  10  -6 17565.7 1581.83  38
   2  10   6 16865.8 1518.36  10
   2 -10   6 16802.3 1703.24  21
   2 -10   6 14814.5 1568.91  11
   2 -10   6 12935.5 1459.58  59
   2  10   6 15685.6 1364.81  42
   2 -10   7 2731.46 637.671  54
   2  10   7 2648.35 537.049  51
   2  10   7 2600.20 522.819  24
   2  10   7 1917.27 430.813  42
   2 -10   7 2029.68 516.108   8
   2 -10   7 2347.74 553.199  39
  -2  10  -7 2167.82 511.579  38
   2 -10   7 1745.42 500.596  21
   2 -10   7 1229.54 366.485  59
   2 -10   7 2374.87 588.156  11
   2  10   8 8685.40 867.679  51
   2  10   8 8740.44 860.982  24
   2 -10   8 9658.08 969.996   8
   2  10   8 8272.01 796.443  42
  -2  10  -8 8714.18 906.573  38
   2 -10   8 9296.80 1019.29  11
   2 -10   8 7272.68 888.315  54
   2 -10   9 485.664 194.239  54
  -2  10  -9 582.738 227.541  29
   2  10   9 801.325 215.776  51
   2 -10   9 809.659 240.636   8
   2 -10   9 651.743 226.939  11
  -2 -12   7 5742.34 743.320  54
   2  12  -7 4391.40 597.835  53
   2  12  -7 5133.89 622.790  28
   2  12  -7 3815.47 504.232  52
  -2  12   7 4195.55 526.583  51
  -2 -12   7 4405.00 646.137  44
  -2 -12   7 5659.66 725.184  25
   2  12  -7 4898.68 658.621  23
   2 -12  -7 5245.09 697.614  12
   2 -12  -7 7884.52 872.518  37
  -2 -12   7 4966.25 663.200  21
  -2 -12   7 5073.70 695.995  59
  -2 -12   7 4441.45 713.898  58
   2  12  -7 4458.61 577.493  30
  -2  12   7 4344.39 562.862  29
  -2  12   6 1537.50 368.264  29
  -2 -12   6 1136.68 371.758  54
   2  12  -6 1071.44 340.797  53
   2  12  -6 1155.40 335.778  28
   2  12  -6 724.028 260.865  52
  -2  12   6 1027.91 297.848  51
  -2 -12   6 1217.80 364.925  44
  -2 -12   6 1414.31 398.405  25
   2 -12  -6 730.585 279.064  43
   2  12  -6 804.525 279.846  23
  -2  12   6 861.781 286.602  38
   2 -12  -6 838.989 329.289  37
   2 -12  -6 1614.32 461.293  12
   2 -12  -6 1295.37 407.368  36
  -2 -12   6 1136.33 362.518  21
  -2 -12   6 1277.59 360.683  59
   2  12  -6 1305.46 362.688  30
  -2 -12   6 1695.98 485.944  58
  -2  12   6 1007.24 363.009  10
  -2 -12   5 21054.4 1672.47  54
   2 -12  -5 18557.7 1574.14  43
   2  12  -5 20327.6 1512.95  53
   2  12  -5 19001.3 1438.80  28
  -2  12   5 16515.7 1303.32  52
   2  12  -5 17258.6 1329.68  52
  -2 -12   5 19481.5 1510.84  26
   2  12  -5 15468.8 1414.89  14
  -2 -12   5 19746.9 1618.75  44
  -2 -12   5 21355.2 1667.98  25
   2  12  -5 20638.7 1516.45  30
   2  12  -5 18379.5 1491.12  23
  -2 -12   5 20084.3 1558.36  39
   2 -12  -5 20664.2 1704.66  12
  -2  12   5 16471.4 1297.37  38
   2 -12  -5 18492.7 1586.14  37
   2 -12  -5 19269.5 1664.64  36
  -2 -12   5 21813.9 1723.62  21
  -2 -12   5 21373.0 1679.32  59
  -2  12   5 15802.9 1410.41  10
  -2  12   5 21204.2 1527.90  29
  -2  12   4 3619.55 657.625  29
   2  12  -4 3578.91 650.863  53
   2  12  -4 3640.60 639.037  28
  -2  12   4 3022.40 599.058  52
   2  12  -4 3285.77 600.809  52
  -2 -12   4 3459.11 696.964  54
  -2 -12   4 3764.40 707.009  26
  -2 -12   4 3016.19 653.431  44
   2  12  -4 2891.69 652.904  14
  -2 -12   4 3929.51 723.773  25
  -2  12   4 2507.07 564.817  23
   2  12  -4 2852.05 589.484  23
  -2 -12   4 2745.14 611.137  39
  -2  12   4 2882.88 570.394  38
   2 -12  -4 3429.69 710.345  43
   2 -12  -4 3398.93 720.447  37
   2 -12  -4 3596.14 742.954  12
   2 -12  -4 2752.34 663.035  36
  -2 -12   4 3961.88 766.736  21
  -2 -12   4 3598.84 718.266  59
   2  12  -4 3707.60 664.765  30
  -2  12   4 2307.15 558.939  10
  -2 -12   3 45080.5 2589.61  54
   2  12  -3 40514.1 2299.40  53
   2  12  -3 39522.9 2254.52  28
  -2  12   3 38158.7 2195.50  52
   2  12  -3 37427.2 2129.55  52
  -2  12   3 29976.6 2089.67  10
   2 -12  -3 34177.8 2406.37  26
   2  12  -3 38162.3 2517.60  14
   2 -12  -3 40880.2 2596.65  43
  -2  12   3 41242.6 2361.47  29
  -2  12   3 35735.8 2278.59  23
  -2 -12   3 45407.3 2615.63  39
   2 -12  -3 40425.2 2578.05  12
  -2  12   3 39286.3 2228.60  38
   2 -12  -3 33498.4 2262.95  37
   2 -12  -3 40493.0 2601.05  36
  -2 -12   3 49638.6 2847.77  21
  -2 -12   3 40783.3 2448.57  59
   2  12  -3 38683.1 2253.78  30
  -2  12   3 33863.8 2055.07  56
  -2  12   2 7060.63 982.342  53
   2  12  -2 7127.92 951.711  53
   2  12  -2 7461.37 959.262  28
  -2  12   2 6428.11 890.029  52
   2  12  -2 6622.85 887.260  52
  -2  12   2 6142.00 868.011  56
  -2  12   2 6806.88 966.847  29
   2 -12  -2 5682.34 988.698  26
   2 -12  -2 6746.86 1059.51  43
   2  12  -2 6163.63 841.803  40
  -2  12   2 7069.44 1009.62  23
  -2 -12   2 8421.13 1132.36  39
  -2 -12   2 7615.24 1082.17  54
  -2  12   2 6668.15 905.056  38
   2 -12  -2 7360.24 1093.72  36
  -2 -12   2 8792.78 1192.94  21
   2  12  -2 7250.48 969.007  30
   2  12  -2 6761.61 1061.71  14
  -2 -12   1 22348.7 1818.21  54
  -2  12   1 20025.8 1711.34  53
   2  12  -1 22860.5 1706.25  53
   2  12  -1 24803.6 1805.10  28
  -2  12   1 21064.9 1650.79  52
   2 -12  -1 18501.9 1840.95  26
   2 -12  -1 20765.0 1894.01  43
  -2  12   1 20740.8 1669.87  56
   2  12  -1 21041.1 1607.34  40
  -2  12   1 23590.2 1919.88  23
   2 -12  -1 20623.0 1851.25  39
  -2 -12   1 25975.3 2021.86  39
  -2  12   1 24119.9 1756.25  38
   2 -12  -1 24153.2 2028.58  36
  -2 -12   1 26800.5 2118.62  21
   2  12  -1 25296.7 1821.20  30
   2  12  -1 22055.6 1942.43  14
  -2  12   1 24905.2 1854.09  29
  -2  12   0 3059.61 638.069  29
  -2  12   0 2934.01 662.912  53
   2  12   0 3950.04 716.925  28
  -2  12   0 2371.74 554.769  52
   2  12   0 3653.60 686.540  30
   2 -12   0 3461.93 781.168  26
   2  12   0 4010.57 806.476  14
   2 -12   0 2497.49 624.950  43
   2  12   0 3425.27 655.040  42
   2  12   0 2876.78 583.312  40
  -2  12   0 3277.69 712.805  23
   2 -12   0 2310.80 620.317  39
  -2 -12   0 4110.38 817.785  39
  -2  12   0 2938.93 628.853  38
   2 -12   0 2906.82 708.897  36
   2 -12   0 2470.59 704.480  21
  -2 -12   0 3936.74 803.258  21
  -2  12   0 3510.84 690.406  56
  -2  12  -1 10821.9 1243.96  53
   2  12   1 13357.9 1317.21  28
  -2  12  -1 11628.1 1209.50  52
   2 -12   1 13332.8 1529.82  26
   2  12   1 10728.9 1307.78  14
   2 -12   1 9409.57 1245.27  43
   2  12   1 12503.4 1233.73  42
   2  12   1 11003.5 1175.38  40
  -2  12  -1 12221.8 1408.26  23
   2 -12   1 10051.0 1330.83  39
  -2 -12  -1 15803.9 1576.76  39
  -2  12  -1 12048.8 1246.55  38
   2 -12   1 8572.36 1247.56  21
   2 -12   1 11721.9 1355.69  36
  -2  12  -1 11329.9 1277.86  56
   2  12   1 17562.4 1661.49  10
  -2  12  -1 12020.3 1280.25  29
   2  12   2 1034.95 379.892  10
  -2  12  -2 1222.97 402.742  53
   2  12   2 707.754 307.378  28
  -2  12  -2 605.253 262.814  52
   2  12   2 641.051 285.191  14
   2 -12   2 1080.92 413.587  26
   2 -12   2 871.719 413.354  43
   2  12   2 594.433 249.973  42
  -2  12  -2 497.016 260.664  29
  -2  12  -2 1063.23 420.298  23
   2 -12   2 719.925 392.554  39
  -2 -12  -2 720.221 269.696  39
  -2  12  -2 762.367 327.486  38
   2 -12   2 674.057 363.983  21
  -2  12  -2 480.540 324.944  56
   2  12   3 19231.1 1532.20  28
  -2  12  -3 17561.4 1449.20  53
  -2  12  -3 16997.6 1398.87  52
   2 -12   3 17594.4 1671.48  26
  -2 -12  -3 23830.0 1889.92  26
   2  12   3 17407.2 1370.84  42
  -2  12  -3 19927.5 1741.19  23
   2 -12   3 17231.7 1685.50  39
  -2 -12  -3 20917.0 1751.97  39
  -2  12  -3 17732.2 1493.64  38
  -2  12  -3 18432.1 1599.47  56
   2 -12   3 15369.3 1597.45  21
   2  12   3 20801.1 1715.71  10
  -2  12  -3 17595.7 1530.62  29
  -2  12  -4 848.826 331.483  29
   2  12   4 534.230 270.796  10
   2  12   4 570.447 264.242  28
   2 -12   4 932.930 380.623  26
   2  12   4 550.760 232.770  42
   2 -12   4 800.346 326.228   8
  -2  12  -4 1009.03 362.050  23
   2 -12   4 414.004 285.131  39
  -2 -12  -4 321.406 102.672  39
  -2  12  -4 915.632 300.978  38
   2 -12   4 871.233 387.719  21
   2 -12   5 8551.67 973.493  54
   2 -12   5 12103.8 1104.81   8
   2  12   5 11357.8 965.536  42
  -2  12  -5 15330.3 1365.19  23
   2 -12   5 14173.3 1357.74  39
  -2  12  -5 15900.7 1260.27  38
   2 -12   5 13479.3 1334.19  21
   2  12   5 15753.4 1311.51  10
  -2  12  -5 16194.4 1320.22  29
   2  12   6 1099.75 291.581  10
  -2  12  -6 1382.43 359.744  29
   2  12   6 989.412 256.180  42
   2 -12   6 1232.01 318.975   8
  -2  12  -6 2054.71 446.574  23
   2 -12   6 1062.56 328.022  39
  -2  12  -6 1245.86 320.449  38
   2 -12   6 1223.58 339.880  21
   2 -12   6 951.487 299.304  54
   2 -12   7 5570.36 593.115   8
  -2  12  -7 6697.03 694.293  56
   2 -12   7 4431.95 558.398  54
  -2  12  -7 5617.41 610.653  29
   2  14  -4 8233.22 712.709  28
  -2  14   4 7067.15 662.418  51
   2 -14  -4 8817.10 846.130  43
   2 -14  -4 9209.33 862.494  12
   2 -14  -4 8164.43 825.357  36
  -2 -14   4 10604.3 950.898  21
  -2 -14   4 8884.78 933.431  58
  -2  14   3 109.579 81.0971  29
   2  14  -3 159.360 140.446  10
   2  14  -3 105.998 51.5940  53
   2  14  -3 160.958 100.330  28
  -2  14   3 26.3821 89.1063  52
  -2 -14   3 271.493 144.316  26
   2 -14  -3 377.741 194.873  43
  -2  14   3 54.6211 78.9837  23
  -2 -14   3 72.5881 118.230  39
  -2  14   3-39.0647 73.1565  38
   2 -14  -3-33.5587 83.0371  12
   2 -14  -3 230.592 155.710  36
  -2 -14   3-109.797 90.2113  21
   2  14  -2 9077.50 777.035  53
   2  14  -2 11318.7 927.610  28
  -2  14   2 9611.67 827.801  52
   2 -14  -2 9950.03 1010.77  26
  -2 -14   2 14461.1 1216.12  26
   2 -14  -2 11604.3 1090.42  43
  -2  14   2 8738.41 848.746  23
  -2 -14   2 14519.7 1208.82  39
   2 -14  -2 11774.3 1066.53  12
  -2  14   2 10333.1 857.043  38
   2 -14  -2 11709.6 1097.74  36
  -2 -14   2 13523.4 1159.12  21
  -2  14   2 10478.4 885.635  29
   2  14  -2 13122.9 1074.52  10
  -2  14   1 736.333 257.152  29
   2  14  -1 675.511 259.977  10
   2  14  -1 380.428 164.849  28
  -2  14   1 309.205 174.669  52
   2 -14  -1 709.745 284.658  26
  -2 -14   1 863.158 317.674  26
   2 -14  -1 600.379 231.804  43
  -2  14   1 581.457 238.161  23
  -2 -14   1 597.417 240.325  39
  -2  14   1 141.045 83.4342  38
   2 -14  -1 456.150 203.742  12
   2 -14  -1 579.532 225.728  36
  -2 -14   1 680.168 252.113  21
   2  14   0 13973.9 1048.35  28
  -2  14   0 12347.1 960.726  52
   2 -14   0 12857.1 1204.69  26
   2  14   0 17591.8 1307.51  10
   2 -14   0 13151.0 1152.64  43
  -2 -14   0 15006.2 1149.38  43
  -2  14   0 16047.7 1237.84  23
   2 -14   0 9978.22 977.465  39
  -2 -14   0 18201.2 1382.00  39
  -2 -14   0 20614.7 1493.48  26
   2 -14   0 13141.0 1067.72  12
  -2  14   0 14976.3 1098.11  38
   2 -14   0 13157.7 1115.89  36
  -2  14   0 14283.9 1072.26  29
  -2  14  -1-5.02268 87.3836  29
   2  14   1 14.9208 93.4385  10
   2  14   1-86.5568 105.806  28
  -2  14  -1 83.0511 107.354  52
   2 -14   1-154.142 143.169   6
   2 -14   1 133.044 115.387  26
  -2 -14  -1-116.725 106.586  26
   2 -14   1 122.022 78.3316  43
  -2 -14  -1-7.03683 78.4172  43
  -2  14  -1 84.9880 95.9184  23
   2 -14   1 129.636 142.383  39
  -2 -14  -1 77.5454 160.934  39
  -2  14  -1-167.723 163.510  38
  -2  14  -1 257.616 140.495  56
   2 -14   1-129.228 138.510  21
   2  14   2 13634.6 998.894  28
   2 -14   2 13504.6 1139.69  26
  -2 -14  -2 19337.2 1336.08  43
  -2  14  -2 17050.2 1246.58  23
   2 -14   2 12200.1 1092.24  39
  -2 -14  -2 16581.5 1226.17  39
  -2  14  -2 13593.8 990.915  29
  -2  14  -2 13476.5 973.403  38
   2 -14   2 9545.88 966.466  21
  -2 -14  -2 17512.3 1268.58  26
   2  14   2 17739.8 1235.98  10
  -2  14  -2 13305.3 946.544  56
  -2  14  -3 538.941 186.151  29
   2  14   3 539.300 188.602  10
   2  14   3 596.007 194.199  28
   2 -14   3 345.795 178.939  26
  -2 -14  -3 722.908 264.350  43
  -2  14  -3 281.443 143.012  23
   2 -14   3 302.366 163.186  39
   2 -14   3 214.924 126.726  21
   3   1 -12 2327.63 422.891  28
   3  -1 -12 3960.88 575.719  30
  -3  -1  12 3014.43 501.253  45
  -3   1  12 2649.82 460.968  45
  -3  -1  12 3446.45 537.916  13
  -3   1  12 3155.29 513.593  13
   3   1 -12 3891.53 605.470  40
   3  -1 -12 3275.48 563.122  40
   3   1 -12 2867.65 480.639  30
  -3  -1  12 3776.15 561.404  55
  -3   1  12 2775.38 472.661  55
   3  -1 -11 8645.75 1023.41  27
  -3  -1  11 9997.34 1074.57  45
  -3   1  11 9405.86 1037.83  45
  -3  -1  11 9494.45 1059.46  13
  -3   1  11 11391.9 1166.39  13
   3   1 -11 10360.1 1165.52  40
   3  -1 -11 10904.4 1215.65  40
  -3  -1  11 7477.95 887.904  22
  -3   1  11 8064.36 953.930  22
   3  -1 -11 11298.2 1185.59  30
   3   1 -11 10534.0 1123.10  30
  -3  -1  11 9852.35 1071.18  55
  -3   1  11 9820.76 1060.88  55
   3  -1 -10 9405.02 1210.42  27
  -3  -1  10 9641.95 1155.80  15
   3  -1 -10 11405.5 1303.31  57
  -3  -1  10 11695.0 1286.06  45
  -3   1  10 10238.4 1204.14  45
  -3  -1  10 12140.6 1323.62  13
  -3   1  10 11380.0 1282.27  13
   3   1 -10 11564.1 1344.61  40
  -3  -1  10 9195.84 1112.87  22
  -3   1  10 10061.7 1201.06  22
   3   1 -10 10700.9 1276.24  30
   3   1 -10 9506.55 1177.54  57
   3  -1 -10 10973.9 1279.14  30
  -3  -1  10 10739.3 1244.49  55
  -3   1  10 10302.4 1232.49  55
   3   1  -9 2712.56 652.311  27
   3  -1  -9 3120.38 749.653  27
  -3  -1   9 2854.70 655.908  15
   3  -1  -9 4043.49 850.992  57
  -3  -1   9 3135.68 689.119  45
  -3   1   9 4095.57 798.584  45
  -3  -1   9 3592.26 747.921  55
  -3  -1   9 4217.59 838.406  13
  -3   1   9 3780.39 807.326  13
   3   1  -9 3563.97 792.872  40
  -3  -1   9 3169.26 704.921  22
  -3   1   9 3933.83 820.204  22
   3   1  -9 4545.24 882.159  57
   3  -1  -9 2790.74 669.217  60
  -3   1   9 3390.17 751.780  56
  -3   1   9 3386.49 717.202  55
   3   1  -9 3223.11 712.915  30
   3   1  -8 66752.8 3589.47  27
   3  -1  -8 73831.3 3851.12  27
  -3   1   8 61884.1 3230.46  15
  -3  -1   8 67157.8 3487.79  56
  -3  -1   8 76265.1 3635.71  45
  -3   1   8 75649.6 3639.55  45
  -3  -1   8 69752.5 3581.84  13
   3  -1  -8 76957.1 3854.29  57
   3   1  -8 78306.2 3893.29  40
   3  -1  -8 63561.4 3489.94  12
  -3   1   8 74183.7 3722.04  13
  -3  -1   8 64248.9 3346.15  22
  -3   1   8 74199.7 3670.59  22
   3  -1  -8 63964.6 3536.02  60
  -3  -1   8 67253.2 3411.60  15
   3   1  -8 72246.2 3709.88  57
  -3   1   8 72724.7 3606.23  56
   3   1  -8 73975.4 3667.15  30
  -3  -1   8 80264.4 3668.61  55
  -3   1   8 72658.7 3549.34  55
  -3   1   7 1018.90 418.893  56
   3   1  -7 701.134 200.706  27
   3  -1  -7 801.080 381.743  27
  -3  -1   7 660.908 309.121  15
  -3   1   7 1043.15 381.147  15
  -3  -1   7 800.143 323.783  45
  -3   1   7 736.566 384.355  45
   3  -1  -7 869.430 415.540  60
  -3  -1   7 671.352 339.431  44
   3   1  -7 1023.79 422.637  60
  -3  -1   7 1018.00 341.594  56
  -3  -1   7 725.480 286.641  13
   3   1  -7 370.710 259.899  40
   3   1  -7 629.176 258.115  12
   3  -1  -7 790.932 463.593  57
  -3   1   7 820.149 417.395  22
   3  -1  -7 482.485 324.120  12
   3   1  -7 889.608 412.691  57
  -3  -1   7 563.538 299.609  55
  -3   1   7 915.192 385.997  55
   3  -1  -6 75948.8 3699.04  27
  -3  -1   6 56758.9 2861.85  50
  -3  -1   6 79614.7 3547.08  45
  -3   1   6 75314.5 3461.63  45
  -3   1   6 82803.1 3851.37  23
   3   1  -6 68676.3 3191.16   1
   3  -1  -6 74687.4 3601.91  60
   3  -1  -6 68983.8 3223.74   1
  -3  -1   6 70333.7 3161.77  35
  -3   1   6 67523.5 3101.14  35
   3   1  -6 65055.8 3032.64  61
   3  -1  -6 67866.9 3099.43  61
   3  -1  -6 75730.9 3597.01  57
   3   1  -6 51892.6 2914.36  31
   3  -1  -6 53199.5 3052.34  31
   3   1  -6 76657.0 3581.50  57
  -3   1   6 74843.5 3408.45  55
  -3  -1   6 77440.9 3445.71  55
  -3  -1   6 73244.8 3433.28  15
  -3  -1   5 20966.1 1620.40  50
  -3   1   5 18545.2 1492.25  50
  -3  -1   5 17738.8 1466.72  20
   3   1  -5 20600.1 1587.14   1
   3  -1  -5 19719.8 1492.60  61
   3  -1  -5 21551.0 1624.02   1
  -3  -1   5 21126.3 1567.04  35
  -3   1   5 21584.3 1593.01  35
   3   1  -5 20238.7 1507.91  61
  -3   1   5 14342.4 1299.07  20
   3   1  -5 14767.0 1428.94  31
   3  -1  -5 15647.7 1515.25  31
  -3  -1   4 10171.5 1086.28  50
  -3   1   4 9327.81 1044.23  50
  -3  -1   4 8277.28 897.506  46
   3   1  -4 10237.1 1041.72   1
   3  -1  -4 10524.2 1052.45   1
  -3  -1   4 11049.1 1055.35  35
  -3  -1   4 9142.62 977.405  34
   3   1  -4 9409.02 948.481  61
  -3  -1   4 10579.4 1110.56  20
   3  -1  -4 9641.20 962.881  61
  -3   1   4 8221.79 976.408  20
   3   1  -4 6933.52 916.167  31
   3  -1  -4 7772.21 1013.84  31
  -3  -1   3 92636.5 3403.17  50
  -3  -1   3 77024.3 3007.65  46
   3   1  -3 97181.7 3195.67   1
   3  -1  -3 89808.3 3114.23   1
  -3   1   3 81703.3 3263.54  20
  -3   1   3 83398.6 3255.82  50
  -3  -1   3 83136.5 3205.61  34
   3   1  -3 84972.5 2870.08  61
   3  -1  -3 84694.3 2864.79  61
  -3  -1   3 88536.4 3345.33  20
  -3   1   3 92314.0 3276.78  18
   3   1  -3 78999.9 3159.43  31
   3  -1  -3 70955.7 3083.66  31
  -3  -1   2 32810.9 1904.26  50
  -3   1   2 29531.4 1831.54  50
  -3  -1   2 30227.8 1798.20  46
   3  -1  -2 32770.2 1673.60   1
  -3   1   2 29535.1 1873.85  20
  -3  -1   2 33355.1 1969.80  34
  -3   1   2 26987.0 1713.75  34
   3   1  -2 29605.8 1484.93  61
   3  -1  -2 29327.6 1460.95  61
  -3  -1   2 31495.6 1902.90  20
  -3  -1   2 32691.3 1665.09  18
  -3   1   2 35053.4 1886.45  18
   3   1  -2 29624.9 1758.39  31
   3  -1  -2 28479.8 1796.38  31
  -3  -1   1 40870.5 2131.33  50
  -3   1   1 38047.5 2058.41  50
   3  -1  -1 37966.6 1688.18   1
   3   1  -1 39762.8 2029.91   5
  -3  -1   1 39280.0 2196.98  34
  -3   1   1 34973.2 2041.29  34
  -3  -1   1 40824.6 2155.78  20
  -3  -1   1 39845.4 1829.89  18
   3   1  -1 34648.9 1873.63  31
  -3   1   1 39908.1 2029.91  18
   3  -1  -1 33984.0 1916.62  31
  -3  -1   0 112709. 3690.24  50
  -3   1   0 104670. 3673.01  50
   3   1   0 111736. 3549.15   5
   3  -1   0 109044. 3565.20   5
  -3   1   0 109755. 3666.68  18
  -3  -1   0 105108. 3912.03  34
  -3   1   0 100190. 3788.28  34
  -3  -1   0 105151. 3674.81  20
   3   1   0 108815. 3446.32  31
   3  -1   0 97009.6 3355.41  31
  -3  -1   0 107583. 3360.11  18
  -3  -1  -1 16191.6 1302.10  50
  -3   1  -1 13883.4 1242.67  50
   3   1   1 18203.7 1297.65   5
   3  -1   1 15833.5 1215.18   5
  -3  -1  -1 15384.0 1289.88  20
  -3  -1  -1 16070.3 1486.62  34
   3  -1   1 17102.1 1275.36  33
   3   1   1 14934.0 1142.40  31
   3  -1   1 14279.6 1133.60  31
  -3   1  -1 15959.9 1354.86  18
  -3   1  -2 54587.9 2584.42  50
  -3  -1  -2 55710.6 2588.21  20
   3   1   2 67566.5 2642.31   5
   3  -1   2 61739.8 2459.75   5
  -3  -1  -2 54411.0 2928.51  34
   3  -1   2 62428.0 2589.87  33
  -3   1  -2 67349.1 3001.83  18
   3   1   2 63281.3 2432.80  31
   3  -1   2 54318.6 2255.43  31
  -3  -1  -2 55140.8 2507.11  50
  -3   1  -3 20824.9 1552.15  50
  -3   1  -3 25701.0 1906.25  18
   3   1   3 28082.9 1686.77   5
   3  -1   3 25417.5 1521.26   5
  -3  -1  -3 21405.8 1543.68  20
  -3  -1  -3 23545.0 1945.96  34
   3  -1   3 24805.1 1606.67  33
   3  -1   3 22424.9 1588.82   3
   3  -1   4 54632.3 2770.26   3
   3   1   4 65499.0 2738.42   5
  -3  -1  -4 48864.1 3018.04  34
  -3   1  -4 67131.1 3371.47  18
   3   1   5 11508.1 1317.16  41
   3   1   5 11728.5 1181.84   5
  -3   1  -5 11060.8 1423.69  18
   3  -1   5 12998.5 1409.02  41
   3   1   5 12030.4 1422.74  11
   3  -1   5 12546.2 1494.80  11
  -3  -1  -5 8031.06 1231.51  34
   3  -1   5 8695.75 1158.22   3
   3   1   6 60088.7 3340.20   9
   3  -1   6 53412.0 2905.58  51
   3   1   6 52831.5 2820.08  51
   3  -1   6 57317.5 3293.87   9
   3   1   6 47117.7 2534.94  42
   3   1   6 59184.5 3195.26  41
   3  -1   6 64760.1 3357.42  41
   3  -1   6 44707.9 2798.72  39
   3  -1   6 53540.9 2861.96   7
   3   1   6 63165.0 3417.34  11
   3  -1   6 62169.4 3492.00  11
   3   1   6 54816.4 3353.20  58
   3  -1   7 5360.86 932.247  51
   3   1   7 4579.51 910.436   9
   3  -1   7 5158.98 989.455   9
   3   1   7 3804.10 706.469  42
   3   1   7 4883.06 903.031  41
   3  -1   7 4738.69 917.559  41
   3  -1   7 5717.76 934.798   7
   3   1   7 4125.74 768.706  51
   3  -1   7 6308.75 1114.89  11
   3   1   7 4113.79 790.253   7
   3   1   7 4316.10 897.850  11
   3   1   7 4207.23 968.079  58
   3   1   8 18257.8 1945.69  58
   3   1   8 16253.8 1706.49   9
   3  -1   8 18342.4 1702.97  51
   3   1   8 17248.7 1593.95  51
   3   1   8 16797.0 1491.21  42
   3   1   8 16824.2 1695.71  41
   3  -1   8 19867.6 1861.81  41
   3  -1   8 18010.2 1654.62   7
   3   1   8 15934.4 1557.24   7
   3   1   8 16975.0 1738.52  11
   3  -1   8 18033.6 1846.05  11
   3  -1   8 14931.9 1768.68  58
   3  -1   9 8557.96 1138.86  51
   3   1   9 7515.21 1012.01  51
   3   1   9 7488.04 941.000  42
   3   1   9 7441.17 1036.16  41
   3  -1   9 7450.16 1092.02  41
   3  -1   9 8123.28 1044.27   7
   3   1   9 6857.63 957.410   7
   3  -1   9 8995.67 1227.27  11
   3   1   9 5193.65 885.990  11
   3   1   9 6100.39 1052.82  58
   3  -1   9 6370.91 1073.62  58
   3   1  10 5249.47 797.968  51
   3  -1  10 4075.79 738.132  11
   3   1  10 3665.86 602.125  42
   3   1  10 3463.73 647.666  41
   3  -1  10 3740.82 681.954  41
   3   1  10 3053.02 590.933   7
   3   1  10 2732.37 574.134  11
   3   1  10 3954.60 776.573  58
   3  -1  10 3402.77 727.320  58
   3   1  11 5522.55 657.079  41
   3  -1  11 5459.74 706.173  41
   3  -1  11 4410.25 617.178  11
   3   1  11 5853.13 806.834  58
   3  -1  11 5495.09 738.990  58
   3   3 -12 248.603 175.249  53
   3   3 -12 206.840 114.541  28
  -3  -3  12 79.3100 64.4572  13
  -3   3  12 226.890 139.821  13
   3   3 -12 160.844 132.902  40
   3  -3 -12 463.446 199.823  40
  -3   3  12 48.6617 117.066  22
   3  -3 -12 270.347 147.396  30
  -3  -3  12 243.915 163.556  55
   3   3 -11 8532.89 975.077  28
  -3  -3  11 6738.09 844.154  15
   3  -3 -11 8159.59 995.930  27
  -3  -3  11 8223.35 944.429  45
  -3   3  11 6588.18 798.534  45
  -3  -3  11 7209.01 877.979  13
  -3   3  11 7254.70 877.192  13
   3   3 -11 7680.22 956.334  40
   3  -3 -11 8630.61 1020.42  40
  -3   3  11 8007.74 927.266  22
   3  -3 -11 8826.32 1024.10  30
   3   3 -11 7710.81 922.834  30
  -3   3  11 7234.47 822.039  55
  -3  -3  11 8960.38 976.959  55
   3   3 -10 3094.93 687.457  28
   3  -3 -10 2396.02 596.764  60
  -3  -3  10 2445.39 579.260  15
   3  -3 -10 2293.72 594.584  27
  -3  -3  10 2031.88 535.484  45
  -3   3  10 2441.86 557.018  45
  -3   3  10 2087.11 527.342  56
  -3  -3  10 2522.46 585.418  13
  -3   3  10 2034.55 547.206  13
   3   3 -10 2726.78 624.091  40
   3   3 -10 2219.94 537.292  30
  -3   3  10 2371.23 572.864  22
   3   3 -10 2456.09 570.832  57
  -3   3  10 2503.06 550.127  55
  -3  -3  10 2668.55 610.673  55
   3  -3 -10 2417.42 616.420  57
  -3  -3   9 7296.13 1067.82  15
   3  -3  -9 6800.90 1093.46  27
   3  -3  -9 6582.88 1063.38  60
  -3  -3   9 6277.08 972.978  45
  -3   3   9 5612.87 935.295  45
  -3  -3   9 5502.83 885.379  44
  -3  -3   9 5917.15 959.640  13
  -3   3   9 5697.51 962.649  13
   3   3  -9 6253.54 1034.77  40
  -3   3   9 5786.04 959.137  22
   3   3  -9 6565.11 1016.77  57
   3  -3  -9 6914.30 1102.54  57
   3   3  -9 6310.29 993.412  30
  -3   3   9 5926.85 939.205  55
  -3   3   9 5382.85 895.150  56
  -3  -3   9 6284.89 967.271  55
   3  -3  -8 6004.03 1076.14  27
  -3  -3   8 4663.29 849.874  15
  -3  -3   8 5190.40 942.743  45
  -3   3   8 5844.65 974.158  45
   3   3  -8 4871.51 916.963  57
  -3  -3   8 5229.55 899.558  44
  -3  -3   8 4253.31 808.616  25
  -3  -3   8 4341.74 857.810  13
   3   3  -8 6052.86 1024.58  40
  -3   3   8 6193.12 1013.48  22
   3  -3  -8 4716.93 930.356  12
  -3   3   8 4859.26 883.160  56
   3  -3  -8 5821.63 1052.53  60
   3   3  -8 5112.82 918.748  30
  -3  -3   8 5509.54 940.115  55
  -3   3   8 4923.14 885.336  55
   3  -3  -8 5548.97 1042.28  57
  -3  -3   7 5884.69 966.134  15
   3   3  -7 4560.09 864.973  27
   3  -3  -7 5369.42 1023.17  27
  -3  -3   7 6521.86 1027.21  45
  -3   3   7 7042.51 1058.62  56
  -3   3   7 4965.54 907.751  45
  -3  -3   7 5022.04 896.453  44
  -3  -3   7 4779.07 862.868  25
  -3   3   7 6664.79 1076.75  23
   3   3  -7 6468.43 1062.74  40
  -3   3   7 6071.81 1014.04  22
   3   3  -7 4860.95 903.152  12
   3  -3  -7 5330.40 963.205  12
   3  -3  -7 4704.01 930.325  60
   3   3  -7 5785.21 985.968  57
   3   3  -7 5028.87 918.566  30
   3  -3  -7 5438.09 1011.81  57
  -3  -3   7 5521.38 931.751  55
  -3   3   7 4841.03 876.879  55
   3   3  -6 5758.65 946.672  27
  -3  -3   6 6883.57 1021.74  15
   3  -3  -6 5905.76 1033.38  27
  -3   3   6 5775.08 940.330  45
   3  -3  -6 6272.44 1022.75  57
  -3  -3   6 6503.76 1014.23  44
  -3  -3   6 6562.78 1001.36  25
  -3   3   6 7221.63 1124.45  23
   3   3  -6 6213.55 1034.49  40
   3   3  -6 5903.15 953.949  30
   3  -3  -6 6311.58 1053.25  12
  -3   3   6 7231.07 1077.58  22
   3   3  -6 4323.06 822.906  60
   3   3  -6 5493.84 937.365  12
   3  -3  -6 5460.78 996.103  37
  -3  -3   6 3206.55 647.405  20
  -3  -3   6 7375.39 1056.84  45
   3  -3  -6 5818.64 1001.80  60
   3   3  -6 6344.33 1043.88  57
  -3   3   6 5888.76 954.306  56
  -3  -3   6 6093.24 952.364  55
  -3   3   6 5764.19 949.472  55
  -3  -3   5 38437.0 2272.01  50
   3   3  -5 30729.4 1948.85  61
   3  -3  -5 31931.8 2127.54  49
   3  -3  -5 31030.2 2193.28  32
  -3  -3   5 31684.8 1945.79  35
  -3  -3   5 29884.6 1969.39  34
  -3  -3   5 31897.5 2065.34  20
   3  -3  -5 32235.6 2013.52  61
   3   3  -5 28803.9 1984.13  31
   3  -3  -5 33919.4 2126.51   1
  -3  -3   4 8160.20 1001.18  50
  -3   3   4 6150.84 857.984  50
   3  -3  -4 6991.96 929.345  49
  -3  -3   4 7165.40 891.567  46
   3  -3  -4 8795.11 989.335   1
  -3  -3   4 6955.41 849.779  35
  -3  -3   4 7633.04 960.252  34
  -3  -3   4 7334.01 953.950  20
   3   3  -4 7786.74 900.549  61
   3  -3  -4 7297.90 882.760  61
   3  -3  -4 8016.72 1054.95  32
  -3   3   4 5036.46 796.156  20
   3   3  -4 7348.66 932.897  31
  -3   3   3 80024.1 3325.22  50
   3  -3  -3 87579.5 3398.10  49
  -3  -3   3 90477.2 3394.71  46
  -3  -3   3 104968. 3693.73  50
   3   3  -3 84207.4 3293.00   5
  -3  -3   3 95438.5 3626.44  34
   3   3  -3 81539.9 2987.28  61
  -3  -3   3 91243.9 3530.28  20
   3  -3  -3 83458.5 3017.80  61
   3  -3  -3 88615.0 3183.70   1
  -3   3   3 102378. 3698.77  18
   3   3  -3 89192.1 3368.39  31
  -3  -3   2 608.573 240.668  50
  -3   3   2 654.529 286.592  50
  -3  -3   2 554.496 254.426  46
   3  -3  -2 352.883 243.806  49
   3   3  -2 279.580 196.045   5
  -3  -3   2 413.955 258.584  34
   3   3  -2 294.983 142.257  61
   3  -3  -2 438.338 185.935  61
  -3  -3   2 649.275 282.661  20
   3   3  -2 336.667 153.247  31
  -3   3   2 684.486 291.476  18
  -3  -3   1 85722.8 3182.19  50
  -3   3   1 66899.0 2964.76  50
   3  -3  -1 73149.3 2817.64  49
  -3  -3   1 77745.6 3167.50  46
   3   3  -1 79747.2 2962.04   5
  -3  -3   1 80574.6 3388.67  34
   3  -3  -1 74173.7 2965.48  33
  -3  -3   1 77350.6 3144.47  20
   3   3  -1 75233.0 2875.48  31
  -3   3   1 75945.6 3126.28  18
  -3  -3   0 9726.23 1012.53  50
  -3   3   0 7833.94 962.651  50
  -3  -3   0 9513.58 1054.35  46
   3   3   0 9173.60 939.755   5
  -3  -3   0 10185.5 1177.72  34
   3  -3   0 9099.95 984.144  33
  -3  -3   0 9436.60 1031.98  20
   3   3   0 9128.44 936.418  31
   3  -3   0 5790.82 807.056  31
  -3   3   0 8815.55 1034.91  18
  -3  -3  -1 60632.3 2637.41  50
  -3   3  -1 55867.6 2713.57  50
  -3  -3  -1 60598.2 2838.34  46
   3   3   1 64110.2 2632.42   5
   3  -3   1 49580.8 2236.67   5
  -3  -3  -1 64551.7 3189.04  34
   3  -3   1 63521.3 2816.41  33
  -3  -3  -1 60176.1 2733.13  20
   3   3   1 65926.8 2615.43  31
   3  -3   1 47004.6 2323.74  31
  -3   3  -1 68252.9 3090.76  18
  -3   3  -2 11974.8 1248.24  50
  -3  -3  -2 13976.3 1362.33  46
   3   3   2 17528.5 1348.32   5
  -3  -3  -2 15138.4 1579.18  34
   3  -3   2 15691.8 1375.41  33
  -3  -3  -2 14343.2 1278.74  20
   3   3   2 16481.1 1251.84  31
  -3   3  -2 16086.1 1529.45  18
  -3   3  -3 18203.3 1584.49  50
  -3  -3  -3 20007.1 1676.67  46
  -3   3  -3 25612.1 2061.97  18
   3   3   3 25938.4 1702.58   5
  -3  -3  -3 22792.0 2002.30  34
   3  -3   3 25113.0 1823.40  33
   3   3   3 24084.7 1565.88  31
   3  -3   3 20605.3 1647.66   3
  -3   3  -4 2646.64 610.000  50
   3  -3   4 3464.84 727.102   3
  -3  -3  -4 2371.90 606.786  46
   3   3   4 4120.08 708.820   5
  -3   3  -4 2612.78 709.093  18
   3  -3   4 3604.86 714.283  33
  -3  -3  -4 2541.80 676.759  34
   3   3   5 5772.23 1013.56   9
   3   3   5 5569.40 864.097  42
   3   3   5 6184.09 915.549  24
   3   3   5 5385.90 900.196  41
   3  -3   5 4653.93 867.722  41
   3   3   5 4392.65 931.290  58
   3  -3   5 5039.82 883.133   8
   3  -3   5 5117.80 996.640  54
   3  -3   5 5575.82 993.801  39
   3   3   5 5202.31 932.147  11
   3  -3   5 6224.18 1115.22  11
   3   3   6 1578.49 546.389   9
   3  -3   6 2116.87 643.771   9
   3   3   6 2631.02 612.874  42
   3   3   6 2279.29 612.968  24
   3   3   6 1298.61 495.730  41
   3  -3   6 2382.24 668.011  41
   3   3   6 2068.17 550.940  51
   3  -3   6 1362.73 458.120   8
   3  -3   6 2010.78 625.585  39
   3   3   6 2086.54 578.002  11
   3  -3   6 2373.47 726.636  11
   3   3   6 3001.39 819.235  58
   3  -3   6 2086.29 656.877  54
   3   3   7 14760.0 1661.69   9
   3   3   7 13807.7 1432.67  51
   3   3   7 16205.9 1562.51  24
   3   3   7 14751.5 1437.66  42
   3   3   7 14589.5 1508.48  41
   3  -3   7 17351.0 1762.62  41
   3  -3   7 12636.2 1505.72  39
   3   3   7 13108.9 1518.60  11
   3  -3   7 18049.0 1925.17  11
   3   3   7 16837.3 1924.52  58
   3   3   8 6144.44 922.702  51
   3   3   8 5607.41 1001.47   9
   3   3   8 5947.46 887.496  24
   3   3   8 5455.88 874.018  42
   3   3   8 5204.49 868.400  41
   3  -3   8 5625.00 1005.24  41
   3  -3   8 7228.54 1198.92  11
   3   3   8 4661.66 809.445   7
   3   3   8 4591.60 855.113  11
   3   3   8 5345.38 1078.94  58
   3   3   9 24006.6 1765.06  51
   3   3   9 24661.9 1718.82  42
   3   3   9 20080.1 1595.21  41
   3  -3   9 25517.6 1964.06  41
   3   3   9 22128.3 1665.34   7
   3   3   9 19360.0 1631.16  11
   3  -3   9 24794.3 2060.19  11
   3   3   9 24185.8 2065.97  58
   3   3  10 2016.83 479.624  51
   3  -3  10 1277.12 441.991  11
   3   3  10 1173.50 315.032  42
   3  -3  10 1110.10 362.168  41
   3   3  10 976.511 277.244   7
   3   3  10 761.222 289.184  58
   3   3  11 6802.23 726.367  51
   3  -3  11 5763.96 686.466  41
   3  -3  11 5145.99 660.573  11
   3   5 -11 427.735 205.985  53
   3   5 -11 199.641 131.076  28
  -3  -5  11 523.323 226.641  15
   3  -5 -11 63.7873 107.345  27
  -3  -5  11 215.525 145.505  13
  -3   5  11 206.774 174.229  13
   3   5 -11 302.751 183.236  40
   3  -5 -11 667.626 278.521  40
  -3   5  11 269.825 160.894  22
   3  -5 -11 250.706 139.170  60
   3   5 -11 151.858 59.0766  30
  -3  -5  11 255.362 161.022  55
   3   5 -10 19716.6 1587.75  53
   3   5 -10 20954.9 1620.63  28
  -3  -5  10 19629.3 1570.95  15
   3  -5 -10 21139.0 1721.17  27
  -3  -5  10 17002.9 1433.06  45
  -3  -5  10 16496.7 1363.51  44
  -3  -5  10 16368.7 1399.08  13
  -3   5  10 19874.4 1549.16  13
   3   5 -10 18430.9 1526.50  40
  -3   5  10 20653.7 1597.63  22
  -3   5  10 18086.5 1459.47  56
   3  -5 -10 19829.0 1620.76  60
   3  -5 -10 19152.2 1606.33  57
   3   5 -10 19049.2 1518.49  30
  -3  -5  10 18418.5 1452.32  55
  -3   5   9 2720.15 595.475  29
   3   5  -9 3554.94 740.351  53
   3   5  -9 2582.55 625.396  28
   3  -5  -9 2753.90 669.596  57
  -3  -5   9 3136.52 684.525  15
   3  -5  -9 3350.21 739.359  27
  -3  -5   9 2991.56 657.429  45
  -3  -5   9 2657.06 616.709  44
  -3  -5   9 2575.43 609.895  25
  -3  -5   9 2229.25 535.805  13
   3   5  -9 2460.57 612.452  40
  -3   5   9 2793.72 614.293  22
   3   5  -9 2574.70 624.415  30
   3   5  -9 3061.02 657.193  57
   3  -5  -9 2292.05 633.274  60
  -3   5   9 2522.96 606.896  56
  -3  -5   9 2802.90 605.264  55
   3   5  -8 29933.1 2257.63  28
  -3  -5   8 26834.7 2076.90  15
   3  -5  -8 27200.2 2234.45  27
  -3  -5   8 25628.3 1997.83  45
  -3   5   8 22898.3 1850.95  45
  -3  -5   8 25518.0 2025.37  44
  -3  -5   8 27871.2 2087.78  25
   3  -5  -8 24372.0 2103.97  60
  -3   5   8 25647.5 2116.49  23
   3   5  -8 27351.5 2136.76  40
   3  -5  -8 24923.4 2120.67  12
  -3   5   8 27871.9 2147.16  22
   3  -5  -8 24001.1 2070.92  37
  -3  -5   8 24627.4 1963.48  59
   3   5  -8 25241.6 2059.90  57
   3  -5  -8 28140.6 2257.86  57
   3   5  -8 25804.6 2041.85  30
  -3   5   8 24259.4 1964.55  56
  -3   5   8 21781.4 1816.83  29
  -3  -5   8 24910.5 1941.61  55
   3   5  -7 10621.8 1348.74  28
  -3  -5   7 12986.1 1476.29  15
  -3  -5   7 12422.6 1403.15  45
  -3   5   7 10810.3 1294.17  45
  -3  -5   7 11397.9 1372.03  44
  -3  -5   7 12249.8 1416.07  25
  -3   5   7 12867.2 1519.32  23
   3   5  -7 11745.5 1419.36  40
   3   5  -7 10188.6 1328.32  12
   3  -5  -7 12489.1 1554.88  12
  -3   5   7 14582.0 1578.96  22
   3  -5  -7 10676.9 1429.22  37
   3   5  -7 11246.5 1385.61  57
   3  -5  -7 12469.5 1521.76  60
  -3  -5   7 12501.9 1404.09  59
   3  -5  -7 12039.2 1485.56  57
   3   5  -7 10973.4 1324.27  30
  -3   5   7 12955.6 1450.82  56
  -3   5   7 11455.3 1333.36  29
  -3  -5   7 10372.8 1261.09  55
  -3  -5   6 28397.6 2168.04  54
   3   5  -6 35861.7 2460.90  28
  -3  -5   6 35831.2 2470.84  15
  -3   5   6 28033.3 2124.84  45
  -3  -5   6 34715.5 2421.56  44
  -3  -5   6 33072.3 2370.04  25
  -3   5   6 37065.0 2620.30  23
   3   5  -6 33432.7 2386.12  40
   3   5  -6 30617.2 2336.66  12
   3  -5  -6 34404.9 2583.71  12
  -3   5   6 38733.0 2584.86  22
   3  -5  -6 35558.1 2668.61  37
   3   5  -6 34506.2 2368.46  30
   3  -5  -6 29551.4 2381.65  36
  -3  -5   6 31156.5 2334.97  59
   3   5  -6 35144.7 2443.76  57
  -3   5   6 36075.1 2445.87  56
  -3   5   6 35403.1 2357.07  29
  -3   5   5 3304.07 697.932  29
  -3  -5   5 2857.30 723.439  54
   3   5  -5 2641.57 654.275  28
   3   5  -5 2433.88 600.155  27
  -3  -5   5 3131.25 690.574  15
  -3   5   5 2363.79 578.188  45
  -3  -5   5 4238.78 832.505  44
  -3  -5   5 2829.42 643.496  25
   3   5  -5 2907.77 666.436  40
  -3   5   5 2752.10 697.977  23
   3   5  -5 2598.94 666.846  12
  -3   5   5 2942.45 704.391  22
   3   5  -5 2787.19 689.984  57
   3  -5  -5 3129.46 773.089  37
   3  -5  -5 3166.23 758.715  12
   3  -5  -5 3273.72 749.651  36
   3   5  -5 3061.61 664.313  30
   3   5  -5 1957.83 535.097  60
  -3   5   5 3184.89 716.918  56
  -3  -5   4 44814.6 2555.32  50
   3  -5  -4 40076.0 2474.83  49
  -3  -5   4 37184.0 2251.29  46
   3  -5  -4 41145.1 2650.59  32
  -3  -5   4 47154.0 2741.16  44
   3  -5  -4 40698.9 2517.41   2
  -3  -5   4 42715.2 2587.18  25
  -3   5   4 46369.4 2844.53  23
   3   5  -4 47379.1 2695.10  40
   3   5  -4 48684.1 2797.79  12
   3  -5  -4 46851.5 2870.23  12
  -3   5   4 47987.8 2799.29  22
   3  -5  -4 46796.1 2965.78  37
   3   5  -4 44196.0 2597.64  57
  -3   5   4 47487.7 2712.74  56
   3  -5  -4 47920.0 2978.39  36
  -3  -5   4 42576.9 2559.98  34
  -3  -5   4 40085.1 2427.20  20
   3  -5  -4 36183.7 2184.91  61
   3   5  -4 37208.8 2247.27  31
   3   5  -4 43118.1 2512.49  30
  -3  -5   3 2646.86 591.029  50
  -3   5   3 1368.22 426.621  50
   3  -5  -3 2164.73 541.759  49
   3  -5  -3 2789.37 611.181   2
  -3  -5   3 2153.25 532.242  46
  -3   5   3 1983.27 535.556  18
   3  -5  -3 2866.93 652.451  32
   3   5  -3 1748.52 451.046   5
  -3  -5   3 1995.47 534.432  34
   3  -5  -3 2274.25 494.885  61
  -3  -5   3 3036.52 635.425  20
   3   5  -3 2458.47 535.733  31
  -3  -5   2 25580.6 1807.54  50
  -3   5   2 17209.2 1536.30  50
   3  -5  -2 19487.9 1566.83  49
  -3  -5   2 21452.3 1675.29  46
   3  -5  -2 22998.3 1745.53   2
   3   5  -2 21153.1 1526.82   5
  -3  -5   2 21430.7 1797.90  34
  -3  -5   2 22527.7 1742.18  20
   3  -5  -2 18851.2 1586.85  33
   3  -5  -2 21090.1 1784.28  32
   3   5  -2 21944.0 1614.75  31
  -3   5   2 22335.0 1776.53  18
  -3  -5   1 18898.4 1509.41  50
  -3   5   1 13925.2 1387.85  50
   3  -5  -1 15091.3 1328.62  49
  -3  -5   1 17338.4 1517.12  46
   3  -5  -1 16546.5 1442.22   2
   3   5  -1 17344.9 1356.65   5
  -3  -5   1 18246.0 1674.16  34
  -3  -5   1 17949.0 1527.88  20
   3  -5  -1 17004.3 1474.43  33
   3   5  -1 18102.5 1442.31  31
  -3   5   1 15262.4 1451.35  18
  -3  -5   0 15251.7 1308.92  50
  -3   5   0 12208.1 1309.10  50
  -3  -5   0 15495.4 1437.70  46
   3  -5   0 12876.3 1231.05   2
   3   5   0 15380.2 1282.19   5
  -3  -5   0 15230.6 1583.27  34
  -3  -5   0 16455.1 1453.03  20
   3  -5   0 13716.7 1356.80  33
   3   5   0 16635.9 1356.11  31
  -3   5   0 14678.3 1453.94  18
  -3  -5  -1 4400.03 792.218  46
  -3   5  -1 4293.64 813.561  18
   3   5   1 5172.33 740.185   5
  -3  -5  -1 5023.80 909.963  34
  -3  -5  -1 4471.49 741.578  20
   3  -5   1 5374.43 871.798  33
   3   5   1 3921.07 663.483  31
  -3  -5  -2 56644.8 2957.02  46
   3   5   2 60835.1 2751.90   5
  -3  -5  -2 55389.0 3210.71  34
   3  -5   2 56413.0 3018.06  33
   3   5   2 60277.0 2733.29  31
  -3   5  -2 55805.2 3149.88  18
   3   5   3 3071.94 658.450  27
   3   5   3 2788.18 709.290   9
  -3  -5  -3 2707.83 645.414  46
   3  -5   3 1789.84 570.924   3
   3   5   3 2694.08 588.629  24
   3  -5   3 2972.10 658.243   8
  -3   5  -3 3210.09 800.773  18
   3   5   3 3012.25 603.561   5
   3  -5   3 2555.06 690.747  39
   3  -5   3 3076.10 757.306  21
   3   5   3 2927.50 701.192  11
  -3  -5  -3 2589.17 672.807  34
   3  -5   3 3071.71 740.324  33
   3   5   3 3475.14 642.819  31
   3   5   4 78455.9 3914.92   9
   3  -5   4 72193.5 3884.19  54
   3  -5   4 64717.9 3491.54  43
   3  -5   4 81149.9 3761.89   8
   3   5   4 85441.1 3588.81  24
   3   5   4 80020.8 3484.09  42
   3   5   4 71055.1 3289.16  40
   3  -5   4 82540.6 4169.91  39
   3  -5   4 62630.0 3689.85  21
   3   5   4 75665.3 3804.41  11
   3  -5   4 78033.2 4019.45  11
   3  -5   5 10710.7 1484.25  54
   3   5   5 12803.0 1576.90   9
   3  -5   5 11918.2 1447.18   8
   3   5   5 12326.6 1362.28  24
   3   5   5 11046.6 1262.82  42
   3  -5   5 8795.18 1196.77  41
   3  -5   5 10776.5 1476.16  39
   3  -5   5 8423.53 1290.02  21
   3   5   5 8626.53 1247.14  11
   3  -5   5 11178.6 1551.89  11
   3  -5   6 32246.4 2605.61  54
   3   5   6 36168.8 2709.86   9
   3   5   6 26665.7 2010.11  51
   3  -5   6 39207.5 2689.69   8
   3   5   6 39480.8 2485.84  24
   3   5   6 36065.7 2321.65  42
   3  -5   6 31160.0 2330.81  41
   3  -5   6 31701.7 2556.38  39
   3   5   6 30778.9 2344.42  11
   3  -5   6 40958.4 3008.53  11
   3  -5   7 4213.35 897.301  54
   3   5   7 4969.43 847.155  51
   3   5   7 4810.36 967.272   9
   3   5   7 5006.28 881.882  24
   3   5   7 4504.63 808.651  42
   3  -5   7 3552.18 788.672  41
   3  -5   7 4707.60 891.609   8
   3  -5   7 4439.12 919.886  39
   3  -5   7 7019.47 1198.33  11
   3   5   7 4399.10 851.827  11
   3   5   8 5970.28 1002.53   9
   3   5   8 6327.01 913.115  51
   3  -5   8 7499.43 1066.70   8
   3   5   8 7468.74 989.827  24
   3   5   8 7437.58 964.772  42
   3  -5   8 7070.52 1014.20  41
   3  -5   8 5539.53 915.290  39
   3  -5   8 7184.75 1158.83  11
   3   5   9 346.802 215.951  51
   3   5   9 257.142 185.310   9
   3   5   9 466.841 216.420  24
   3   5   9 726.810 271.089  42
   3  -5   9 212.978 142.405  41
   3  -5   9 176.871 100.820  11
   3   5  10 3826.54 584.041  51
   3   5  10 4001.31 574.697  42
   3  -5  10 3929.20 602.852  41
   3  -5  10 4290.28 682.675  11
   3   7 -11 3374.53 464.209  53
  -3  -7  11 2673.71 423.751  15
   3  -7 -11 2708.49 439.361  27
  -3   7  11 2429.79 378.983  13
   3   7 -10 160.545 142.030  53
   3   7 -10 12.1144 65.6096  28
  -3  -7  10 73.1730 143.793  15
   3  -7 -10 452.240 242.204  27
  -3  -7  10 163.892 69.1098  44
  -3  -7  10 195.605 145.335  25
  -3   7  10 167.767 147.393  29
  -3   7  10 86.7116 141.779  13
   3   7 -10 357.376 203.647  40
  -3   7  10 421.290 197.464  22
   3   7 -10 379.154 202.639  30
   3  -7 -10 171.851 181.299  60
   3  -7 -10-93.3892 120.628  57
  -3   7  10 114.956 84.0210  56
   3   7  -9 7757.71 985.648  53
   3   7  -9 8689.31 1016.82  28
  -3  -7   9 8781.63 1056.42  15
   3  -7  -9 9322.23 1136.22  27
   3   7  -9 9967.47 1074.75  30
  -3  -7   9 8979.00 1054.71  44
  -3  -7   9 8910.86 1045.62  25
   3  -7  -9 9655.55 1155.60  57
   3   7  -9 8714.48 993.789  40
  -3   7   9 9533.10 1078.70  22
   3  -7  -9 8020.55 998.066  37
   3  -7  -9 10514.8 1194.02  60
  -3  -7   9 8854.44 1022.05  59
   3   7  -9 7523.68 908.011  57
  -3   7   9 7760.93 935.262  56
  -3   7   9 8011.08 923.151  29
  -3   7   8 1956.71 538.397  29
  -3  -7   8 2082.66 529.323  54
   3   7  -8 1261.31 470.393  53
   3   7  -8 1818.03 492.490  28
   3   7  -8 1773.33 515.388  57
  -3  -7   8 2067.39 542.157  15
   3  -7  -8 2223.34 599.544  27
  -3  -7   8 1809.98 518.236  44
  -3  -7   8 1871.68 512.937  25
   3   7  -8 1586.02 490.372  40
  -3   7   8 1269.50 470.904  23
  -3   7   8 1781.69 497.364  22
   3  -7  -8 1606.59 526.639  12
   3  -7  -8 1462.36 478.733  37
   3   7  -8 1606.34 464.464  30
   3  -7  -8 1708.33 510.556  60
  -3  -7   8 1808.33 529.543  59
  -3  -7   8 2055.75 609.689  58
   3  -7  -8 1378.20 471.113  57
  -3   7   8 2189.78 563.701  56
  -3  -7   7 33318.4 2311.34  54
   3   7  -7 31538.1 2258.87  53
   3   7  -7 35520.9 2388.70  28
  -3  -7   7 36332.1 2459.59  15
   3   7  -7 31145.6 2231.68  57
  -3  -7   7 37346.7 2457.47  44
  -3  -7   7 36994.0 2424.61  25
   3   7  -7 32574.9 2243.02  30
  -3   7   7 30475.5 2295.33  23
   3   7  -7 31887.0 2231.45  40
   3  -7  -7 33521.6 2478.78  12
  -3   7   7 38504.5 2510.27  22
   3  -7  -7 34398.3 2529.02  37
  -3  -7   7 30218.6 2200.49  21
  -3  -7   7 35865.9 2421.78  59
  -3  -7   7 30920.8 2465.86  58
  -3   7   7 36302.3 2379.21  56
  -3   7   7 34887.4 2286.61  29
  -3   7   6 1003.97 442.225  29
  -3  -7   6 376.340 300.572  54
   3   7  -6 1167.56 469.516  53
  -3   7   6 976.247 435.731  56
   3   7  -6 691.109 357.898  28
  -3  -7   6 913.452 391.980  15
  -3  -7   6 1158.09 456.947  44
   3   7  -6 699.424 409.921  14
  -3  -7   6 1255.05 463.189  25
   3   7  -6 1205.30 449.559  40
  -3   7   6 452.488 320.825  23
  -3   7   6 503.603 271.490  22
   3  -7  -6 753.307 364.158  37
   3  -7  -6 362.304 273.328  12
   3  -7  -6 602.874 335.762  36
  -3  -7   6 804.232 375.894  59
   3   7  -6 1270.92 438.563  57
   3   7  -6 991.370 395.535  30
   3   7  -5 29155.2 2202.43  53
   3   7  -5 32874.3 2340.71  28
  -3  -7   5 32692.6 2400.60  15
   3   7  -5 33933.2 2373.41  57
   3   7  -5 34420.7 2642.80  14
  -3  -7   5 35205.9 2499.78  44
  -3  -7   5 36358.2 2486.11  25
  -3  -7   5 32649.0 2432.74  54
  -3   7   5 35044.8 2535.28  23
   3   7  -5 33498.4 2333.70  40
   3  -7  -5 34969.8 2615.23  12
  -3   7   5 36990.2 2446.92  29
  -3   7   5 38134.5 2601.61  22
   3  -7  -5 33715.5 2628.20  37
   3  -7  -5 33313.3 2615.17  36
  -3  -7   5 33669.6 2463.21  59
   3   7  -5 34286.4 2328.52  30
  -3   7   5 34601.4 2404.63  56
  -3   7   4 2642.56 641.225  29
  -3  -7   4 2026.15 591.458  54
   3   7  -4 1808.96 520.245  53
   3   7  -4 2539.62 644.093  28
  -3  -7   4 2281.99 606.356  15
   3  -7  -4 1448.55 571.769  26
  -3  -7   4 2421.30 633.036  44
   3   7  -4 3494.51 810.118  14
  -3  -7   4 3014.77 711.617  25
   3  -7  -4 2379.21 680.832  43
   3   7  -4 2209.77 587.179  30
   3   7  -4 2199.54 550.985  40
  -3   7   4 2513.40 669.613  23
  -3   7   4 3175.22 765.246  22
   3  -7  -4 2722.96 760.922  37
   3  -7  -4 3284.07 770.051  12
   3  -7  -4 2068.46 705.903  36
   3   7  -4 1663.13 503.048  60
  -3  -7   4 2303.20 651.448  59
   3   7  -4 2237.24 565.775  57
  -3   7   4 3347.72 758.345  56
  -3   7   4 1996.69 581.069  10
   3   7  -3 45345.2 2746.20  28
   3   7  -3 41159.3 2482.36  27
   3  -7  -3 41733.8 2930.85  26
  -3  -7   3 51098.5 2977.31  44
   3   7  -3 56645.3 3311.19  14
  -3  -7   3 48280.9 2903.97  25
   3  -7  -3 45980.8 3080.82  43
  -3   7   3 47934.7 2940.38  23
   3   7  -3 47739.6 2709.10  40
   3  -7  -3 48435.7 3073.11  12
  -3   7   3 46935.5 2881.05  22
   3  -7  -3 48010.5 3127.54  37
   3  -7  -3 51010.2 3225.25  36
   3   7  -3 47154.7 2704.41  60
   3   7  -3 48471.5 2772.80  57
   3   7  -3 41238.7 2527.26  30
  -3   7   3 46436.1 2763.33  56
   3  -7  -3 41544.7 2702.16   6
  -3   7   3 50960.9 2855.04  29
  -3   7   2 1535.26 494.835  29
   3   7  -2 877.868 335.086  28
   3   7  -2 910.382 379.960  27
  -3   7   2 1313.24 455.831  56
   3  -7  -2 964.279 331.904   6
   3  -7  -2 1191.06 544.504  26
  -3  -7   2 543.590 286.625  44
   3   7  -2 1097.68 492.522  14
  -3  -7   2 1119.72 382.729  25
   3  -7  -2 1249.94 499.359  43
   3   7  -2 1022.67 371.080  40
  -3   7   2 1397.73 527.153  23
   3   7  -2 1487.94 500.909  60
  -3   7   2 1016.92 396.302  22
   3  -7  -2 1026.23 507.817  37
   3  -7  -2 1102.21 500.013  12
   3  -7  -2 1150.79 443.930  36
   3  -7  -2 446.897 317.103  21
   3   7  -2 1534.37 491.554  57
   3   7  -2 1051.82 418.330  30
   3   7  -1 109861. 4192.42  27
   3  -7  -1 113452. 4978.26  26
   3   7  -1 117371. 4362.82  60
   3   7  -1 124355. 4878.22  14
   3  -7  -1 91442.4 4048.11   8
  -3  -7   1 100788. 4213.83  25
   3  -7  -1 119751. 5107.12  43
   3   7  -1 118413. 4338.79  40
  -3   7   1 121333. 4814.78  23
   3  -7  -1 112127. 4714.27  12
  -3   7   1 106036. 4468.76  22
   3  -7  -1 111553. 4791.11  37
   3  -7  -1 83908.1 4272.61  21
   3  -7  -1 119370. 5058.05  36
   3   7  -1 116763. 4348.34  57
  -3   7   1 114661. 4509.79  56
  -3   7   1 115311. 4434.37  29
  -3   7   0 326.102 190.120  29
   3   7   0 449.090 173.697  27
   3  -7   0 369.476 349.204  26
   3   7   0 909.571 408.801  14
   3  -7   0 529.953 337.365  43
   3   7   0 209.681 190.776  24
   3  -7   0 199.063 124.735   8
   3   7   0 298.392 134.994  40
  -3   7   0 679.350 416.177  23
   3  -7   0 448.537 415.259  39
   3   7   0 281.988 114.806  57
   3  -7   0 295.320 167.237  36
   3  -7   0 1156.50 499.377  21
   3   7   0 318.956 218.302  60
  -3   7   0 353.085 174.503  56
  -3   7  -1 69078.9 3425.24  29
   3   7   1 58559.0 3466.24   9
   3   7   1 67442.2 3200.62  27
   3  -7   1 69613.3 3858.61  26
   3   7   1 67823.4 3473.19  14
   3  -7   1 71304.0 3854.99  43
   3  -7   1 59334.0 3192.99   8
   3   7   1 64635.1 3117.26  24
   3   7   1 66121.4 3200.13  40
  -3   7  -1 66923.0 3496.21  23
   3  -7   1 66005.4 3776.64  39
   3  -7   1 56472.5 3503.52  21
   3  -7   1 61733.2 3498.57  36
   3   7   2-56.9123 121.502  27
   3   7   2 44.0878 201.301   9
   3  -7   2 239.617 285.468  26
   3  -7   2 285.172 361.451  43
   3   7   2 186.628 242.762  42
   3   7   2 84.2421 177.812  24
   3   7   2-297.836 221.175  40
   3  -7   2-63.5780 171.711   8
  -3   7  -2 45.2161 129.239  23
   3  -7   2 305.120 253.119  39
   3  -7   2 172.353 274.864  21
   3  -7   3 14383.3 1675.67  54
   3   7   3 19150.8 2013.45   9
   3  -7   3 17132.4 1889.97  26
   3  -7   3 18002.3 1892.83  43
   3  -7   3 16278.9 1674.13   8
   3   7   3 20256.6 1728.54  24
   3   7   3 21203.6 1789.97  42
   3   7   3 18322.1 1700.75  40
   3  -7   3 18906.3 2033.49  39
   3  -7   3 17160.2 1953.98  21
   3  -7   4-114.679 224.901  54
   3   7   4 721.935 359.946   9
   3  -7   4-19.5975 221.553  43
   3   7   4-101.231 240.948  42
   3   7   4-353.911 242.394  24
   3   7   4-66.0040 145.766  40
   3  -7   4 106.102 238.579   8
   3  -7   4 186.196 285.921  39
   3  -7   4 6.19498 153.010  21
   3  -7   5 20751.2 2080.28  54
   3   7   5 23701.8 2186.24   9
   3  -7   5 22835.7 1989.10   8
   3   7   5 22918.4 1873.89  24
   3   7   5 24778.8 1921.99  42
   3  -7   5 23294.3 2232.38  39
   3  -7   5 18722.0 2033.47  21
   3  -7   5 22752.4 2167.94  11
   3  -7   6 1018.77 480.688  54
   3   7   6 580.253 388.330   9
   3   7   6 625.778 263.419  42
   3   7   6 1212.65 433.622  24
   3  -7   6 1348.85 513.941   8
   3  -7   6 617.229 324.067  39
   3  -7   6 180.277 212.997  21
   3  -7   6 776.485 414.197  11
   3   7   7 26391.9 2158.32   9
   3   7   7 25155.2 1807.92  51
   3  -7   7 31828.2 2202.75   8
   3   7   7 32639.8 2082.89  24
   3   7   7 29676.8 1952.37  42
   3  -7   7 26083.6 2108.28  39
   3  -7   7 27591.6 2253.74  11
   3  -7   7 24663.4 2086.37  54
   3   7   8 73.0920 94.3142  24
   3   7   8 251.954 221.056  42
   3  -7   8 361.442 208.835  41
   3  -7   8 24.4756 137.420   8
   3  -7   8-4.17815 93.1975  39
   3  -7   8 347.014 232.523  11
   3   7   9 12978.3 1040.05  51
   3  -7   9 14634.8 1151.50   8
   3   7   9 13828.2 1097.22  24
   3   7   9 16540.1 1180.77  42
   3  -7   9 15412.6 1319.57  11
   3   7  10 165.151 65.9288  42
   3  -7  10 139.620 90.6846  11
  -3   9   9 1.73602 121.523  29
   3   9  -9 218.068 124.817  53
   3   9  -9-119.985 67.9073  28
  -3  -9   9-26.4381 63.0605  15
   3  -9  -9 196.626 188.193  27
   3  -9  -9 48.6489 121.431  57
  -3  -9   9 119.063 113.645  44
  -3  -9   9 264.056 128.024  25
   3   9  -9-57.8161 87.7760  40
   3   9  -9-39.1347 100.156  30
  -3   9   9-44.6193 125.827  22
   3  -9  -9-151.087 91.2563  37
   3  -9  -9 182.451 139.466  60
  -3  -9   9 177.661 99.6801  59
  -3   9   9 134.944 118.678   7
  -3  -9   9 288.577 216.134  58
  -3   9   9 155.092 142.554  56
  -3  -9   8 11359.9 1144.58  54
   3   9  -8 9881.04 1037.97  53
   3   9  -8 10863.7 1053.00  28
  -3  -9   8 10680.4 1107.65  15
   3  -9  -8 9672.98 1053.67  27
  -3  -9   8 11992.1 1180.69  44
  -3  -9   8 9959.04 1079.76  25
   3  -9  -8 11044.7 1157.45  57
  -3   9   8 7542.91 862.639  23
   3   9  -8 10538.8 1049.01  30
   3   9  -8 8732.31 912.601  40
   3  -9  -8 10860.8 1139.00  12
  -3   9   8 9846.43 984.297  22
   3  -9  -8 9787.79 1108.36  37
  -3   9   8 9471.48 928.427   7
   3  -9  -8 10776.9 1139.09  60
  -3  -9   8 12600.1 1213.85  59
  -3  -9   8 9795.32 1168.79  58
   3   9  -8 10429.8 1018.13  57
  -3   9   8 9669.06 958.903  56
  -3   9   8 10275.4 1003.80  29
  -3   9   7-52.2599 173.253  29
  -3  -9   7 184.769 105.814  54
   3   9  -7 142.993 130.345  53
   3   9  -7-443.520 239.922  28
  -3  -9   7 30.1682 176.297  15
   3  -9  -7 46.1763 145.977  27
   3   9  -7 275.302 205.561  30
  -3  -9   7 11.7417 164.458  44
  -3  -9   7 176.173 130.456  25
   3   9  -7 418.947 243.573  40
  -3   9   7 30.4862 223.361  23
  -3   9   7-45.6343 165.084  22
   3  -9  -7 52.7432 166.622  12
   3  -9  -7-41.2428 187.661  37
   3  -9  -7 10.6164 134.370  36
  -3  -9   7 47.8939 88.1092  21
   3  -9  -7 99.6721 261.499  60
  -3  -9   7-19.9318 220.409  59
  -3  -9   7-138.852 257.801  58
   3   9  -7 82.9999 160.609  57
  -3   9   7-52.2968 84.5938  56
  -3  -9   6 15971.4 1562.04  54
   3   9  -6 12281.8 1302.21  53
   3   9  -6 13672.5 1376.40  28
  -3  -9   6 11236.2 1280.01  15
   3  -9  -6 11582.0 1319.20  27
   3   9  -6 13217.7 1458.26  14
  -3  -9   6 15422.5 1538.09  44
  -3  -9   6 15132.2 1495.78  25
   3   9  -6 13840.2 1358.55  30
  -3   9   6 13535.9 1425.52  23
   3   9  -6 12724.9 1281.04  40
   3  -9  -6 14190.2 1526.25  12
  -3   9   6 14636.0 1435.86  22
   3  -9  -6 14313.3 1550.70  37
   3  -9  -6 11535.1 1389.01  36
  -3  -9   6 13585.4 1445.46  21
  -3  -9   6 15033.8 1507.81  59
   3   9  -6 13952.5 1384.83  57
  -3   9   6 13424.0 1361.13  56
  -3   9   6 15387.4 1427.21  29
  -3   9   5 1751.93 518.429  29
  -3  -9   5 1438.25 515.900  54
   3   9  -5 2152.03 546.211  53
   3   9  -5 2329.00 584.474  28
  -3  -9   5 2608.51 647.602  44
   3   9  -5 1855.07 595.675  14
  -3  -9   5 2234.62 607.840  25
   3  -9  -5 1996.46 600.637  43
   3   9  -5 1239.62 413.492  40
  -3   9   5 1948.82 594.703  23
  -3   9   5 1309.93 417.040  22
   3  -9  -5 2412.56 673.742  37
   3  -9  -5 1315.57 484.056  12
   3  -9  -5 2505.47 668.041  36
  -3  -9   5 1993.50 568.603  21
  -3  -9   5 1632.87 513.994  59
   3   9  -5 1830.57 520.973  57
   3   9  -5 1860.70 480.682  30
  -3   9   5 1994.99 547.720  56
  -3  -9   4 23663.1 1986.37  54
   3   9  -4 19487.6 1688.70  53
   3   9  -4 22619.5 1850.34  28
   3  -9  -4 17542.6 1805.31  26
   3   9  -4 24463.6 2162.47  14
  -3  -9   4 24323.8 2059.84  44
  -3  -9   4 24307.7 2014.45  25
   3  -9  -4 20581.4 1978.49  43
  -3   9   4 22413.0 1976.09  23
   3   9  -4 21447.4 1771.80  40
   3  -9  -4 19872.9 1926.83  12
  -3   9   4 21960.5 1880.02  22
   3  -9  -4 22047.7 2066.78  37
   3  -9  -4 21821.8 2084.29  36
  -3  -9   4 25500.9 2133.53  21
  -3  -9   4 22612.7 1953.05  59
  -3   9   4 15242.0 1625.97  10
   3   9  -4 22229.1 1861.27  57
   3   9  -4 21583.1 1794.90  30
  -3   9   4 20900.0 1809.73  56
  -3   9   4 23594.1 1891.54  29
  -3  -9   3 11825.6 1415.51  54
   3   9  -3 10321.7 1253.60  28
   3   9  -3 11700.1 1347.44  57
   3  -9  -3 9737.77 1390.44  26
   3   9  -3 10417.2 1422.12  14
  -3  -9   3 10646.0 1354.59  44
  -3  -9   3 12495.5 1455.06  25
   3  -9  -3 13154.9 1603.62  43
  -3   9   3 11418.8 1402.99  23
   3   9  -3 11532.4 1298.55  40
   3  -9  -3 12102.9 1503.83  12
  -3   9   3 10411.0 1307.91  22
   3  -9  -3 10131.5 1404.31  37
   3  -9  -3 11282.3 1472.43  36
  -3  -9   3 12601.3 1473.09  59
   3   9  -3 10960.1 1265.47  30
  -3   9   3 11755.7 1354.73  56
  -3   9   3 12797.1 1400.41  29
   3  -9  -2 11932.8 1453.35   6
  -3  -9   2 15623.6 1662.55  54
   3   9  -2 15251.9 1534.28  28
   3   9  -2 11128.2 1263.80  27
   3  -9  -2 13926.4 1701.01  26
   3   9  -2 14162.9 1644.08  14
  -3  -9   2 13206.4 1475.28  25
   3  -9  -2 14481.7 1735.14  43
  -3   9   2 14091.9 1576.38  23
   3   9  -2 14785.4 1474.50  40
   3  -9  -2 14809.3 1689.23  12
  -3   9   2 14525.6 1567.23  22
   3  -9  -2 13699.5 1624.43  37
   3  -9  -2 14434.1 1709.36  36
  -3  -9   2 15783.8 1658.70  59
   3   9  -2 16443.9 1599.92  57
   3   9  -2 12548.8 1370.95  30
  -3   9   2 14749.7 1531.98  56
  -3   9   2 16692.0 1636.28  29
   3   9  -1 6791.80 1038.70  28
   3   9  -1 6738.62 988.835  27
   3  -9  -1 6267.43 1154.03  26
   3   9  -1 7239.36 1169.05  14
   3  -9  -1 8363.49 1296.95  43
   3   9  -1 6006.27 942.541  40
  -3   9   1 5865.94 1049.76  23
   3  -9  -1 6984.10 1144.33  12
  -3   9   1 5688.58 993.026  22
   3  -9  -1 5899.96 1060.47  37
   3  -9  -1 7233.39 1207.43  36
   3  -9  -1 4143.29 913.282  21
  -3  -9   1 6352.62 1051.82  59
   3   9  -1 7296.93 1077.88  57
   3   9  -1 5964.12 913.119  30
  -3   9   1 7132.16 1074.46  56
  -3   9   1 6584.91 1028.97  29
   3   9   0 15473.0 1550.85  28
   3   9   0 16186.7 1582.51  27
   3  -9   0 15947.5 1821.70  26
   3   9   0 15892.0 1713.90  14
   3  -9   0 11642.2 1379.55   8
   3  -9   0 14932.5 1751.81  43
   3   9   0 13685.4 1456.23  40
  -3   9   0 17106.7 1764.76  23
   3  -9   0 12338.1 1599.31  39
   3  -9   0 11382.7 1457.70  12
  -3   9   0 11616.4 1421.51  22
   3  -9   0 11284.3 1554.22  21
   3  -9   0 15759.2 1781.46  36
  -3   9   0 15773.8 1618.24  56
  -3   9   0 13713.8 1504.82  29
  -3   9  -1 766.073 304.879  29
   3   9   1 453.712 255.377  28
  -3   9  -1 664.039 396.632  56
   3  -9   1 1026.43 554.639  26
   3   9   1 1438.09 492.962  14
   3  -9   1 682.734 392.649  43
   3   9   1 658.861 316.123  24
   3   9   1 611.908 308.534  40
   3  -9   1 794.601 364.780   8
  -3   9  -1 982.951 377.457  23
   3  -9   1 666.889 297.524  39
   3  -9   1 673.438 277.133  36
   3  -9   1 417.655 401.177  21
   3   9   2 30708.3 2557.41   9
   3   9   2 35082.8 2316.67  28
   3  -9   2 34339.8 2705.09  26
   3   9   2 28042.2 2218.60  14
   3  -9   2 29577.1 2459.89  43
   3  -9   2 29806.0 2246.25   8
   3   9   2 31126.7 2153.84  24
   3   9   2 34352.5 2339.06  42
   3   9   2 33508.0 2296.82  40
  -3   9  -2 32022.9 2430.86  23
   3  -9   2 30516.3 2599.23  39
   3  -9   2 29504.4 2508.95  21
  -3   9  -2 31893.7 2359.79  56
  -3   9  -2 34339.6 2433.08  29
   3  -9   3 873.322 412.615  54
  -3   9  -3 1143.94 447.208  29
   3   9   3 1567.73 583.180   9
   3   9   3 1401.84 468.749  28
   3  -9   3 1091.54 474.132  26
   3  -9   3 836.551 429.756  43
   3   9   3 1371.57 441.800  24
   3   9   3 1189.31 435.352  42
   3   9   3 1176.60 390.378  40
   3  -9   3 1388.98 477.532   8
  -3   9  -3 1481.31 531.478  23
   3  -9   3 1940.85 654.357  39
   3  -9   3 1539.85 592.763  21
   3  -9   4 18434.3 1799.26  54
  -3   9  -4 26129.9 2109.20  29
   3   9   4 22186.5 1767.29  28
   3   9   4 23705.0 2167.05   9
   3  -9   4 20485.7 1945.67  26
   3  -9   4 17639.5 1733.23  43
   3  -9   4 21949.7 1882.51   8
   3   9   4 25136.6 1869.39  24
   3   9   4 27225.9 1977.54  42
  -3   9  -4 22916.3 1899.49  23
   3  -9   4 21381.9 2074.65  39
   3  -9   4 20104.5 2026.64  21
   3  -9   5 1366.87 506.112  54
  -3   9  -5 2012.87 605.566  29
   3   9   5 1124.50 372.473  24
   3   9   5 1877.94 476.507  42
   3  -9   5 835.281 355.201   8
   3  -9   5 2427.61 709.779  39
   3  -9   5 1304.24 498.986  21
   3  -9   6 7719.35 1084.21  54
   3  -9   6 10141.1 1159.27   8
   3   9   6 9912.30 1087.56  24
   3   9   6 9951.48 1103.99  42
   3  -9   6 9308.85 1222.47  39
   3  -9   6 7958.22 1104.16  21
   3  -9   6 7769.23 1037.65  11
  -3   9  -7 37.1931 102.354  29
   3  -9   7 308.578 181.635   6
   3   9   7 513.200 243.943  24
   3   9   7 575.526 233.201  42
   3  -9   7 500.771 228.207   8
   3  -9   7 106.354 184.999  39
   3  -9   7 335.804 223.554  11
   3  -9   7 52.3813 180.640  54
  -3   9  -8 7037.13 817.053  29
   3  -9   8 6427.33 721.647   8
   3   9   8 6676.35 712.294  24
   3   9   8 7163.94 718.458  42
   3  -9   8 5064.38 662.407  11
  -3  11   7 2422.99 416.225  29
  -3 -11   7 3543.64 577.476  54
   3  11  -7 2954.21 472.070  53
   3  11  -7 2651.97 443.690  28
  -3 -11   7 3525.00 573.387  25
  -3 -11   7 2700.80 510.708  44
   3  11  -7 2530.09 438.061  23
   3 -11  -7 2938.11 518.652  12
   3 -11  -7 3227.20 569.207  37
   3 -11  -7 1950.73 406.935  36
  -3 -11   7 2960.22 510.246  21
   3 -11  -7 2344.64 460.474  60
  -3 -11   7 3813.72 600.382  59
  -3 -11   7 3129.71 584.429  58
   3  11  -7 2928.05 465.543  30
   3 -11  -7 3161.05 533.513  57
  -3  11   7 2020.24 349.963  56
  -3  11   6 2168.12 446.081  29
  -3 -11   6 2502.78 547.077  54
   3  11  -6 1892.22 406.510  53
   3  11  -6 2225.04 456.121  28
  -3 -11   6 2342.17 634.944  44
   3  11  -6 1245.03 370.700  14
  -3 -11   6 1835.56 460.485  25
   3  11  -6 1346.00 338.002  40
  -3  11   6 1691.24 399.978  23
   3  11  -6 1447.66 360.865  23
   3 -11  -6 1814.91 480.350  37
   3 -11  -6 2435.69 522.390  12
   3 -11  -6 2209.08 520.159  36
  -3 -11   6 2168.26 508.690  21
   3 -11  -6 1177.18 349.073  60
  -3 -11   6 2373.54 536.669  59
  -3 -11   6 2690.44 602.463  58
   3  11  -6 1952.96 423.364  30
  -3  11   6 2151.42 422.545  56
  -3 -11   5 13191.5 1317.96  54
   3  11  -5 9456.51 987.488  53
   3  11  -5 10226.5 1039.27  28
   3  11  -5 9793.54 1142.45  14
  -3 -11   5 10891.1 1178.66  44
  -3 -11   5 11576.2 1205.60  25
   3 -11  -5 8792.29 1032.04  43
  -3  11   5 8669.19 1021.90  23
   3  11  -5 8739.01 927.768  40
   3 -11  -5 11221.7 1222.90  12
   3 -11  -5 10399.1 1185.96  37
   3 -11  -5 9995.74 1179.72  36
  -3 -11   5 11781.1 1261.27  21
   3 -11  -5 9196.45 1042.62  60
  -3 -11   5 11690.4 1238.72  59
   3  11  -5 10039.6 1032.12  30
  -3  11   5 9515.13 996.338  56
  -3  11   5 10604.1 1074.08  29
  -3  11   4 574.043 269.439  29
  -3 -11   4 239.679 113.359  54
   3  11  -4 521.568 251.291  53
   3  11  -4 468.494 235.540  28
   3 -11  -4-5.85641 134.798  26
  -3 -11   4 247.579 218.577  44
   3  11  -4 495.333 296.333  14
  -3 -11   4 752.856 258.865  25
   3 -11  -4 364.710 261.897  43
   3  11  -4 277.738 177.883  40
  -3  11   4 328.013 242.722  23
  -3 -11   4 429.922 290.012  39
   3 -11  -4 235.578 207.564  37
   3 -11  -4 329.243 278.859  12
   3 -11  -4 1002.84 398.890  36
  -3 -11   4 863.453 368.912  21
  -3 -11   4 663.563 314.332  59
   3  11  -4 483.907 248.597  30
  -3  11   4 428.333 239.084  56
  -3 -11   3 18857.8 1696.35  54
   3  11  -3 18507.1 1506.77  28
   3 -11  -3 13612.1 1476.59  26
   3  11  -3 18454.0 1705.70  14
  -3 -11   3 18542.5 1593.43  25
   3 -11  -3 15021.4 1560.82  43
  -3  11   3 16715.4 1573.94  23
   3  11  -3 16077.5 1383.37  40
  -3 -11   3 16591.5 1591.01  39
   3 -11  -3 16874.1 1624.91  12
   3 -11  -3 16091.6 1565.41  37
   3 -11  -3 16011.2 1610.09  36
  -3 -11   3 20869.9 1802.26  21
  -3 -11   3 19056.0 1655.14  59
   3  11  -3 17882.6 1473.04  30
  -3  11   3 16161.5 1440.06  56
  -3  11   3 18451.0 1538.11  29
  -3  11   2 80.4828 160.963  29
  -3 -11   2 210.684 208.739  54
   3  11  -2 206.942 222.980  28
   3 -11  -2 161.531 191.346  26
   3  11  -2-113.654 155.634  14
   3 -11  -2 378.798 358.177  43
   3  11  -2 199.249 163.728  40
  -3  11   2 329.859 199.409  23
   3 -11  -2 98.7005 108.177  37
   3 -11  -2-186.493 201.240  12
   3 -11  -2 87.4246 131.042  36
  -3 -11   2 333.732 262.641  21
  -3 -11   2 209.055 106.466  59
   3  11  -2 236.896 215.828  30
  -3  11   2 278.367 194.718  56
   3 -11  -1 10090.1 1225.41   6
  -3 -11   1 13777.9 1436.62  54
   3  11  -1 12691.6 1297.56  28
   3 -11  -1 11516.3 1437.18  26
   3  11  -1 12707.2 1445.76  14
   3 -11  -1 11857.8 1430.88  43
   3  11  -1 11632.5 1204.74  40
  -3  11   1 11665.0 1338.92  23
   3 -11  -1 11858.2 1382.38  12
   3 -11  -1 8075.11 1146.13  21
   3 -11  -1 12460.8 1451.80  36
  -3 -11   1 16055.7 1608.82  21
   3  11  -1 12712.9 1235.87  30
  -3  11   1 11557.8 1257.47  56
  -3  11   1 12431.6 1302.36  29
  -3  11   0 302.884 164.768  29
  -3 -11   0 429.045 266.755  54
   3  11   0 358.015 188.079  28
   3 -11   0 250.876 167.643   6
   3 -11   0 507.856 232.852  26
   3  11   0 112.697 158.410  14
   3 -11   0 641.314 372.818  43
   3  11   0 255.988 177.976  42
   3  11   0 1556.96 398.235  40
  -3  11   0 591.958 386.653  23
   3 -11   0 340.102 351.322  39
  -3  11   0-159.828 240.939  22
   3 -11   0 444.423 311.416  12
   3 -11   0 666.860 358.702  36
   3 -11   0 485.244 325.697  21
  -3 -11   0 130.529 136.679  21
   3  11   0 647.589 281.289  30
  -3  11   0 225.431 235.456  56
   3  11   1 10327.3 1150.01  28
   3 -11   1 10194.2 1332.97  26
   3  11   1 9011.25 1183.83  14
   3 -11   1 8663.79 1208.24  43
   3  11   1 10532.3 1143.41  42
   3  11   1 9634.17 1084.51  40
  -3  11  -1 10341.5 1252.87  23
   3 -11   1 7377.47 1117.80  39
  -3  11  -1 6780.36 950.078  22
   3 -11   1 6994.72 1082.21  21
   3 -11   1 8569.37 1155.80  36
  -3  11  -1 10535.8 1221.14  56
  -3  11  -1 9863.50 1154.74  29
  -3  11  -2 4189.09 762.162  29
   3  11   2 4521.31 741.085  28
   3 -11   2 4409.74 869.859  26
   3  11   2 4249.78 752.799  14
   3 -11   2 3328.07 728.659  43
   3  11   2 4706.99 760.876  42
   3  11   2 3916.00 705.818  40
   3 -11   2 2524.60 529.054   8
  -3  11  -2 4831.54 854.856  23
   3 -11   2 3841.06 803.734  39
  -3  11  -2 3433.92 662.135  22
   3 -11   2 2571.03 674.685  21
  -3  11  -2 3996.31 775.117  56
   3  11   2 5628.84 903.172  10
   3  11   3 9240.49 1025.39  28
   3 -11   3 11122.6 1292.55  26
   3 -11   3 9333.16 1119.37  43
   3 -11   3 9994.97 1096.01   8
   3  11   3 11784.0 1147.50  42
  -3  11  -3 9622.12 1163.47  23
   3 -11   3 9281.32 1214.46  39
  -3  11  -3 9600.89 1096.31  22
   3 -11   3 8625.82 1175.74  21
  -3  11  -3 12665.1 1292.05  56
   3  11   3 14375.4 1369.46  10
  -3  11  -3 12052.1 1248.13  29
  -3  11  -4 2810.75 587.999  29
   3  11   4 2425.31 515.529  10
   3  11   4 1387.47 369.780  28
   3 -11   4 2018.85 492.339  26
   3  11   4 2073.76 442.224  24
   3  11   4 2161.74 474.528  42
   3 -11   4 1597.05 417.663   8
  -3  11  -4 2720.72 578.570  23
   3 -11   4 1851.52 511.570  39
  -3  11  -4 1441.92 407.449  22
   3 -11   4 1249.94 430.949  21
  -3  11  -4 2654.77 587.069  56
   3 -11   5 7050.79 834.893   8
   3  11   5 7873.57 801.404  24
   3  11   5 7652.94 820.818  42
   3 -11   5 8514.74 1008.51  39
   3 -11   5 5811.27 829.824  21
  -3  11  -5 8970.88 995.414  56
  -3  11  -5 9853.56 1022.41  29
  -3  11  -6 576.202 240.245  29
   3 -11   6 608.345 224.656   6
   3  11   6 188.476 134.004  24
   3  11   6 815.723 242.424  42
   3 -11   6 566.099 220.797   8
   3 -11   6 329.116 170.488  39
  -3  11  -6 1118.28 338.953  56
  -3 -13   4 3033.66 513.548  54
   3  13  -4 2893.70 422.066  28
   3  13  -4 2242.59 422.094  14
   3 -13  -4 2155.31 409.363  43
   3  13  -4 2492.62 387.041  42
  -3  13   4 2051.33 374.553  23
   3 -13  -4 2936.20 490.170  12
  -3 -13   4 3344.28 541.054  21
   3 -13  -4 2700.51 476.588  36
   3  13  -4 2694.15 412.140  30
  -3  13   4 2707.29 416.302  29
  -3 -13   3 4156.22 605.235  54
   3  13  -3 4155.17 533.857  28
  -3 -13   3 4277.11 632.779  26
   3  13  -3 3728.90 590.639  14
   3 -13  -3 2559.24 466.966  26
   3 -13  -3 3744.93 588.608  43
   3  13  -3 3727.51 506.322  42
  -3  13   3 3762.60 560.049  23
   3  13  -3 3032.45 428.394  40
  -3 -13   3 4197.57 603.644  39
   3 -13  -3 4018.02 599.490  12
   3 -13  -3 3442.19 574.949  36
  -3 -13   3 5266.19 721.063  21
   3  13  -3 3528.46 483.796  30
  -3  13   3 3054.25 444.458  56
  -3  13   3 4244.12 563.394  29
  -3 -13   2 6466.99 760.149  54
   3  13  -2 6554.14 705.893  28
   3 -13  -2 5506.57 738.137  26
  -3 -13   2 8119.38 917.141  26
   3  13  -2 5594.61 740.825  14
   3 -13  -2 7386.55 867.466  43
   3  13  -2 6208.48 675.788  42
  -3  13   2 6830.77 785.701  23
   3  13  -2 5476.53 618.999  40
  -3 -13   2 7278.82 862.582  39
   3 -13  -2 6037.13 739.941  12
   3 -13  -2 6428.57 808.122  36
  -3 -13   2 8556.18 935.413  21
   3  13  -2 6103.39 649.908  30
  -3  13   2 5772.87 660.208  56
  -3  13   2 6292.49 707.845  29
   3  13  -1 7838.36 782.203  28
   3 -13  -1 6438.35 830.189  26
   3  13  -1 6448.83 810.393  14
   3 -13  -1 6987.93 852.111  43
   3  13  -1 6914.21 718.246  42
   3  13  -1 6371.79 689.189  40
  -3  13   1 8312.89 900.599  23
  -3 -13   1 9187.82 980.840  39
   3 -13  -1 6484.04 740.317  12
   3 -13  -1 6667.27 815.602  36
  -3 -13   1 8352.99 906.531  21
  -3  13   1 6417.08 731.468  56
   3  13  -1 8555.88 907.959  10
  -3  13   1 7350.22 791.009  29
   3  13   0 11395.9 935.982  28
   3 -13   0 10343.4 1073.87  26
  -3 -13   0 14757.3 1266.38  26
   3  13   0 10604.5 1027.53  14
   3 -13   0 11792.5 1095.89  43
   3  13   0 11692.0 938.165  42
  -3  13   0 12383.4 1108.47  23
  -3 -13   0 13500.0 1203.18  39
   3 -13   0 9212.71 914.906  36
  -3  13   0 11523.6 996.066  56
   3  13   0 14203.8 1181.18  10
   3 -13   0 8071.73 819.168   6
  -3  13   0 13873.6 1091.65  29
   3  13   1 3100.86 475.147  28
  -3  13  -1 4307.86 595.317  56
   3 -13   1 2999.34 495.474   6
  -3 -13  -1 3809.20 617.629  26
   3 -13   1 3380.38 594.353  26
   3 -13   1 3037.42 536.405  43
   3  13   1 2915.16 457.701  42
  -3  13  -1 3928.09 611.777  23
   3 -13   1 2193.06 430.915  39
  -3 -13  -1 3508.71 589.563  39
   3  13   1 4521.22 645.981  10
  -3  13  -1 3505.88 535.289  29
   3  13   2 5407.29 598.505  28
   3 -13   2 5336.92 696.996  26
  -3 -13  -2 6004.10 713.201  26
   3 -13   2 3838.82 542.021  43
   3  13   2 5519.39 592.921  42
  -3  13  -2 5756.32 711.197  23
   3 -13   2 4490.37 639.015  39
  -3 -13  -2 6824.97 785.816  39
  -3  13  -2 6742.22 725.733  56
   3  13   2 6675.02 738.798  10
  -3  13  -2 6278.69 694.309  29
   3 -13   2 5272.59 657.868   6
  -3  13  -3 709.018 220.137  29
   3 -13   3 291.101 168.054   6
   3  13   3 504.034 169.068  42
  -3  13  -3 521.359 203.748  23
   3 -13   3 536.528 203.500  39
  -3  13  -3 710.817 230.203  56
   4   0 -11-73.5920 82.5196  27
  -4   0  11-39.4662 75.3741  45
  -4   0  11 58.0919 82.6318  13
   4   0 -11 58.9582 65.8128  40
   4   0 -11 73.5581 136.559  57
   4   0 -11 159.310 144.752  30
  -4   0  11 163.906 151.787  55
   4   0 -10 4945.22 745.459  27
  -4   0  10 4016.46 628.927  15
   4   0 -10 6050.30 825.293  30
  -4   0  10 4973.20 733.038  45
  -4   0  10 3921.38 610.007  13
   4   0 -10 5009.29 771.572  40
   4   0 -10 5360.86 786.016  57
  -4   0  10 5329.80 755.220  55
   4   0  -9-3.43990 121.505  27
  -4   0   9-55.7932 91.6848  15
  -4   0   9 136.943 231.039  45
   4   0  -9-92.2421 203.103  40
   4   0  -9 7.16606 94.1912  12
   4   0  -9 47.9336 180.256  60
   4   0  -9 324.931 257.640  57
   4   0  -9-77.5415 107.397  30
  -4   0   9 265.130 191.383  55
   4   0  -8 22473.6 1965.11  27
  -4   0   8 24205.9 1943.40  15
  -4   0   8 25117.0 1972.82  45
  -4   0   8 20151.2 1719.31  44
   4   0  -8 25574.4 2099.72  40
   4   0  -8 22310.2 1928.69  12
   4   0  -8 23367.6 1952.94  60
   4   0  -8 25335.2 2048.60  57
   4   0  -8 24517.7 1971.52  30
  -4   0   8 21837.8 1845.03  56
  -4   0   8 26017.2 1981.96  55
   4   0  -7 526.926 333.327  27
  -4   0   7-256.840 223.320  15
  -4   0   7-46.4589 224.513  45
  -4   0   7-5.39733 243.054  44
   4   0  -7 278.657 162.960  40
   4   0  -7 261.502 352.651  12
   4   0  -7-120.428 327.050  60
   4   0  -7-186.235 165.178  57
  -4   0   7 36.3981 238.344  56
   4   0  -7 201.326 259.872  30
  -4   0   7-184.466 169.648  55
   4   0  -6 92032.1 4247.18  27
  -4   0   6 84602.7 3988.69  15
   4   0  -6 86066.9 4038.25  57
  -4   0   6 93836.1 4197.49  45
   4   0  -6 82132.8 4036.59  40
   4   0  -6 86056.7 4118.63  12
   4   0  -6 68944.5 3675.61  36
   4   0  -6 83633.2 4040.15  60
  -4   0   6 76529.5 3735.27  56
  -4   0   6 84598.0 3875.03  55
   4   0  -5 17.7937 257.665  27
  -4   0   5 24.6179 137.879  15
  -4   0   5-148.462 189.981  45
   4   0  -5 138.449 248.645  60
   4   0  -5 46.5192 196.414  12
   4   0  -5 182.255 243.601  37
   4   0  -5 170.279 224.391  36
   4   0  -5 128.513 257.172  57
  -4   0   5 126.040 208.245  55
   4   0  -4 44980.0 2839.60  27
  -4   0   4 44814.7 2792.95  45
  -4   0   4 45481.8 2919.95  23
   4   0  -4 41759.1 2705.97  12
   4   0  -4 40558.7 2667.54  37
   4   0  -4 43029.9 2719.04  60
   4   0  -4 38958.2 2687.55  36
   4   0  -4 43432.4 2759.44   6
   4   0  -4 42905.5 2685.10  57
  -4   0   4 42276.1 2665.67  55
   4   0  -3 84.9059 186.205   6
   4   0  -3 179.519 170.830  27
  -4   0   3 242.098 199.034  46
  -4   0   3-30.5345 191.633  45
   4   0  -3 107.471 125.502  12
   4   0  -3-140.729 196.169  37
   4   0  -3-219.920 183.943  36
   4   0  -3-103.719 140.305  60
   4   0  -3 72.2534 100.904  57
  -4   0   3-2.27229 205.687  55
   4   0  -2 5491.33 900.129   6
  -4   0   2 4692.15 870.241  50
  -4   0   2 2966.63 716.103  46
   4   0  -2 3924.43 802.708   5
   4   0  -2 4940.90 877.572  37
   4   0  -2 4220.09 842.028  36
  -4   0   2 3135.33 728.304  34
  -4   0   2 4233.61 839.209  20
   4   0  -2 3024.31 666.945  31
  -4   0   1 159.828 190.449  50
   4   0  -1-26.9177 94.2571   5
  -4   0   1 178.221 176.553  34
  -4   0   1-235.322 207.420  20
   4   0  -1 105.367 116.703  31
  -4   0   0 30333.8 2210.49  50
  -4   0   0 26478.2 2272.20  34
  -4   0   0 27322.0 2139.36  20
   4   0   0 30541.3 2066.59  31
  -4   0  -1-119.399 187.017  50
   4   0   1 41.9279 105.201  43
   4   0   1-116.417 124.298  41
   4   0   1 69.1362 91.5622   5
   4   0   1-56.8765 141.820  37
  -4   0  -1-21.7343 137.810  34
  -4   0  -1 48.7373 134.789  20
   4   0   1 60.4779 94.4097  31
   4   0   2 48835.8 2983.20   9
   4   0   2 41451.7 2611.86  43
   4   0   2 42225.1 2631.49  41
   4   0   2 45096.3 2679.93  37
   4   0   2 42037.8 2732.10  11
   4   0   3-72.8771 242.311   9
   4   0   3 13.7900 181.001  11
   4   0   3 94.5719 218.235  43
   4   0   3 260.768 298.226  41
   4   0   3 498.478 306.295  37
   4   0   4 25154.5 2197.29   9
   4   0   4 21168.8 1930.28  43
   4   0   4 26209.3 2107.81  41
   4   0   4 21084.2 1820.63  37
   4   0   4 24757.3 2174.23  11
   4   0   5 116.088 223.787   9
   4   0   5 74.8410 177.819  41
   4   0   5 354.899 342.460  11
   4   0   6 35249.0 2607.54   9
   4   0   6 29431.0 2244.51  41
   4   0   6 35281.9 2568.74  11
   4   0   7-157.708 188.108   9
   4   0   7 132.501 99.7009  41
   4   0   7-59.8405 253.298  11
   4   0   8 26109.4 1984.93   9
   4   0   8 29180.0 2037.29  41
   4   0   8 27003.1 2073.32  11
   4   0   9-0.52184 112.505  41
   4   0   9 299.882 196.641  11
   4   0  10 3175.07 485.257  41
   4   0  10 2612.44 448.453  11
   4   2 -11 5124.32 655.396  53
  -4  -2  11 4039.29 516.901  15
   4  -2 -11 5127.35 626.978  27
  -4  -2  11 5529.98 650.872  45
  -4   2  11 5269.16 614.490  45
  -4   2  11 4202.30 527.022  13
   4   2 -11 7144.57 745.090  40
   4  -2 -11 4618.96 584.302  40
  -4   2  11 3953.31 515.270  22
   4  -2 -11 5234.30 613.469  57
   4   2 -11 5557.01 651.108  30
   4  -2 -11 6170.54 695.539  30
  -4  -2  11 5363.34 634.305  55
  -4   2  11 5459.63 605.716  55
   4  -2 -10 898.702 340.693  27
  -4  -2  10 1489.13 391.285  15
  -4  -2  10 1240.90 372.771  45
  -4   2  10 1053.67 328.547  45
  -4   2  10 721.293 253.787  13
   4   2 -10 1398.23 428.030  40
   4  -2 -10 1190.26 350.202  40
  -4   2  10 1073.09 319.465  22
   4  -2 -10 965.804 328.846  60
   4  -2 -10 1248.33 373.716  57
   4   2 -10 1356.77 375.666  57
   4   2 -10 1141.39 364.842  30
   4  -2 -10 957.712 349.990  30
  -4  -2  10 901.011 320.302  55
  -4   2  10 937.281 318.928  55
   4   2  -9 6852.51 925.502  27
   4  -2  -9 8709.62 1125.59  27
  -4  -2   9 8830.87 1079.64  15
  -4  -2   9 8691.72 1086.86  45
  -4   2   9 7627.54 996.113  45
  -4  -2   9 6357.01 886.166  44
  -4   2   9 7258.21 958.249  13
   4   2  -9 8313.18 1088.38  40
   4  -2  -9 8271.85 1077.69  40
   4   2  -9 7049.35 947.865  12
   4  -2  -9 7905.47 1034.19  12
  -4   2   9 8226.33 1028.32  22
   4  -2  -9 8022.55 1071.66  60
   4   2  -9 7550.03 1002.88  57
   4  -2  -9 8625.01 1121.01  57
   4   2  -9 8780.12 1065.27  30
   4  -2  -9 9870.69 1144.19  30
  -4   2   9 7784.28 1001.25  56
  -4  -2   9 8562.03 1049.13  55
  -4   2   9 9121.58 1073.94  55
   4   2  -8 185.121 233.551  27
   4  -2  -8 78.4495 258.222  27
  -4  -2   8 150.661 121.550  15
  -4   2   8 45.6685 104.192  15
  -4  -2   8-120.011 175.951  45
  -4   2   8-6.36189 144.820  45
  -4  -2   8 120.722 198.985  44
  -4  -2   8 263.558 160.231  25
  -4   2   8 185.151 140.178  13
   4   2  -8-143.715 195.701  40
   4  -2  -8 161.021 122.315  40
   4   2  -8 147.511 214.985  12
   4  -2  -8 49.7158 110.819  12
  -4   2   8 113.481 191.983  22
   4   2  -8 81.5845 266.720  60
   4  -2  -8-221.464 138.832  60
   4   2  -8 417.464 271.509  57
   4  -2  -8-32.1838 169.502  57
  -4   2   8 185.612 171.993  56
   4   2  -8 202.186 176.298  30
  -4  -2   8 105.427 186.645  55
  -4   2   8 269.099 214.010  55
   4   2  -7 2056.99 626.498  60
   4   2  -7 2452.17 646.141  27
   4  -2  -7 2458.37 687.653  27
  -4  -2   7 2806.07 684.168  15
   4   2  -7 1731.88 566.214  57
  -4   2   7 1811.33 553.910  15
   4   2  -7 2746.10 697.605  30
  -4  -2   7 2709.52 658.687  45
  -4   2   7 1844.27 606.095  45
  -4  -2   7 1496.87 512.206  44
  -4   2   7 2147.99 593.744  44
  -4  -2   7 1701.29 526.550  25
   4   2  -7 1898.19 587.127  40
   4   2  -7 2342.25 612.936  12
  -4   2   7 1904.71 594.126  22
   4  -2  -7 2792.09 724.615  12
   4  -2  -7 2301.23 660.955  60
   4  -2  -7 1638.88 527.242  57
  -4   2   7 2343.31 606.999  56
  -4  -2   7 1896.58 570.487  55
  -4   2   7 1625.18 495.184  55
   4  -2  -6 7751.56 1212.06  60
   4   2  -6 8099.54 1200.70  27
   4  -2  -6 7545.94 1243.03  27
  -4  -2   6 8607.54 1218.31  15
  -4   2   6 7382.33 1101.16  15
  -4  -2   6 7748.97 1184.94  45
  -4   2   6 7765.18 1143.24  45
  -4  -2   6 7885.70 1181.28  44
  -4   2   6 10014.6 1391.29  23
   4   2  -6 8793.37 1259.71  40
   4   2  -6 7733.66 1179.70  12
   4  -2  -6 9050.25 1307.92  12
  -4   2   6 8862.74 1259.87  22
   4  -2  -6 6685.39 1117.86  37
   4  -2  -6 6297.39 1089.83  36
   4   2  -6 7274.12 1114.27  60
   4   2  -6 7671.59 1134.01  57
   4  -2  -6 7406.30 1168.01  57
   4   2  -6 7796.21 1123.26  30
  -4   2   6 6894.31 1085.19  56
  -4  -2   6 7773.03 1128.62  55
  -4   2   6 9564.79 1237.16  55
   4  -2  -5 5081.26 958.068   6
   4   2  -5 4468.40 885.493  27
   4  -2  -5 4721.22 980.116  27
  -4  -2   5 4230.86 859.678  15
  -4   2   5 3890.18 836.537  15
  -4  -2   5 5206.86 949.411  45
  -4   2   5 4356.48 877.346  45
  -4  -2   5 5446.41 986.006  44
   4   2  -5 3433.21 783.320  40
  -4   2   5 6497.07 1114.28  23
   4   2  -5 5408.69 967.391  12
  -4   2   5 4959.22 924.021  22
   4  -2  -5 5289.16 981.628  12
   4  -2  -5 3920.22 848.191  37
   4   2  -5 5107.15 949.453  36
   4  -2  -5 4715.53 941.403  36
   4   2  -5 4926.83 899.897  60
   4  -2  -5 4552.39 926.885  60
   4   2  -5 5114.12 936.340  57
   4  -2  -5 4585.56 905.401  57
   4   2  -5 3986.11 788.378  30
  -4   2   5 4762.24 890.658  56
  -4  -2   5 5178.77 949.364  55
  -4   2   5 4776.17 890.031  55
   4   2  -4 11924.4 1396.24  27
   4  -2  -4 10968.0 1429.44  27
  -4  -2   4 11981.9 1450.78  15
  -4  -2   4 11372.1 1387.42  45
  -4   2   4 11279.3 1358.29  45
  -4   2   4 12471.6 1531.93  23
   4   2  -4 11791.1 1412.50  40
   4   2  -4 10725.2 1337.10  12
   4  -2  -4 10004.5 1327.81  12
  -4   2   4 10961.5 1368.44  22
   4   2  -4 8927.15 1184.46  37
   4  -2  -4 12385.5 1521.71  37
   4   2  -4 10927.1 1388.66  36
   4  -2  -4 11485.4 1471.28  36
   4   2  -4 9806.30 1249.15  60
   4  -2  -4 10465.1 1385.43  60
   4   2  -4 11608.3 1363.53  57
   4  -2  -4 12509.8 1471.96   6
   4  -2  -4 10046.2 1319.34  57
   4   2  -4 8476.34 1108.65  30
  -4   2   4 10902.0 1320.56  56
  -4  -2   4 10625.4 1331.18  55
  -4   2   4 10139.9 1275.92  55
   4   2  -3 40720.5 2561.62  27
   4  -2  -3 40369.4 2729.61  27
  -4  -2   3 40147.3 2718.54  15
   4  -2  -3 33293.9 2493.17  26
  -4   2   3 40701.2 2650.09  45
   4   2  -3 37301.8 2432.55  60
  -4   2   3 41665.8 2765.10  23
   4   2  -3 40607.7 2592.96  12
   4  -2  -3 42986.6 2757.88  12
  -4   2   3 38237.0 2573.76  22
   4   2  -3 36748.8 2426.24  37
   4  -2  -3 42950.4 2840.10  37
   4   2  -3 40294.9 2649.77  36
   4  -2  -3 42102.2 2781.30  36
   4  -2  -3 41645.7 2735.29  60
   4   2  -3 38130.0 2435.54  57
   4  -2  -3 34891.6 2414.51  57
   4  -2  -3 40328.6 2633.28   6
  -4  -2   3 40330.0 2610.63  55
   4   2  -2 289.221 207.170   6
   4  -2  -2 375.381 251.606   6
   4   2  -2 213.075 196.338  27
  -4  -2   2 150.728 171.521  46
   4  -2  -2 174.664 233.313  26
   4  -2  -2-26.3204 141.789  43
   4   2  -2 409.458 255.852  12
   4  -2  -2 287.660 261.375  12
   4   2  -2 121.772 168.521  37
  -4   2   2 135.695 200.422  22
   4  -2  -2 87.4436 138.224  37
   4   2  -2 103.766 244.909  36
   4  -2  -2 112.779 241.802  36
  -4  -2   2 132.401 279.272  34
   4   2  -2 83.8154 139.874  60
   4  -2  -2 156.877 267.914  60
   4  -2  -2 261.503 261.536  31
  -4   2   2-91.5549 145.505  18
  -4  -2   2-53.0903 205.379  55
   4   2  -1 50001.0 2757.54  27
  -4  -2   1 49438.1 2896.00  50
   4   2  -1 47057.1 2674.61  60
  -4   2   1 39923.6 2650.20  50
   4  -2  -1 42769.2 2765.73  26
  -4  -2   1 38031.9 2589.37  46
   4  -2  -1 43654.6 2586.54   8
   4  -2  -1 44111.1 2764.29  43
   4   2  -1 44754.5 2576.86   5
   4  -2  -1 42444.9 2624.87   5
   4   2  -1 49633.1 2785.73  37
   4  -2  -1 50173.2 2966.29  37
   4   2  -1 46314.8 2756.74  36
   4  -2  -1 47339.5 2891.10  36
  -4  -2   1 42952.3 2904.23  34
  -4  -2   1 42486.0 2716.52  20
  -4   2   1 36150.2 2509.32  20
   4   2  -1 43246.2 2511.18  31
  -4   2   1 42405.7 2612.11  18
   4  -2  -1 37524.6 2502.51  31
   4   2  -1 48826.1 2768.29   6
   4  -2  -1 49539.3 2823.61   6
  -4  -2   0 901.974 369.527  50
  -4   2   0 737.608 375.522  50
   4   2   0 812.113 392.495  27
   4  -2   0 403.072 261.661   6
  -4  -2   0 600.254 339.412  46
   4  -2   0 440.019 362.461  26
   4   2   0 548.183 363.419  43
   4  -2   0 255.837 240.016  43
   4  -2   0 416.418 234.900   8
   4   2   0 1474.87 440.260   5
   4  -2   0 483.818 311.255   5
   4   2   0 835.644 372.049  37
   4  -2   0 662.502 373.199  37
   4   2   0 513.369 297.580  36
   4  -2   0 259.893 165.410  36
  -4  -2   0 693.392 379.850  34
  -4   2   0 559.106 311.531  34
  -4  -2   0 153.202 150.971  20
  -4   2   0 427.564 238.831  20
   4   2   0 470.235 205.852  31
   4  -2   0 469.793 283.392  31
  -4   2   0 530.155 268.304  18
   4   2   1 21040.8 1903.89   9
   4   2   1 18205.0 1606.18  27
  -4  -2  -1 16343.6 1571.38  50
   4  -2   1 18711.2 1825.96  26
   4  -2   1 20895.7 1763.74   8
   4   2   1 20172.3 1786.89  43
   4  -2   1 20713.0 1869.91  43
   4  -2   1 16545.9 1621.37  41
   4  -2   1 16169.0 1691.47  39
   4   2   1 20323.8 1743.52  37
   4  -2   1 21314.1 1896.25  37
   4   2   1 19241.9 1726.64  36
   4  -2   1 18085.9 1728.96  36
   4   2   1 20353.2 1936.28  11
  -4   2  -1 13872.5 1651.78  34
  -4  -2  -1 15040.7 1562.05  20
   4   2   1 17485.1 1550.53  60
   4   2   1 17229.9 1515.92  31
  -4   2  -1 16604.3 1673.74  18
   4  -2   1 22508.2 1877.29   6
   4   2   2 3724.71 750.363  27
   4  -2   2 4262.92 818.821   6
   4   2   2 5655.26 1007.03   9
   4  -2   2 4203.21 845.601  26
   4  -2   2 6246.05 960.545   8
   4   2   2 5515.73 938.198  43
   4  -2   2 5590.37 967.778  43
   4   2   2 5888.25 990.037  41
   4  -2   2 4648.06 844.756  41
   4  -2   2 5068.43 964.491  39
   4   2   2 5679.67 953.068  37
   4  -2   2 3764.86 772.248  37
   4   2   2 5318.16 1005.09  11
   4  -2   2 4753.78 910.576  11
   4   2   3 19028.4 1880.62   9
   4  -2   3 13104.0 1516.65  26
   4  -2   3 17472.9 1643.98   8
   4  -2   3 18109.6 1767.35  43
   4   2   3 17723.1 1665.96  24
   4   2   3 17709.6 1718.07  41
   4  -2   3 16099.6 1631.79  41
   4  -2   3 17153.6 1780.19  39
   4   2   3 17161.5 1700.12  37
   4   2   3 17952.7 1818.19  11
   4  -2   3 16704.0 1750.52  11
   4   2   4 3798.03 873.891   9
   4  -2   4 4484.04 958.210   9
   4  -2   4 2492.17 669.269  43
   4   2   4 3603.31 750.926  24
   4   2   4 3901.95 799.370  41
   4  -2   4 3270.26 762.312  41
   4  -2   4 3344.29 720.265   8
   4  -2   4 2862.03 729.984  39
   4   2   4 3852.96 823.287  37
   4   2   4 4064.20 903.262  11
   4  -2   4 4167.36 955.209  11
   4   2   5 13954.5 1629.04   9
   4  -2   5 15386.2 1744.08   9
   4  -2   5 10314.7 1344.72  43
   4   2   5 12173.4 1356.26  24
   4   2   5 13562.5 1524.42  41
   4  -2   5 12054.6 1450.25  41
   4   2   5 12638.8 1526.54  11
   4  -2   5 12448.7 1567.22  11
   4   2   6 2066.49 624.709   9
   4  -2   6 3142.44 788.683   9
   4   2   6 2475.28 581.333  24
   4   2   6 1910.17 564.661  41
   4  -2   6 3340.11 743.629  41
   4   2   6 2512.66 695.742  11
   4  -2   6 3231.26 779.149  11
   4   2   7 3451.46 714.145  51
   4   2   7 2641.80 668.698   9
   4  -2   7 3084.78 709.120   9
   4   2   7 3625.98 769.033  41
   4  -2   7 2720.26 664.763  41
   4   2   7 2776.63 690.287  11
   4  -2   7 2761.07 709.150  11
   4   2   8 3080.50 657.874  51
   4   2   8 1836.64 513.597   9
   4  -2   8 1355.77 440.178   9
   4   2   8 1615.97 466.800  41
   4  -2   8 1727.13 501.461  41
   4   2   8 1521.27 453.587  11
   4  -2   8 1943.01 543.811  11
   4   2   9 3058.72 539.683  41
   4  -2   9 3159.39 586.051  41
   4   2   9 3487.99 606.787  11
   4  -2   9 3946.01 671.511  11
   4  -2  10 346.524 151.628  41
   4  -2  10 246.533 153.924  11
   4   4 -11 27.0274 65.2278  40
   4   4 -10 3073.34 548.351  53
   4  -4 -10 3667.27 613.580  27
  -4  -4  10 3318.37 560.768  15
  -4  -4  10 3013.93 513.095  45
  -4   4  10 2678.95 460.777  45
  -4  -4  10 2485.24 441.052  44
  -4   4  10 2837.72 478.274  13
   4   4 -10 3912.62 608.870  40
  -4   4  10 2964.39 513.967  22
   4  -4 -10 2768.17 511.905  60
   4   4 -10 3236.28 533.706  57
   4  -4 -10 4377.10 651.877  57
   4   4 -10 4029.58 603.000  30
   4  -4 -10 3363.65 578.596  30
  -4  -4  10 3139.20 519.442  55
  -4   4  10 2375.34 412.743  55
   4   4  -9 2006.93 504.848  53
   4  -4  -9 1950.81 538.050  27
  -4  -4   9 1887.14 462.480  15
  -4  -4   9 1508.97 446.818  45
  -4   4   9 993.233 349.376  45
  -4  -4   9 1707.84 441.424  44
  -4  -4   9 1236.59 373.297  25
  -4   4   9 1912.81 457.984  13
   4   4  -9 1795.50 476.003  40
   4  -4  -9 1542.12 439.262  12
  -4   4   9 2206.62 523.548  22
   4  -4  -9 1278.68 409.731  60
   4   4  -9 2079.27 546.609  57
   4  -4  -9 1925.91 510.851  57
   4   4  -9 1760.98 471.036  30
  -4   4   9 1482.32 398.502  56
  -4  -4   9 1612.77 424.660  55
  -4   4   9 1465.85 395.509  55
   4   4  -8 10277.0 1140.52  27
   4  -4  -8 13853.9 1492.79  27
  -4  -4   8 16140.7 1527.69  15
  -4  -4   8 13671.7 1374.18  45
  -4   4   8 13638.1 1361.74  45
  -4  -4   8 14462.0 1437.22  44
  -4  -4   8 13539.7 1363.18  25
   4   4  -8 14800.3 1472.00  40
   4   4  -8 13133.5 1363.36  12
   4  -4  -8 12883.3 1418.64  12
  -4   4   8 15861.5 1498.53  22
   4  -4  -8 10474.7 1237.65  37
   4  -4  -8 12863.9 1431.19  60
   4   4  -8 13831.5 1404.46  57
   4  -4  -8 15245.3 1536.07  57
   4   4  -8 13989.4 1388.05  30
  -4   4   8 14173.8 1406.26  56
  -4  -4   8 13699.8 1363.09  55
  -4   4   8 13220.2 1305.58  55
   4   4  -7 897.403 335.374  27
   4  -4  -7 546.015 406.443  27
  -4  -4   7 1250.69 448.275  15
  -4  -4   7 607.925 262.159  45
  -4   4   7 1104.10 394.570  45
  -4  -4   7 1077.85 458.886  44
  -4  -4   7 754.512 383.819  25
   4   4  -7 530.499 286.067  40
  -4   4   7 1214.53 491.127  23
   4   4  -7 230.342 246.151  12
   4   4  -7 1097.96 425.685  57
  -4   4   7 917.006 380.442  22
   4  -4  -7 867.237 377.980  12
   4  -4  -7 696.401 396.021  37
   4  -4  -7 772.618 403.455  36
   4   4  -7 718.966 328.406  60
   4  -4  -7 1368.92 473.050  60
  -4  -4   7 669.735 287.754  59
   4  -4  -7 626.064 255.582  57
   4   4  -7 580.245 308.746  30
  -4   4   7 978.113 453.795  56
  -4  -4   7 1196.80 427.381  55
  -4   4   7 998.640 419.683  55
   4   4  -6 14906.9 1532.48  27
   4  -4  -6 17124.0 1812.85  27
  -4  -4   6 17262.0 1740.92  15
  -4   4   6 11425.8 1339.30  15
   4   4  -6 14068.1 1491.85  60
  -4   4   6 16254.3 1629.05  45
  -4  -4   6 15506.4 1643.01  44
  -4  -4   6 15903.4 1669.05  25
  -4   4   6 16910.8 1775.75  23
   4   4  -6 16014.7 1652.88  40
   4   4  -6 17308.1 1739.38  12
   4  -4  -6 16125.8 1728.57  12
  -4   4   6 17827.7 1747.48  22
   4  -4  -6 16279.2 1775.15  37
   4  -4  -6 15626.4 1719.85  36
   4  -4  -6 15617.4 1708.58  60
  -4  -4   6 13840.6 1516.29  59
   4   4  -6 14611.8 1532.15  57
   4  -4  -6 16022.3 1698.07  57
   4   4  -6 13576.6 1474.75  30
  -4   4   6 17411.2 1720.73  56
  -4  -4   6 13842.1 1501.00  55
  -4   4   6 14173.6 1488.49  55
   4  -4  -5 221.749 251.661   6
   4   4  -5 1056.02 448.815  27
   4  -4  -5 1004.85 501.053  27
  -4  -4   5 1112.05 467.053  15
  -4   4   5 658.059 331.150  45
  -4  -4   5 1032.18 446.424  44
   4   4  -5 688.888 301.647  40
  -4   4   5 1762.01 586.060  23
   4   4  -5 1344.99 452.904  12
  -4   4   5 1465.04 515.706  22
   4  -4  -5 1582.48 587.086  12
   4  -4  -5 881.101 441.614  37
   4  -4  -5 1409.10 554.208  36
   4   4  -5 1100.87 456.271  60
   4  -4  -5 1345.53 467.503  60
   4   4  -5 1297.12 471.577  57
   4  -4  -5 1154.17 448.062  57
   4   4  -5 870.718 343.573  30
  -4   4   5 1049.46 421.323  56
  -4  -4   5 1273.93 480.929  55
  -4   4   5 852.727 345.176  55
   4   4  -4 14711.9 1564.32  27
   4  -4  -4 13187.7 1610.70  27
  -4  -4   4 15922.9 1728.65  15
   4  -4  -4 10366.5 1419.98  26
  -4   4   4 13127.1 1496.31  45
  -4  -4   4 15822.5 1706.05  44
  -4   4   4 17348.2 1824.92  23
   4   4  -4 15445.8 1616.95  40
   4   4  -4 14051.1 1545.43  12
   4  -4  -4 15889.1 1741.24  12
  -4   4   4 17233.7 1770.52  22
   4  -4  -4 15558.4 1773.09  37
   4  -4  -4 15540.2 1751.19  36
   4   4  -4 14089.5 1508.31  60
   4  -4  -4 15597.4 1721.43  60
   4   4  -4 13954.5 1502.61  57
   4  -4  -4 15732.6 1703.42  57
   4   4  -4 13269.8 1414.14  30
   4  -4  -4 13807.1 1561.00   6
  -4   4   4 16906.2 1697.35  56
  -4   4   4 12690.6 1432.16  55
   4  -4  -3 1244.54 489.911   6
   4   4  -3 1876.58 544.563  27
   4  -4  -3 646.974 389.740  27
  -4  -4   3 1774.38 573.575  15
   4  -4  -3 1308.31 474.489  26
  -4  -4   3 1379.67 544.870  44
   4  -4  -3 1281.86 480.242  43
   4   4  -3 1288.34 469.622  40
  -4   4   3 1960.97 616.501  23
   4   4  -3 1414.14 506.562  12
  -4   4   3 1498.50 512.109  22
   4  -4  -3 1298.43 432.962  12
   4  -4  -3 1449.00 529.232  37
   4  -4  -3 1278.79 541.223  36
   4   4  -3 1744.69 536.022  60
   4  -4  -3 1584.18 597.969  60
   4   4  -3 1683.78 501.466  57
   4  -4  -3 1724.95 574.037  57
  -4   4   3 1730.45 554.432  56
   4   4  -2 14001.5 1446.42  27
   4  -4  -2 11122.0 1470.81  26
  -4  -4   2 12924.7 1520.35  44
   4  -4  -2 13937.8 1620.21  43
  -4   4   2 14843.5 1617.62  23
   4   4  -2 13332.9 1441.75  40
   4   4  -2 15346.4 1567.86  12
   4  -4  -2 13858.7 1582.24  12
  -4   4   2 12201.2 1474.76  22
   4   4  -2 10786.4 1300.09  37
   4  -4  -2 14385.5 1692.13  37
   4  -4  -2 14377.5 1677.76  36
   4   4  -2 15434.2 1513.70  60
   4  -4  -2 11520.6 1421.23  60
   4   4  -2 11964.4 1335.68  57
  -4   4   2 13721.8 1492.94  56
   4  -4  -2 15574.5 1615.32   6
   4   4  -1 13909.2 1421.25  27
   4  -4  -1 12292.5 1536.29  26
  -4  -4   1 11797.4 1406.36  44
   4  -4  -1 13257.1 1443.99   8
   4  -4  -1 14302.8 1661.38  43
   4   4  -1 13371.0 1398.93  40
   4   4  -1 13975.7 1459.14  12
   4  -4  -1 11335.0 1402.23  12
  -4   4   1 13822.5 1558.50  22
   4   4  -1 13096.8 1433.36  37
   4  -4  -1 14383.4 1675.30  37
   4  -4  -1 13828.4 1629.21  36
   4   4  -1 14192.8 1458.13  60
  -4   4   1 13634.7 1453.80  56
   4  -4  -1 14812.9 1571.77   6
   4   4   0 5440.70 905.373  27
   4  -4   0 6125.66 1094.32  26
   4  -4   0 6233.42 1102.56  43
   4  -4   0 4652.57 843.009   8
   4  -4   0 4768.95 929.963  39
   4   4   0 4099.06 778.711  12
   4   4   0 5074.80 911.347  37
   4  -4   0 5985.42 1080.48  37
   4  -4   0 5050.64 990.950  36
   4   4   0 4336.59 808.762  60
   4  -4   0 6159.30 1024.76   6
   4   4   1 4257.28 797.814  27
   4  -4   1 3472.14 805.737   6
   4   4   1 3537.44 806.900   9
   4  -4   1 4158.27 916.333  26
   4  -4   1 3771.38 832.698  43
   4  -4   1 3819.05 764.975   8
   4  -4   1 2857.25 768.756  39
   4   4   1 4049.46 811.188  37
   4  -4   1 4024.45 848.550  37
   4   4   1 4257.07 928.649  11
   4  -4   1 3540.18 791.765  36
   4   4   1 3381.78 708.663  60
   4   4   2 10496.0 1426.62   9
   4   4   2 9905.75 1245.50  27
   4  -4   2 9304.42 1357.17  26
   4  -4   2 10639.1 1319.21   8
   4  -4   2 10035.9 1395.99  43
   4   4   2 10689.4 1265.60  24
   4  -4   2 8883.01 1356.51  39
   4   4   2 9634.57 1247.38  37
   4   4   2 11940.8 1551.93  11
   4   4   2 10141.4 1231.72  60
   4  -4   2 11175.3 1412.38   6
   4   4   3 382.922 234.951  27
   4  -4   3 93.0893 234.873   6
   4   4   3 82.0445 294.195   9
   4  -4   3 215.211 147.297  26
   4  -4   3 554.158 387.078  43
   4   4   3 389.547 236.344  42
   4   4   3 410.565 296.240  24
   4  -4   3 217.687 208.334  41
   4  -4   3 149.756 166.871   8
   4  -4   3 903.276 477.349  39
   4   4   3 211.275 125.544  11
   4   4   4 20793.3 2012.47   9
   4  -4   4 17410.1 1807.93  43
   4  -4   4 21052.7 1906.37   8
   4   4   4 20033.9 1660.01  42
   4   4   4 25294.4 1987.83  24
   4  -4   4 16659.2 1658.43  41
   4  -4   4 22321.9 2077.81  39
   4   4   4 21899.5 2038.84  11
   4  -4   4 17770.0 1886.87  11
   4  -4   4 19265.6 1824.74   6
   4   4   5-356.103 270.978   9
   4  -4   5 128.554 247.054   9
   4  -4   5 16.1380 310.809  43
   4   4   5 162.763 122.790  42
   4   4   5 103.562 114.204  41
   4   4   5 633.663 331.445  24
   4  -4   5 319.508 250.343  41
   4  -4   5 399.107 237.478   8
   4  -4   5 142.843 192.765  39
   4   4   5 350.708 270.284  11
   4  -4   5-19.9544 129.909  11
   4   4   6 13096.8 1542.91   9
   4  -4   6 15911.6 1711.12   9
   4  -4   6 13678.2 1437.79   8
   4   4   6 15373.9 1478.97  24
   4   4   6 13576.3 1305.43  42
   4   4   6 12694.6 1368.58  41
   4  -4   6 13210.1 1422.53  41
   4  -4   6 12735.2 1508.89  39
   4   4   6 11590.0 1404.70  11
   4  -4   6 15768.8 1688.98  11
   4   4   7 89.3864 132.205   9
   4  -4   7 254.806 248.687   9
   4   4   7 86.3606 136.437  42
   4   4   7 27.5353 115.944  24
   4   4   7 121.901 118.065  41
   4  -4   7 193.566 192.474  41
   4  -4   7 309.731 259.163   8
   4   4   7 160.080 186.671  11
   4  -4   7 6.17127 113.171  11
   4   4   8 3955.15 745.703   9
   4   4   8 4462.00 652.448  24
   4   4   8 3601.31 562.931  42
   4  -4   8 4053.65 689.258  41
   4   4   8 3446.39 640.576  11
   4  -4   8 3722.80 715.359  11
   4   4   9 692.806 275.747   9
   4   4   9 575.693 204.093  42
   4  -4   9 440.522 228.916  41
   4  -4   9 651.101 277.405  11
   4   6 -10 1181.60 285.774  53
  -4  -6  10 1228.82 305.961  15
   4  -6 -10 1364.17 331.637  27
  -4   6  10 959.336 245.999  13
   4   6 -10 1097.38 278.669  40
  -4   6  10 1233.36 284.884  22
   4  -6 -10 1183.58 290.302  60
   4  -6 -10 1423.40 315.774  57
   4   6 -10 1167.79 275.568  30
   4  -6 -10 1467.57 343.257  30
   4   6  -9 2219.10 456.661  53
  -4  -6   9 2315.73 501.798  15
   4  -6  -9 2665.38 529.105  27
  -4  -6   9 2462.64 499.318  44
  -4  -6   9 2189.91 457.194  25
  -4   6   9 1748.79 398.407  13
   4   6  -9 2786.68 518.317  40
  -4   6   9 2579.05 492.839  22
   4  -6  -9 2333.25 476.969  12
   4  -6  -9 2294.60 522.169  60
   4   6  -9 2180.71 461.063  57
   4  -6  -9 2797.79 538.479  57
   4   6  -9 2245.06 461.109  30
  -4   6   9 1880.95 423.377  56
   4   6  -8 3605.97 654.578  53
  -4  -6   8 5668.45 857.453  15
   4  -6  -8 4943.59 837.735  27
  -4   6   8 3525.95 595.139  45
  -4  -6   8 4608.06 754.332  44
  -4  -6   8 3167.26 627.062  25
   4   6  -8 3540.20 634.795  40
  -4   6   8 4535.90 730.279  22
   4  -6  -8 4188.58 748.987  12
   4  -6  -8 3841.82 701.250  37
   4  -6  -8 4764.20 796.090  60
  -4  -6   8 3115.60 610.851  59
   4   6  -8 4014.24 687.055  57
   4  -6  -8 4057.79 728.339  57
   4   6  -8 3763.56 666.904  30
  -4   6   8 3460.85 636.600  56
   4   6  -7 7159.97 975.900  53
  -4  -6   7 9976.96 1209.60  15
   4  -6  -7 8318.30 1141.90  27
  -4   6   7 8208.15 1011.87  45
   4   6  -7 8257.61 1128.91  14
  -4  -6   7 9891.99 1194.99  44
  -4  -6   7 9861.51 1189.19  25
  -4   6   7 9666.11 1216.26  23
   4   6  -7 9431.59 1137.25  40
   4  -6  -7 8952.15 1181.16  12
  -4   6   7 9065.60 1134.24  22
   4  -6  -7 8797.84 1170.79  37
   4  -6  -7 7938.95 1085.68  36
   4  -6  -7 9175.45 1201.50  60
  -4  -6   7 9711.92 1167.28  59
   4   6  -7 7812.74 1034.32  57
   4  -6  -7 9721.23 1210.70  57
   4   6  -7 9089.52 1089.44  30
  -4   6   7 9731.89 1156.93  56
  -4  -6   6 8429.86 1135.54  54
   4   6  -6 7629.78 1044.19  53
   4   6  -6 5771.77 873.391  27
   4  -6  -6 8608.48 1226.94  27
  -4  -6   6 10885.1 1325.12  15
  -4   6   6 8297.27 1090.39  45
  -4  -6   6 10473.9 1300.11  44
   4   6  -6 8686.11 1249.56  14
  -4  -6   6 9064.69 1189.76  25
  -4   6   6 10419.4 1315.84  23
   4   6  -6 9327.56 1163.09  40
   4  -6  -6 8143.72 1184.65  12
  -4   6   6 10267.7 1260.61  22
   4  -6  -6 9127.00 1279.69  37
   4  -6  -6 9121.16 1244.62  36
   4   6  -6 8088.47 1050.65  60
   4  -6  -6 9595.88 1304.24  60
  -4  -6   6 8355.47 1174.26  59
   4   6  -6 10057.4 1217.10  57
   4  -6  -6 9577.56 1261.66  57
   4   6  -6 8852.10 1113.87  30
  -4   6   6 10619.8 1265.04  56
  -4  -6   5 17139.4 1708.84  54
   4   6  -5 15654.9 1511.66  27
   4  -6  -5 17758.9 1773.00  27
  -4  -6   5 20928.0 1885.24  15
  -4   6   5 16781.8 1627.26  45
  -4  -6   5 22587.3 1987.84  44
  -4  -6   5 18864.4 1791.28  25
  -4   6   5 20621.2 1906.84  23
   4   6  -5 19155.3 1715.49  40
   4  -6  -5 19162.7 1891.79  12
  -4   6   5 18440.6 1750.04  22
   4   6  -5 15471.2 1525.04  60
   4  -6  -5 20708.4 2014.92  37
   4  -6  -5 20085.3 1947.73  36
   4  -6  -5 17541.3 1814.96  60
  -4  -6   5 20495.5 1865.26  59
   4   6  -5 18313.9 1690.00  57
   4  -6  -5 17415.6 1758.15  57
   4   6  -5 16128.6 1542.59  30
  -4   6   5 20714.0 1808.52  56
  -4   6   5 15506.8 1474.05  55
   4   6  -4 9929.27 1237.22  27
  -4  -6   4 9183.82 1267.50  15
   4  -6  -4 6870.20 1132.69  26
  -4   6   4 9008.58 1209.78  45
  -4  -6   4 11833.8 1468.08  44
  -4  -6   4 11386.6 1422.41  25
  -4   6   4 11154.8 1452.68  23
   4   6  -4 9653.99 1243.35  40
   4   6  -4 9299.20 1241.57  12
   4  -6  -4 11916.6 1494.78  12
  -4   6   4 11204.9 1391.72  22
   4  -6  -4 10362.4 1447.83  37
   4  -6  -4 9181.18 1338.54  36
   4   6  -4 9600.12 1223.64  60
   4  -6  -4 10274.9 1386.18  60
   4   6  -4 9338.90 1194.30  57
   4   6  -4 9168.91 1162.30  30
   4  -6  -4 8839.76 1257.66  57
   4  -6  -4 10075.8 1327.78   6
  -4   6   4 10499.8 1322.98  56
  -4   6   4 6644.70 989.334  55
   4   6  -3 8755.61 1160.90  27
   4  -6  -3 7801.48 1263.08  26
  -4  -6   3 9634.05 1322.80  44
  -4  -6   3 8390.66 1264.74  25
   4  -6  -3 10272.2 1406.59  43
  -4   6   3 8903.29 1292.42  23
   4   6  -3 9689.20 1235.27  40
   4  -6  -3 10474.5 1448.56  12
  -4   6   3 9730.61 1298.33  22
   4  -6  -3 11138.0 1491.47  37
   4  -6  -3 10129.4 1411.32  36
   4   6  -3 8480.32 1151.77  60
   4  -6  -3 8246.42 1229.38  60
   4   6  -3 9192.95 1189.84  57
   4  -6  -3 8162.34 1195.94  57
  -4   6   3 9481.31 1275.23  56
   4  -6  -3 7655.84 1156.93   6
  -4   6   3 6139.32 963.707  55
   4   6  -2 2828.09 657.873  27
   4  -6  -2 2872.88 720.108   6
   4  -6  -2 2115.30 675.544  26
   4  -6  -2 2415.80 650.296   8
  -4  -6   2 2669.83 670.216  44
   4  -6  -2 3103.05 834.263  43
   4   6  -2 2530.07 626.005  40
  -4   6   2 2700.95 739.295  23
   4   6  -2 2618.50 660.555  37
  -4   6   2 1749.58 580.453  22
   4  -6  -2 2038.62 648.516  37
   4  -6  -2 2613.07 724.448  12
   4  -6  -2 2620.03 695.598  36
   4   6  -2 3571.16 750.692  60
   4   6  -2 2438.08 637.634  57
  -4   6   2 2778.55 720.916  56
   4   6  -1 24634.4 1931.80  27
   4  -6  -1 22154.9 2164.86  26
   4  -6  -1 21859.3 1922.36   8
   4  -6  -1 25544.6 2312.09  43
  -4   6   1 24219.2 2117.30  23
   4   6  -1 24428.7 1965.73  40
   4  -6  -1 21742.9 2029.20  12
  -4   6   1 24241.8 2106.46  22
   4  -6  -1 22814.7 2167.28  37
   4  -6  -1 24036.5 2241.66  36
   4   6  -1 21214.0 1823.76  60
   4   6  -1 21129.6 1765.75  57
  -4   6   1 26218.9 2092.63  56
   4  -6  -1 22971.5 2040.76   6
   4   6   0 199.216 260.142  27
   4  -6   0 556.077 336.062   6
   4  -6   0 568.872 377.703  26
   4   6   0 407.087 342.913  14
   4  -6   0 214.478 311.201  43
   4  -6   0 310.883 303.190   8
   4   6   0 408.019 291.298  40
  -4   6   0 407.365 341.904  23
   4  -6   0 1120.41 472.364  39
   4  -6   0 411.591 300.752  37
   4  -6   0 999.094 493.898  36
   4   6   0 479.839 271.996  60
  -4   6   0 985.737 365.270  56
   4   6   1 36843.0 2740.42   9
   4   6   1 42901.5 2671.55  27
   4  -6   1 41880.4 3005.28  26
   4   6   1 38859.8 2670.98  14
   4  -6   1 41620.2 2641.15   8
   4  -6   1 45366.1 3088.50  43
   4   6   1 45311.8 2649.07  24
   4   6   1 45256.9 2678.36  42
   4   6   1 43655.6 2601.28  40
   4  -6   1 35295.5 2742.51  39
   4   6   1 42254.8 2607.76  60
   4  -6   1 41036.7 2874.00  36
  -4   6  -1 43973.4 2769.00  56
   4  -6   1 42892.0 2847.46   6
   4   6   2 4935.59 879.079  27
   4   6   2 4767.29 969.865   9
   4  -6   2 4976.91 964.685   6
   4  -6   2 3864.93 915.029  26
   4  -6   2 4728.24 968.361  43
   4   6   2 5388.72 911.664  24
   4   6   2 4253.68 824.306  42
   4   6   2 5194.85 871.650  40
   4  -6   2 3698.61 766.382   8
   4  -6   2 4393.36 941.132  39
  -4   6  -2 3761.41 797.082  56
   4  -6   3 11293.6 1460.90   6
   4   6   3 12319.2 1556.40   9
   4   6   3 11599.8 1329.89  27
   4  -6   3 8621.95 1297.00  26
   4  -6   3 9432.15 1386.56  43
   4  -6   3 10010.9 1303.94   8
   4   6   3 11073.2 1300.78  24
   4   6   3 12953.3 1393.45  42
   4   6   3 10449.1 1230.34  40
   4  -6   3 11855.4 1555.94  39
  -4   6  -3 10633.9 1303.71  56
  -4   6  -4 9918.67 1249.75  29
   4   6   4 9697.34 1382.71   9
   4  -6   4 8092.14 1223.10  43
   4  -6   4 10297.6 1289.80   8
   4   6   4 11116.3 1267.31  24
   4   6   4 10681.5 1223.08  42
   4  -6   4 9079.32 1341.99  39
   4  -6   4 9375.29 1279.98   6
   4   6   5 3165.89 736.553   9
   4  -6   5 3231.89 707.931   6
   4  -6   5 2454.16 618.929  43
   4   6   5 3301.02 669.012  42
   4   6   5 2952.02 647.406  24
   4  -6   5 2960.65 672.421   8
   4  -6   5 2718.67 691.844  39
   4  -6   5 3154.64 750.893  11
   4  -6   6 7095.70 1043.75   9
   4   6   6 4696.29 887.564   9
   4  -6   6 6719.63 958.738   8
   4   6   6 7119.37 977.873  24
   4   6   6 6876.06 895.539  42
   4  -6   6 6157.79 999.968  39
   4  -6   6 7060.45 1030.14  11
   4   6   7 7721.12 1062.07   9
   4  -6   7 9858.34 1052.61   8
   4   6   7 11378.9 1117.03  24
   4   6   7 10906.1 1036.68  42
   4  -6   7 10237.3 1144.91  11
   4   6   8 2012.16 461.172   9
   4   6   8 1653.19 358.184  24
   4   6   8 1869.05 369.696  42
   4  -6   8 1381.64 320.092  41
   4  -6   8 1826.78 369.861   8
   4  -6   8 2033.56 465.967  11
   4  -8  -9 1272.75 292.277  60
   4  -8  -9 1344.87 305.678  57
   4   8  -9 944.322 231.241  30
   4   8  -8 2210.32 409.956  53
  -4  -8   8 1799.07 404.200  15
   4  -8  -8 1606.65 377.752  27
  -4  -8   8 2931.21 539.337  44
  -4  -8   8 2178.25 476.620  25
   4   8  -8 2624.88 467.221  40
  -4   8   8 1769.39 377.943  22
   4  -8  -8 2783.19 525.174  12
   4  -8  -8 1669.44 408.858  37
   4  -8  -8 2314.73 474.210  60
  -4  -8   8 2534.41 475.651  59
   4   8  -8 2898.11 497.244  57
   4  -8  -8 2633.50 493.183  57
   4   8  -8 2121.52 420.509  30
  -4   8   8 2224.89 418.808  56
  -4   8   7 390.831 166.365  29
  -4  -8   7 930.956 351.005  54
   4   8  -7 1299.82 369.769  53
  -4  -8   7 1492.48 423.722  15
   4  -8  -7 1395.71 365.192  27
  -4  -8   7 1072.67 359.294  44
   4   8  -7 926.720 319.724  14
  -4  -8   7 1299.43 398.673  25
   4   8  -7 1015.45 301.108  40
  -4   8   7 1482.40 436.851  23
  -4   8   7 1095.34 332.068  22
   4  -8  -7 1082.18 377.781  12
   4  -8  -7 1479.27 431.206  37
   4  -8  -7 957.738 350.482  36
  -4  -8   7 692.385 302.386  21
   4  -8  -7 1331.41 423.374  60
  -4  -8   7 1929.91 490.361  59
   4   8  -7 1194.17 357.272  57
   4  -8  -7 605.128 254.064  57
   4   8  -7 1263.98 373.793  30
  -4   8   7 881.676 314.623  56
  -4   8   6 958.131 317.519  29
  -4  -8   6 1162.16 423.692  54
  -4  -8   6 984.511 359.376  15
  -4  -8   6 1193.34 386.376  44
   4   8  -6 1108.96 391.410  14
  -4  -8   6 1345.46 424.800  25
   4   8  -6 1264.05 391.010  40
  -4   8   6 1010.52 374.694  23
  -4   8   6 1015.55 363.025  22
   4  -8  -6 1034.34 379.621  12
   4  -8  -6 1505.60 496.627  37
   4  -8  -6 963.511 379.342  36
  -4  -8   6 1087.06 413.985  21
   4  -8  -6 1179.76 430.252  60
  -4  -8   6 1778.23 489.680  59
   4   8  -6 728.319 304.924  57
   4  -8  -6 1095.12 387.089  57
   4   8  -6 943.754 351.631  30
  -4   8   6 1534.63 446.954  56
  -4  -8   5 9308.11 1190.15  54
   4   8  -5 8835.06 1200.66  14
  -4  -8   5 7661.20 1076.54  44
  -4  -8   5 8065.85 1105.10  25
  -4   8   5 7927.64 1079.11  23
   4   8  -5 8751.56 1053.99  40
   4  -8  -5 9225.08 1191.24  12
  -4   8   5 8911.27 1113.78  22
   4  -8  -5 8242.84 1163.16  37
   4  -8  -5 7792.78 1116.36  36
   4   8  -5 6450.02 888.209  60
   4  -8  -5 8971.03 1174.71  60
  -4  -8   5 7630.06 1079.41  59
   4   8  -5 9822.29 1120.45  57
   4   8  -5 7891.97 985.057  30
   4  -8  -5 8027.37 1097.15  57
  -4   8   5 8930.56 1091.83  56
  -4   8   5 7981.58 987.801  29
  -4   8   4 4789.29 777.211  29
  -4  -8   4 6118.31 990.790  54
   4   8  -4 4209.02 718.592  27
   4  -8  -4 4062.23 849.964  26
  -4   8   4 3988.06 726.097  45
   4   8  -4 6582.48 1066.53  14
  -4  -8   4 6528.14 1009.85  44
  -4  -8   4 7452.53 1090.02  25
   4  -8  -4 4837.58 869.623  43
  -4   8   4 6309.96 1002.85  23
   4   8  -4 5688.17 869.376  40
  -4   8   4 5616.16 924.928  22
   4  -8  -4 5583.35 985.546  12
   4  -8  -4 5135.44 963.040  37
   4  -8  -4 5756.42 992.893  36
   4   8  -4 4459.24 783.098  60
   4  -8  -4 4398.13 823.839  60
  -4  -8   4 6430.32 1016.48  59
   4   8  -4 5710.42 893.136  57
   4   8  -4 5848.48 856.648  30
   4  -8  -4 5126.78 898.332  57
  -4   8   4 5078.33 852.116  56
  -4  -8   3 12889.9 1488.36  54
   4   8  -3 11903.3 1279.20  27
   4  -8  -3 10250.4 1363.23  26
  -4   8   3 8795.03 1129.77  45
   4   8  -3 13424.9 1537.44  14
  -4  -8   3 13480.4 1474.33  44
  -4  -8   3 11960.1 1400.49  25
   4  -8  -3 12233.9 1501.09  43
  -4   8   3 13358.5 1489.89  23
   4   8  -3 13211.7 1340.96  40
   4  -8  -3 12844.5 1520.21  12
  -4   8   3 13333.5 1445.01  22
   4  -8  -3 12827.4 1546.30  37
   4  -8  -3 14784.7 1631.18  36
   4   8  -3 11886.6 1296.86  60
  -4  -8   3 12716.8 1496.55  59
   4   8  -3 11039.3 1262.53  57
   4   8  -3 10717.8 1185.78  30
  -4   8   3 13949.0 1448.97  56
   4  -8  -3 11173.2 1313.79   6
  -4   8   3 11876.0 1277.07  29
   4   8  -2 9592.01 1154.60  27
   4  -8  -2 8467.82 1245.97  26
   4   8  -2 10474.9 1365.23  14
  -4  -8   2 9504.73 1240.20  25
   4  -8  -2 10384.0 1400.53  43
   4   8  -2 7253.30 960.281  24
  -4   8   2 10966.0 1374.96  23
   4   8  -2 10093.0 1190.88  40
   4  -8  -2 8943.85 1275.67  12
  -4   8   2 10856.7 1319.89  22
   4  -8  -2 9026.98 1302.57  37
   4  -8  -2 9351.86 1358.89  36
   4   8  -2 10837.9 1274.46  60
  -4  -8   2 9558.01 1283.26  59
   4   8  -2 9889.96 1194.14  57
  -4   8   2 9425.17 1197.40  56
   4  -8  -2 8406.80 1197.29   6
  -4   8   2 8690.72 1108.81  29
   4   8  -1 16675.0 1547.22  27
   4  -8  -1 15878.2 1780.62  26
   4   8  -1 19573.4 1884.53  14
   4  -8  -1 14763.5 1507.98   8
   4  -8  -1 19047.5 1936.16  43
   4   8  -1 16838.2 1501.98  24
  -4   8   1 19050.9 1793.58  23
   4   8  -1 20646.5 1726.54  40
   4  -8  -1 16617.0 1711.93  12
  -4   8   1 18516.2 1746.40  22
   4  -8  -1 15997.0 1698.58  37
   4  -8  -1 18623.3 1916.03  36
   4   8  -1 15930.4 1507.03  57
  -4   8   1 20341.9 1796.70  56
   4  -8  -1 16281.9 1661.21   6
  -4   8   1 17596.0 1597.90  29
  -4   8   0 1556.38 489.458  29
   4   8   0 754.543 345.726  27
   4  -8   0 1289.06 476.189   6
   4  -8   0 967.565 411.600  26
   4   8   0 1643.40 558.961  14
   4  -8   0 975.334 465.329  43
   4   8   0 1652.14 516.775  42
   4   8   0 1468.31 464.790  24
   4  -8   0 1294.73 434.447   8
   4   8   0 1504.21 466.404  40
  -4   8   0 1171.05 407.420  23
   4  -8   0 609.040 429.592  39
  -4   8   0 1133.29 403.286  22
   4  -8   0 1138.43 442.366  36
  -4   8   0 1018.83 387.106  56
   4   8   1 16707.6 1774.12   9
   4   8   1 23458.7 1833.21  27
   4  -8   1 21629.4 2083.22  26
   4   8   1 18856.7 1767.84  14
   4  -8   1 18221.5 1685.36   8
   4  -8   1 22288.0 2104.34  43
   4   8   1 20103.1 1676.50  24
   4   8   1 23560.9 1864.09  42
  -4   8  -1 19913.3 1776.87  23
   4   8   1 21178.2 1749.15  40
   4  -8   1 19091.8 1885.60  39
  -4   8  -1 22500.8 1967.18  22
   4  -8   1 17753.9 1788.57  36
  -4   8  -1 22338.1 1883.53  56
   4  -8   1 20953.8 1912.40   6
  -4   8  -1 21385.1 1790.92  29
  -4   8  -2 2411.99 591.096  29
   4   8   2 1978.55 611.534   9
   4  -8   2 2648.25 694.812   6
   4  -8   2 1373.49 513.281  26
   4  -8   2 2898.90 718.603  43
   4   8   2 2591.42 622.180  42
   4   8   2 1849.35 500.567  24
   4  -8   2 2791.40 656.632   8
   4   8   2 3212.47 663.340  40
   4  -8   2 2060.75 642.243  39
  -4   8  -2 2596.98 617.259  56
   4  -8   3 9527.57 1248.55   6
   4   8   3 8359.60 1236.95   9
   4  -8   3 7917.45 1211.00  26
   4  -8   3 9733.41 1180.99   8
   4  -8   3 7566.62 1140.53  43
   4   8   3 8816.40 1081.16  24
   4   8   3 11500.1 1238.90  42
   4   8   3 9487.01 1121.93  40
   4  -8   3 7080.51 1128.53  39
  -4   8  -3 8844.64 1107.19  56
  -4   8  -3 8695.58 1131.10  29
   4   8   4 7503.52 1130.49   9
   4  -8   4 6382.16 989.185  26
   4  -8   4 6013.75 956.901  43
   4  -8   4 9657.88 1144.61   8
   4   8   4 8348.71 1015.98  24
   4   8   4 9601.08 1084.31  42
   4  -8   4 6156.26 1022.79  39
  -4   8  -4 8138.36 1037.80  56
   4  -8   4 10526.8 1253.28   6
  -4   8  -4 8146.11 1052.29  29
  -4   8  -5 2873.18 620.797  29
   4   8   5 2165.70 573.639   9
   4  -8   5 2765.31 614.345   6
   4   8   5 3338.68 611.108  42
   4   8   5 3755.56 644.383  24
   4  -8   5 3168.06 613.365   8
   4  -8   5 2829.98 639.030  39
  -4   8  -5 2339.38 514.914  56
  -4   8  -6 2399.54 505.318  29
   4   8   6 2229.26 535.118   9
   4  -8   6 1814.49 445.891   9
   4   8   6 2566.51 476.983  42
   4   8   6 2997.58 523.644  24
   4  -8   6 2933.14 554.190   8
   4  -8   6 2070.62 490.396  39
  -4   8  -7 2263.51 419.606  29
   4   8   7 2702.80 449.425  24
   4   8   7 2453.68 423.419  42
   4  -8   7 2164.20 408.408   8
  -4 -10   7 648.378 229.047  44
  -4 -10   7 909.758 261.156  25
   4 -10  -7 1093.72 281.980  12
   4 -10  -7 774.351 245.037  37
  -4 -10   7 705.648 218.894  59
   4 -10  -7 734.123 235.650  57
   4  10  -7 622.666 192.463  30
  -4  10   7 955.944 233.164  56
  -4 -10   6 5913.17 748.272  54
   4  10  -6 4549.02 642.358  14
  -4 -10   6 5066.25 691.468  44
  -4 -10   6 6035.65 756.245  25
  -4  10   6 4693.40 635.272  23
   4  10  -6 5105.02 615.002  40
   4 -10  -6 5489.79 714.991  12
  -4  10   6 5321.88 629.937  22
   4 -10  -6 4519.19 662.871  37
   4 -10  -6 5203.05 702.713  36
  -4 -10   6 5398.89 712.511  21
   4 -10  -6 3621.96 533.791  60
  -4 -10   6 5421.56 719.282  59
   4  10  -6 4885.58 599.181  30
   4 -10  -6 5094.04 666.662  57
  -4  10   6 5551.45 654.172  56
  -4  10   6 4887.84 576.531  29
  -4  10   5 1646.54 382.320  29
  -4 -10   5 1295.64 389.489  54
  -4 -10   5 1095.89 311.214  44
   4  10  -5 1100.45 352.274  14
  -4 -10   5 980.802 312.132  25
   4  10  -5 1303.01 348.924  40
  -4  10   5 1131.81 368.244  23
  -4  10   5 918.479 314.834  22
   4 -10  -5 1141.66 357.699  12
   4 -10  -5 1024.65 366.099  37
   4 -10  -5 1173.40 354.164  36
  -4 -10   5 1540.70 417.738  21
  -4 -10   5 923.752 297.127  59
  -4 -10   5 1110.83 383.463  58
   4 -10  -5 716.588 278.802  57
   4  10  -5 753.656 271.806  30
  -4  10   5 1177.06 340.692  56
  -4  10   4 1986.02 436.879  29
  -4 -10   4 2376.44 543.785  54
   4 -10  -4 1181.64 364.483  26
  -4 -10   4 2070.64 464.960  44
   4  10  -4 1793.74 483.496  14
  -4 -10   4 2245.14 526.054  25
   4 -10  -4 1103.91 355.286  43
   4  10  -4 1389.44 368.579  40
  -4  10   4 1525.89 426.768  23
  -4  10   4 1922.33 459.465  22
   4 -10  -4 1926.53 478.287  12
   4 -10  -4 1620.32 460.284  37
   4 -10  -4 1744.61 483.350  36
  -4 -10   4 2422.31 555.443  21
  -4 -10   4 2472.20 555.810  59
   4 -10  -4 1987.97 469.523  57
   4  10  -4 1416.21 344.864  30
  -4  10   4 1966.88 471.758  56
  -4  10   3 594.688 275.882  29
  -4 -10   3 1154.23 404.419  54
   4 -10  -3 53.9811 145.858  26
   4  10  -3 749.117 312.394  14
  -4 -10   3 815.004 306.389  25
   4 -10  -3 1067.45 423.894  43
   4  10  -3 701.820 254.758  40
  -4  10   3-9.61847 181.940  23
  -4 -10   3 1381.41 440.739  39
  -4  10   3 772.076 315.284  22
   4 -10  -3 864.843 340.493  12
   4 -10  -3 1214.92 398.562  37
   4 -10  -3 758.981 318.515  36
  -4 -10   3 1050.70 387.093  21
  -4 -10   3 350.183 240.582  59
   4  10  -3 562.663 233.925  30
  -4  10   3 1314.19 375.570  56
  -4  10   2 2295.44 524.214  29
  -4 -10   2 3819.25 734.696  54
   4 -10  -2 2326.62 533.272   6
   4 -10  -2 2386.94 613.338  26
   4  10  -2 3193.56 678.694  14
   4 -10  -2 3098.77 667.387  43
   4  10  -2 2541.98 515.863  40
  -4  10   2 3125.16 651.473  23
  -4  10   2 3467.27 650.630  22
   4 -10  -2 2341.58 562.041  37
   4 -10  -2 2635.80 590.387  12
   4 -10  -2 3666.17 739.155  36
  -4 -10   2 3366.73 691.489  21
  -4 -10   2 3078.71 653.902  59
  -4  10   2 2578.50 564.484  56
  -4  10   1 696.855 305.994  29
  -4 -10   1 671.497 283.579  54
   4 -10  -1 1093.08 372.638   6
   4 -10  -1 683.400 326.639  26
   4  10  -1 1450.93 463.348  14
   4 -10  -1 539.054 330.635  43
   4  10  -1 891.289 341.520  42
   4  10  -1 602.935 320.590  40
  -4  10   1 1132.12 400.565  23
  -4  10   1 654.555 295.730  22
   4 -10  -1 630.398 356.524  36
  -4 -10   1 1330.59 454.975  21
  -4 -10   1 689.401 291.038  59
  -4  10   1 345.282 252.523  56
  -4  10   0 2812.51 584.463  29
  -4 -10   0 3214.25 670.998  54
   4 -10   0 2977.63 642.478   6
   4 -10   0 2796.76 656.467  26
   4 -10   0 2131.22 496.201   8
   4  10   0 2957.72 643.744  14
   4 -10   0 2873.43 652.629  43
   4  10   0 4009.00 673.964  42
   4  10   0 3080.29 607.482  40
  -4  10   0 2804.40 611.508  23
  -4  10   0 2656.97 573.021  22
   4 -10   0 2662.14 646.086  36
  -4 -10   0 3255.86 674.935  21
  -4  10   0 2272.67 555.238  56
  -4  10  -1 826.014 338.116  29
  -4 -10  -1 672.924 279.981  54
   4 -10   1 933.460 385.328   6
   4 -10   1 999.965 368.628  26
   4  10   1 293.981 207.804  14
   4 -10   1 1037.92 363.189  43
   4  10   1 1157.90 338.523  24
   4  10   1 824.849 299.498  42
   4 -10   1 703.294 295.581   8
   4  10   1 418.956 220.041  40
  -4  10  -1 1306.02 429.215  23
   4 -10   1 771.625 325.086  39
  -4  10  -1 748.365 335.168  22
  -4  10  -1 983.099 354.658  56
  -4  10  -2 2786.86 564.786  29
   4 -10   2 2537.11 581.054   6
   4 -10   2 2525.83 589.102  26
   4 -10   2 2562.69 607.142  43
   4  10   2 1562.52 372.402  24
   4  10   2 2514.97 512.675  42
   4 -10   2 2343.12 530.822   8
   4  10   2 2392.74 509.510  40
  -4  10  -2 2696.07 552.911  23
   4 -10   2 1417.51 427.245  39
  -4  10  -2 2221.28 552.649  22
  -4  10  -2 2643.61 555.615  56
  -4  10  -3 972.669 316.382  29
   4 -10   3 942.616 344.514   6
   4 -10   3 611.971 294.975  26
   4 -10   3 738.617 276.982  43
   4  10   3 534.540 184.089  24
   4  10   3 1185.55 354.943  42
   4 -10   3 696.218 273.530   8
   4 -10   3 722.350 305.675  39
  -4  10  -3 1185.57 377.431  22
  -4  10  -3 894.704 317.533  56
   4 -10   4 4117.13 605.600   8
   4  10   4 4744.37 615.160  24
   4  10   4 4310.95 605.618  42
   4 -10   4 4076.51 674.556  39
  -4  10  -4 3951.15 656.331  22
  -4  10  -4 4795.53 669.527  56
   4 -10   4 4351.71 661.502   6
  -4  10  -4 4042.15 616.900  29
  -4  10  -5 771.871 253.315  29
   4 -10   5 927.031 258.978   6
   4  10   5 601.002 208.499  24
   4  10   5 759.264 229.891  42
   4 -10   5 656.198 238.938   8
   4 -10   5 809.924 269.535  39
  -4  10  -5 749.456 276.089  22
  -4  10  -5 469.805 211.563  56
  -4 -12   3 5693.82 664.648  54
   4  12  -3 4255.19 563.863  14
   4  12  -3 4518.54 522.015  42
  -4  12   3 4415.91 561.195  23
   4  12  -3 4062.60 487.506  40
   4 -12  -3 3968.05 550.273  36
  -4 -12   3 5459.45 661.240  21
  -4  12   3 4914.78 556.521  56
  -4  12   3 5112.98 546.448  29
  -4  12   2 860.369 242.104  29
  -4 -12   2 798.514 271.389  54
   4 -12  -2 1001.82 305.650  26
   4  12  -2 786.814 257.713  14
   4 -12  -2 855.679 255.619  43
   4  12  -2 677.579 209.251  42
   4  12  -2 856.903 234.417  40
  -4  12   2 727.198 243.289  23
  -4 -12   2 477.296 203.825  39
   4 -12  -2 702.191 247.570  36
  -4 -12   2 683.085 232.227  21
  -4  12   2 1062.94 275.471  56
  -4 -12   1 4139.44 559.068  54
   4 -12  -1 3895.82 579.828  26
   4  12  -1 3692.65 545.522  14
   4 -12  -1 3995.96 590.755  43
   4  12  -1 5555.58 601.684  42
  -4  12   1 5344.34 652.420  23
   4  12  -1 4550.39 545.811  40
  -4 -12   1 4935.09 644.523  39
   4 -12  -1 3657.92 524.026  36
  -4  12   1 5420.76 628.333  56
  -4  12   1 4842.99 578.014  29
   4 -12   0 2519.15 422.831   6
   4 -12   0 2401.08 458.160  26
   4  12   0 2030.27 382.250  14
   4 -12   0 2530.73 467.446  43
   4  12   0 2802.68 421.036  42
  -4  12   0 3025.87 491.681  23
   4  12   0 3057.05 449.011  40
  -4 -12   0 3137.81 519.809  39
  -4  12   0 3336.42 493.285  56
   4  12   0 3346.72 506.384  10
  -4  12   0 3462.03 490.765  29
   4 -12   1 3049.38 504.110  26
   4 -12   1 3600.32 526.406  43
   4  12   1 4193.09 505.406  42
  -4 -12  -1 4437.36 602.277  39
  -4  12  -1 4062.87 535.077  56
   4 -12   1 3344.58 486.434   6
  -4  12  -1 3864.22 502.306  29
   4 -12   2 1204.80 288.360   6
   4  12   2 1158.10 249.155  42
  -4 -12  -2 1376.70 317.585  39
  -4  12  -2 1405.57 296.180  56
   5   1  -9 498.359 199.854  53
   5   1  -9 739.805 258.505  27
   5  -1  -9 1010.92 317.180  27
  -5  -1   9 952.024 271.191  15
  -5   1   9 727.787 235.692  15
   5  -1  -9 746.422 257.076  60
   5  -1  -9 813.998 273.803  57
  -5  -1   9 654.155 258.874  45
  -5   1   9 799.090 250.530  45
  -5  -1   9 799.708 249.280  44
   5   1  -9 855.010 269.981  40
   5   1  -9 936.757 308.921  12
   5  -1  -9 1222.31 320.320  12
   5   1  -9 720.330 248.898  60
   5   1  -9 1058.92 311.989  57
   5   1  -9 1101.63 308.940  30
   5  -1  -9 929.687 273.483  30
  -5  -1   9 760.343 281.771  55
  -5   1   9 1262.53 318.937  55
   5   1  -8 4487.19 700.357  27
   5  -1  -8 4871.48 747.410  27
  -5  -1   8 4538.61 710.844  15
  -5   1   8 3098.89 571.479  15
  -5   1   8 3839.95 649.957  45
  -5  -1   8 4080.00 657.370  45
  -5  -1   8 2414.38 512.770  44
  -5   1   8 3419.85 569.214  44
   5  -1  -8 4069.34 675.073  12
   5   1  -8 3595.73 598.833  40
   5   1  -8 4122.86 679.473  12
   5   1  -8 4608.69 699.726  60
   5  -1  -8 4151.88 685.615  60
   5   1  -8 5326.12 769.584  57
   5  -1  -8 4648.83 721.572  57
   5   1  -8 4196.75 657.764  30
   5  -1  -8 4758.86 702.251  30
  -5  -1   8 4722.24 710.603  55
  -5   1   8 4629.02 705.868  55
   5   1  -7 375.891 210.469  27
   5  -1  -7 686.721 350.969  27
  -5  -1   7 730.662 282.250  15
  -5   1   7 527.806 253.436  15
  -5  -1   7 290.232 218.880  45
  -5   1   7 278.728 220.119  45
  -5  -1   7 312.452 203.726  44
  -5   1   7 305.876 177.349  44
  -5  -1   7 129.851 148.644  25
   5   1  -7 532.368 279.826  12
   5  -1  -7 180.084 165.295  12
   5  -1  -7 193.409 154.917  36
   5   1  -7 456.167 235.127  60
   5  -1  -7 712.211 298.922  60
   5   1  -7 164.166 129.155  57
   5  -1  -7 323.710 181.798  57
   5   1  -7 152.346 142.993  30
   5  -1  -7 82.8195 87.7557  30
  -5  -1   7 784.014 343.448  55
  -5   1   7 231.896 215.993  55
   5   1  -6 7394.64 1047.46  27
   5  -1  -6 6940.93 1056.38  27
  -5  -1   6 6515.14 1010.46  15
  -5   1   6 6124.47 952.821  15
  -5  -1   6 7804.46 1078.38  45
  -5   1   6 7127.61 1025.06  45
  -5  -1   6 7050.94 1038.81  44
  -5   1   6 6414.14 992.590  44
   5   1  -6 6452.20 995.137  12
   5  -1  -6 6516.52 1000.15  12
   5  -1  -6 5537.67 901.937  37
   5  -1  -6 5681.31 917.734  36
   5   1  -6 6325.01 953.279  60
   5  -1  -6 5112.44 886.137  60
   5   1  -6 7058.49 1011.22  57
   5  -1  -6 6489.01 986.428  57
   5   1  -6 5631.68 857.564  30
   5  -1  -6 6335.07 928.384  30
  -5  -1   6 8354.76 1095.43  55
  -5   1   6 5665.51 911.140  55
   5   1  -5 1063.03 477.534  27
   5  -1  -5 1088.75 461.593  27
  -5  -1   5 493.241 373.930  15
  -5   1   5 229.544 262.759  15
  -5  -1   5 527.643 266.921  45
  -5   1   5 854.194 443.626  45
  -5  -1   5 585.014 353.799  44
   5   1  -5 606.372 309.356  12
   5  -1  -5 1296.73 484.056  12
   5   1  -5 730.984 321.143  37
   5  -1  -5 763.859 378.850  37
   5   1  -5 729.240 404.213  36
   5  -1  -5 760.364 333.612  36
   5   1  -5 734.670 364.985  60
   5  -1  -5 941.602 433.704  60
   5   1  -5 508.132 284.780  57
   5  -1  -5 447.300 274.466  57
  -5  -1   5 909.339 405.496  55
  -5   1   5 544.100 184.223  55
   5   1  -4 25111.7 2054.06  27
   5  -1  -4 24495.1 2066.27  27
  -5  -1   4 23164.3 2053.96  15
  -5   1   4 19298.8 1839.28  15
  -5  -1   4 23341.6 1987.39  45
  -5   1   4 23788.6 2026.97  45
   5   1  -4 23054.3 1983.65  12
   5  -1  -4 20981.7 1930.70  12
   5   1  -4 17537.8 1693.62  37
   5  -1  -4 21448.3 1953.73  37
   5   1  -4 23269.5 2018.66  36
   5  -1  -4 20882.6 1946.63  36
   5   1  -4 22290.9 1915.28  60
   5  -1  -4 24620.2 2087.13  60
   5  -1  -4 23509.8 2006.11   6
   5   1  -4 21575.5 1845.12  57
   5  -1  -4 22519.3 1926.98  57
  -5  -1   4 23908.7 2002.68  55
  -5   1   4 19566.6 1810.53  55
   5  -1  -3 2742.31 701.959   6
   5   1  -3 3021.82 733.714  27
   5  -1  -3 3070.47 742.281  27
  -5  -1   3 2748.70 732.618  15
  -5  -1   3 2565.93 632.680  45
  -5   1   3 3993.15 835.505  45
   5   1  -3 2761.28 688.890  12
   5  -1  -3 2567.62 720.221  12
   5   1  -3 2141.45 592.597  37
   5  -1  -3 3653.90 801.532  37
   5   1  -3 3182.27 753.788  36
   5  -1  -3 3018.65 743.157  36
   5   1  -3 2965.37 704.800  60
   5  -1  -3 2388.59 665.015  60
  -5  -1   3 2471.93 640.608  55
  -5   1   3 1921.61 577.431  55
   5   1  -2 10709.7 1339.14  27
   5  -1  -2 10512.7 1330.65  27
  -5  -1   2 9408.48 1368.37  15
  -5   1   2 10205.5 1353.66  45
   5  -1  -2 8876.92 1215.08  43
   5   1  -2 10326.5 1326.52  12
   5  -1  -2 10392.6 1325.74  12
   5   1  -2 10673.8 1350.21  37
   5  -1  -2 11117.2 1410.95  37
   5   1  -2 11079.5 1402.94  36
   5  -1  -2 10318.1 1383.02  36
   5   1  -2 11191.9 1364.92  60
   5  -1  -2 12162.0 1436.09  60
   5   1  -2 11269.0 1380.63   6
   5  -1  -2 10534.4 1331.89   6
  -5  -1   2 9999.94 1348.02  55
  -5   1   2 10148.0 1355.74  55
   5   1  -1 4229.95 866.691   6
   5  -1  -1 4698.67 896.682   6
   5   1  -1 6036.38 1006.89  27
  -5   1   1 5565.43 1048.81  45
   5  -1  -1 4803.89 930.699  43
   5   1  -1 3866.80 787.192  12
   5   1  -1 4612.11 863.615  37
   5  -1  -1 4375.97 888.384  37
   5   1  -1 4457.41 905.945  36
   5  -1  -1 4851.74 965.202  36
   5   1  -1 5041.34 905.746  60
   5  -1  -1 3901.22 786.683  60
   5   1   0 1602.18 528.956   6
   5  -1   0 1149.41 460.846   6
   5   1   0 1583.02 474.281  27
   5   1   0 1232.28 481.027   9
   5  -1   0 1583.20 588.744   9
   5   1   0 1255.29 494.076  43
   5  -1   0 946.091 405.143  43
   5   1   0 1278.65 479.216  37
   5  -1   0 1425.17 529.016  37
   5   1   0 1535.71 575.291  36
   5  -1   0 915.042 438.646  36
   5   1   0 982.328 431.388  60
   5   1   1 3541.91 734.077   6
   5  -1   1 4285.04 829.307   6
   5   1   1 2711.07 739.514   9
   5  -1   1 3798.57 850.840   9
   5  -1   1 3784.91 823.425  43
   5   1   1 4043.88 839.332  37
   5  -1   1 4310.36 867.095  37
   5  -1   1 3966.10 802.171  36
   5   1   1 4083.44 889.506  11
   5  -1   2 5009.35 887.213   6
   5   1   2 5409.74 1007.74   9
   5  -1   2 4911.74 987.245   9
   5  -1   2 5048.94 956.222  43
   5   1   2 5131.38 890.870  24
   5   1   2 5790.21 988.913  37
   5  -1   2 6122.45 1014.74  37
   5   1   2 5746.12 1029.03  11
   5  -1   2 4249.22 879.989  11
   5   1   3 3715.17 856.965   9
   5  -1   3 3749.06 843.653   9
   5  -1   3 3199.86 758.616  43
   5   1   3 2498.88 582.241  24
   5   1   3 3638.55 760.104  37
   5  -1   3 3262.94 717.356  37
   5   1   3 4319.07 879.693  11
   5  -1   3 3430.59 775.464  11
   5   1   4 9848.14 1304.48   9
   5  -1   4 10144.5 1334.11   9
   5  -1   4 8205.62 1133.95  41
   5   1   4 9529.99 1298.56  11
   5  -1   4 8676.33 1206.22  11
   5   1   5 2177.37 610.907   9
   5  -1   5 2371.43 611.036   9
   5  -1   5 1721.95 495.545  41
   5   1   5 2457.37 630.616  11
   5  -1   5 1825.21 585.004  11
   5  -1   6 4805.51 836.502   9
   5   1   6 4491.06 809.926   9
   5  -1   6 4928.05 799.885  41
   5   1   6 5096.13 862.301  11
   5  -1   6 3736.59 723.275  11
   5   1   7 639.806 288.750   9
   5  -1   7 4.98438 92.9015   9
   5  -1   7 370.789 203.913  41
   5   1   7 338.493 210.284  11
   5  -1   7 211.931 189.545  11
   5   1   8 3961.65 575.025  11
   5  -1   8 4278.90 600.130  11
   5  -3  -9 955.279 285.349  27
  -5  -3   9 1300.76 329.091  15
  -5  -3   9 586.620 203.760  45
  -5   3   9 954.458 263.455  45
  -5  -3   9 508.854 192.234  44
   5   3  -9 780.991 233.034  40
   5  -3  -9 918.982 264.605  12
   5  -3  -9 1096.39 287.508  60
   5   3  -9 1286.49 308.978  57
   5  -3  -9 873.728 272.306  57
   5   3  -9 835.352 245.002  30
   5  -3  -9 961.306 282.931  30
  -5  -3   9 939.924 256.737  55
  -5   3   9 697.070 222.859  55
   5   3  -8 499.356 239.298  27
   5  -3  -8 704.857 278.745  27
  -5  -3   8 780.536 302.435  15
  -5   3   8 421.416 171.340  15
  -5  -3   8 1117.91 338.050  45
  -5   3   8 600.242 232.337  45
  -5  -3   8 988.802 316.791  44
  -5  -3   8 501.953 174.709  25
   5   3  -8 836.035 290.493  40
   5   3  -8 833.953 286.018  12
   5  -3  -8 799.580 302.099  12
  -5   3   8 997.482 290.851  22
   5   3  -8 716.774 252.254  60
   5  -3  -8 843.756 303.300  60
   5   3  -8 693.156 266.783  57
   5  -3  -8 613.395 255.395  57
  -5   3   8 746.820 236.056  56
   5   3  -8 616.019 237.572  30
   5  -3  -8 865.518 306.719  30
  -5  -3   8 858.514 297.599  55
  -5   3   8 965.065 302.273  55
   5   3  -7 2607.09 537.488  27
   5  -3  -7 3012.54 622.651  27
  -5  -3   7 2801.83 573.448  15
  -5   3   7 2222.25 506.374  15
  -5  -3   7 3077.77 593.630  45
  -5   3   7 2844.83 599.001  45
  -5  -3   7 3312.36 650.839  44
  -5   3   7 1929.05 454.823  44
  -5  -3   7 2511.25 562.727  25
   5   3  -7 3177.41 607.088  40
   5   3  -7 3209.73 634.133  12
   5  -3  -7 3490.37 681.439  12
  -5   3   7 2728.78 566.258  22
   5  -3  -7 2969.79 589.640  37
   5  -3  -7 2660.63 563.923  36
   5   3  -7 2618.79 548.718  60
   5  -3  -7 3669.41 701.041  60
   5   3  -7 3711.77 640.297  30
   5   3  -7 2971.06 587.421  57
   5  -3  -7 3711.99 694.372  57
  -5   3   7 2938.72 577.970  56
   5  -3  -7 3167.61 600.426  30
  -5  -3   7 3442.36 643.231  55
  -5   3   7 3435.89 603.173  55
   5   3  -6 3506.24 711.091  27
   5  -3  -6 4288.17 812.577  27
  -5  -3   6 4273.89 791.597  15
  -5   3   6 3522.73 698.244  15
  -5   3   6 3984.46 733.288  45
  -5  -3   6 3962.43 783.806  44
  -5  -3   6 4486.48 796.334  25
   5   3  -6 4328.38 748.120  40
   5   3  -6 4172.00 758.928  12
   5  -3  -6 4245.84 800.161  12
  -5   3   6 3528.60 682.265  22
   5  -3  -6 3505.57 721.467  37
   5  -3  -6 3470.54 687.167  36
   5   3  -6 3454.67 680.380  60
   5  -3  -6 3047.64 676.530  60
  -5  -3   6 3454.98 679.276  59
   5   3  -6 3515.52 689.412  57
   5  -3  -6 3668.41 725.467  57
   5   3  -6 3516.33 658.129  30
  -5   3   6 3161.47 617.713  56
   5  -3  -6 3610.29 691.328  30
  -5  -3   6 4068.63 725.133  55
  -5   3   6 3636.46 691.215  55
   5  -3  -5 225.717 192.016   6
   5   3  -5 315.797 225.386  27
   5  -3  -5 16.9345 117.294  27
  -5  -3   5 561.552 317.649  15
  -5   3   5 289.405 245.904  15
  -5   3   5 300.316 147.627  45
  -5  -3   5 26.7749 199.985  44
   5   3  -5 303.339 172.139  40
   5   3  -5-82.2432 98.5192  12
   5  -3  -5 450.921 384.349  12
  -5   3   5 273.276 154.791  22
   5  -3  -5 327.662 242.332  37
   5  -3  -5 603.001 320.905  36
   5   3  -5-104.280 237.190  60
   5  -3  -5 293.500 291.596  60
   5   3  -5 685.838 342.131  57
   5  -3  -5 315.740 225.263  57
  -5  -3   5-15.7104 118.228  55
  -5   3   5 424.465 269.391  55
   5  -3  -4-43.9816 221.118   6
   5   3  -4-86.6843 133.125  27
   5  -3  -4-278.192 234.329  27
  -5  -3   4-150.620 124.363  15
  -5   3   4-47.7296 154.750  45
  -5  -3   4-79.4077 126.378  44
  -5   3   4 31.4592 219.992  23
   5   3  -4-61.4405 203.966  12
   5  -3  -4-73.9780 218.835  12
  -5   3   4-176.531 170.369  22
   5   3  -4-567.334 292.999  37
   5  -3  -4-49.7875 177.190  37
   5  -3  -4-103.542 159.408  36
   5   3  -4-127.445 211.660  60
   5  -3  -4 102.042 233.029  60
   5   3  -4 5.59637 96.2583  57
   5  -3  -4-2.26683 211.854  57
  -5  -3   4 165.459 250.462  55
  -5   3   4-27.6034 110.871  55
   5  -3  -3 343.639 181.392   6
   5   3  -3 109.474 288.736  27
   5  -3  -3-121.508 184.070  27
  -5  -3   3 214.826 150.147  15
  -5   3   3-289.932 239.266  45
  -5  -3   3-160.524 196.954  44
  -5   3   3-27.8998 147.595  23
   5   3  -3 170.330 253.928  12
   5  -3  -3 56.2796 184.739  12
  -5   3   3 79.6267 210.627  22
   5   3  -3-50.3197 95.1509  37
   5  -3  -3 40.8074 211.596  37
   5  -3  -3 54.9656 148.315  36
   5   3  -3 287.266 255.588  60
   5  -3  -3 136.293 171.241  60
   5   3  -3-213.701 193.578  57
  -5  -3   3 125.817 141.198  55
  -5   3   3 94.2076 133.960  55
   5  -3  -2 25.3020 210.993   6
   5   3  -2-333.211 242.950  27
  -5  -3   2 39.5826 228.468  15
  -5   3   2 132.658 214.608  45
  -5  -3   2-367.092 271.806  44
   5  -3  -2 143.880 223.045  43
   5   3  -2-52.2245 206.462  12
   5  -3  -2-114.540 169.898  12
   5   3  -2 1.51095 160.832  37
  -5   3   2-212.532 319.835  22
   5  -3  -2 7.03892 154.799  37
   5  -3  -2-94.0000 237.518  36
   5   3  -2 39.0953 109.180  60
   5  -3  -2-387.030 269.491  60
   5   3  -1 13284.0 1434.55  27
  -5  -3   1 10097.3 1315.86  44
   5  -3  -1 11896.7 1469.04  43
   5   3  -1 11805.8 1350.71  12
  -5   3   1 11319.0 1418.84  22
   5   3  -1 12694.1 1430.42  37
   5  -3  -1 14424.8 1650.84  37
   5  -3  -1 13444.8 1609.65  36
   5   3  -1 11811.7 1354.63  60
   5  -3  -1 12552.4 1465.71   6
   5  -3   0 3912.73 807.252   6
   5   3   0 2967.18 673.608  27
   5  -3   0 3163.92 759.502  43
   5   3   0 3576.06 771.512  37
   5  -3   0 2778.04 691.233  37
  -5   3   0 2648.25 708.152  22
   5  -3   0 2947.97 736.052  36
   5   3   0 2575.91 630.611  60
   5   3   1 13928.1 1589.64   9
   5   3   1 17176.1 1647.46  27
   5  -3   1 18418.9 1939.77   9
   5  -3   1 16128.4 1727.17  43
  -5   3  -1 15148.1 1637.50  22
   5   3   1 17980.7 1682.80  37
   5  -3   1 16534.7 1713.84  37
   5  -3   1 15534.8 1650.55  36
   5   3   1 13960.0 1457.24  60
   5  -3   1 16999.0 1693.42   6
   5  -3   2 515.778 343.510   6
   5   3   2 268.954 114.473  27
   5   3   2 277.226 279.450   9
   5  -3   2 419.864 358.417   9
   5  -3   2 451.281 279.725   8
   5  -3   2 665.679 380.260  43
   5   3   2 265.507 215.547  24
   5   3   2 451.486 295.753  37
   5  -3   2 428.925 177.884  37
   5  -3   3 2386.33 594.970   6
   5   3   3 2524.10 672.007   9
   5  -3   3 3133.38 768.675   9
   5  -3   3 1437.01 489.295   8
   5  -3   3 3277.56 758.574  43
   5   3   3 3151.24 667.642  24
   5   3   3 2407.18 691.165  11
   5   3   4 187.957 224.005   9
   5  -3   4-98.8768 115.653   9
   5  -3   4-134.108 198.432   8
   5  -3   4-14.6839 214.076  43
   5   3   4 5.53568 150.925  24
   5   3   4-104.153 255.186  11
   5  -3   4 121.664 163.320  11
   5   3   5 672.991 386.144   9
   5  -3   5 1022.80 402.570   9
   5   3   5 1055.99 358.066  24
   5  -3   5 651.220 255.976  41
   5   3   5 1261.12 475.768  11
   5  -3   5 583.580 286.162  11
   5   3   6 659.582 317.653   9
   5  -3   6 727.650 316.127   9
   5  -3   6 762.035 311.261  41
   5   3   6 766.810 312.087  11
   5  -3   6 654.199 306.958  11
   5   3   7 1096.56 352.338   9
   5  -3   7 1072.51 321.685   9
   5  -3   7 925.885 311.645  11
   5  -5  -8 1031.38 300.401  27
  -5  -5   8 2362.68 452.337  15
  -5   5   8 1424.05 321.536  45
  -5  -5   8 1233.93 322.543  44
  -5  -5   8 1223.03 316.717  25
   5   5  -8 1380.18 315.643  40
   5  -5  -8 1104.16 311.950  12
  -5   5   8 1332.76 324.849  22
   5  -5  -8 827.774 248.192  37
   5  -5  -8 1426.15 362.218  60
   5   5  -8 1388.27 334.604  57
   5  -5  -8 1953.42 398.318  57
   5   5  -8 1251.87 310.196  30
  -5   5   8 886.771 236.891  56
   5  -5  -8 1258.36 313.508  30
  -5   5   8 786.677 228.498  55
   5   5  -7 32.7478 87.0720  27
   5  -5  -7-22.3006 161.775  27
  -5  -5   7 179.787 195.967  15
  -5   5   7 86.4673 108.344  45
  -5  -5   7 94.1660 166.510  44
   5   5  -7 25.3541 158.406  14
  -5  -5   7-4.00127 107.628  25
   5   5  -7 152.417 161.807  40
   5  -5  -7-261.447 182.126  12
  -5   5   7 90.8292 99.8944  22
   5  -5  -7-126.073 179.395  37
   5  -5  -7 183.988 156.749  36
   5   5  -7 78.9983 70.9187  60
   5  -5  -7 134.920 187.592  60
  -5  -5   7-231.450 155.604  59
   5   5  -7-1.86261 74.2221  57
   5  -5  -7 83.8814 92.7217  57
   5   5  -7 2.51802 71.0214  30
  -5   5   7 25.8364 94.7801  56
   5  -5  -7-36.7074 116.632  30
  -5   5   7 84.5545 131.615  55
   5   5  -6 6189.25 813.661  27
   5  -5  -6 5630.61 830.094  27
  -5  -5   6 6442.92 907.191  15
  -5   5   6 5101.30 720.944  15
  -5   5   6 7149.30 903.705  45
  -5  -5   6 7827.82 993.037  44
  -5  -5   6 7389.67 976.681  25
   5   5  -6 7065.33 880.491  40
   5  -5  -6 6100.27 898.936  12
  -5   5   6 7422.58 937.138  22
   5  -5  -6 7704.55 1011.64  37
   5  -5  -6 5715.55 858.180  36
   5   5  -6 6112.90 819.057  60
   5  -5  -6 7386.50 977.597  60
  -5  -5   6 6177.21 875.590  59
   5   5  -6 6958.70 895.810  57
   5  -5  -6 7941.78 990.940  57
   5   5  -6 5466.43 737.917  30
  -5   5   6 6463.61 843.183  56
  -5   5   6 6393.09 814.593  55
   5  -5  -5 1165.63 388.322   6
  -5  -5   5 888.570 354.426  54
   5   5  -5 784.266 291.664  27
   5  -5  -5 1091.63 387.338  27
  -5  -5   5 1507.70 434.290  15
  -5   5   5 892.720 315.327  15
  -5   5   5 1839.47 505.618  45
  -5  -5   5 1284.57 420.217  44
  -5  -5   5 807.199 354.943  25
   5   5  -5 1290.25 399.804  40
  -5   5   5 1262.27 454.893  23
  -5   5   5 1645.08 470.332  22
   5  -5  -5 1426.60 450.912  12
   5  -5  -5 1611.39 503.887  37
   5  -5  -5 829.683 402.884  36
   5   5  -5 1124.82 384.084  60
   5  -5  -5 1513.97 469.803  60
  -5  -5   5 1590.00 474.273  59
   5   5  -5 1260.63 411.028  57
   5  -5  -5 1193.28 396.217  57
  -5   5   5 1343.68 415.426  56
  -5   5   5 1519.74 420.232  55
   5   5  -4 12792.2 1294.56  27
  -5  -5   4 11303.0 1284.58  15
  -5   5   4 12699.7 1338.94  45
  -5  -5   4 13610.8 1445.13  44
  -5  -5   4 12110.5 1377.19  25
  -5   5   4 14040.6 1450.70  23
   5   5  -4 12087.8 1269.84  40
   5  -5  -4 12281.7 1407.26  12
  -5   5   4 13825.3 1402.50  22
   5  -5  -4 13315.7 1482.72  37
   5  -5  -4 11062.9 1359.31  36
   5   5  -4 11777.1 1250.63  60
   5  -5  -4 12335.0 1367.27  60
   5   5  -4 12653.9 1290.35  57
   5  -5  -4 12240.6 1338.03   6
   5  -5  -4 11394.8 1272.78  57
  -5   5   4 12491.1 1289.72  56
  -5   5   4 11147.3 1214.64  55
   5   5  -3 5249.55 843.790  27
  -5   5   3 4979.43 890.022  45
  -5  -5   3 5268.71 902.302  44
  -5  -5   3 5420.70 980.172  25
   5  -5  -3 5184.70 883.228  43
   5   5  -3 4951.06 830.796  40
   5  -5  -3 6812.78 1055.50  12
  -5   5   3 4676.01 836.442  23
  -5   5   3 6532.68 1011.12  22
   5   5  -3 4230.68 750.548  37
   5  -5  -3 5545.24 981.055  37
   5  -5  -3 5650.27 988.481  36
   5   5  -3 6401.27 948.312  60
   5   5  -3 4539.21 776.812  57
   5  -5  -3 6625.69 1008.56   6
  -5   5   3 7142.00 982.255  56
  -5   5   3 5636.93 904.102  55
   5   5  -2 5713.81 890.429  27
   5  -5  -2 5615.36 1041.68  26
  -5   5   2 5427.74 928.688  45
  -5  -5   2 5677.44 919.638  44
   5  -5  -2 5544.23 973.202  43
   5   5  -2 5258.37 859.580  40
   5  -5  -2 6527.17 1050.90  12
  -5   5   2 5148.75 876.387  23
  -5   5   2 5539.43 929.785  22
   5   5  -2 6042.09 943.740  37
   5  -5  -2 6769.75 1116.19  37
   5  -5  -2 6342.32 1080.46  36
   5   5  -2 5445.15 875.402  60
   5  -5  -2 6697.15 1023.79   6
  -5   5   2 4762.21 863.044  55
   5  -5  -1 297.543 264.379   6
   5   5  -1 703.498 326.049  27
   5  -5  -1 115.404 211.803  26
   5  -5  -1 201.582 158.879  43
   5   5  -1 521.488 294.422  37
  -5   5   1 634.254 402.930  22
   5  -5  -1 157.864 113.272  37
   5  -5  -1 303.497 303.873  36
   5   5  -1-135.060 200.290  60
   5  -5   0 610.252 282.403   6
   5   5   0 36.7069 169.570  27
   5  -5   0 500.743 323.172  26
   5   5   0 329.237 293.809  14
   5  -5   0 488.822 288.666  43
   5   5   0 912.493 377.432  24
  -5   5   0 409.688 208.011  22
   5  -5   0 652.893 342.925  37
   5  -5   0 684.718 354.164  36
   5   5   0 598.366 306.298  60
   5   5   1 482.125 281.472  27
   5  -5   1 513.561 272.512   6
   5   5   1 448.962 284.000   9
   5  -5   1 218.547 180.481  26
   5  -5   1 159.515 115.452   8
   5  -5   1 415.992 288.198  43
   5   5   1 188.614 149.097  24
   5  -5   1-83.6475 264.156  37
  -5   5  -1-25.1562 149.592  22
   5  -5   1 103.578 136.758  36
   5   5   1 144.425 153.539  60
   5   5   2 1337.00 436.612  27
   5  -5   2 1417.35 443.532   6
   5   5   2 504.776 288.924   9
   5  -5   2 1361.93 478.339  43
   5   5   2 1593.16 446.379  24
   5  -5   2 689.085 352.462   8
  -5   5  -2 577.545 392.581  22
   5  -5   3 2668.04 602.444   6
   5   5   3 2817.90 673.214   9
   5  -5   3 3925.94 852.509   9
   5  -5   3 2708.33 683.812  43
   5   5   3 3192.95 657.534  24
   5  -5   3 2972.84 621.142   8
   5   5   4 4759.46 847.022   9
   5  -5   4 5729.99 953.578   9
   5  -5   4 6824.57 906.289   8
   5  -5   4 4849.93 818.239  43
   5   5   4 6079.47 853.882  24
   5  -5   4 4844.54 767.321   6
   5   5   5 1394.86 425.203   9
   5  -5   5 1001.74 386.402   9
   5  -5   5 811.626 324.547  43
   5   5   5 1228.32 357.662  24
   5  -5   5 1017.23 310.374   8
   5   5   6 3880.08 656.759   9
   5  -5   6 4459.67 679.221   9
   5   5   6 4813.38 624.842  24
   5  -5   6 3666.37 549.633  11
   5   5   7 195.413 166.905   9
  -5  -7   7 1608.93 364.175  44
  -5  -7   7 1569.83 360.909  25
   5   7  -7 1202.22 289.245  40
   5  -7  -7 1444.34 342.534  12
  -5   7   7 1224.82 288.499  22
   5  -7  -7 1289.19 321.673  37
   5  -7  -7 1242.25 299.910  60
  -5  -7   7 1335.76 308.801  59
   5   7  -7 1242.94 290.851  57
   5  -7  -7 1370.81 302.512  57
  -5   7   7 1507.34 320.880  56
  -5  -7   6-72.4170 90.7036  54
   5   7  -6 22.3486 67.8351  27
  -5  -7   6-18.5525 157.597  15
  -5   7   6 186.882 126.010  45
  -5  -7   6 44.1703 131.873  44
   5   7  -6 11.1251 116.408  14
  -5  -7   6 53.7589 112.211  25
  -5   7   6 186.187 141.048  23
   5   7  -6 148.465 104.557  40
  -5   7   6 63.7670 72.0924  22
   5  -7  -6-42.9546 150.785  12
   5  -7  -6 221.535 194.952  37
   5  -7  -6 216.358 164.232  36
  -5  -7   6 84.2171 94.1954  21
   5   7  -6 232.013 155.108  60
   5  -7  -6-56.8304 79.3905  60
  -5  -7   6-174.429 175.471  59
   5   7  -6 139.796 105.111  57
   5  -7  -6 14.3188 113.116  57
   5   7  -6-20.0084 118.091  30
  -5   7   6 52.6669 116.738  56
  -5  -7   5 2015.27 473.033  54
   5   7  -5 1557.53 367.485  27
  -5   7   5 1733.62 417.353  45
  -5  -7   5 1823.41 453.942  44
   5   7  -5 1814.42 472.462  14
  -5  -7   5 2196.02 510.415  25
   5   7  -5 2603.96 498.004  40
  -5   7   5 1975.61 483.754  23
  -5   7   5 1629.82 428.530  22
   5  -7  -5 2104.86 514.451  12
   5  -7  -5 2193.48 506.736  37
   5  -7  -5 1782.40 453.822  36
   5   7  -5 1854.88 424.763  60
   5  -7  -5 1858.36 425.887  60
  -5  -7   5 1601.08 443.539  59
   5   7  -5 1662.32 405.813  57
   5  -7  -5 1928.69 454.501  57
  -5   7   5 2087.01 444.709  56
  -5  -7   4 19.2807 118.353  54
   5  -7  -4 197.028 146.178   6
   5   7  -4 66.4188 145.108  27
  -5   7   4 180.471 160.335  15
  -5   7   4 45.4400 97.2789  45
  -5  -7   4 25.8343 155.300  44
   5   7  -4 130.740 233.356  14
  -5  -7   4 199.451 160.772  25
   5   7  -4 221.029 154.820  24
   5   7  -4 76.6206 144.298  40
  -5   7   4 57.7769 162.519  23
  -5   7   4 69.1421 212.104  22
   5  -7  -4-33.5073 149.319  12
   5  -7  -4-31.2845 114.933  37
   5  -7  -4 186.232 128.637  36
   5   7  -4 260.023 175.862  60
  -5  -7   4 180.428 230.990  59
   5   7  -4 151.204 127.552  57
  -5   7   4 149.206 197.979  56
  -5  -7   3 5537.13 888.092  54
   5   7  -3 6816.46 872.080  27
   5  -7  -3 4976.19 833.698  26
  -5   7   3 5778.99 831.861  45
   5   7  -3 6398.96 942.002  14
  -5  -7   3 5471.93 795.100  44
  -5  -7   3 5834.92 885.237  25
   5  -7  -3 5332.22 839.215  43
   5   7  -3 5681.22 758.532  24
  -5   7   3 5992.77 887.589  23
   5   7  -3 6373.43 847.229  40
   5  -7  -3 6727.53 953.705  12
  -5   7   3 6929.30 929.837  22
   5  -7  -3 5255.16 877.246  37
   5  -7  -3 5669.66 908.794  36
   5   7  -3 6565.59 883.906  60
  -5  -7   3 7100.51 1008.24  59
   5   7  -3 6677.31 850.347  57
   5  -7  -3 5788.96 850.845   6
  -5   7   3 6873.63 889.157  56
  -5   7   3 3832.56 630.200  55
   5  -7  -2 168.368 162.991   6
   5   7  -2-89.3489 210.260  27
   5  -7  -2-11.1651 159.764  26
  -5   7   2-121.684 150.979  45
   5   7  -2 34.3229 90.3207  14
  -5  -7   2 57.2100 118.208  25
   5  -7  -2 96.4153 100.061  43
   5   7  -2 216.044 183.928  24
   5   7  -2-127.007 131.729  40
  -5   7   2 267.874 212.257  23
   5  -7  -2 61.1869 184.679  12
  -5   7   2-94.2663 136.443  22
   5  -7  -2 123.843 190.920  37
   5  -7  -2 202.278 206.173  36
   5   7  -2 78.1535 120.614  60
  -5   7   2-65.3676 105.711  56
  -5   7   2-13.2567 171.009  55
   5   7  -1 7863.00 969.103  27
   5  -7  -1 6632.33 1024.18  26
   5   7  -1 9550.78 1157.01  14
  -5  -7   1 7401.58 961.867  25
   5  -7  -1 9818.46 1214.24  43
   5   7  -1 9119.43 1013.65  24
   5   7  -1 9207.28 1049.35  40
  -5   7   1 9238.99 1125.18  22
   5  -7  -1 7928.94 1067.45  37
   5  -7  -1 8216.87 1131.40  36
   5  -7  -1 9753.38 1156.42   6
  -5   7   1 8772.76 1023.22  56
  -5   7   1 7226.62 930.601  55
   5   7   0 161.643 177.675  27
   5  -7   0 502.782 278.326   6
   5  -7   0 329.151 326.142  26
   5   7   0 435.326 230.966  14
   5  -7   0 82.1712 128.580  43
   5   7   0 235.404 187.066  24
   5   7   0 331.656 185.501  40
  -5   7   0-177.102 143.505  22
   5  -7   0 108.820 182.296  37
   5  -7   0 199.613 260.575  36
  -5   7   0 84.5510 107.033  56
   5   7   1 15447.0 1365.54  27
   5  -7   1 11445.7 1334.17  26
   5  -7   1 11870.6 1331.49  43
   5   7   1 11230.9 1134.22  24
   5   7   1 12065.3 1120.97  42
  -5   7  -1 11136.6 1238.09  22
   5  -7   1 13302.1 1356.10   6
   5   7   2-48.1051 110.648   9
   5  -7   2 267.116 225.344   6
   5  -7   2-72.4563 224.045  26
   5  -7   2 309.730 232.758  43
   5   7   2 296.804 189.238  42
   5   7   2 25.3909 111.061  24
   5  -7   2-86.1820 156.604   8
   5  -7   2 430.928 315.095  39
  -5   7  -2 141.328 169.986  22
   5   7   3 8002.53 1009.92   9
   5  -7   3 10567.8 1230.46   9
   5  -7   3 8935.22 981.240   8
   5  -7   3 8870.68 1050.20  43
   5   7   3 10095.2 1025.77  24
   5   7   3 8337.70 850.927  42
  -5   7  -3 9673.28 1094.31  22
   5  -7   3 11167.9 1128.03   6
   5  -7   4-248.599 160.056   6
   5   7   4-114.033 112.677   9
   5  -7   4-41.8232 176.938   9
   5  -7   4 33.2997 80.0648  43
   5   7   4 46.8194 133.506  42
   5   7   4-47.2022 120.515  24
   5  -7   4-94.6149 83.8802   8
  -5   7  -4 215.668 193.723  22
   5   7   5 2112.45 454.631   9
   5  -7   5 1981.84 443.306   9
   5   7   5 2489.53 431.265  24
   5  -7   5 2224.90 415.194   8
  -5   7  -5 1637.41 410.619  22
   5   9  -5 209.062 157.826  14
   5   9  -5-26.3604 69.0681  40
  -5   9   5 124.210 110.294  23
  -5   9   5 60.2028 53.8903  22
   5  -9  -5 99.8050 103.291  12
   5  -9  -5 18.1961 110.680  37
   5  -9  -5 112.464 128.753  36
  -5  -9   5-23.0790 75.0031  21
  -5  -9   5 27.9247 76.2541  59
  -5   9   5 21.4252 78.6786  56
  -5  -9   4 1713.28 399.688  54
   5   9  -4 1139.13 321.239  14
  -5  -9   4 1260.57 309.894  25
   5   9  -4 1626.83 332.236  40
  -5   9   4 1438.85 339.692  23
  -5   9   4 1604.56 356.006  22
   5  -9  -4 1763.40 376.812  12
   5  -9  -4 1825.53 396.822  37
   5  -9  -4 1219.07 327.149  36
  -5  -9   4 1907.40 419.598  21
  -5  -9   4 1435.36 357.631  59
  -5   9   4 1827.04 367.260  56
  -5  -9   3 984.006 312.339  54
   5  -9  -3 634.631 224.155   6
  -5   9   3 426.689 190.825  45
   5   9  -3 807.158 293.584  14
  -5  -9   3 711.602 244.159  25
   5  -9  -3 704.501 267.326  43
   5   9  -3 500.868 221.437  42
   5   9  -3 699.687 230.642  40
  -5   9   3 834.817 278.591  23
  -5   9   3 955.114 296.325  22
   5  -9  -3 602.110 232.462  12
   5  -9  -3 755.812 260.751  37
   5  -9  -3 453.429 232.387  36
  -5  -9   3 752.093 257.674  21
  -5  -9   3 491.582 212.783  59
  -5   9   3 772.110 273.277  56
  -5  -9   2 1586.63 398.853  54
   5  -9  -2 1298.96 329.646   6
   5  -9  -2 1149.45 347.741  26
  -5   9   2 1112.36 311.208  45
   5   9  -2 1389.66 389.567  14
   5  -9  -2 1272.99 353.491  43
   5   9  -2 1285.76 322.246  42
   5   9  -2 1143.49 307.094  40
  -5   9   2 1164.50 341.478  23
  -5   9   2 1409.49 367.457  22
   5  -9  -2 1145.06 317.218  37
   5  -9  -2 1742.51 435.432  36
  -5  -9   2 1553.00 417.388  21
  -5  -9   2 1421.72 388.172  59
  -5   9   2 1750.54 385.871  56
  -5  -9   1 610.285 247.035  54
   5  -9  -1 458.844 251.623   6
   5  -9  -1 240.433 199.275  26
  -5   9   1 50.9618 128.613  45
   5   9  -1 551.668 238.525  14
   5  -9  -1 273.478 187.803  43
   5   9  -1 494.349 204.202  42
   5   9  -1 235.307 137.662  24
   5   9  -1 272.896 188.376  40
  -5   9   1 332.756 191.551  23
  -5   9   1 637.879 243.604  22
   5  -9  -1 412.903 258.532  36
  -5  -9   1 186.432 152.870  59
  -5   9   1 340.674 198.214  56
  -5  -9   0 2290.32 479.165  54
   5  -9   0 2007.01 441.569   6
   5  -9   0 2007.93 471.399  26
  -5   9   0 2231.70 459.809  45
   5   9   0 2024.78 424.896  14
   5  -9   0 2317.86 497.259  43
   5   9   0 2468.30 450.761  42
   5   9   0 1991.19 381.264  24
   5   9   0 2218.51 419.928  40
  -5   9   0 2740.79 510.574  22
   5  -9   0 1721.49 378.679  36
  -5  -9   0 1902.32 424.459  21
  -5   9   0 1757.38 369.168  56
  -5  -9  -1 326.737 167.708  54
   5  -9   1 395.479 177.202   6
   5  -9   1 475.113 195.284  26
   5  -9   1 253.168 182.697  43
   5   9   1 256.659 146.556  42
   5   9   1 123.672 99.0775  24
   5   9   1 340.030 177.002  40
  -5   9  -1 459.711 226.717  22
  -5   9  -1 388.469 189.496  56
  -5  -9  -2 455.435 197.398  54
   5  -9   2 595.819 233.536   6
   5  -9   2 636.373 243.843  43
   5   9   2 758.476 221.402  42
   5   9   2 1017.29 246.566  24
  -5   9  -2 825.376 287.230  22
   5  -9   3 1172.42 286.631   6
   5  -9   3 897.723 286.929   9
   5  -9   3 1004.21 275.489  43
   5   9   3 1066.13 258.591  24
  -5   9  -3 1234.60 333.851  22
   6   0  -7 65.1099 106.741  27
  -6   0   7 101.108 92.7691  15
   6   0  -7-18.4467 83.9623  12
   6   0  -7 186.660 132.550  60
  -6   0   7-27.8465 54.7431  55
   6   0  -6 3812.48 554.293  27
  -6   0   6 3259.91 521.468  15
  -6   0   6 2854.45 473.259  45
  -6   0   6 2841.63 493.283  44
  -6   0   6 1699.25 360.698  25
   6   0  -6 4399.35 616.937  12
   6   0  -6 3965.04 581.564  60
   6   0  -6 2603.61 431.126  57
  -6   0   6 3326.83 512.928  55
   6   0  -5 59.0509 107.642  27
  -6   0   5 304.393 202.660  15
  -6   0   5 56.4662 81.5754  45
  -6   0   5 63.0653 156.704  44
   6   0  -5 11.9470 75.6912  12
   6   0  -5 199.607 146.458  37
   6   0  -5 512.607 249.108  60
  -6   0   5-44.5511 85.6807  55
   6   0  -4 3306.98 583.536  27
  -6   0   4 3074.47 610.480  15
  -6   0   4 2698.43 535.119  45
  -6   0   4 1993.75 482.305  44
   6   0  -4 2520.01 528.206  12
   6   0  -4 3476.96 617.266  37
   6   0  -4 2482.29 525.306  60
  -6   0   4 2779.94 544.530  55
   6   0  -3 79.2440 160.506  27
  -6   0   3-179.589 171.269  15
  -6   0   3 48.1714 121.526  45
  -6   0   3 68.8958 94.2575  44
   6   0  -3 199.950 198.397  12
   6   0  -3-39.4155 135.428  37
   6   0  -3-69.2973 107.744  60
  -6   0   3-102.680 88.7113  55
   6   0  -2 7953.52 931.105  27
  -6   0   2 6720.86 928.795  15
   6   0  -2 7823.74 999.304  37
   6   0  -2 8643.31 989.000  60
  -6   0   2 9317.22 1060.82  55
  -6   0   1 170.376 86.1958  15
   6   0  -1 162.378 199.888  37
  -6   0   1-50.0188 158.388  55
  -6   0   0 3975.56 669.905  15
   6   0   0 4029.82 658.344  24
   6   0   0 5137.13 812.858  37
  -6   0   0 3837.44 688.989  55
   6   0   1-84.0680 122.110   9
   6   0   1 157.872 185.052  37
  -6   0  -1-178.786 165.187  55
   6   0   2 417.296 252.678   9
   6   0   2 312.826 96.6632  37
  -6   0  -2 275.047 197.927  55
   6   0   3-42.1316 102.078   9
   6   0   4 1562.75 415.663   9
   6   0   5 13.7410 87.6466   9
   6   2  -6 373.863 189.416  27
   6  -2  -6 126.369 126.634  27
  -6  -2   6 154.321 104.847  15
  -6   2   6 460.270 204.327  15
  -6   2   6 302.453 157.786  45
  -6  -2   6 152.183 139.004  44
  -6   2   6 74.2868 102.754  44
  -6  -2   6 132.184 89.8464  25
   6   2  -6 128.118 73.2578  12
   6  -2  -6 10.7413 69.1824  12
   6   2  -6 317.632 151.800  60
   6  -2  -6 328.155 191.444  60
   6   2  -6 277.778 147.368  57
  -6  -2   6 192.974 138.940  55
  -6   2   6 194.580 125.600  55
   6   2  -5 448.189 185.226  27
   6  -2  -5 271.441 138.602  27
  -6  -2   5 668.293 279.554  15
  -6   2   5 520.256 224.651  15
  -6   2   5 399.395 183.111  45
  -6  -2   5 506.244 231.184  44
  -6   2   5 232.444 84.6309  44
  -6  -2   5 454.737 239.534  25
   6   2  -5 351.792 195.429  12
   6  -2  -5 560.664 249.321  12
   6  -2  -5 377.768 221.924  37
   6   2  -5 545.915 214.790  60
   6  -2  -5 408.111 200.580  60
  -6  -2   5 182.692 139.208  59
  -6  -2   5 574.978 234.801  55
  -6   2   5 302.028 181.727  55
   6   2  -4 487.444 228.243  27
   6  -2  -4 483.327 213.082  27
  -6  -2   4 284.497 216.930  15
  -6   2   4 197.491 217.930  15
  -6   2   4 437.052 239.742  45
  -6  -2   4 369.224 217.441  44
   6   2  -4 82.7874 138.509  12
   6  -2  -4 473.276 234.601  12
   6   2  -4 190.849 160.586  37
   6  -2  -4 427.131 246.978  37
   6  -2  -4 384.015 181.925  36
   6   2  -4 402.892 248.306  60
   6  -2  -4 391.159 213.223  60
  -6  -2   4 387.970 216.327  55
  -6   2   4 28.3809 103.089  55
   6   2  -3 555.459 261.499  27
  -6  -2   3 113.123 135.007  15
  -6   2   3-32.4942 114.475  15
  -6   2   3 314.336 178.142  45
  -6  -2   3 354.035 262.594  44
   6   2  -3 389.705 173.253  12
   6  -2  -3 84.1746 124.666  12
   6   2  -3 198.154 162.300  37
   6  -2  -3 171.009 246.849  37
   6  -2  -3 455.720 270.810  36
   6   2  -3 516.603 270.102  60
   6  -2  -3 87.6122 160.387  60
  -6  -2   3 236.077 225.006  55
  -6   2   3 76.3951 149.043  55
   6   2  -2 1812.57 452.204  27
  -6  -2   2 1949.39 479.295  15
  -6   2   2 2153.71 527.948  15
  -6   2   2 2536.44 533.201  45
  -6  -2   2 1752.23 446.063  44
   6   2  -2 2714.16 565.949  37
   6  -2  -2 2582.65 579.926  37
   6  -2  -2 3178.29 664.506  36
   6   2  -2 2736.06 552.352  60
  -6  -2   2 2077.24 478.907  55
  -6   2   2 2874.41 569.662  55
   6   2  -1 271.856 195.024  27
  -6   2   1 377.481 234.940  45
  -6  -2   1 301.013 236.062  44
   6   2  -1 152.842 227.807  37
   6  -2  -1 116.627 157.213  37
   6  -2  -1 566.859 295.363  36
   6   2  -1 80.8800 86.6113  60
   6  -2  -1-53.0232 129.107   6
  -6   2   1 307.708 221.096  55
   6  -2   0 481.795 218.461   6
   6   2   0 322.143 210.422  27
   6  -2   0 218.693 206.189   9
  -6   2   0 265.755 208.640  45
   6   2   0 645.063 320.550  24
   6   2   0 507.389 251.748  37
   6  -2   0 103.615 185.744  37
  -6   2   0 209.192 162.338  55
   6  -2   1 2164.99 500.728   9
  -6   2  -1 2232.31 472.433  45
   6   2   1 2544.32 511.037  24
   6   2   1 2980.23 593.661  37
   6  -2   1 2637.34 566.565  37
   6  -2   1 3456.60 606.774   6
   6   2   2 114.859 219.152   9
   6  -2   2-75.3036 91.4164   9
   6   2   2 90.1205 103.179  24
   6  -2   2 385.285 200.802  37
   6  -2   3 4416.01 712.449   9
   6   2   3 3313.88 602.579   9
   6   2   4 547.850 232.598   9
   6  -2   4 691.866 271.291   9
  -6   4   6 710.405 208.139  45
   6   4  -5-51.3286 56.1537  27
  -6  -4   5 173.863 91.5118  15
  -6   4   5 42.9067 89.9979  15
  -6   4   5 197.673 101.871  45
  -6  -4   5 277.899 172.799  44
  -6   4   5 38.8280 106.201  44
   6   4  -5 2.91475 105.347  14
  -6  -4   5-1.52900 87.7582  25
   6  -4  -5 216.627 151.640  12
   6  -4  -5 21.5328 92.2366  37
   6  -4  -5 153.510 137.578  36
   6   4  -5 116.223 93.9829  60
   6  -4  -5-45.8421 104.684  60
  -6  -4   5 173.312 137.143  59
  -6   4   5 36.5612 77.0901  55
   6   4  -4 3363.03 527.591  27
  -6  -4   4 1392.22 328.651  15
  -6   4   4 1996.54 426.440  15
  -6   4   4 3248.97 547.160  45
  -6  -4   4 2934.82 510.815  44
   6   4  -4 2809.32 539.250  14
  -6  -4   4 2503.08 504.867  25
   6  -4  -4 2719.98 484.008  12
   6  -4  -4 3032.37 548.679  37
   6  -4  -4 3532.47 582.052  36
   6   4  -4 3223.62 522.917  60
  -6  -4   4 2370.17 467.825  59
  -6   4   4 3420.93 527.872  55
  -6  -4   3 469.485 195.264  54
   6   4  -3 454.389 208.704  27
  -6   4   3 325.959 187.840  15
  -6   4   3 296.058 191.792  45
  -6  -4   3 286.008 148.338  44
   6   4  -3 762.174 301.418  14
  -6  -4   3 481.449 258.691  25
   6  -4  -3 398.752 235.087  12
   6  -4  -3 486.755 215.591  37
   6  -4  -3 883.391 325.131  36
   6   4  -3 411.207 199.976  60
  -6   4   3 470.490 215.308  55
   6  -4  -2 1135.70 345.546   6
   6   4  -2 1158.04 340.774  27
  -6   4   2 1015.84 341.500  15
  -6   4   2 1208.08 349.230  45
  -6  -4   2 810.451 280.557  44
   6   4  -2 1310.40 387.880  14
   6  -4  -2 820.341 297.675  43
  -6  -4   2 979.453 310.809  25
   6   4  -2 1390.50 364.283  24
   6  -4  -2 1230.55 411.801  37
   6  -4  -2 1117.17 372.695  36
   6   4  -2 1245.96 354.994  60
  -6   4   2 1142.58 352.618  55
   6  -4  -1 319.812 214.921   6
   6   4  -1-12.8973 112.567  27
  -6   4   1 241.850 180.826  45
   6   4  -1 391.217 213.603  14
   6  -4  -1 316.358 215.296  43
  -6  -4   1 195.441 174.435  25
   6   4  -1 453.201 245.947  24
   6  -4  -1 112.591 168.030  37
   6  -4  -1 158.717 156.583  36
   6   4  -1 212.397 137.032  60
  -6   4   1 143.654 138.042  55
   6  -4   0 531.505 265.873   6
   6   4   0 235.650 166.692  27
   6  -4   0 290.615 197.860   9
  -6   4   0 285.908 200.388  45
   6  -4   0 21.2715 177.365  43
  -6  -4   0 52.9011 110.005  25
   6   4   0 502.663 245.819  24
   6  -4   0 17.6812 91.7067  37
   6  -4   0 298.396 189.284  36
  -6   4   0 55.1624 140.024  55
   6  -4   1 1050.11 325.832   6
   6   4   1 996.633 288.890  27
   6  -4   1 1172.60 377.233   9
  -6   4  -1 854.183 284.112  45
   6  -4   1 1143.52 345.338  43
   6   4   1 1050.83 325.729  24
   6  -4   1 919.539 292.693  37
  -6   4  -1 1155.03 347.940  55
   6  -4   2 528.247 214.261   6
   6  -4   2 163.680 130.191   9
  -6   4  -2 290.914 170.029  45
   6   4   2 196.861 148.923  24
   6   4   3 340.530 153.812   9
   6  -4   3 461.901 209.028   9
  -6   4  -3 411.257 163.747  45
   6   4   3 399.091 162.753  24
  -6   6   4 825.831 232.116  45
   6  -6  -4 670.294 204.550  37
   6   6  -3 246.905 176.416  27
  -6   6   3 243.112 147.004  15
  -6   6   3 349.764 160.321  45
   6   6  -3 319.031 158.643  14
  -6  -6   3 451.975 186.425  25
   6   6  -3 519.814 189.281  24
   6  -6  -3 460.680 206.020  37
   6  -6  -3 473.267 193.833  36
  -6  -6   3 350.286 158.416  59
  -6  -6   2 887.642 281.874  54
   6  -6  -2 1411.06 329.078   6
   6   6  -2 1510.25 331.881  27
  -6   6   2 617.947 248.228  15
  -6   6   2 1100.40 292.373  45
   6   6  -2 1239.89 313.758  14
  -6  -6   2 866.013 249.300  25
   6   6  -2 1178.60 297.287  24
  -6   6   2 947.716 261.256  22
   6  -6  -2 1101.34 304.927  37
   6  -6  -2 806.918 267.220  36
  -6  -6   2 1005.40 288.541  59
  -6   6   2 1066.95 268.635  55
   6   6  -1 3469.97 508.176  27
  -6   6   1 2662.60 457.187  45
   6  -6  -1 2612.99 460.629  43
   6   6  -1 3160.93 470.398  24
  -6   6   1 3382.40 491.450  22
   6  -6  -1 2553.13 436.719  37
   6  -6  -1 2486.52 447.361  36
  -6  -6   1 3060.53 504.417  59
   6  -6  -1 3718.30 546.918   6
  -6   6   1 2435.14 417.346  55
   6  -6   0 175.479 108.205   6
  -6   6   0 5.88533 85.5147  45
   6  -6   0 170.412 129.822  43
   6   6   0 12.0408 95.9089  24
  -6   6   0-148.652 152.316  22
  -6   6   0-54.6649 89.7903  55
   6  -6   1 2182.70 399.781   6
   6  -6   1 1864.27 392.089   9
  -6   6  -1 1638.82 354.008  45
   6  -6   1 1817.01 384.397  43
   6   6   1 1873.52 365.008  24
  -6   6  -1 1452.20 326.761  55
  -6   6  -2-79.0702 93.4934  45
   6  -6   2-20.6427 75.1937  43
   0   0   0    0.00    0.00   0
TITL w1corr in C2/c
REM C2/c (#15 in standard setting)
CELL 1.54184   5.455682  12.606381  11.111332  90.0000  94.6806  90.0000
ZERR    1.00   0.000214   0.000274   0.000327   0.0000   0.0030   0.0000
LATT  7
SYMM -x, y,-z+1/2
SFAC C H N Se
UNIT 20.00 48.00 8.00 4.00
TREF
HKLF 4
END
;
_shelx_hkl_checksum              1619
_shelx_shelxl_version_number     2014/7
_olex2_submission_special_instructions 'No special instructions were received'
loop_
_space_group_symop_operation_xyz
'x, y, z'
'-x, y, -z+1/2'
'x+1/2, y+1/2, z'
'-x+1/2, y+1/2, -z+1/2'
'-x, -y, -z'
'x, -y, z-1/2'
'-x+1/2, -y+1/2, -z'
'x+1/2, -y+1/2, z-1/2'
loop_
_atom_site_label
_atom_site_type_symbol
_atom_site_fract_x
_atom_site_fract_y
_atom_site_fract_z
_atom_site_U_iso_or_equiv
_atom_site_adp_type
_atom_site_occupancy
_atom_site_site_symmetry_order
_atom_site_calc_flag
_atom_site_refinement_flags_posn
_atom_site_refinement_flags_adp
_atom_site_refinement_flags_occupancy
Se1 Se 0.0000 0.10731(3) 0.2500 0.0548(3) Uani 1 2 d S T P
C2 C 0.0000 -0.0390(3) 0.2500 0.0344(7) Uani 1 2 d S T P
N3 N -0.1151(4) -0.09511(19) 0.3318(2) 0.0411(6) Uani 1 1 d . . .
C4 C -0.3012(5) -0.0474(3) 0.4022(3) 0.0558(8) Uani 1 1 d . . .
H4A H -0.2240 -0.0234 0.4802 0.084 Uiso 1 1 calc GR . .
H4B H -0.4283 -0.1001 0.4156 0.084 Uiso 1 1 calc GR . .
H4C H -0.3762 0.0133 0.3581 0.084 Uiso 1 1 calc GR . .
C5 C -0.0134(6) -0.1948(2) 0.3814(3) 0.0520(7) Uani 1 1 d . . .
H5A H -0.1276 -0.2529 0.3591 0.078 Uiso 1 1 calc GR . .
H5B H 0.0104 -0.1895 0.4695 0.078 Uiso 1 1 calc GR . .
H5C H 0.1449 -0.2088 0.3487 0.078 Uiso 1 1 calc GR . .
loop_
_atom_site_aniso_label
_atom_site_aniso_U_11
_atom_site_aniso_U_22
_atom_site_aniso_U_33
_atom_site_aniso_U_23
_atom_site_aniso_U_13
_atom_site_aniso_U_12
Se1 0.0877(5) 0.0362(4) 0.0402(4) 0.000 0.0030(3) 0.000
C2 0.0356(15) 0.0412(18) 0.0263(16) 0.000 0.0017(12) 0.000
N3 0.0450(11) 0.0466(13) 0.0330(13) 0.0006(9) 0.0116(10) -0.0025(9)
C4 0.0452(14) 0.085(2) 0.0395(16) -0.0039(14) 0.0154(13) 0.0013(14)
C5 0.0751(18) 0.0426(15) 0.0382(15) 0.0067(11) 0.0039(13) -0.0057(13)
loop_
_atom_type_symbol
_atom_type_description
_atom_type_scat_dispersion_real
_atom_type_scat_dispersion_imag
_atom_type_scat_source
C C 0.0181 0.0091 'International Tables Vol C Tables 4.2.6.8 and 6.1.1.4'
H H 0.0000 0.0000 'International Tables Vol C Tables 4.2.6.8 and 6.1.1.4'
N N 0.0311 0.0180 'International Tables Vol C Tables 4.2.6.8 and 6.1.1.4'
Se Se -0.7943 1.1372 'International Tables Vol C Tables 4.2.6.8 and 6.1.1.4'
loop_
_exptl_crystal_face_index_h
_exptl_crystal_face_index_k
_exptl_crystal_face_index_l
_exptl_crystal_face_perp_dist
_exptl_oxdiff_crystal_face_indexfrac_h
_exptl_oxdiff_crystal_face_indexfrac_k
_exptl_oxdiff_crystal_face_indexfrac_l
_exptl_oxdiff_crystal_face_x
_exptl_oxdiff_crystal_face_y
_exptl_oxdiff_crystal_face_z
3 -1 1 0.0297 3.4695 -0.7380 0.6939 -0.2546 -0.7187 0.6470
-1 3 7 0.0524 -0.6717 3.3324 6.5359 0.2316 0.6555 0.7188
-3 3 3 0.0324 -3.0568 2.5487 3.3589 0.3328 0.9406 -0.0677
-2 -2 -6 0.0247 -1.8775 -2.0560 -5.5106 -0.0026 -0.0086 -1.0000
2 3 5 0.0458 1.9398 2.5803 5.2492 0.0696 -0.0250 0.9973
-1 -8 0 0.0382 -1.3469 -7.5646 0.0401 -0.8393 0.2971 -0.4554
-1 4 -6 0.0242 -0.9507 3.8947 -5.8657 0.6728 -0.2377 -0.7006
1 8 -1 0.0439 1.1057 7.7187 -0.9957 0.8957 -0.3170 0.3119
-3 1 1 0.0153 -3.0026 0.9972 1.0122 0.2156 0.7465 -0.3685
1 -3 6 0.0377 1.0019 -3.0068 5.9988 -0.5738 0.2373 0.7513
3 -3 -4 0.0250 3.0040 -2.9947 -4.0163 -0.3641 -0.9798 -0.0285
loop_
_geom_angle_atom_site_label_1
_geom_angle_atom_site_label_2
_geom_angle_atom_site_label_3
_geom_angle
_geom_angle_site_symmetry_1
_geom_angle_site_symmetry_3
N3 C2 Se1 121.71(17) . .
N3 C2 Se1 121.71(17) 2 .
N3 C2 N3 116.6(3) . 2
C2 N3 C4 121.8(3) . .
C2 N3 C5 121.5(2) . .
C4 N3 C5 114.2(3) . .
loop_
_geom_bond_atom_site_label_1
_geom_bond_atom_site_label_2
_geom_bond_distance
_geom_bond_site_symmetry_2
Se1 C2 1.844(4) .
C2 N3 1.347(3) .
C2 N3 1.347(3) 2
N3 C4 1.461(3) .
N3 C5 1.463(4) .
