#------------------------------------------------------------------------------
#$Date: 2017-03-04 06:54:26 +0200 (Sat, 04 Mar 2017) $
#$Revision: 193089 $
#$URL: file:///home/coder/svn-repositories/cod/cif/4/12/56/4125692.cif $
#------------------------------------------------------------------------------
#
# This file is available in the Crystallography Open Database (COD),
# http://www.crystallography.net/
#
# All data on this site have been placed in the public domain by the
# contributors.
#
data_4125692
loop_
_publ_author_name
'Forbes, Christina R.'
'Sinha, Sudipta K.'
'Ganguly, Himal K.'
'Bai, Shi'
'Yap, Glenn P. A.'
'Patel, Sandeep'
'Zondlo, Neal J.'
_publ_section_title
;
 Insights into Thiol-Aromatic Interactions: A Stereoelectronic Basis for
 S-H/\p Interactions.
;
_journal_issue                   5
_journal_name_full               'Journal of the American Chemical Society'
_journal_page_first              1842
_journal_page_last               1855
_journal_paper_doi               10.1021/jacs.6b08415
_journal_volume                  139
_journal_year                    2017
_chemical_formula_sum            'C7 H8 S'
_chemical_formula_weight         124.19
_space_group_crystal_system      monoclinic
_space_group_IT_number           14
_space_group_name_Hall           '-P 2ybc'
_space_group_name_H-M_alt        'P 1 21/c 1'
_symmetry_space_group_name_Hall  '-P 2ybc'
_symmetry_space_group_name_H-M   'P 1 21/c 1'
_atom_sites_solution_hydrogens   mixed
_audit_creation_method           SHELXL-2014/7
_cell_angle_alpha                90
_cell_angle_beta                 92.953(6)
_cell_angle_gamma                90
_cell_formula_units_Z            2
_cell_length_a                   7.742(3)
_cell_length_b                   7.223(3)
_cell_length_c                   5.956(2)
_cell_measurement_reflns_used    852
_cell_measurement_temperature    200(2)
_cell_measurement_theta_max      21.61
_cell_measurement_theta_min      2.63
_cell_volume                     332.6(2)
_computing_cell_refinement       'Bruker SAINT'
_computing_data_collection       'Bruker APEX2'
_computing_data_reduction        'Bruker SAINT'
_computing_molecular_graphics    'Bruker SHELXTL'
_computing_publication_material  'Bruker SHELXTL'
_computing_structure_refinement  'SHELXL-2014/7 (Sheldrick, 2014)'
_computing_structure_solution    'SHELXS-97 (Sheldrick 2008)'
_diffrn_ambient_temperature      200(2)
_diffrn_detector_area_resol_mean 8.33
_diffrn_measured_fraction_theta_full 0.998
_diffrn_measured_fraction_theta_max 0.997
_diffrn_measurement_device_type  'Bruker AXS APEX diffractometer'
_diffrn_measurement_method       '\f and \w scans'
_diffrn_radiation_type           MoK\a
_diffrn_radiation_wavelength     0.71073
_diffrn_reflns_av_R_equivalents  0.0501
_diffrn_reflns_av_unetI/netI     0.0356
_diffrn_reflns_Laue_measured_fraction_full 0.998
_diffrn_reflns_Laue_measured_fraction_max 0.997
_diffrn_reflns_limit_h_max       10
_diffrn_reflns_limit_h_min       -10
_diffrn_reflns_limit_k_max       9
_diffrn_reflns_limit_k_min       -9
_diffrn_reflns_limit_l_max       7
_diffrn_reflns_limit_l_min       -7
_diffrn_reflns_number            4782
_diffrn_reflns_point_group_measured_fraction_full 0.998
_diffrn_reflns_point_group_measured_fraction_max 0.997
_diffrn_reflns_theta_full        25.242
_diffrn_reflns_theta_max         27.683
_diffrn_reflns_theta_min         2.634
_exptl_absorpt_coefficient_mu    0.371
_exptl_absorpt_correction_T_max  0.7456
_exptl_absorpt_correction_T_min  0.6534
_exptl_absorpt_correction_type   multi-scan
_exptl_absorpt_process_details   'APEX2 (Bruker, 2007)'
_exptl_crystal_density_diffrn    1.240
_exptl_crystal_description       block
_exptl_crystal_F_000             132
_exptl_crystal_size_max          0.230
_exptl_crystal_size_mid          0.204
_exptl_crystal_size_min          0.141
_refine_diff_density_max         0.368
_refine_diff_density_min         -0.186
_refine_diff_density_rms         0.064
_refine_ls_extinction_method     none
_refine_ls_goodness_of_fit_ref   1.077
_refine_ls_hydrogen_treatment    mixed
_refine_ls_matrix_type           full
_refine_ls_number_parameters     41
_refine_ls_number_reflns         774
_refine_ls_number_restraints     1
_refine_ls_restrained_S_all      1.076
_refine_ls_R_factor_all          0.0809
_refine_ls_R_factor_gt           0.0575
_refine_ls_shift/su_max          0.000
_refine_ls_shift/su_mean         0.000
_refine_ls_structure_factor_coef Fsqd
_refine_ls_weighting_details
'w=1/[\s^2^(Fo^2^)+(0.0974P)^2^+0.0719P] where P=(Fo^2^+2Fc^2^)/3'
_refine_ls_weighting_scheme      calc
_refine_ls_wR_factor_gt          0.1597
_refine_ls_wR_factor_ref         0.1745
_reflns_Friedel_coverage         0.000
_reflns_number_gt                560
_reflns_number_total             774
_reflns_threshold_expression     'I > 2\s(I)'
_cod_data_source_file            ja6b08415_si_003.cif
_cod_data_source_block           neal019a
_cod_database_code               4125692
_shelx_shelxl_version_number     2014/7
_shelx_space_group_comment
; 
The symmetry employed for this shelxl refinement is uniquely defined 
by the following loop, which should always be used as a source of 
symmetry information in preference to the above space-group names. 
They are only intended as comments. 
;
_shelx_estimated_absorpt_t_min   0.919
_shelx_estimated_absorpt_t_max   0.950
_shelx_res_file
; 
  
    neal019a.res created by SHELXL-2014/7 
  
  
TITL neal019a in P2(1)/c 
CELL 0.71073   7.74180   7.22340   5.95570  90.0000  92.9530  90.0000 
ZERR    2.00   0.00290   0.00280   0.00230   0.0000   0.0058   0.0000 
LATT 1 
SYMM -x, y+1/2, -z+1/2 
SFAC C H S 
UNIT 14 16 2 
TEMP -73.160 
SIZE 0.141 0.204 0.230 
ACTA 
L.S. 30 
OMIT  0 2 0 
FMAP 2 
PLAN -11 0 0.00 
HTAB 
BOND $H 
CONF 
DFIX 1.506 0.011 C1 C2 
  
EADP C1 C2 C5 
EADP C3 C6 
EADP C4 C7 
DAMP 2 
  
WGHT    0.097400    0.071900 
FVAR       0.45112 
PART   -1 
S1    3    1.350706    0.445781    0.774506    10.50000    0.03584    0.06816 = 
         0.05504   -0.00265   -0.00677    0.00795 
H1S   2    1.447799    0.528848    0.702344    10.50000   -1.20000 
C1    1    0.680435    0.544343    0.210746    10.50000    0.03825    0.02914 = 
         0.02911   -0.00075   -0.00219    0.00386 
AFIX 137 
H1A   2    0.707406    0.617078    0.078135    10.50000   -1.50000 
H1B   2    0.586180    0.604067    0.287245    10.50000   -1.50000 
H1C   2    0.644985    0.419326    0.164018    10.50000   -1.50000 
AFIX  66 
C2    1    0.839181    0.532846    0.369660    10.50000    0.03825    0.02914 = 
         0.02911   -0.00075   -0.00219    0.00386 
C3    1    0.838538    0.449575    0.580021    10.50000    0.03676    0.03315 = 
         0.03302   -0.00067    0.00746   -0.00077 
AFIX  43 
H3    2    0.732549    0.410031    0.637823    10.50000   -1.20000 
AFIX  65 
C4    1    0.992972    0.424163    0.705808    10.50000    0.04501    0.03043 = 
         0.02215    0.00280    0.00238    0.00183 
AFIX  43 
H4    2    0.992531    0.367252    0.849580    10.50000   -1.20000 
AFIX  65 
C5    1    1.148051    0.482022    0.621235    10.50000    0.03825    0.02914 = 
         0.02911   -0.00075   -0.00219    0.00386 
C6    1    1.148696    0.565292    0.410875    10.50000    0.03676    0.03315 = 
         0.03302   -0.00067    0.00746   -0.00077 
AFIX  43 
H6    2    1.254686    0.604836    0.353074    10.50000   -1.20000 
AFIX  65 
C7    1    0.994263    0.590705    0.285086    10.50000    0.04501    0.03043 = 
         0.02215    0.00280    0.00238    0.00183 
AFIX  43 
H7    2    0.994705    0.647617    0.141314    10.50000   -1.20000 
  
AFIX   0 
HKLF 4 1 1 0 0 0 1 0 0 0 1 
  
REM  neal019a in P2(1)/c 
REM R1 =  0.0575 for     560 Fo > 4sig(Fo)  and  0.0809 for all     774 data 
REM     41 parameters refined using      1 restraints 
  
END 
  
WGHT      0.0979      0.0690 
  
REM No hydrogen bonds found for HTAB generation 
  
REM Highest difference peak  0.368,  deepest hole -0.186,  1-sigma level  0.064 
Q1    1   0.8597  0.4473  0.4986  11.00000  0.05    0.37 
Q2    1   0.9662  0.5566  0.3370  11.00000  0.05    0.36 
Q3    1   0.9316  0.4423  0.6385  11.00000  0.05    0.35 
Q4    1   1.2087  0.4669  0.6728  11.00000  0.05    0.28 
Q5    1   1.2678  0.4231  0.7078  11.00000  0.05    0.28 
Q6    1   1.3070  0.4699  0.9254  11.00000  0.05    0.26 
Q7    1   1.3263  0.2941  0.8323  11.00000  0.05    0.24 
Q8    1   1.3650  0.3154  0.6598  11.00000  0.05    0.16 
Q9    1   0.7165  0.3873  0.8599  11.00000  0.05    0.13 
Q10   1   0.6901  0.2840  0.6486  11.00000  0.05    0.11 
Q11   1   1.3441  0.5330  0.6840  11.00000  0.05    0.09 
;
_shelx_res_checksum              57636
_shelx_hkl_file
; 
   0   0   1   -0.33    0.07 
   0   0  -1   -0.35    0.08 
   0   0  -1   -0.25    0.07 
   0   0  -1   -0.38    0.06 
   0   0   1   -0.36    0.09 
   0   0   1   -0.28    0.07 
   0   0   2  290.96    8.32 
   0   0  -2  285.89    8.42 
   0   0  -2  281.72    8.26 
   0   0  -2  291.58    8.32 
   0   0   2  292.25    8.38 
   0   0   3    0.03    0.15 
   0   0  -3   -0.01    0.14 
   0   0   3    0.20    0.18 
   0   0  -3    0.06    0.12 
   0   0  -3   -0.21    0.14 
   0   0   4    0.91    0.30 
   0   0   4    1.26    0.30 
   0   0  -4    0.69    0.34 
   0   0  -4    1.47    0.26 
   0   0  -4    1.16    0.30 
   0   0   5   -0.16    0.30 
   0   0  -5   -0.10    0.29 
   0   0  -5   -0.22    0.18 
   0   0   5    0.09    0.27 
   0   0  -5   -0.09    0.25 
   0   0  -6    8.78    1.19 
   0   0   6    6.56    0.88 
   0   0   6    7.10    0.75 
   0   0   7    0.49    0.50 
   0   0  -7   -0.34    0.70 
   0   1   0   -1.19    0.08 
   0   1   0   -1.26    0.07 
   0   1   0   -1.22    0.07 
   0   1   0   -1.22    0.08 
   0  -1   0   -1.08    0.08 
   0  -1   0   -1.32    0.07 
   0  -1   0   -1.02    0.09 
   0  -1   0   -1.23    0.07 
   0  -1   0   -1.30    0.07 
   0   1  -1  155.91    4.56 
   0   1   1  160.46    4.51 
   0   1   1  155.57    4.62 
   0   1  -1  157.16    4.59 
   0   1  -1  160.73    4.60 
   0  -1  -1  158.27    4.74 
   0  -1   1  163.41    4.67 
   0  -1   1  161.22    4.64 
   0  -1  -1  156.88    4.58 
   0  -1  -1  163.76    4.67 
   0   1  -2    9.66    0.45 
   0   1   2    9.55    0.52 
   0   1  -2    8.87    0.49 
   0  -1   2    9.12    0.46 
   0  -1  -2    9.59    0.35 
   0  -1   2    9.38    0.45 
   0  -1  -2    9.05    0.56 
   0  -1  -2    9.56    0.36 
   0  -1  -2    9.51    0.46 
   0   1  -3    5.97    0.40 
   0   1  -3    5.50    0.54 
   0   1   3    5.75    0.47 
   0  -1   3    6.51    0.42 
   0  -1  -3    6.73    0.64 
   0  -1   3    6.36    0.44 
   0  -1  -3    6.30    0.52 
   0  -1  -3    5.79    0.30 
   0   1  -4    0.25    0.23 
   0   1  -4    0.45    0.22 
   0   1   4    0.28    0.30 
   0  -1  -4    0.06    0.25 
   0  -1   4    0.33    0.26 
   0  -1  -4    0.39    0.14 
   0  -1   4    0.31    0.22 
   0  -1  -4    0.05    0.29 
   0   1   5   13.72    0.83 
   0   1  -5   15.16    0.80 
   0   1  -5   16.46    1.06 
   0   1   5   14.59    0.96 
   0  -1  -5   15.26    0.90 
   0  -1   5   14.88    0.85 
   0  -1   5   16.17    0.96 
   0  -1  -5   15.82    1.09 
   0   1  -6    0.29    0.53 
   0   1   6   -0.30    0.31 
   0   1   6    0.18    0.41 
   0  -1  -6    0.30    0.60 
   0  -1   6    0.24    0.43 
   0  -1   6   -0.24    0.29 
   0  -1  -6   -0.39    0.33 
   0   1   7    0.56    0.56 
   0   1  -7    0.20    0.68 
   0  -1   7   -0.08    0.44 
   0  -1  -7    0.08    0.77 
   0   2   0  997.76   28.32 
   0   2   0 1000.00   28.29 
   0  -2   0  967.56   26.80 
   0  -2   0  920.89   26.79 
   0   2  -1  453.51   12.70 
   0   2  -1  428.95   12.70 
   0   2   1  436.93   12.71 
   0   2   1  452.28   12.61 
   0  -2   1  442.83   12.45 
   0  -2   1  431.36   12.51 
   0  -2  -1  446.28   12.54 
   0  -2  -1  419.12   12.59 
   0  -2   1  445.94   12.54 
   0   2  -2   72.87    2.37 
   0   2  -2   74.81    2.37 
   0   2   2   74.08    2.20 
   0   2   2   75.60    2.44 
   0  -2   2   78.50    2.40 
   0  -2   2   77.45    2.47 
   0  -2  -2   77.27    2.47 
   0  -2  -2   77.63    2.60 
   0   2  -3    5.62    0.48 
   0   2  -3    7.11    0.59 
   0   2   3    7.75    0.70 
   0  -2  -3    6.30    0.28 
   0  -2   3    6.41    0.44 
   0  -2  -3    7.34    0.71 
   0  -2   3    5.59    0.43 
   0  -2  -3    5.79    0.45 
   0   2  -4    0.17    0.24 
   0   2   4    0.12    0.33 
   0   2  -4    0.60    0.29 
   0  -2  -4   -0.03    0.30 
   0  -2  -4    0.18    0.11 
   0  -2   4    0.29    0.27 
   0  -2   4    0.21    0.23 
   0  -2  -4    0.37    0.25 
   0   2   5    4.14    0.72 
   0   2  -5    3.97    0.64 
   0   2  -5    3.97    0.58 
   0  -2  -5    2.96    0.54 
   0  -2   5    3.06    0.49 
   0  -2  -5    2.68    0.63 
   0  -2   5    3.82    0.64 
   0   2  -6    3.85    0.75 
   0   2   6    3.61    0.74 
   0   2   6    4.75    0.66 
   0   2  -6    4.87    0.69 
   0  -2  -6    4.71    0.96 
   0  -2   6    4.17    0.71 
   0  -2   6    3.15    0.57 
   0  -2  -6    4.60    0.70 
   0   2  -7    0.82    0.65 
   0   2   7    1.41    0.68 
   0  -2  -7    0.93    0.89 
   0   3   0   -0.20    0.13 
   0   3   0    0.05    0.14 
   0  -3   0   -0.20    0.12 
   0  -3   0   -0.18    0.12 
   0   3   1   25.55    0.92 
   0   3  -1   23.61    0.98 
   0   3   1   25.64    0.99 
   0  -3   1   23.63    0.95 
   0  -3  -1   22.79    0.98 
   0  -3   1   24.40    0.92 
   0  -3   1   22.47    0.84 
   0  -3  -1   24.25    0.96 
   0   3   2   30.34    1.04 
   0   3   2   31.52    1.25 
   0   3  -2   32.34    1.22 
   0   3  -2   29.87    1.18 
   0  -3  -2   30.08    1.31 
   0  -3   2   31.08    1.19 
   0  -3   2   32.22    1.23 
   0  -3   2   31.69    1.10 
   0  -3  -2   31.12    1.22 
   0   3  -3    0.56    0.25 
   0   3  -3    0.60    0.24 
   0   3   3    0.38    0.30 
   0   3   3    0.52    0.15 
   0  -3   3    0.53    0.23 
   0  -3   3    0.56    0.26 
   0  -3  -3    0.69    0.31 
   0  -3  -3    0.84    0.28 
   0   3  -4    3.22    0.51 
   0   3  -4    3.14    0.49 
   0   3   4    2.52    0.53 
   0  -3  -4    3.09    0.49 
   0  -3   4    2.66    0.45 
   0  -3   4    4.47    0.55 
   0  -3  -4    3.27    0.64 
   0   3  -5   10.75    1.02 
   0   3   5   11.27    1.19 
   0   3  -5   13.06    1.09 
   0  -3  -5    7.42    0.79 
   0  -3  -5    8.47    1.04 
   0  -3   5   12.47    1.02 
   0  -3   5    9.24    0.73 
   0   3   6   -0.01    0.55 
   0   3  -6    0.49    0.45 
   0   3  -6    0.37    0.49 
   0  -3   6    0.58    0.43 
   0  -3  -6    1.04    0.67 
   0  -3  -6    0.45    0.50 
   0   3   7    2.37    0.82 
   0  -3  -7    1.96    0.98 
   0   4   0    8.36    0.49 
   0   4   0    8.47    0.54 
   0  -4   0    6.71    0.49 
   0  -4   0    7.16    0.50 
   0   4   1  197.77    6.05 
   0   4   1  207.06    6.14 
   0   4  -1  203.83    6.17 
   0   4  -1  207.93    6.01 
   0  -4   1  192.69    5.77 
   0  -4  -1  195.29    5.94 
   0  -4   1  197.38    5.87 
   0  -4  -1  200.28    5.99 
   0  -4   1  192.95    5.93 
   0   4   2    0.32    0.28 
   0   4  -2    0.01    0.18 
   0   4   2    0.17    0.16 
   0  -4   2   -0.13    0.17 
   0  -4   2    0.09    0.19 
   0  -4   2    0.04    0.16 
   0  -4  -2   -0.08    0.19 
   0  -4  -2   -0.21    0.23 
   0   4  -3    4.92    0.55 
   0   4   3    4.71    0.63 
   0   4  -3    5.13    0.59 
   0   4   3    3.94    0.35 
   0  -4   3    5.25    0.56 
   0  -4  -3    4.57    0.64 
   0  -4   3    4.59    0.46 
   0  -4   3    4.74    0.57 
   0  -4  -3    5.62    0.63 
   0   4  -4    0.84    0.35 
   0   4   4    2.33    0.59 
   0   4  -4    2.49    0.53 
   0  -4  -4    1.16    0.47 
   0  -4  -4    1.42    0.45 
   0  -4   4    1.43    0.40 
   0  -4   4    1.65    0.36 
   0  -4   4    1.64    0.46 
   0   4  -5    4.45    0.70 
   0   4  -5    4.15    0.66 
   0   4   5    4.01    0.82 
   0  -4   5    4.21    0.68 
   0  -4  -5    3.68    0.67 
   0  -4  -5    5.10    0.94 
   0   4  -6    0.43    0.47 
   0   4   6    0.62    0.71 
   0  -4   6   -0.03    0.40 
   0  -4  -6   -0.20    0.64 
   0  -4  -6    0.76    0.58 
   0   4   7    1.51    0.91 
   0  -4  -7    1.33    1.02 
   0   5   0    0.00    0.20 
   0   5   0    0.15    0.24 
   0  -5   0    0.18    0.24 
   0  -5   0   -0.16    0.22 
   0   5   1   -0.14    0.26 
   0   5  -1   -0.33    0.19 
   0   5   1   -0.02    0.23 
   0   5  -1    0.28    0.23 
   0  -5  -1    0.00    0.24 
   0  -5   1    0.06    0.22 
   0  -5  -1   -0.33    0.25 
   0  -5   1    0.33    0.24 
   0   5  -2    9.30    0.71 
   0   5  -2   10.63    0.58 
   0   5   2   10.50    0.61 
   0   5   2   10.46    0.76 
   0  -5   2    9.17    0.65 
   0  -5  -2    9.40    0.80 
   0  -5   2    9.43    0.69 
   0  -5   2    9.17    0.54 
   0  -5  -2    8.84    0.79 
   0   5   3    0.14    0.38 
   0   5  -3   -0.07    0.26 
   0  -5   3   -0.09    0.23 
   0  -5  -3    0.01    0.38 
   0  -5  -3    0.54    0.34 
   0  -5   3    0.28    0.29 
   0  -5   3   -0.06    0.29 
   0   5   4    5.94    0.86 
   0   5  -4    5.38    0.68 
   0   5  -4    5.92    0.77 
   0  -5  -4    5.13    0.72 
   0  -5   4    5.13    0.68 
   0  -5   4    5.60    0.69 
   0  -5  -4    4.18    0.83 
   0   5   5    1.15    0.69 
   0   5  -5    1.86    0.59 
   0  -5  -5    3.35    0.87 
   0  -5   5    2.39    0.60 
   0  -5  -5    2.65    0.63 
   0   5  -6    3.83    0.85 
   0   5   6    2.88    0.96 
   0  -5  -6    3.90    1.13 
   0  -5   6    3.30    0.69 
   0  -5  -6    2.56    0.74 
   0   6   0   14.11    0.89 
   0   6   0   13.96    0.79 
   0  -6   0   11.70    0.85 
   0  -6   0   10.74    0.79 
   0   6  -1   33.78    1.32 
   0   6   1   34.34    1.47 
   0   6   1   32.05    1.40 
   0   6  -1   32.90    1.50 
   0  -6   1   31.15    1.35 
   0  -6   1   29.29    1.39 
   0  -6  -1   27.39    1.37 
   0  -6  -1   31.47    1.47 
   0   6   2    4.68    0.70 
   0   6   2    5.44    0.59 
   0   6  -2    6.54    0.83 
   0  -6   2    5.53    0.62 
   0  -6  -2    4.85    0.63 
   0  -6  -2    4.44    0.70 
   0  -6   2    4.26    0.57 
   0   6   3    0.23    0.45 
   0   6  -3   -0.39    0.32 
   0  -6  -3    0.22    0.40 
   0  -6   3   -0.10    0.33 
   0  -6  -3    0.15    0.47 
   0  -6   3   -0.23    0.51 
   0   6  -4    2.62    0.66 
   0   6   4    4.51    0.86 
   0  -6   4    3.22    0.62 
   0  -6  -4    2.19    0.61 
   0  -6  -4    4.08    0.85 
   0   6   5   -0.02    0.75 
   0   6  -5    1.11    0.58 
   0  -6   5    0.54    0.45 
   0  -6  -5    0.16    0.50 
   0  -6  -5   -0.10    0.71 
   0  -6   6    0.46    0.58 
   0  -6  -6    0.49    0.68 
   0   7   0    0.01    0.36 
   0   7   0   -0.52    0.36 
   0  -7   0    0.28    0.37 
   0  -7   0    0.30    0.38 
   0   7  -1    0.61    0.47 
   0   7   1    0.82    0.45 
   0   7   1   -0.07    0.42 
   0  -7  -1    0.50    0.39 
   0  -7   1   -0.22    0.35 
   0  -7   1    0.61    0.39 
   0  -7  -1    0.57    0.49 
   0   7   2    1.56    0.56 
   0   7  -2    0.74    0.49 
   0  -7  -2    0.52    0.40 
   0  -7   2    1.07    0.45 
   0  -7  -2    0.90    0.56 
   0   7  -3   -0.42    0.43 
   0   7   3    0.23    0.54 
   0  -7  -3    0.03    0.45 
   0  -7   3    0.17    0.45 
   0  -7  -3    0.47    0.60 
   0   7   4    5.42    1.00 
   0   7  -4    4.26    0.83 
   0  -7  -4    2.83    0.71 
   0  -7  -4    3.71    0.86 
   0  -7   4    3.08    0.66 
   0   7  -5   -0.06    0.56 
   0   7   5   -0.51    0.78 
   0  -7  -5    0.38    0.79 
   0  -7   5   -0.36    0.48 
   0  -7  -5    0.08    0.64 
   0   8   0    9.23    1.05 
   0  -8   0    9.00    1.14 
   0  -8   0    7.37    0.91 
   0   8   1    1.69    0.59 
   0   8  -1    0.80    0.62 
   0  -8  -1    0.81    0.58 
   0  -8  -1    0.02    0.49 
   0  -8   1    0.43    0.49 
   0   8  -2    2.54    0.73 
   0   8   2    2.43    0.67 
   0  -8  -2    2.09    0.69 
   0  -8  -2    0.53    0.51 
   0  -8   2    1.01    0.57 
   0   8  -3    1.64    0.71 
   0   8   3    1.28    0.71 
   0  -8   3    0.98    0.57 
   0  -8  -3    0.44    0.55 
   0  -8  -3    1.46    0.77 
   0   8   4    0.49    0.85 
   0   8  -4    2.24    0.75 
   0  -8  -4    0.13    0.83 
   0  -8   4    0.00    0.56 
   0  -8  -4    1.12    0.63 
   0   9   0    0.45    0.64 
   0  -9   0   -0.12    0.54 
   0   9  -1   -0.52    0.68 
   0  -9  -1   -0.20    0.45 
   0  -9   1    0.31    0.49 
   0   9  -2   -0.59    0.71 
   0  -9  -2    0.88    0.61 
   0  -9   2   -0.46    0.50 
   0  -9  -2    0.32    0.75 
   1   0  -7   -0.86    0.63 
  -1   0   7    0.14    0.51 
   1   0  -6   13.38    1.32 
  -1   0   6    8.42    0.98 
  -1   0   6   11.76    0.99 
  -1   0   5   -0.32    0.20 
   1   0  -5   -0.30    0.19 
   1   0  -5   -0.04    0.25 
  -1   0   5   -0.08    0.28 
   1   0  -5    0.22    0.37 
  -1   0   4   10.99    0.58 
  -1   0   4   10.82    0.71 
   1   0  -4   10.89    0.76 
   1   0  -4   10.14    0.58 
   1   0  -4   10.49    0.58 
  -1   0   3   -0.25    0.10 
  -1   0   3    0.21    0.19 
   1   0  -3    0.11    0.15 
   1   0  -3    0.10    0.18 
   1   0  -3   -0.22    0.10 
  -1   0   2    2.73    0.20 
  -1   0   2    3.06    0.35 
   1   0  -2    2.86    0.20 
   1   0  -2    3.68    0.31 
   1   0  -2    4.13    0.38 
   1   0  -1    0.00    0.08 
   1   0  -1   -0.10    0.08 
  -1   0   1    0.02    0.04 
  -1   0   1    0.02    0.11 
  -1   0   1    0.01    0.04 
  -1   0   1   -0.02    0.09 
   1   0   0  120.60    3.47 
   1   0   0  119.69    3.47 
   1   0   0  114.93    3.44 
  -1   0   0  121.78    3.45 
  -1   0   0  123.19    3.48 
  -1   0   0  121.66    3.47 
  -1   0   0  120.87    3.47 
   1   0   0  115.79    3.47 
   1   0   0  122.01    3.47 
  -1   0  -1   -0.06    0.09 
  -1   0  -1    0.00    0.07 
   1   0   1   -0.02    0.09 
  -1   0  -1   -0.14    0.11 
   1   0   1   -0.14    0.07 
   1   0   2   53.09    1.75 
  -1   0  -2   53.80    1.65 
  -1   0  -2   53.51    1.85 
  -1   0  -2   56.61    1.79 
   1   0   3   -0.06    0.20 
  -1   0  -3    0.03    0.17 
  -1   0  -3   -0.05    0.18 
  -1   0  -3    0.03    0.11 
   1   0   3    0.22    0.19 
   1   0   4   23.69    1.11 
  -1   0  -4   25.36    1.11 
   1   0   4   23.15    1.08 
  -1   0  -4   24.82    0.92 
  -1   0  -4   24.84    1.24 
   1   0   5   -0.23    0.27 
   1   0   5    0.22    0.34 
  -1   0  -5   -0.06    0.28 
  -1   0  -5    0.07    0.36 
  -1   0  -6   11.73    0.89 
  -1   0  -6   15.00    1.43 
   1   0   6   13.57    1.19 
   1   0   6   11.28    1.02 
  -1   0  -7    0.44    0.74 
   1   0   7   -0.02    0.45 
   1   0   7   -0.50    0.38 
   1   1  -7    7.50    1.10 
  -1   1   7    7.12    1.08 
  -1  -1   7    5.67    0.95 
   1  -1  -7    6.62    1.12 
  -1   1   6    1.55    0.57 
   1   1  -6    1.90    0.58 
   1   1  -6    0.91    0.59 
  -1   1   6    0.27    0.44 
   1  -1  -6    0.71    0.61 
  -1  -1   6    1.06    0.41 
  -1  -1   6    1.19    0.53 
   1  -1  -6    1.27    0.44 
  -1   1   5    4.02    0.50 
   1   1  -5    4.69    0.58 
  -1   1   5    3.15    0.63 
   1   1  -5    5.17    0.75 
  -1  -1   5    3.40    0.47 
  -1  -1   5    5.60    0.80 
   1  -1  -5    3.71    0.43 
   1  -1  -5    3.80    0.67 
   1  -1  -5    3.47    0.50 
  -1   1   4    8.80    0.85 
   1   1  -4    7.06    0.52 
   1   1  -4    7.26    0.60 
   1  -1  -4    8.96    0.86 
   1  -1  -4    6.95    0.44 
  -1  -1   4    8.66    0.81 
   1  -1  -4    6.72    0.49 
  -1  -1   4    8.22    0.50 
   1   1  -3  172.39    5.29 
  -1   1   3  174.79    5.37 
   1   1  -3  178.04    5.25 
   1  -1  -3  188.72    5.40 
   1  -1  -3  178.86    5.34 
  -1  -1   3  180.46    5.53 
   1  -1  -3  177.19    5.61 
  -1  -1   3  185.04    5.39 
  -1   1   2   51.67    1.62 
  -1   1   2   51.19    1.74 
   1   1  -2   48.68    1.64 
   1   1  -2   52.46    1.67 
  -1  -1   2   51.25    1.59 
   1  -1  -2   50.80    1.59 
   1  -1  -2   50.86    1.59 
   1  -1  -2   49.75    1.75 
  -1  -1   2   50.97    1.70 
   1   1  -1  589.96   17.04 
  -1   1   1  590.40   17.09 
  -1   1   1  596.00   17.17 
   1   1  -1  616.00   17.15 
  -1   1   1  620.59   17.13 
   1  -1  -1  597.60   17.24 
   1  -1  -1  617.22   17.13 
  -1  -1   1  606.90   17.21 
  -1  -1   1  589.22   17.09 
  -1  -1   1  609.45   17.13 
  -1   1   0   10.45    0.41 
  -1   1   0    9.82    0.34 
   1   1   0    9.14    0.35 
   1   1   0   10.06    0.38 
  -1  -1   0    9.60    0.35 
  -1  -1   0    9.39    0.41 
   1  -1   0   10.31    0.39 
  -1  -1   0    9.42    0.39 
   1  -1   0   10.33    0.44 
   1  -1   0    9.72    0.34 
   1   1   1   17.31    0.52 
  -1   1  -1   16.19    0.53 
   1   1   1   16.89    0.52 
   1   1   1   16.70    0.66 
  -1   1  -1   17.14    0.69 
  -1   1  -1   17.70    0.64 
   1  -1   1   16.94    0.54 
   1  -1   1   18.12    0.66 
  -1  -1  -1   16.23    0.69 
  -1  -1  -1   17.54    0.67 
  -1   1  -2    0.43    0.15 
   1   1   2    0.54    0.21 
  -1   1  -2    0.22    0.16 
  -1  -1  -2    0.65    0.20 
   1  -1   2    0.27    0.18 
  -1  -1  -2    0.46    0.22 
   1  -1   2    0.79    0.18 
   1   1   3    0.34    0.08 
  -1   1  -3    0.19    0.15 
  -1   1  -3    0.40    0.21 
   1   1   3    0.22    0.23 
  -1  -1  -3    0.28    0.08 
  -1  -1  -3    0.02    0.17 
   1  -1   3    0.01    0.19 
   1  -1   3    0.18    0.18 
  -1  -1  -3    0.46    0.24 
  -1   1  -4   -0.21    0.15 
  -1   1  -4    0.21    0.27 
   1   1   4    0.03    0.29 
  -1  -1  -4    0.12    0.24 
  -1  -1  -4    0.00    0.08 
   1  -1   4   -0.05    0.20 
  -1  -1  -4    0.14    0.26 
   1  -1   4    0.02    0.24 
   1   1   5    2.79    0.59 
  -1   1  -5    3.80    0.49 
   1   1   5    2.64    0.50 
  -1   1  -5    2.54    0.63 
   1  -1   5    2.63    0.52 
   1  -1   5    3.77    0.57 
  -1  -1  -5    2.64    0.54 
  -1  -1  -5    2.69    0.61 
  -1   1  -6    1.93    0.72 
   1   1   6    1.98    0.53 
   1   1   6    2.21    0.59 
   1  -1   6    2.19    0.54 
   1  -1   6    2.17    0.52 
  -1  -1  -6    1.74    0.76 
  -1  -1  -6    1.58    0.55 
  -1   1  -7    3.46    0.99 
   1   1   7    2.39    0.69 
   1   1   7    2.04    0.60 
   1  -1   7    1.58    0.54 
  -1  -1  -7    2.31    0.63 
  -1  -1  -7    1.41    0.94 
  -1   2   7    2.14    0.74 
   1  -2  -7    2.43    0.97 
  -1  -2   7    2.47    0.64 
  -1   2   6    6.61    0.93 
   1   2  -6    6.76    0.78 
   1   2  -6    6.84    0.95 
  -1  -2   6    6.47    0.87 
  -1  -2   6    8.95    0.92 
   1  -2  -6    7.37    1.00 
   1  -2  -6    7.78    1.19 
   1   2  -5   -0.40    0.26 
  -1   2   5   -0.19    0.29 
   1   2  -5   -0.02    0.34 
  -1  -2   5    0.04    0.34 
   1  -2  -5   -0.27    0.39 
  -1  -2   5    0.18    0.26 
   1  -2  -5   -0.05    0.30 
   1   2  -4    8.05    0.73 
  -1   2   4    5.90    0.73 
   1   2  -4    7.70    0.72 
   1  -2  -4    6.39    0.57 
  -1  -2   4    6.74    0.59 
  -1  -2   4    5.67    0.64 
   1  -2  -4    4.92    0.66 
   1  -2  -4    6.27    0.39 
   1   2  -3    0.28    0.21 
   1   2  -3    0.39    0.19 
  -1   2   3    0.09    0.15 
  -1   2   3    0.63    0.29 
   1  -2  -3    0.19    0.18 
   1  -2  -3    0.21    0.13 
   1  -2  -3    0.38    0.27 
  -1  -2   3    0.73    0.26 
  -1  -2   3    0.36    0.19 
  -1   2   2    3.52    0.31 
  -1   2   2    4.41    0.48 
   1   2  -2    3.16    0.26 
   1   2  -2    4.52    0.44 
  -1  -2   2    4.18    0.36 
   1  -2  -2    3.25    0.43 
   1  -2  -2    4.12    0.31 
  -1  -2   2    4.44    0.44 
  -1   2   1   70.59    2.25 
  -1   2   1   73.77    2.22 
   1   2  -1   71.94    2.26 
  -1  -2   1   75.14    2.29 
   1  -2  -1   75.36    2.27 
  -1  -2   1   71.53    2.17 
  -1  -2   1   73.28    2.17 
  -1  -2   1   73.22    2.27 
   1  -2  -1   71.48    2.36 
   1   2   0   17.27    0.64 
  -1   2   0   16.60    0.58 
  -1   2   0   16.67    0.68 
   1   2   0   16.83    0.68 
   1  -2   0   18.03    0.67 
  -1  -2   0   17.42    0.67 
   1  -2   0   15.23    0.62 
   1  -2   0   16.20    0.70 
  -1  -2   0   16.09    0.61 
  -1  -2   0   16.62    0.67 
   1   2   1    0.16    0.09 
  -1   2  -1   -0.08    0.13 
   1   2   1    0.03    0.17 
  -1   2  -1    0.02    0.16 
   1  -2   1   -0.05    0.15 
   1  -2   1    0.03    0.13 
  -1  -2  -1    0.01    0.14 
  -1  -2  -1    0.11    0.15 
  -1   2  -2   16.69    0.75 
  -1   2  -2   18.05    0.82 
   1   2   2   17.75    0.82 
   1  -2   2   17.42    0.78 
  -1  -2  -2   17.93    0.80 
   1  -2   2   17.71    0.63 
  -1  -2  -2   16.26    0.84 
  -1   2  -3    9.95    0.58 
   1   2   3    9.86    0.65 
  -1   2  -3    9.61    0.65 
   1  -2   3   10.31    0.53 
   1  -2   3   10.10    0.60 
  -1  -2  -3    9.77    0.73 
  -1  -2  -3   10.19    0.63 
  -1   2  -4   15.28    0.79 
  -1   2  -4   15.34    0.94 
   1   2   4   12.94    0.87 
   1  -2   4   12.49    0.77 
  -1  -2  -4   13.87    0.96 
   1  -2   4   15.00    0.76 
  -1  -2  -4   14.77    0.85 
   1   2   5    2.06    0.59 
  -1   2  -5    2.97    0.63 
  -1   2  -5    1.97    0.44 
   1  -2   5    2.96    0.55 
   1  -2   5    2.79    0.55 
  -1  -2  -5    2.28    0.52 
  -1  -2  -5    1.74    0.54 
   1   2   6    6.69    0.94 
  -1   2  -6    7.56    1.01 
   1   2   6    7.84    0.85 
  -1  -2  -6    8.60    1.24 
  -1  -2  -6    6.85    0.84 
   1  -2   6    7.70    0.88 
   1   2   7    2.69    0.73 
   1   2   7    2.54    0.63 
  -1   2  -7    2.40    0.79 
  -1  -2  -7    3.16    1.06 
  -1  -2  -7    2.44    0.70 
   1  -2   7    3.58    0.71 
  -1   3   7    0.25    0.73 
   1  -3  -7   -0.47    0.73 
  -1   3   6    3.46    0.85 
   1   3  -6    3.90    0.70 
   1  -3  -6    2.86    0.91 
  -1  -3   6    3.00    0.64 
  -1  -3   6    4.25    0.77 
   1   3  -5    0.51    0.38 
   1   3  -5    0.31    0.35 
  -1   3   5    0.26    0.43 
  -1  -3   5    0.60    0.41 
   1  -3  -5    0.68    0.40 
   1  -3  -5    0.38    0.47 
  -1  -3   5    0.15    0.31 
  -1   3   4   27.35    1.34 
   1   3  -4   24.74    1.20 
   1   3  -4   26.00    1.16 
   1  -3  -4   24.01    1.12 
   1  -3  -4   26.42    1.41 
  -1  -3   4   26.51    1.14 
  -1  -3   4   24.90    1.16 
   1  -3  -4   23.20    0.94 
   1   3  -3   20.54    0.87 
  -1   3   3   18.56    0.79 
   1   3  -3   19.73    0.96 
  -1   3   3   19.85    1.00 
   1  -3  -3   19.78    0.90 
   1  -3  -3   18.88    1.07 
  -1  -3   3   18.91    0.88 
  -1  -3   3   18.56    0.88 
   1   3  -2  168.41    4.95 
   1   3  -2  163.94    5.08 
  -1   3   2  168.24    5.11 
  -1   3   2  167.41    4.96 
  -1  -3   2  164.16    4.90 
  -1  -3   2  161.23    4.92 
  -1  -3   2  162.65    4.81 
   1  -3  -2  163.69    4.92 
   1  -3  -2  161.45    5.08 
  -1   3   1  105.50    3.22 
  -1   3   1  105.61    3.20 
   1   3  -1  101.38    3.24 
  -1  -3   1  102.60    3.19 
  -1  -3   1  105.54    3.22 
  -1  -3   1  101.53    3.09 
   1  -3  -1  106.09    3.22 
   1  -3  -1  101.54    3.31 
  -1   3   0   23.34    0.93 
   1   3   0   21.79    0.90 
   1   3   0   23.55    0.88 
  -1   3   0   23.17    0.82 
  -1  -3   0   22.25    0.89 
   1  -3   0   21.40    0.93 
  -1  -3   0   21.83    0.85 
   1  -3   0   23.51    0.91 
  -1  -3   0   21.42    0.90 
   1   3   1    6.70    0.58 
  -1   3  -1    5.32    0.26 
  -1   3  -1    5.70    0.27 
   1   3   1    5.42    0.33 
  -1   3  -1    6.10    0.43 
  -1  -3  -1    5.44    0.44 
   1  -3   1    5.06    0.45 
  -1  -3  -1    5.56    0.41 
   1  -3   1    5.24    0.43 
  -1   3  -2    0.28    0.20 
  -1   3  -2    0.81    0.27 
   1   3   2    0.24    0.29 
   1   3   2    0.29    0.11 
  -1  -3  -2    0.16    0.20 
   1  -3   2    0.56    0.14 
  -1  -3  -2    0.26    0.26 
   1  -3   2    0.22    0.22 
   1  -3   2    0.72    0.25 
   1   3   3    0.29    0.30 
  -1   3  -3    0.54    0.26 
  -1   3  -3    0.09    0.21 
  -1  -3  -3   -0.14    0.20 
   1  -3   3    0.00    0.16 
  -1  -3  -3   -0.12    0.23 
   1  -3   3    0.08    0.23 
   1   3   4   -0.15    0.33 
  -1   3  -4    0.22    0.28 
  -1   3  -4   -0.20    0.27 
  -1  -3  -4    0.17    0.29 
  -1  -3  -4   -0.45    0.28 
   1  -3   4    0.38    0.26 
   1  -3   4    0.04    0.26 
  -1   3  -5    0.20    0.41 
   1   3   5    0.06    0.46 
  -1   3  -5    0.35    0.35 
   1  -3   5   -0.22    0.30 
  -1  -3  -5   -0.17    0.41 
  -1  -3  -5   -0.12    0.37 
  -1   3  -6    5.12    0.75 
   1   3   6    5.34    0.97 
  -1   3  -6    5.97    0.92 
   1  -3   6    4.29    0.67 
  -1  -3  -6    6.93    1.21 
  -1  -3  -6    4.75    0.79 
   1   3   7    0.44    0.68 
  -1   3  -7    0.57    0.71 
   1   3   7    0.55    0.49 
  -1  -3  -7    0.76    0.63 
  -1  -3  -7   -0.09    0.85 
   1  -3   7   -0.37    0.43 
   1   4  -7    5.74    1.01 
  -1   4   7    7.01    1.32 
   1   4  -6    1.75    0.58 
  -1   4   6    1.22    0.73 
  -1  -4   6    1.33    0.81 
   1  -4  -6    0.51    0.81 
   1   4  -5    0.04    0.40 
  -1   4   5    0.57    0.52 
   1  -4  -5    0.24    0.51 
  -1  -4   5    0.33    0.37 
  -1  -4   5    0.08    0.35 
   1  -4  -5    0.42    0.42 
   1   4  -4    2.37    0.51 
  -1   4   4    2.47    0.58 
   1   4  -4    1.86    0.39 
  -1  -4   4    2.60    0.47 
  -1  -4   4    1.73    0.40 
   1  -4  -4    1.19    0.48 
   1  -4  -4    2.55    0.49 
  -1  -4   4    1.93    0.41 
   1   4  -3    2.14    0.43 
  -1   4   3    2.38    0.49 
  -1   4   3    3.04    0.40 
   1   4  -3    2.45    0.36 
  -1  -4   3    3.06    0.44 
   1  -4  -3    2.21    0.40 
  -1  -4   3    2.11    0.35 
  -1  -4   3    1.59    0.34 
   1  -4  -3    1.95    0.48 
   1   4  -2   15.16    0.83 
  -1   4   2   15.70    0.73 
  -1   4   2   16.23    0.84 
   1  -4  -2   15.88    0.96 
  -1  -4   2   16.76    0.85 
  -1  -4   2   17.20    0.75 
   1  -4  -2   16.70    0.84 
  -1  -4   2   17.38    0.80 
  -1   4   1   15.05    0.74 
  -1   4   1   15.68    0.75 
   1   4  -1   16.18    0.79 
   1   4  -1   14.74    0.72 
  -1  -4   1   15.02    0.76 
   1  -4  -1   14.01    0.75 
   1  -4  -1   14.09    0.82 
  -1  -4   1   14.92    0.71 
  -1  -4   1   14.46    0.65 
   1   4   0    2.69    0.39 
   1   4   0    2.81    0.37 
  -1   4   0    2.26    0.31 
  -1   4   0    2.10    0.35 
  -1  -4   0    1.45    0.30 
  -1  -4   0    1.77    0.33 
  -1  -4   0    1.64    0.29 
   1  -4   0    1.58    0.32 
   1  -4   0    1.67    0.34 
  -1   4  -1    0.86    0.25 
   1   4   1    1.07    0.32 
   1   4   1    0.90    0.24 
  -1   4  -1    1.32    0.18 
  -1  -4  -1    0.98    0.29 
  -1  -4  -1    1.22    0.31 
   1  -4   1    0.91    0.24 
   1  -4   1    0.86    0.29 
   1   4   2    0.68    0.36 
   1   4   2    0.40    0.17 
  -1   4  -2    0.52    0.25 
  -1   4  -2    0.46    0.14 
  -1  -4  -2    0.21    0.29 
   1  -4   2    0.33    0.26 
   1  -4   2    0.53    0.15 
  -1  -4  -2    0.42    0.25 
   1  -4   2    0.37    0.23 
  -1   4  -3   13.21    0.83 
  -1   4  -3   13.31    0.86 
   1   4   3   13.81    0.90 
   1  -4   3   12.51    0.82 
   1  -4   3   12.47    0.79 
   1  -4   3   12.75    0.57 
  -1  -4  -3   13.16    0.83 
  -1  -4  -3   12.85    0.96 
  -1   4  -4    5.24    0.69 
  -1   4  -4    3.57    0.59 
   1   4   4    3.94    0.69 
  -1  -4  -4    3.48    0.61 
   1  -4   4    5.35    0.71 
  -1  -4  -4    4.07    0.73 
   1  -4   4    4.08    0.64 
  -1   4  -5    4.10    0.69 
   1   4   5    4.19    0.79 
  -1   4  -5    3.61    0.70 
  -1  -4  -5    3.34    0.88 
   1  -4   5    3.41    0.73 
   1  -4   5    3.41    0.63 
  -1  -4  -5    2.48    0.59 
  -1   4  -6    1.51    0.56 
   1   4   6    2.96    0.83 
  -1   4  -6    1.46    0.66 
  -1  -4  -6    0.86    0.57 
  -1  -4  -6    1.73    0.91 
   1  -4   6    1.43    0.57 
   1   5  -6    0.45    0.56 
  -1   5   6    0.82    0.80 
   1  -5  -6   -0.04    0.83 
  -1   5   5    5.12    0.96 
   1   5  -5    4.49    0.78 
   1  -5  -5    2.51    0.64 
  -1  -5   5    4.63    0.67 
   1  -5  -5    5.16    1.00 
   1   5  -4    6.94    0.85 
  -1   5   4    9.77    1.11 
   1  -5  -4    7.24    1.00 
   1  -5  -4    5.52    0.74 
  -1  -5   4    6.97    0.76 
  -1   5   3    4.26    0.50 
  -1   5   3    6.13    0.77 
   1   5  -3    3.95    0.63 
  -1  -5   3    5.81    0.61 
  -1  -5   3    4.50    0.71 
   1  -5  -3    4.80    0.71 
  -1  -5   3    4.06    0.57 
   1  -5  -3    4.42    0.62 
   1   5  -2   74.20    2.62 
  -1   5   2   73.79    2.58 
  -1   5   2   72.15    2.46 
   1  -5  -2   70.82    2.67 
  -1  -5   2   69.62    2.51 
  -1  -5   2   73.40    2.36 
  -1  -5   2   69.65    2.39 
   1  -5  -2   69.59    2.50 
  -1   5   1    1.45    0.34 
   1   5  -1    1.63    0.37 
   1   5  -1    1.58    0.35 
  -1   5   1    1.88    0.38 
   1  -5  -1    1.30    0.35 
  -1  -5   1    1.20    0.34 
  -1  -5   1    1.32    0.29 
   1  -5  -1    1.42    0.38 
  -1  -5   1    1.15    0.34 
  -1   5   0   15.94    0.86 
   1   5   0   15.64    0.84 
  -1   5   0   15.80    0.74 
   1   5   0   15.50    0.83 
   1  -5   0   15.70    0.88 
  -1  -5   0   13.06    0.81 
  -1  -5   0   15.13    0.80 
   1  -5   0   13.57    0.81 
  -1   5  -1    2.22    0.44 
   1   5   1    2.14    0.37 
   1   5   1    1.99    0.41 
  -1   5  -1    2.65    0.30 
  -1  -5  -1    2.22    0.43 
   1  -5   1    1.55    0.36 
   1  -5   1    2.06    0.41 
  -1  -5  -1    1.45    0.36 
   1   5   2    0.70    0.40 
   1   5   2    0.88    0.28 
  -1   5  -2    0.71    0.31 
  -1  -5  -2    0.11    0.26 
   1  -5   2    0.58    0.30 
  -1  -5  -2    0.78    0.39 
   1  -5   2    0.86    0.34 
   1   5   3    0.85    0.48 
  -1   5  -3    0.35    0.35 
  -1  -5  -3   -0.04    0.39 
  -1  -5  -3    0.04    0.30 
   1  -5   3    0.50    0.36 
   1  -5   3    0.44    0.35 
  -1   5  -4   -0.46    0.33 
  -1   5  -4    0.30    0.40 
   1   5   4    0.41    0.51 
   1  -5   4    0.06    0.39 
  -1  -5  -4    0.29    0.47 
  -1  -5  -4    0.35    0.43 
   1  -5   4    0.03    0.34 
   1   5   5    1.34    0.75 
  -1   5  -5    0.61    0.53 
  -1   5  -5    1.07    0.51 
  -1  -5  -5    0.87    0.69 
   1  -5   5    0.40    0.45 
  -1  -5  -5    0.24    0.51 
   1  -5   5    1.45    0.62 
  -1   5  -6    1.78    0.63 
   1   5   6    0.37    0.82 
  -1  -5  -6    1.46    0.66 
  -1  -5  -6    1.17    0.86 
   1  -5   6    0.92    0.55 
  -1   6   5    0.58    0.75 
   1   6  -5   -0.14    0.47 
   1  -6  -5   -0.26    0.63 
  -1  -6   5   -0.32    0.39 
   1  -6  -5    0.36    0.51 
  -1   6   4    0.48    0.58 
   1   6  -4    0.35    0.42 
   1  -6  -4    1.41    0.72 
   1  -6  -4    0.21    0.46 
  -1  -6   4    0.60    0.45 
  -1   6   3    4.83    0.74 
   1   6  -3    4.61    0.71 
  -1  -6   3    3.28    0.61 
   1  -6  -3    3.54    0.61 
   1  -6  -3    3.75    0.71 
   1   6  -2    7.96    0.63 
  -1   6   2    8.81    0.86 
  -1   6   2    6.84    0.69 
   1   6  -2   10.00    0.99 
   1  -6  -2    7.32    0.90 
  -1  -6   2    6.99    0.76 
  -1  -6   2    7.96    0.72 
   1  -6  -2    6.73    0.76 
  -1   6   1    0.13    0.30 
   1   6  -1   -0.12    0.29 
  -1   6   1    0.24    0.32 
   1   6  -1    0.11    0.31 
  -1  -6   1   -0.13    0.24 
   1  -6  -1    0.03    0.31 
   1  -6  -1   -0.13    0.33 
  -1  -6   1   -0.40    0.25 
  -1   6   0    1.76    0.46 
   1   6   0    1.77    0.44 
  -1   6   0    2.12    0.41 
   1   6   0    1.63    0.45 
  -1  -6   0    1.92    0.42 
   1  -6   0    0.52    0.37 
   1  -6   0    1.44    0.40 
  -1  -6   0    1.91    0.45 
   1   6   1    2.75    0.54 
   1   6   1    2.03    0.43 
  -1   6  -1    1.02    0.42 
   1  -6   1    1.70    0.44 
  -1  -6  -1    0.76    0.35 
  -1  -6  -1    2.60    0.52 
   1  -6   1    1.33    0.40 
   1   6   2    1.60    0.38 
   1   6   2    1.76    0.54 
  -1   6  -2    1.28    0.43 
  -1  -6  -2    1.52    0.51 
  -1  -6  -2    1.60    0.44 
   1  -6   2    1.79    0.47 
   1  -6   2    1.89    0.49 
  -1   6  -3    9.21    1.05 
   1   6   3    9.01    1.03 
  -1  -6  -3    7.96    0.98 
  -1  -6  -3    6.31    0.82 
   1  -6   3    6.35    0.75 
   1  -6   3    5.14    0.69 
  -1   6  -4    0.26    0.43 
   1   6   4    0.86    0.64 
   1  -6   4    0.43    0.57 
   1  -6   4    0.38    0.44 
  -1  -6  -4    0.58    0.63 
  -1  -6  -4    0.04    0.42 
  -1   6  -5    4.91    0.92 
   1   6   5    5.17    1.08 
   1  -6   5    2.64    0.66 
  -1  -6  -5    1.75    0.81 
  -1  -6  -5    2.08    0.69 
  -1   7   5    1.18    0.89 
   1   7  -5    2.40    0.81 
   1  -7  -5    0.60    0.66 
   1  -7  -5    1.51    0.84 
  -1  -7   5    1.54    0.62 
  -1   7   4   -0.52    0.62 
   1   7  -4   -0.09    0.49 
   1  -7  -4    0.13    0.52 
   1  -7  -4    0.27    0.72 
  -1  -7   4    0.18    0.48 
   1   7  -3   10.85    1.12 
  -1   7   3   11.02    1.13 
  -1  -7   3    7.86    0.91 
   1  -7  -3   10.39    1.22 
   1  -7  -3    7.21    0.88 
   1   7  -2    9.21    1.02 
  -1   7   2    8.90    0.92 
  -1   7   2    7.60    0.79 
   1  -7  -2    9.60    1.08 
  -1  -7   2    7.97    0.86 
   1  -7  -2    6.08    0.79 
  -1   7   1    2.75    0.54 
   1   7  -1    1.96    0.50 
   1   7  -1    1.89    0.56 
  -1   7   1    1.75    0.57 
   1  -7  -1    1.47    0.49 
   1  -7  -1    1.94    0.57 
  -1  -7   1    1.50    0.50 
  -1   7   0    5.97    0.82 
   1   7   0    5.99    0.71 
   1   7   0    5.12    0.74 
   1  -7   0    5.65    0.76 
   1  -7   0    3.30    0.61 
  -1  -7   0    2.53    0.54 
  -1  -7   0    5.88    0.69 
  -1   7  -1    0.05    0.42 
   1   7   1   -0.01    0.43 
   1   7   1    0.35    0.40 
  -1  -7  -1    0.02    0.43 
   1  -7   1   -0.17    0.38 
  -1  -7  -1    0.22    0.41 
   1  -7   1    0.31    0.41 
   1   7   2   -0.36    0.50 
  -1   7  -2    0.70    0.51 
   1  -7   2    0.95    0.49 
  -1  -7  -2    0.66    0.42 
  -1  -7  -2    1.40    0.56 
   1  -7   2    0.24    0.40 
  -1   7  -3    1.68    0.58 
   1   7   3    1.62    0.70 
  -1  -7  -3    1.15    0.54 
  -1  -7  -3    0.85    0.60 
   1  -7   3    1.69    0.58 
  -1   7  -4   -0.37    0.44 
   1   7   4    0.73    0.74 
   1  -7   4   -0.03    0.43 
  -1  -7  -4    0.13    0.56 
  -1  -7  -4   -0.30    0.60 
  -1   7  -5    1.03    0.62 
   1   7   5    1.19    0.89 
   1  -7   5    0.71    0.59 
  -1  -7  -5   -0.36    0.79 
  -1  -7  -5    0.00    0.57 
  -1   8   4    0.23    0.78 
   1   8  -4   -0.25    0.63 
   1  -8  -4    0.12    0.74 
  -1  -8   4   -0.20    0.46 
   1  -8  -4    0.47    0.62 
   1   8  -3    4.69    0.93 
  -1   8   3    4.37    0.88 
   1  -8  -3    3.47    0.91 
  -1  -8   3    2.86    0.70 
   1  -8  -3    1.86    0.68 
   1   8  -2    0.73    0.62 
  -1  -8   2    0.73    0.49 
   1  -8  -2    1.35    0.66 
   1  -8  -2    0.44    0.55 
   1   8  -1    1.91    0.65 
  -1   8   1    1.22    0.61 
   1  -8  -1    1.59    0.54 
   1  -8  -1    1.77    0.63 
  -1  -8   1    1.10    0.53 
   1   8   0    0.18    0.54 
  -1   8   0    0.56    0.57 
   1  -8   0   -0.20    0.51 
  -1  -8   0   -0.38    0.41 
   1  -8   0    0.30    0.43 
  -1   8  -1    0.78    0.60 
   1   8   1    0.32    0.55 
   1   8   1   -0.12    0.70 
   1  -8   1   -0.21    0.49 
   1  -8   1   -0.27    0.46 
  -1  -8  -1    0.12    0.47 
   1   8   2    3.27    0.84 
  -1   8  -2    4.63    0.89 
  -1  -8  -2    4.87    0.90 
  -1  -8  -2    2.46    0.68 
   1  -8   2    2.79    0.64 
  -1   8  -3    0.25    0.67 
   1   8   3    3.14    0.88 
  -1  -8  -3    2.21    0.68 
   1  -8   3    0.19    0.44 
  -1  -8  -3    2.58    0.85 
  -1   8  -4   -0.21    0.63 
   1  -8   4   -0.02    0.49 
  -1  -8  -4    0.15    0.60 
   1   9  -2    0.40    0.70 
  -1  -9   2    0.49    0.59 
   1  -9  -2   -0.35    0.69 
   1  -9  -2    1.11    0.63 
  -1   9   1    1.24    1.03 
   1   9  -1    1.44    0.76 
   1  -9  -1    0.75    0.71 
   1  -9  -1    1.37    0.68 
  -1  -9   1    1.21    0.62 
  -1   9   0    2.12    0.78 
   1   9   0    2.10    0.78 
   1  -9   0    1.64    0.67 
  -1  -9   0    1.58    0.63 
  -1   9  -1    1.06    0.71 
  -1  -9  -1   -0.12    0.55 
   1  -9   1   -0.90    0.52 
  -1   9  -2    0.31    0.77 
   1   9   2    0.58    1.05 
  -1  -9  -2   -0.53    0.50 
   1  -9   2   -0.67    0.47 
  -2   0   7    0.47    0.57 
   2   0  -7    0.27    0.67 
   2   0  -6    2.39    0.69 
  -2   0   6    3.10    0.75 
  -2   0   5   -0.18    0.35 
   2   0  -5   -0.10    0.25 
   2   0  -5    0.09    0.40 
  -2   0   5   -0.26    0.17 
  -2   0   4   14.42    0.90 
   2   0  -4   14.34    0.88 
   2   0  -4   15.25    0.77 
  -2   0   4   15.83    0.66 
  -2   0   3   -0.11    0.09 
   2   0  -3    0.12    0.18 
  -2   0   3    0.26    0.23 
   2   0  -3    0.17    0.21 
  -2   0   2    2.67    0.14 
   2   0  -2    3.10    0.33 
  -2   0   2    2.54    0.14 
   2   0  -2    3.50    0.35 
  -2   0   2    2.79    0.38 
   2   0  -1   -0.08    0.12 
  -2   0   1    0.03    0.14 
   2   0  -1   -0.01    0.10 
  -2   0   1   -0.09    0.14 
  -2   0   0   18.47    0.72 
   2   0   0   19.90    0.72 
  -2   0   0   20.12    0.73 
  -2   0   0   19.00    0.67 
  -2   0   0   19.74    0.72 
   2   0   1   -0.06    0.11 
  -2   0  -1    0.02    0.14 
  -2   0  -1   -0.13    0.13 
  -2   0  -1   -0.12    0.09 
  -2   0  -1    0.02    0.13 
  -2   0  -2   47.82    1.51 
  -2   0  -2   45.41    1.72 
  -2   0  -2   50.23    1.66 
   2   0   2   48.19    1.58 
   2   0   2   47.37    1.64 
  -2   0  -3    0.12    0.21 
   2   0   3    0.09    0.20 
   2   0   3   -0.31    0.20 
  -2   0  -3    0.04    0.21 
  -2   0  -3    0.04    0.11 
   2   0   4   45.53    1.70 
  -2   0  -4   42.00    1.86 
  -2   0  -4   43.94    1.74 
  -2   0  -4   45.33    1.49 
   2   0   4   43.55    1.72 
  -2   0  -5    0.05    0.34 
  -2   0  -5    0.27    0.40 
   2   0   5    0.25    0.34 
   2   0   5    0.46    0.35 
  -2   0  -6   -0.04    0.39 
   2   0   6   -0.22    0.37 
  -2   0  -6   -0.08    0.52 
   2   0   6   -0.29    0.34 
   2   0   7   -0.43    0.41 
   2   0   7    0.15    0.46 
  -2   0  -7   -0.07    0.72 
  -2   1   7    0.75    0.73 
  -2  -1   7    1.60    0.65 
   2  -1  -7    4.37    1.06 
   2   1  -6   -0.61    0.46 
   2   1  -6   -0.03    0.31 
  -2   1   6   -0.26    0.44 
  -2  -1   6    0.25    0.45 
   2  -1  -6    0.66    0.64 
   2   1  -5    0.51    0.32 
  -2   1   5    0.30    0.23 
  -2   1   5   -0.08    0.33 
   2   1  -5    0.03    0.32 
   2  -1  -5    0.26    0.26 
   2  -1  -5   -0.07    0.24 
  -2  -1   5    0.68    0.23 
  -2  -1   5    0.64    0.42 
   2  -1  -5    0.15    0.45 
   2   1  -4    0.39    0.28 
   2   1  -4    0.36    0.26 
  -2   1   4    0.78    0.31 
   2  -1  -4    0.05    0.21 
  -2  -1   4    0.22    0.27 
   2  -1  -4    0.44    0.22 
   2  -1  -4    0.14    0.33 
  -2  -1   4    0.46    0.18 
   2   1  -3    7.85    0.62 
  -2   1   3    5.20    0.59 
   2   1  -3    4.62    0.40 
  -2  -1   3    5.46    0.33 
   2  -1  -3    5.55    0.41 
   2  -1  -3    6.05    0.59 
   2  -1  -3    5.50    0.33 
  -2  -1   3    5.61    0.61 
  -2   1   2    3.78    0.38 
  -2   1   2    3.03    0.40 
   2   1  -2    3.23    0.29 
   2   1  -2    4.19    0.41 
  -2  -1   2    4.38    0.49 
   2  -1  -2    2.84    0.31 
   2  -1  -2    2.95    0.19 
  -2  -1   2    2.62    0.18 
   2  -1  -2    3.59    0.39 
  -2   1   1  156.28    4.59 
  -2   1   1  162.45    4.74 
   2   1  -1  153.18    4.56 
  -2   1   1  165.06    4.74 
   2   1  -1  161.47    4.72 
  -2  -1   1  154.27    4.55 
   2  -1  -1  158.67    4.75 
  -2  -1   1  158.75    4.60 
  -2  -1   1  162.00    4.76 
   2  -1  -1  163.12    4.58 
  -2   1   0   38.36    1.21 
   2   1   0   37.94    1.24 
  -2   1   0   38.06    1.29 
  -2  -1   0   37.47    1.20 
  -2  -1   0   38.25    1.30 
   2  -1   0   39.16    1.32 
   2  -1   0   37.45    1.22 
  -2  -1   0   37.22    1.23 
   2   1   1   84.87    2.64 
  -2   1  -1   88.74    2.74 
   2   1   1   83.90    2.52 
  -2   1  -1   84.44    2.63 
  -2  -1  -1   84.69    2.58 
  -2  -1  -1   82.01    2.47 
  -2  -1  -1   83.13    2.61 
  -2  -1  -1   83.22    2.59 
   2  -1   1   83.39    2.43 
   2  -1   1   83.82    2.57 
   2  -1   1   80.79    2.44 
   2   1   2    5.68    0.41 
  -2   1  -2    5.17    0.44 
   2   1   2    5.30    0.24 
  -2   1  -2    6.14    0.50 
  -2   1  -2    4.87    0.34 
  -2  -1  -2    5.23    0.45 
  -2  -1  -2    5.21    0.25 
   2  -1   2    4.99    0.31 
   2  -1   2    5.41    0.40 
  -2  -1  -2    6.65    0.54 
  -2   1  -3   59.54    2.04 
   2   1   3   56.72    2.03 
  -2   1  -3   57.82    2.15 
  -2   1  -3   57.62    1.92 
   2  -1   3   57.30    1.90 
  -2  -1  -3   56.77    1.71 
  -2  -1  -3   58.44    2.17 
  -2  -1  -3   57.90    2.06 
   2  -1   3   58.38    2.03 
  -2   1  -4    7.89    0.52 
  -2   1  -4    7.79    0.83 
  -2   1  -4    8.93    0.79 
   2   1   4    9.96    0.88 
   2  -1   4    7.86    0.59 
  -2  -1  -4    9.42    0.95 
   2  -1   4   10.38    0.86 
  -2  -1  -4    9.50    0.81 
   2   1   5   70.67    2.63 
   2   1   5   65.57    2.56 
  -2   1  -5   75.55    2.52 
  -2   1  -5   69.28    2.80 
   2  -1   5   66.25    2.40 
   2  -1   5   64.11    2.47 
  -2  -1  -5   67.05    2.54 
  -2  -1  -5   71.01    2.80 
  -2   1  -6    5.80    1.02 
   2   1   6    4.62    0.70 
   2   1   6    4.56    0.75 
  -2  -1  -6    3.84    0.71 
  -2  -1  -6    4.52    0.93 
   2  -1   6    4.15    0.68 
   2  -1   6    4.15    0.67 
   2   1   7    3.56    0.67 
  -2   1  -7    4.59    1.04 
   2   1   7    3.86    0.77 
  -2  -1  -7    5.78    1.27 
   2  -1   7    6.10    0.88 
  -2  -1  -7    2.83    0.67 
  -2   2   7    0.30    0.69 
  -2  -2   7    0.06    0.49 
   2  -2  -7   -0.57    0.78 
   2   2  -6    0.77    0.43 
  -2   2   6    1.38    0.61 
   2  -2  -6   -0.44    0.67 
  -2  -2   6    1.27    0.51 
   2   2  -5    5.01    0.64 
  -2   2   5    4.99    0.77 
   2   2  -5    4.24    0.61 
   2  -2  -5    5.13    0.56 
   2  -2  -5    5.58    0.88 
  -2  -2   5    5.26    0.55 
  -2  -2   5    6.26    0.84 
   2   2  -4    9.67    0.84 
  -2   2   4    7.28    0.78 
   2   2  -4    7.81    0.58 
   2  -2  -4    9.00    0.92 
   2  -2  -4    8.27    0.53 
  -2  -2   4    8.33    0.69 
  -2  -2   4    9.09    0.54 
   2  -2  -4    8.28    0.53 
   2   2  -3    0.49    0.18 
  -2   2   3    0.24    0.20 
  -2   2   3    0.69    0.27 
   2   2  -3    0.40    0.23 
  -2  -2   3    0.40    0.16 
   2  -2  -3    0.58    0.21 
   2  -2  -3    0.12    0.23 
  -2  -2   3    0.24    0.24 
   2  -2  -3    0.35    0.18 
  -2   2   2   10.17    0.54 
  -2   2   2    9.93    0.58 
   2   2  -2   10.09    0.57 
   2   2  -2    9.87    0.40 
  -2  -2   2    9.58    0.39 
  -2  -2   2    8.89    0.56 
  -2  -2   2    9.52    0.45 
   2  -2  -2    8.93    0.59 
   2  -2  -2    9.78    0.45 
  -2   2   1    3.37    0.36 
  -2   2   1    2.53    0.32 
   2   2  -1    4.08    0.39 
   2  -2  -1    2.53    0.34 
  -2  -2   1    3.08    0.38 
  -2  -2   1    2.33    0.26 
   2  -2  -1    3.38    0.29 
  -2   2   0   25.06    0.93 
   2   2   0   23.72    0.86 
  -2   2   0   22.53    0.79 
   2  -2   0   23.06    0.96 
  -2  -2   0   22.43    0.80 
  -2  -2   0   23.59    0.88 
  -2  -2   0   23.55    0.92 
   2  -2   0   22.90    0.87 
  -2   2  -1    0.10    0.20 
   2   2   1    0.18    0.19 
   2   2   1    0.08    0.11 
  -2   2  -1   -0.08    0.13 
  -2  -2  -1    0.14    0.17 
  -2  -2  -1   -0.04    0.20 
   2  -2   1   -0.08    0.12 
  -2  -2  -1    0.12    0.15 
   2  -2   1    0.09    0.19 
   2   2   2   13.01    0.70 
  -2   2  -2   13.03    0.74 
  -2   2  -2   13.80    0.47 
  -2   2  -2   12.78    0.66 
  -2  -2  -2   12.94    0.75 
   2  -2   2   13.88    0.69 
   2  -2   2   13.56    0.48 
  -2  -2  -2   13.75    0.71 
  -2   2  -3   17.19    0.82 
   2   2   3   16.18    0.89 
  -2   2  -3   17.52    0.96 
  -2  -2  -3   17.46    1.01 
   2  -2   3   18.71    0.74 
   2  -2   3   19.11    0.93 
  -2  -2  -3   19.41    0.94 
   2   2   4   17.43    1.04 
  -2   2  -4   20.73    0.96 
  -2   2  -4   19.70    1.14 
   2  -2   4   20.67    0.90 
  -2  -2  -4   20.12    1.08 
   2  -2   4   19.83    1.03 
  -2  -2  -4   19.58    1.19 
  -2   2  -5    4.23    0.57 
   2   2   5    5.14    0.78 
  -2   2  -5    5.57    0.85 
   2  -2   5    5.03    0.64 
  -2  -2  -5    3.79    0.63 
   2  -2   5    3.88    0.63 
  -2  -2  -5    4.41    0.86 
   2   2   6   -0.48    0.41 
  -2   2  -6   -0.40    0.52 
   2   2   6   -0.04    0.41 
  -2  -2  -6   -0.16    0.46 
   2  -2   6    0.84    0.46 
  -2  -2  -6   -0.34    0.58 
  -2   2  -7   -0.35    0.66 
   2   2   7   -0.21    0.44 
   2   2   7    1.00    0.62 
  -2  -2  -7    0.48    0.56 
   2  -2   7   -0.08    0.44 
  -2  -2  -7    0.73    0.90 
  -2   3   7    0.78    0.84 
   2   3  -7    0.17    0.64 
   2  -3  -7   -0.09    0.89 
   2   3  -6    0.16    0.45 
  -2   3   6    0.07    0.65 
  -2  -3   6    0.16    0.47 
   2  -3  -6   -0.01    0.69 
  -2   3   5    1.54    0.55 
   2   3  -5    2.28    0.56 
  -2  -3   5    1.28    0.49 
   2  -3  -5    1.62    0.44 
  -2  -3   5    1.76    0.40 
   2  -3  -5    2.07    0.68 
   2   3  -4    0.80    0.28 
  -2   3   4    0.82    0.34 
  -2   3   4    1.25    0.34 
   2   3  -4    0.72    0.33 
   2  -3  -4    1.08    0.30 
  -2  -3   4    0.98    0.28 
   2  -3  -4    0.80    0.33 
   2  -3  -4    1.33    0.49 
  -2  -3   4    0.74    0.39 
   2   3  -3    7.68    0.69 
  -2   3   3    7.21    0.72 
  -2   3   3    5.77    0.56 
   2   3  -3    6.21    0.40 
   2  -3  -3    6.11    0.46 
  -2  -3   3    6.02    0.45 
   2  -3  -3    5.82    0.72 
  -2  -3   3    6.98    0.56 
  -2   3   2    6.71    0.49 
  -2   3   2    6.44    0.50 
   2   3  -2    7.48    0.53 
   2  -3  -2    6.95    0.44 
  -2  -3   2    6.96    0.51 
  -2  -3   2    6.82    0.30 
   2  -3  -2    6.21    0.62 
  -2  -3   2    7.25    0.45 
  -2  -3   2    6.24    0.30 
  -2   3   1   13.38    0.65 
   2   3  -1   14.42    0.69 
  -2   3   1   14.81    0.70 
   2  -3  -1   13.49    0.73 
  -2  -3   1   12.46    0.46 
  -2  -3   1   13.31    0.68 
   2  -3  -1   13.50    0.63 
  -2  -3   1   13.94    0.66 
  -2  -3   1   12.79    0.46 
  -2   3   0   76.86    2.36 
   2   3   0   78.87    2.46 
   2   3   0   79.30    2.55 
  -2   3   0   76.85    2.54 
   2  -3   0   77.16    2.61 
  -2  -3   0   74.45    2.41 
  -2  -3   0   80.79    2.54 
   2  -3   0   79.72    2.51 
  -2  -3   0   78.15    2.55 
  -2   3  -1    2.76    0.40 
   2   3   1    2.39    0.27 
   2   3   1    3.01    0.45 
   2  -3   1    2.52    0.38 
  -2  -3  -1    3.00    0.40 
  -2  -3  -1    2.12    0.33 
   2  -3   1    1.79    0.31 
   2   3   2   17.63    0.90 
  -2   3  -2   18.20    0.87 
  -2   3  -2   17.60    0.93 
   2   3   2   17.39    0.62 
   2  -3   2   17.18    0.91 
  -2  -3  -2   17.74    0.90 
   2  -3   2   16.69    0.85 
  -2  -3  -2   17.84    0.94 
   2   3   3    9.57    0.74 
  -2   3  -3   10.66    0.76 
  -2   3  -3   11.44    0.69 
  -2  -3  -3    9.40    0.80 
   2  -3   3   12.12    0.73 
   2  -3   3    9.85    0.75 
  -2  -3  -3   10.34    0.71 
   2  -3   3   10.65    0.45 
  -2   3  -4   35.85    1.68 
   2   3   4   37.81    1.65 
  -2   3  -4   33.51    1.48 
  -2  -3  -4   36.43    1.78 
   2  -3   4   35.05    1.54 
  -2  -3  -4   32.68    1.53 
  -2   3  -5   13.13    1.08 
  -2   3  -5   11.24    0.84 
   2   3   5   13.89    1.28 
  -2  -3  -5   12.36    1.12 
   2  -3   5   13.82    1.19 
  -2  -3  -5   15.86    1.57 
   2   3   6   16.40    1.29 
  -2   3  -6   17.41    1.37 
  -2  -3  -6   18.86    1.55 
   2  -3   6   16.75    1.14 
  -2  -3  -6   15.87    1.20 
   2   3   7    0.28    0.59 
  -2   3  -7    0.64    0.66 
   2   3   7    0.50    0.53 
  -2  -3  -7   -0.85    0.76 
   2  -3   7    0.58    0.52 
  -2  -3  -7    0.78    0.65 
  -2   4   6   -0.17    0.66 
   2   4  -6    0.05    0.49 
   2  -4  -6    0.35    0.68 
  -2   4   5    6.86    1.01 
   2   4  -5    5.60    0.78 
   2  -4  -5    4.30    0.82 
  -2  -4   5    5.70    0.65 
   2  -4  -5    6.78    1.03 
  -2  -4   5    8.77    0.92 
  -2   4   4    0.61    0.34 
  -2   4   4    0.48    0.38 
   2   4  -4    0.55    0.38 
   2  -4  -4   -0.17    0.36 
  -2  -4   4    0.54    0.29 
  -2  -4   4    0.54    0.36 
   2  -4  -4    1.18    0.39 
  -2   4   3    2.01    0.48 
   2   4  -3    2.44    0.48 
  -2   4   3    3.02    0.44 
  -2  -4   3    2.64    0.42 
  -2  -4   3    2.74    0.48 
   2  -4  -3    1.74    0.48 
   2  -4  -3    2.55    0.42 
   2   4  -2   15.43    0.84 
  -2   4   2   14.41    0.81 
  -2   4   2   15.86    0.79 
  -2  -4   2   15.36    0.58 
  -2  -4   2   14.29    0.80 
   2  -4  -2   14.24    0.77 
   2  -4  -2   14.74    0.92 
  -2  -4   2   16.00    0.80 
  -2   4   1    0.31    0.24 
  -2   4   1    0.26    0.22 
   2   4  -1    0.27    0.21 
   2  -4  -1    0.25    0.24 
   2  -4  -1    0.53    0.24 
  -2  -4   1    0.22    0.25 
  -2  -4   1    0.26    0.13 
  -2  -4   1    0.20    0.22 
  -2   4   0   12.56    0.56 
   2   4   0   13.72    0.74 
   2   4   0   12.64    0.66 
  -2   4   0   12.77    0.72 
   2  -4   0   12.28    0.78 
  -2  -4   0   11.83    0.70 
  -2  -4   0   12.03    0.71 
  -2  -4   0   12.84    0.63 
   2  -4   0   12.27    0.69 
   2   4   1    2.18    0.31 
   2   4   1    1.58    0.40 
  -2   4  -1    1.85    0.37 
   2  -4   1    1.86    0.38 
   2  -4   1    1.76    0.32 
  -2  -4  -1    1.86    0.35 
  -2  -4  -1    1.25    0.30 
   2   4   2    0.57    0.19 
  -2   4  -2    0.37    0.25 
   2   4   2    0.68    0.36 
   2  -4   2    0.37    0.27 
   2  -4   2    0.74    0.32 
  -2  -4  -2    0.43    0.31 
  -2  -4  -2    0.61    0.30 
  -2   4  -3   15.73    1.00 
  -2   4  -3   14.93    0.91 
   2   4   3   18.52    1.04 
  -2  -4  -3   15.86    1.09 
   2  -4   3   15.44    0.91 
  -2  -4  -3   15.19    0.93 
   2  -4   3   15.30    0.97 
  -2   4  -4   -0.03    0.38 
   2   4   4    0.40    0.48 
  -2   4  -4    0.63    0.36 
  -2  -4  -4    0.77    0.49 
   2  -4   4    0.48    0.34 
   2  -4   4    0.62    0.45 
  -2  -4  -4    0.71    0.40 
  -2   4  -5    5.90    0.90 
   2   4   5    5.66    0.98 
  -2   4  -5    5.29    0.76 
  -2  -4  -5    4.33    0.75 
   2  -4   5    5.26    0.89 
  -2  -4  -5    5.39    0.95 
   2  -4   5    4.64    0.72 
  -2   4  -6    1.16    0.66 
  -2   4  -6    0.62    0.51 
   2   4   6    0.30    0.69 
   2  -4   6    0.53    0.50 
   2  -4   6   -0.49    0.61 
  -2  -4  -6   -0.37    0.56 
  -2  -4  -6    1.00    0.75 
   2   5  -6   -0.14    0.52 
  -2   5   6   -0.52    0.72 
   2  -5  -6   -0.27    0.83 
   2   5  -5    2.58    0.65 
  -2   5   5    3.79    0.88 
  -2  -5   5    2.43    0.55 
   2  -5  -5    1.73    0.78 
  -2   5   4   -0.04    0.39 
   2   5  -4    0.12    0.39 
  -2  -5   4    0.28    0.33 
  -2  -5   4   -0.06    0.37 
   2  -5  -4    0.02    0.48 
   2  -5  -4    0.52    0.42 
  -2   5   3    8.37    0.90 
   2   5  -3    9.65    0.92 
  -2   5   3    6.74    0.68 
   2  -5  -3    7.29    0.86 
  -2  -5   3    6.19    0.65 
   2  -5  -3    6.24    0.68 
  -2  -5   3    6.23    0.68 
  -2   5   2    6.73    0.66 
  -2   5   2    7.46    0.75 
   2   5  -2    7.39    0.77 
  -2  -5   2    4.65    0.57 
   2  -5  -2    5.19    0.62 
   2  -5  -2    5.96    0.76 
  -2  -5   2    5.57    0.63 
  -2   5   1    0.55    0.31 
  -2   5   1    0.74    0.31 
   2   5  -1    0.58    0.29 
   2   5  -1    0.57    0.33 
   2  -5  -1    0.23    0.28 
  -2  -5   1    0.31    0.29 
  -2  -5   1    0.65    0.21 
  -2  -5   1    0.53    0.32 
   2  -5  -1    0.46    0.29 
   2   5   0   25.71    1.14 
  -2   5   0   25.57    0.99 
   2   5   0   25.80    1.19 
  -2   5   0   27.64    1.23 
   2  -5   0   22.69    1.11 
  -2  -5   0   24.37    1.05 
   2  -5   0   24.39    1.22 
  -2  -5   0   23.08    1.11 
  -2  -5   0   26.37    1.19 
   2   5   1    6.40    0.56 
  -2   5  -1    4.73    0.60 
   2   5   1    5.62    0.68 
  -2  -5  -1    7.44    0.69 
   2  -5   1    4.40    0.61 
   2  -5   1    4.17    0.51 
  -2  -5  -1    4.76    0.60 
  -2   5  -2    6.06    0.68 
   2   5   2    6.28    0.46 
   2   5   2    8.48    0.84 
   2  -5   2    6.06    0.71 
   2  -5   2    5.88    0.64 
  -2  -5  -2    6.27    0.68 
  -2  -5  -2    7.30    0.79 
  -2   5  -3    0.20    0.33 
   2   5   3    0.12    0.43 
   2  -5   3    0.03    0.39 
   2  -5   3   -0.25    0.28 
  -2  -5  -3    0.32    0.34 
  -2  -5  -3    0.42    0.49 
  -2   5  -4   20.14    1.22 
   2   5   4   20.08    1.32 
  -2   5  -4   18.18    1.26 
   2  -5   4   17.89    1.21 
   2  -5   4   15.91    1.08 
  -2  -5  -4   13.73    1.04 
  -2  -5  -4   18.55    1.33 
   2   5   5    0.17    0.64 
  -2   5  -5    0.43    0.50 
  -2   5  -5    0.51    0.57 
  -2  -5  -5    0.53    0.53 
  -2  -5  -5    0.78    0.73 
   2  -5   5    0.17    0.56 
   2  -5   5    0.15    0.47 
  -2   5  -6    7.99    1.16 
  -2   5  -6    8.80    1.06 
   2   5   6   10.02    1.34 
   2  -5   6    6.87    0.92 
  -2  -5  -6    9.97    1.52 
   2  -5   6    9.78    1.36 
  -2  -5  -6    7.85    1.06 
   2   6  -5    2.42    0.69 
  -2   6   5    1.89    0.83 
   2  -6  -5    2.60    0.92 
  -2  -6   5    1.97    0.75 
   2   6  -4    1.06    0.51 
  -2   6   4    0.25    0.55 
  -2  -6   4   -0.04    0.39 
   2  -6  -4    0.28    0.49 
   2  -6  -4    1.09    0.66 
  -2   6   3    5.40    0.76 
  -2   6   3    3.63    0.60 
   2   6  -3    4.55    0.76 
  -2  -6   3    2.76    0.54 
  -2  -6   3    4.07    0.60 
   2  -6  -3    2.65    0.56 
   2  -6  -3    3.85    0.80 
   2   6  -2    9.26    0.91 
   2   6  -2    5.62    0.68 
  -2   6   2    7.83    0.82 
  -2   6   2    6.59    0.75 
  -2  -6   2    4.69    0.62 
   2  -6  -2    5.34    0.70 
  -2  -6   2    5.20    0.66 
   2  -6  -2    6.83    0.91 
  -2   6   1    4.60    0.65 
  -2   6   1    5.42    0.61 
   2   6  -1    5.34    0.66 
   2   6  -1    5.21    0.69 
  -2  -6   1    4.26    0.61 
   2  -6  -1    4.03    0.59 
  -2  -6   1    5.13    0.64 
   2  -6  -1    4.40    0.67 
   2   6   0    1.52    0.47 
  -2   6   0    1.24    0.43 
   2   6   0    1.87    0.44 
  -2  -6   0    1.42    0.41 
  -2  -6   0    2.15    0.41 
   2  -6   0    1.37    0.40 
   2  -6   0    1.67    0.50 
  -2   6  -1    1.92    0.52 
   2   6   1    2.37    0.46 
   2   6   1    2.63    0.56 
   2  -6   1    2.10    0.47 
  -2  -6  -1    2.69    0.51 
  -2  -6  -1    2.18    0.46 
   2  -6   1    2.71    0.57 
  -2   6  -2   -0.04    0.31 
   2   6   2    0.38    0.48 
   2  -6   2    0.31    0.33 
   2  -6   2    0.28    0.42 
  -2  -6  -2   -0.11    0.36 
  -2  -6  -2    0.06    0.42 
  -2   6  -3    4.69    0.76 
   2   6   3    4.41    0.81 
  -2  -6  -3    3.65    0.71 
   2  -6   3    4.59    0.70 
  -2  -6  -3    5.61    0.89 
   2  -6   3    4.68    0.77 
  -2   6  -4    1.61    0.58 
   2   6   4    1.95    0.77 
  -2  -6  -4    2.10    0.75 
   2  -6   4    2.31    0.69 
   2  -6   4    2.02    0.59 
  -2  -6  -4    2.39    0.66 
   2   6   5    1.15    0.82 
  -2   6  -5    1.03    0.60 
  -2  -6  -5    1.23    0.64 
   2  -6   5    0.51    1.01 
  -2  -6  -5    0.20    0.69 
   2  -6   5    0.13    0.40 
  -2   7   5    1.97    0.93 
   2   7  -5    0.44    0.57 
   2  -7  -5    0.27    0.84 
  -2   7   4    2.56    0.78 
   2   7  -4    2.43    0.74 
  -2  -7   4    2.75    0.65 
   2  -7  -4    2.80    0.72 
   2  -7  -4    3.44    0.98 
   2   7  -3    2.66    0.69 
  -2   7   3    2.61    0.67 
   2  -7  -3    2.89    0.82 
  -2  -7   3    2.32    0.57 
   2  -7  -3    1.63    0.58 
   2   7  -2    3.98    0.69 
  -2   7   2    5.31    0.74 
   2   7  -2    3.94    0.74 
  -2   7   2    2.78    0.60 
  -2  -7   2    3.83    0.63 
   2  -7  -2    3.52    0.74 
   2  -7  -2    3.66    0.68 
  -2  -7   2    3.23    0.62 
   2   7  -1    5.21    0.79 
   2   7  -1    4.88    0.71 
  -2   7   1    4.14    0.72 
  -2  -7   1    4.53    0.69 
   2  -7  -1    5.70    0.91 
   2  -7  -1    4.26    0.69 
  -2   7   0    0.81    0.51 
   2   7   0    2.15    0.59 
   2   7   0    2.00    0.57 
   2  -7   0    1.00    0.49 
  -2  -7   0    0.81    0.41 
   2  -7   0    2.66    0.67 
   2   7   1    8.77    0.96 
  -2   7  -1    7.61    0.97 
   2   7   1    6.90    0.76 
   2  -7   1    5.86    0.76 
   2  -7   1    7.45    0.87 
  -2  -7  -1    5.15    0.69 
  -2  -7  -1    7.78    1.05 
  -2   7  -2    0.09    0.46 
   2   7   2   -0.35    0.53 
  -2  -7  -2    0.20    0.38 
   2  -7   2    0.25    0.35 
  -2  -7  -2    0.42    0.52 
   2  -7   2   -0.19    0.45 
   2   7   3    0.60    0.78 
  -2   7  -3    1.58    0.61 
  -2  -7  -3    0.46    0.64 
   2  -7   3    1.52    0.52 
  -2  -7  -3    0.97    0.56 
   2  -7   3    1.00    0.54 
   2   7   4    3.25    0.95 
  -2   7  -4    2.40    0.74 
  -2  -7  -4    2.58    0.92 
  -2  -7  -4    2.69    0.74 
   2  -7   4    2.23    0.62 
   2   8  -3    2.72    0.87 
  -2  -8   3    1.80    0.66 
   2  -8  -3    1.94    0.89 
   2  -8  -3    2.21    0.67 
   2   8  -2    2.29    0.77 
   2  -8  -2    0.46    0.67 
   2  -8  -2    1.64    0.62 
  -2  -8   2    1.65    0.61 
  -2   8   1    5.60    0.90 
   2   8  -1    4.97    0.90 
   2  -8  -1    4.50    0.84 
   2  -8  -1    3.50    0.72 
  -2  -8   1    3.31    0.64 
   2   8   0    0.22    0.54 
   2   8   0    0.44    0.47 
  -2   8   0   -0.56    0.55 
  -2  -8   0   -0.05    0.37 
   2  -8   0   -0.11    0.46 
   2  -8   0   -0.10    0.54 
  -2   8  -1    0.56    0.58 
   2   8   1    1.33    0.64 
   2  -8   1    0.63    0.51 
   2  -8   1    1.43    0.60 
  -2  -8  -1   -0.26    0.45 
  -2   8  -2    0.30    0.60 
   2   8   2    0.50    0.68 
  -2  -8  -2    1.16    0.55 
   2  -8   2    1.09    0.59 
   2  -8   2    0.35    0.54 
   2   8   3    0.76    0.87 
  -2   8  -3    0.92    0.68 
  -2  -8  -3    0.12    0.76 
   2  -8   3    0.18    0.50 
  -2  -8  -3    0.02    0.50 
  -2   9   1    3.19    0.86 
   2   9  -1    4.81    0.98 
  -2  -9   1    1.00    0.61 
   2  -9  -1    3.01    0.89 
   2  -9  -1    1.72    0.69 
   2   9   0    2.11    1.15 
  -2   9   0    1.04    0.74 
   2  -9   0    0.53    0.65 
   2  -9   0    0.00    0.58 
  -2  -9   0    0.71    0.57 
   2   9   1    2.71    1.39 
  -2   9  -1    3.45    0.89 
   2  -9   1    1.53    0.75 
  -2  -9  -1    0.41    0.57 
  -3   0   7   -0.19    0.62 
  -3   0   6    0.42    0.59 
   3   0  -6   -0.27    0.54 
   3   0  -6   -0.06    0.33 
   3   0  -5   -0.39    0.39 
  -3   0   5   -0.09    0.35 
   3   0  -5    0.14    0.29 
   3   0  -4   69.32    2.44 
  -3   0   4   66.71    2.54 
   3   0  -4   66.10    2.33 
   3   0  -3   -0.06    0.22 
   3   0  -3   -0.05    0.21 
  -3   0   3    0.04    0.19 
   3   0  -2  212.03    6.25 
   3   0  -2  209.46    6.20 
  -3   0   2  207.93    6.34 
   3   0  -1   -0.16    0.14 
   3   0  -1   -0.04    0.13 
   3   0  -1    0.02    0.07 
  -3   0   1    0.00    0.18 
   3   0  -1   -0.06    0.06 
  -3   0   1   -0.01    0.18 
  -3   0   0   64.83    2.06 
   3   0   0   63.75    1.95 
   3   0   0   62.49    2.03 
  -3   0   0   63.59    2.05 
  -3   0   0   61.53    2.03 
  -3   0   0   59.75    1.94 
  -3   0  -1    0.04    0.16 
   3   0   1    0.46    0.19 
  -3   0  -1    0.05    0.15 
  -3   0  -1   -0.10    0.16 
   3   0   1   -0.06    0.15 
  -3   0  -1   -0.05    0.18 
  -3   0  -2  226.59    7.00 
   3   0   2  230.33    6.79 
   3   0   2  235.92    6.90 
  -3   0  -2  228.74    6.75 
  -3   0  -2  233.27    6.90 
   3   0   3    0.21    0.23 
  -3   0  -3    0.21    0.25 
   3   0   3   -0.13    0.23 
  -3   0  -3    0.19    0.15 
  -3   0  -3    0.21    0.22 
  -3   0  -4   63.73    2.40 
   3   0   4   61.69    2.37 
  -3   0  -4   65.78    2.09 
   3   0   4   67.66    2.30 
  -3   0  -4   63.77    2.57 
   3   0   5   -0.19    0.34 
   3   0   5    0.04    0.32 
  -3   0  -5   -0.43    0.41 
  -3   0  -5    0.10    0.30 
  -3   0  -6    0.94    0.50 
   3   0   6   -0.12    0.40 
   3   0   6    0.52    0.43 
  -3   0  -6    0.07    0.65 
   3   0   7   -0.19    0.45 
  -3   0  -7   -0.77    0.73 
  -3   1   7    0.19    0.71 
   3  -1  -7   -0.72    0.75 
  -3  -1   7    0.87    0.58 
   3   1  -6    0.24    0.41 
  -3   1   6    0.07    0.54 
   3  -1  -6   -0.85    0.55 
  -3  -1   6    0.45    0.50 
  -3   1   5    4.82    0.81 
   3   1  -5    4.66    0.64 
   3   1  -5    3.00    0.52 
  -3  -1   5    4.71    0.78 
   3  -1  -5    3.39    0.50 
   3  -1  -5    4.85    0.76 
   3   1  -4    1.19    0.34 
  -3   1   4    0.87    0.40 
  -3   1   4    1.01    0.30 
   3   1  -4    0.94    0.33 
   3  -1  -4    1.56    0.43 
   3  -1  -4    0.71    0.31 
   3  -1  -4    0.97    0.20 
  -3  -1   4    0.80    0.19 
  -3  -1   4    0.68    0.36 
  -3   1   3    2.97    0.43 
  -3   1   3    2.74    0.48 
   3   1  -3    3.40    0.37 
   3   1  -3    3.21    0.43 
  -3   1   3    2.20    0.22 
   3  -1  -3    3.12    0.48 
   3  -1  -3    3.02    0.19 
   3  -1  -3    3.14    0.41 
  -3  -1   3    3.74    0.55 
  -3  -1   3    2.76    0.19 
   3   1  -2    1.99    0.23 
  -3   1   2    2.23    0.35 
   3   1  -2    1.89    0.16 
  -3   1   2    1.85    0.36 
  -3   1   2    1.75    0.12 
   3   1  -2    2.43    0.36 
  -3  -1   2    2.41    0.41 
  -3  -1   2    1.56    0.14 
   3  -1  -2    1.83    0.31 
   3  -1  -2    2.34    0.36 
   3  -1  -2    1.67    0.12 
  -3   1   1   41.40    1.45 
   3   1  -1   40.42    1.30 
   3   1  -1   40.41    1.44 
  -3   1   1   42.41    1.48 
  -3  -1   1   39.68    1.47 
   3  -1  -1   40.97    1.45 
   3  -1  -1   41.44    1.26 
  -3  -1   1   38.84    1.27 
   3   1   0    0.58    0.19 
  -3   1   0    0.37    0.17 
  -3   1   0    0.51    0.22 
   3  -1   0    0.38    0.14 
   3  -1   0    0.21    0.20 
  -3  -1   0    0.49    0.20 
  -3  -1   0    0.33    0.20 
  -3  -1   0    0.41    0.15 
  -3  -1   0    0.25    0.14 
   3   1   1  151.02    4.42 
  -3   1  -1  149.76    4.52 
  -3   1  -1  149.76    4.40 
  -3   1  -1  148.38    4.64 
   3   1   1  149.85    4.53 
  -3  -1  -1  145.90    4.39 
   3  -1   1  145.57    4.57 
  -3  -1  -1  150.46    4.52 
   3  -1   1  147.52    4.46 
  -3  -1  -1  145.23    4.49 
   3  -1   1  152.05    4.34 
  -3  -1  -1  148.87    4.48 
  -3   1  -2    7.83    0.60 
  -3   1  -2    8.72    0.56 
  -3   1  -2    8.10    0.50 
   3   1   2    9.15    0.55 
  -3  -1  -2    9.46    0.65 
   3  -1   2    9.76    0.58 
   3  -1   2    9.84    0.46 
  -3  -1  -2    8.57    0.59 
  -3  -1  -2    9.22    0.45 
  -3   1  -3   25.54    1.16 
  -3   1  -3   26.12    1.05 
   3   1   3   26.56    1.16 
  -3   1  -3   25.30    1.26 
   3  -1   3   24.66    1.13 
   3  -1   3   25.55    0.99 
  -3  -1  -3   24.53    0.86 
  -3  -1  -3   25.30    1.25 
  -3  -1  -3   25.13    1.16 
  -3   1  -4    0.02    0.20 
   3   1   4    0.20    0.33 
  -3   1  -4   -0.24    0.26 
  -3   1  -4    0.14    0.30 
  -3  -1  -4   -0.18    0.27 
   3  -1   4   -0.21    0.25 
  -3  -1  -4    0.58    0.38 
   3  -1   4    0.05    0.27 
   3   1   5    1.64    0.50 
   3   1   5    2.33    0.51 
  -3   1  -5    1.32    0.53 
   3  -1   5    1.59    0.45 
  -3  -1  -5    2.90    0.73 
   3  -1   5    1.03    0.45 
  -3  -1  -5    1.01    0.46 
   3   1   6    0.80    0.47 
  -3   1  -6    0.58    0.66 
   3   1   6   -0.01    0.42 
   3  -1   6   -0.37    0.35 
  -3  -1  -6    0.07    0.69 
  -3  -1  -6    0.72    0.48 
   3   1   7   -0.01    0.47 
   3   1   7    0.85    0.57 
  -3   1  -7   -0.19    0.73 
   3  -1   7    0.18    0.46 
  -3  -1  -7    0.56    0.53 
  -3  -1  -7    0.73    0.93 
  -3   2   7   -1.39    0.80 
   3  -2  -7    0.71    0.85 
  -3  -2   7    0.43    0.63 
  -3   2   6   -0.24    0.59 
   3   2  -6   -0.01    0.38 
  -3  -2   6   -0.05    0.47 
   3  -2  -6    0.63    0.71 
  -3   2   5    1.95    0.64 
   3   2  -5    1.34    0.45 
   3  -2  -5    2.29    0.43 
   3  -2  -5    1.62    0.59 
  -3  -2   5    1.89    0.56 
  -3   2   4   34.84    1.62 
   3   2  -4   34.77    1.35 
   3   2  -4   37.38    1.52 
   3  -2  -4   35.50    1.29 
   3  -2  -4   35.69    1.42 
   3  -2  -4   37.29    1.68 
  -3  -2   4   34.20    1.26 
  -3  -2   4   35.91    1.60 
  -3   2   3   45.42    1.84 
  -3   2   3   51.97    1.79 
   3   2  -3   45.97    1.77 
   3   2  -3   47.05    1.55 
   3  -2  -3   49.64    1.86 
  -3  -2   3   44.43    1.50 
  -3  -2   3   44.64    1.79 
   3  -2  -3   44.01    1.49 
   3  -2  -3   47.65    1.69 
  -3   2   2   71.22    2.45 
  -3   2   2   74.48    2.43 
   3   2  -2   70.16    2.39 
   3  -2  -2   68.44    2.17 
   3  -2  -2   73.71    2.48 
  -3  -2   2   70.84    2.20 
  -3  -2   2   70.58    2.44 
  -3   2   1   58.47    1.98 
  -3   2   1   58.76    1.92 
   3   2  -1   54.14    1.91 
   3  -2  -1   52.80    1.98 
  -3  -2   1   58.44    1.82 
   3  -2  -1   56.51    1.79 
  -3  -2   1   56.91    1.98 
  -3   2   0    2.56    0.28 
  -3   2   0    3.00    0.38 
   3   2   0    2.55    0.31 
  -3  -2   0    2.39    0.25 
  -3  -2   0    2.65    0.37 
  -3  -2   0    2.25    0.30 
   3  -2   0    2.75    0.41 
   3  -2   0    2.62    0.31 
   3   2   1   57.69    1.85 
   3   2   1   58.49    2.02 
  -3   2  -1   58.13    2.13 
  -3   2  -1   58.50    1.76 
  -3   2  -1   60.99    2.02 
  -3  -2  -1   59.81    1.96 
  -3  -2  -1   57.01    1.94 
   3  -2   1   55.39    2.03 
   3  -2   1   57.77    1.93 
  -3  -2  -1   56.32    1.97 
   3  -2   1   53.96    1.69 
  -3   2  -2   75.22    2.48 
   3   2   2   73.74    2.22 
   3   2   2   74.30    2.51 
  -3   2  -2   72.71    2.62 
  -3  -2  -2   74.71    2.56 
   3  -2   2   70.98    2.17 
   3  -2   2   74.28    2.61 
   3  -2   2   72.86    2.47 
  -3  -2  -2   74.44    2.51 
  -3   2  -3   50.62    2.03 
   3   2   3   49.32    1.90 
  -3   2  -3   49.53    1.82 
  -3  -2  -3   49.81    2.03 
  -3  -2  -3   50.00    1.94 
   3  -2   3   48.41    1.89 
   3  -2   3   52.18    1.63 
   3   2   4   32.57    1.53 
  -3   2  -4   34.28    1.40 
  -3   2  -4   34.43    1.67 
   3  -2   4   33.55    1.51 
  -3  -2  -4   32.02    1.54 
  -3  -2  -4   34.39    1.72 
   3  -2   4   36.55    1.33 
  -3   2  -5    2.82    0.46 
   3   2   5    1.43    0.53 
  -3   2  -5    2.31    0.65 
  -3  -2  -5    2.16    0.68 
  -3  -2  -5    1.49    0.55 
   3  -2   5    2.78    0.58 
   3   2   6   -0.32    0.44 
  -3   2  -6    0.33    0.59 
   3   2   6   -0.11    0.44 
  -3  -2  -6    0.28    0.74 
   3  -2   6   -0.31    0.35 
  -3  -2  -6   -0.31    0.49 
   3   2   7    0.58    0.54 
   3   2   7    0.53    0.56 
  -3   2  -7    0.62    0.81 
  -3  -2  -7    0.13    0.98 
   3  -2   7    1.54    0.64 
  -3  -2  -7    0.75    0.56 
  -3   3   7   -0.34    0.86 
   3   3  -7   -0.74    0.48 
   3  -3  -7   -0.03    0.85 
  -3  -3   7   -0.34    0.58 
  -3   3   6    1.25    0.79 
   3   3  -6    0.22    0.45 
  -3  -3   6    0.80    0.54 
   3  -3  -6    0.25    0.71 
   3   3  -5    0.78    0.40 
  -3   3   5    0.04    0.45 
   3  -3  -5    0.46    0.60 
  -3  -3   5   -0.52    0.36 
  -3   3   4    2.78    0.58 
   3   3  -4    2.34    0.50 
  -3   3   4    2.73    0.49 
   3  -3  -4    3.10    0.42 
  -3  -3   4    2.74    0.36 
   3  -3  -4    2.75    0.59 
  -3  -3   4    3.53    0.63 
   3  -3  -4    4.03    0.51 
  -3   3   3    4.43    0.54 
   3   3  -3    4.57    0.56 
  -3   3   3    4.44    0.58 
  -3  -3   3    3.37    0.38 
   3  -3  -3    5.22    0.72 
   3  -3  -3    3.57    0.39 
  -3  -3   3    4.95    0.64 
   3   3  -2    6.98    0.53 
  -3   3   2    6.35    0.51 
  -3   3   2    5.97    0.60 
  -3  -3   2    6.30    0.43 
   3  -3  -2    6.08    0.66 
   3  -3  -2    6.47    0.43 
  -3  -3   2    6.56    0.67 
   3   3  -1    8.63    0.56 
  -3   3   1   10.21    0.63 
  -3   3   1   10.25    0.56 
   3  -3  -1   10.86    0.55 
   3  -3  -1    9.71    0.69 
  -3  -3   1    9.42    0.55 
  -3  -3   1    9.46    0.63 
  -3   3   0    0.60    0.18 
   3   3   0    0.69    0.22 
  -3   3   0    1.09    0.28 
   3   3   0    0.56    0.28 
   3  -3   0    0.47    0.26 
   3  -3   0    0.57    0.22 
  -3  -3   0    0.63    0.28 
  -3  -3   0    0.68    0.23 
  -3  -3   0    0.62    0.17 
   3   3   1   27.87    1.02 
  -3   3  -1   28.47    1.20 
   3   3   1   28.30    1.21 
  -3  -3  -1   27.36    1.17 
   3  -3   1   26.92    1.13 
  -3  -3  -1   28.54    1.20 
  -3  -3  -1   26.45    1.11 
   3  -3   1   26.51    1.24 
  -3   3  -2   27.67    1.21 
   3   3   2   27.81    0.94 
   3   3   2   28.00    1.25 
  -3   3  -2   27.19    1.32 
  -3  -3  -2   25.86    1.21 
   3  -3   2   27.30    1.28 
   3  -3   2   25.49    1.16 
  -3  -3  -2   28.72    1.27 
  -3   3  -3   10.54    0.84 
   3   3   3    9.59    0.76 
  -3   3  -3    9.11    0.68 
   3  -3   3    9.77    0.84 
   3  -3   3    9.79    0.71 
  -3  -3  -3    9.09    0.70 
  -3  -3  -3    9.36    0.82 
  -3   3  -4   -0.11    0.38 
   3   3   4    0.39    0.46 
  -3   3  -4    0.08    0.27 
  -3  -3  -4    0.05    0.38 
   3  -3   4    0.24    0.34 
  -3  -3  -4   -0.27    0.32 
  -3   3  -5    0.62    0.54 
   3   3   5   -0.16    0.46 
  -3   3  -5   -0.35    0.29 
  -3  -3  -5   -0.49    0.49 
   3  -3   5    0.17    0.40 
  -3  -3  -5   -0.07    0.42 
   3   3   6    0.06    0.49 
  -3   3  -6    0.09    0.61 
   3  -3   6   -0.31    0.38 
  -3  -3  -6   -0.70    0.47 
  -3  -3  -6   -1.38    0.59 
  -3   4   6    1.35    0.78 
   3   4  -6   -0.32    0.44 
   3  -4  -6    0.97    0.89 
  -3  -4   6    0.46    0.50 
  -3   4   5    4.55    0.85 
   3   4  -5    3.01    0.64 
  -3  -4   5    4.16    0.74 
   3  -4  -5    3.86    0.84 
  -3   4   4    3.06    0.63 
  -3   4   4    3.20    0.57 
   3   4  -4    2.79    0.53 
  -3  -4   4    2.87    0.57 
  -3  -4   4    2.73    0.43 
   3  -4  -4    3.70    0.52 
   3  -4  -4    3.29    0.49 
   3  -4  -4    3.11    0.66 
  -3   4   3   57.59    2.17 
   3   4  -3   54.38    2.13 
  -3   4   3   56.14    2.08 
  -3  -4   3   54.93    1.99 
  -3  -4   3   55.04    2.14 
   3  -4  -3   56.05    2.29 
  -3   4   2   -0.08    0.27 
  -3   4   2    0.32    0.28 
   3   4  -2    0.10    0.25 
   3  -4  -2    0.03    0.23 
  -3  -4   2   -0.15    0.19 
  -3  -4   2   -0.11    0.25 
   3  -4  -2    0.11    0.28 
  -3   4   1   27.38    1.09 
   3   4  -1   26.63    1.15 
  -3   4   1   27.00    1.20 
  -3  -4   1   26.46    1.12 
   3  -4  -1   26.22    1.09 
  -3  -4   1   25.09    1.17 
   3  -4  -1   24.27    1.24 
   3   4   0    9.22    0.58 
  -3   4   0    8.75    0.64 
  -3   4   0    9.14    0.46 
   3   4   0   10.46    0.69 
   3  -4   0    8.34    0.57 
  -3  -4   0   10.59    0.66 
  -3  -4   0    9.06    0.67 
  -3  -4   0    9.17    0.50 
   3  -4   0    8.16    0.68 
   3   4   1   23.05    0.93 
  -3   4  -1   23.06    1.11 
   3   4   1   23.06    1.13 
  -3  -4  -1   24.37    1.05 
  -3  -4  -1   20.53    1.07 
   3  -4   1   22.82    1.06 
   3  -4   1   20.56    1.13 
   3   4   2    0.33    0.34 
  -3   4  -2    0.30    0.27 
   3   4   2    0.21    0.19 
   3  -4   2    0.50    0.28 
   3  -4   2    0.36    0.36 
  -3  -4  -2    0.41    0.32 
  -3  -4  -2    0.29    0.33 
  -3   4  -3   56.30    2.18 
  -3   4  -3   56.82    2.35 
   3   4   3   56.66    2.25 
   3  -4   3   57.94    2.28 
  -3  -4  -3   52.24    2.24 
  -3  -4  -3   53.91    2.16 
   3  -4   3   52.17    2.11 
  -3   4  -4    1.27    0.51 
  -3   4  -4    3.14    0.56 
   3   4   4    2.66    0.66 
  -3  -4  -4    1.75    0.54 
  -3  -4  -4    2.88    0.69 
   3  -4   4    2.74    0.63 
   3  -4   4    3.18    0.63 
  -3   4  -5    3.65    0.66 
   3   4   5    3.50    0.80 
  -3   4  -5    2.41    0.73 
   3  -4   5    2.59    0.72 
   3  -4   5    3.88    0.70 
  -3  -4  -5    4.09    0.97 
  -3  -4  -5    2.56    0.66 
   3   4   6    0.49    0.64 
  -3   4  -6   -0.29    0.64 
   3  -4   6   -0.66    0.66 
  -3  -4  -6   -0.34    0.51 
   3  -4   6    0.85    0.50 
  -3  -4  -6   -0.13    0.74 
  -3   5   6    0.97    0.88 
   3   5  -6   -0.74    0.46 
   3  -5  -6    0.50    0.86 
  -3   5   5    0.46    0.67 
   3   5  -5    0.39    0.52 
   3  -5  -5    0.86    0.68 
  -3  -5   5    0.76    0.49 
   3   5  -4    0.67    0.44 
  -3   5   4    0.84    0.53 
   3  -5  -4    0.23    0.45 
   3  -5  -4    0.70    0.64 
  -3  -5   4   -0.31    0.40 
  -3  -5   4    0.44    0.33 
   3   5  -3    5.35    0.73 
  -3   5   3    3.64    0.62 
  -3   5   3    3.17    0.58 
  -3  -5   3    4.18    0.57 
   3  -5  -3    3.95    0.55 
   3  -5  -3    3.45    0.67 
  -3  -5   3    3.99    0.65 
   3   5  -2    9.11    0.88 
  -3   5   2    7.21    0.77 
  -3   5   2    7.85    0.65 
   3  -5  -2    7.52    0.87 
  -3  -5   2    7.87    0.79 
  -3  -5   2    6.60    0.66 
   3  -5  -2    7.76    0.70 
  -3   5   1    0.84    0.37 
   3   5  -1    1.28    0.40 
  -3   5   1    0.70    0.30 
   3   5  -1    0.61    0.37 
   3  -5  -1    0.59    0.33 
  -3  -5   1    1.31    0.40 
  -3  -5   1    0.22    0.33 
   3  -5  -1    0.16    0.29 
  -3   5   0    0.43    0.32 
   3   5   0    1.00    0.35 
  -3   5   0    0.26    0.33 
   3   5   0    0.71    0.38 
   3  -5   0    0.43    0.30 
  -3  -5   0    0.26    0.29 
  -3  -5   0    0.13    0.22 
   3  -5   0    0.73    0.39 
  -3  -5   0    0.08    0.33 
  -3   5  -1    1.61    0.45 
   3   5   1    1.53    0.35 
   3   5   1    1.68    0.49 
  -3  -5  -1    1.81    0.41 
   3  -5   1    1.68    0.40 
  -3  -5  -1    1.91    0.43 
   3  -5   1    2.10    0.53 
   3   5   2   22.34    1.20 
  -3   5  -2   18.63    1.10 
   3  -5   2   20.58    1.25 
  -3  -5  -2   23.82    1.24 
  -3  -5  -2   20.18    1.17 
   3  -5   2   18.63    1.10 
   3   5   3    2.35    0.66 
  -3   5  -3    1.97    0.49 
  -3  -5  -3    2.12    0.54 
  -3  -5  -3    3.77    0.71 
   3  -5   3    2.96    0.58 
   3  -5   3    2.60    0.64 
   3   5   4    0.22    0.67 
  -3   5  -4   -0.31    0.49 
  -3   5  -4    0.03    0.38 
   3  -5   4    0.26    0.53 
   3  -5   4    0.34    0.43 
  -3  -5  -4   -0.32    0.45 
  -3  -5  -4    0.28    0.54 
  -3   5  -5   -0.48    0.57 
  -3   5  -5    0.46    0.52 
   3   5   5    0.98    0.77 
  -3  -5  -5    0.95    0.60 
  -3  -5  -5    1.54    0.81 
   3  -5   5   -0.12    0.46 
   3  -5   5    1.58    0.74 
  -3   5  -6    0.97    0.58 
   3   5   6    0.19    0.74 
  -3   5  -6   -0.51    0.65 
   3  -5   6    0.71    0.70 
  -3  -5  -6    0.39    0.65 
  -3  -5  -6   -0.30    0.73 
   3  -5   6    0.06    0.54 
   3   6  -5    1.36    0.59 
  -3   6   5    2.59    0.90 
   3  -6  -5    2.61    0.98 
   3   6  -4    0.62    0.53 
  -3   6   4    0.98    0.57 
  -3  -6   4    0.27    0.45 
  -3  -6   4    0.08    0.41 
   3  -6  -4    0.16    0.65 
  -3   6   3   15.13    1.04 
  -3   6   3   13.02    1.00 
   3   6  -3   16.90    1.13 
  -3  -6   3   13.37    0.93 
  -3  -6   3   13.50    0.98 
   3  -6  -3   15.14    1.29 
   3  -6  -3   11.76    0.90 
   3   6  -2   13.07    1.10 
  -3   6   2   10.56    1.02 
  -3   6   2   11.71    0.82 
   3   6  -2   10.75    0.87 
   3  -6  -2    9.98    0.91 
  -3  -6   2   11.27    0.86 
   3  -6  -2    7.23    0.98 
  -3  -6   2   10.93    0.95 
   3   6  -1    1.72    0.47 
  -3   6   1    1.60    0.53 
   3   6  -1    1.30    0.47 
  -3  -6   1    1.36    0.45 
   3  -6  -1    1.57    0.54 
  -3  -6   1    1.51    0.49 
   3  -6  -1    1.12    0.45 
   3   6   0    8.95    0.82 
   3   6   0   10.50    0.83 
  -3   6   0    8.21    0.90 
  -3  -6   0    6.50    0.75 
   3  -6   0    7.89    0.86 
  -3  -6   0    8.76    0.90 
   3  -6   0    9.29    0.85 
   3   6   1    1.53    0.57 
  -3   6  -1    0.82    0.43 
   3   6   1    1.12    0.39 
   3  -6   1    1.16    0.52 
  -3  -6  -1    1.55    0.48 
  -3  -6  -1    1.31    0.43 
   3  -6   1    0.68    0.39 
  -3   6  -2    4.79    0.69 
   3   6   2    6.85    0.90 
  -3  -6  -2    6.12    0.78 
   3  -6   2    5.21    0.80 
   3  -6   2    4.26    0.68 
  -3  -6  -2    3.95    0.67 
  -3   6  -3   15.64    1.11 
   3   6   3   14.36    1.36 
  -3  -6  -3   14.96    1.21 
   3  -6   3   14.31    1.20 
  -3  -6  -3   14.56    1.10 
   3  -6   3   11.98    1.14 
   3   6   4   -0.90    0.66 
  -3   6  -4    1.34    0.57 
   3  -6   4    2.00    0.62 
  -3  -6  -4    1.69    0.77 
   3  -6   4    1.22    0.65 
  -3  -6  -4    1.01    0.61 
  -3   6  -5    1.42    0.61 
   3   6   5    0.29    0.80 
  -3  -6  -5   -0.11    0.80 
   3  -6   5    0.94    0.59 
  -3  -6  -5    0.08    0.60 
   3  -6   5    1.20    0.76 
   3   7  -4    0.09    0.60 
  -3   7   4   -0.40    0.57 
  -3  -7   4    1.03    0.66 
   3  -7  -4    0.18    0.68 
  -3   7   3    1.45    0.58 
   3   7  -3    0.83    0.57 
   3  -7  -3    0.82    0.50 
  -3  -7   3    0.95    0.71 
  -3  -7   3    1.03    0.50 
   3  -7  -3    0.18    0.67 
   3   7  -2    5.20    0.79 
   3   7  -2    5.80    0.86 
  -3   7   2    5.45    0.84 
   3  -7  -2    4.20    0.88 
  -3  -7   2    4.43    0.69 
  -3  -7   2    4.38    0.71 
   3  -7  -2    3.29    0.64 
   3   7  -1    0.37    0.49 
   3   7  -1    0.01    0.45 
  -3   7   1    0.25    0.50 
   3  -7  -1   -0.15    0.41 
   3  -7  -1   -0.23    0.49 
  -3  -7   1    0.61    0.43 
  -3  -7   1    0.00    0.38 
   3   7   0    0.21    0.56 
  -3   7   0   -0.12    0.48 
   3   7   0    0.40    0.45 
   3  -7   0    0.41    0.49 
  -3  -7   0    0.43    0.38 
   3  -7   0    0.42    0.43 
   3   7   1    1.05    0.60 
  -3   7  -1   -0.08    0.49 
   3  -7   1   -0.35    0.45 
  -3  -7  -1    0.40    0.46 
   3  -7   1    0.04    0.42 
  -3   7  -2    7.17    0.95 
   3   7   2   10.87    1.20 
   3  -7   2    6.75    0.91 
  -3  -7  -2    7.53    0.95 
   3  -7   2    6.70    0.88 
   3   7   3   -0.67    0.67 
  -3   7  -3    0.03    0.47 
   3  -7   3    0.34    0.45 
   3  -7   3    0.10    0.55 
  -3  -7  -3    0.13    0.59 
  -3  -7  -3   -0.42    0.39 
  -3   7  -4    1.63    0.67 
   3   7   4    0.54    0.81 
  -3  -7  -4    0.70    0.57 
   3  -7   4    0.57    0.68 
  -3  -7  -4    0.87    0.74 
   3  -7   4    0.22    0.48 
   3   8  -3    0.66    0.66 
   3  -8  -3    0.61    0.57 
  -3  -8   3    1.02    0.61 
   3  -8  -3    1.00    0.75 
   3   8  -2    6.31    0.98 
  -3   8   2    6.48    1.01 
   3  -8  -2    3.48    0.74 
  -3  -8   2    4.69    0.82 
   3  -8  -2    5.55    1.04 
   3   8  -1    1.94    0.73 
  -3   8   1    1.70    0.68 
   3   8  -1    0.88    0.62 
   3  -8  -1    0.20    0.69 
   3  -8  -1    1.27    0.57 
  -3  -8   1    0.88    0.52 
  -3   8   0    1.77    0.72 
   3   8   0    1.87    0.66 
   3   8   0    1.67    0.67 
  -3  -8   0    1.44    0.59 
   3  -8   0    1.34    0.68 
   3  -8   0    0.02    0.52 
   3   8   1    2.57    0.76 
  -3   8  -1    0.69    0.66 
   3  -8   1    0.38    0.54 
   3  -8   1    0.69    0.68 
  -3  -8  -1    0.52    0.50 
  -3   8  -2    3.79    0.84 
   3   8   2    3.24    0.94 
   3  -8   2    3.52    0.77 
  -3  -8  -2    2.22    0.63 
   3  -8   2    4.34    0.86 
  -3   8  -3    0.93    0.66 
   3   8   3    0.00    0.79 
   3  -8   3    0.65    0.53 
   3  -8   3    0.06    0.67 
  -3  -8  -3    0.59    0.63 
  -3   9   0    0.49    0.72 
   3  -9   0   -1.15    0.50 
  -3  -9   0   -0.36    0.47 
  -4   0   7   -0.16    0.64 
  -4   0   6    2.95    0.72 
   4   0  -6    1.42    0.51 
   4   0  -5    0.26    0.44 
   4   0  -5    0.13    0.35 
  -4   0   5    0.01    0.37 
   4   0  -4   18.94    1.04 
  -4   0   4   18.04    1.11 
   4   0  -4   18.76    1.00 
   4   0  -3   -0.17    0.21 
  -4   0   3   -0.25    0.25 
   4   0  -3    0.02    0.25 
  -4   0   2    6.02    0.63 
   4   0  -2    5.45    0.45 
  -4   0   2    7.21    0.65 
   4   0  -2    6.36    0.58 
   4   0  -1   -0.12    0.17 
  -4   0   1   -0.04    0.20 
   4   0  -1   -0.11    0.16 
  -4   0   1   -0.03    0.22 
   4   0  -1   -0.05    0.09 
  -4   0   0   63.91    2.07 
  -4   0   0   65.04    2.20 
  -4   0   0   63.45    2.18 
  -4   0   0   66.93    2.22 
   4   0   0   66.84    2.07 
   4   0   0   63.31    2.17 
   4   0   1   -0.10    0.16 
   4   0   1    0.03    0.18 
  -4   0  -1   -0.35    0.16 
  -4   0  -1   -0.18    0.16 
  -4   0  -1    0.26    0.23 
  -4   0  -1   -0.09    0.17 
   4   0   2   15.82    0.77 
  -4   0  -2   16.02    0.75 
  -4   0  -2   15.47    0.90 
  -4   0  -2   15.90    0.82 
   4   0   2   16.11    0.82 
  -4   0  -3    0.01    0.25 
  -4   0  -3   -0.09    0.24 
   4   0   3   -0.18    0.23 
  -4   0  -3   -0.17    0.18 
   4   0   3   -0.31    0.24 
  -4   0  -4    6.92    0.78 
  -4   0  -4    7.36    0.96 
   4   0   4    8.51    0.77 
   4   0   4    8.11    0.82 
   4   0   5   -0.57    0.34 
  -4   0  -5    0.06    0.48 
   4   0   5    0.12    0.37 
  -4   0  -5    0.13    0.40 
   4   0   6    3.71    0.65 
  -4   0  -6    3.39    0.69 
  -4   0  -6    5.76    1.13 
  -4   1   7    3.03    1.05 
  -4  -1   7    3.19    0.85 
  -4   1   6    3.83    1.03 
   4   1  -6    2.62    0.60 
   4  -1  -6    4.09    0.88 
  -4  -1   6    3.96    0.82 
   4  -1  -6    4.18    0.96 
   4   1  -5   49.53    2.07 
  -4   1   5   56.02    2.38 
   4  -1  -5   53.45    2.10 
   4  -1  -5   58.81    2.35 
  -4  -1   5   52.18    2.34 
   4   1  -4    5.91    0.58 
  -4   1   4    6.07    0.81 
   4   1  -4    6.24    0.66 
  -4  -1   4    4.82    0.72 
   4  -1  -4    6.31    0.66 
   4  -1  -4    7.77    0.81 
  -4   1   3   17.83    1.03 
   4   1  -3   18.75    0.95 
   4   1  -3   18.77    0.83 
  -4   1   3   18.09    0.96 
   4  -1  -3   17.06    0.92 
  -4  -1   3   17.68    1.01 
   4  -1  -3   19.10    1.01 
   4   1  -2    0.88    0.20 
  -4   1   2    1.03    0.31 
   4   1  -2    1.01    0.30 
   4   1  -2    0.58    0.10 
  -4   1   2    0.64    0.30 
   4  -1  -2    0.45    0.26 
  -4  -1   2    1.09    0.34 
   4  -1  -2    0.68    0.28 
  -4  -1   2    0.62    0.09 
   4   1  -1    2.35    0.35 
  -4   1   1    2.59    0.42 
   4   1  -1    2.42    0.27 
  -4   1   1    2.27    0.38 
   4  -1  -1    2.25    0.22 
   4  -1  -1    2.12    0.36 
  -4  -1   1    1.78    0.20 
  -4  -1   1    2.01    0.39 
   4   1   0    6.83    0.46 
  -4   1   0    6.79    0.58 
  -4   1   0    6.45    0.45 
   4   1   0    6.52    0.45 
  -4  -1   0    6.33    0.48 
  -4  -1   0    5.65    0.40 
  -4  -1   0    6.50    0.43 
  -4  -1   0    6.82    0.63 
   4  -1   0    6.61    0.40 
   4  -1   0    6.12    0.57 
  -4   1  -1   53.21    1.97 
   4   1   1   51.45    1.85 
  -4   1  -1   53.97    1.87 
   4   1   1   51.28    1.75 
  -4   1  -1   53.27    1.75 
  -4  -1  -1   49.17    1.74 
   4  -1   1   52.25    1.77 
  -4  -1  -1   51.36    1.80 
  -4  -1  -1   52.88    1.84 
   4  -1   1   49.44    1.89 
  -4  -1  -1   50.58    1.84 
   4   1   2    0.93    0.23 
  -4   1  -2    0.80    0.25 
  -4   1  -2    1.10    0.30 
  -4   1  -2    0.83    0.30 
   4   1   2    1.29    0.35 
   4  -1   2    1.38    0.32 
   4  -1   2    1.38    0.26 
  -4  -1  -2    1.08    0.34 
  -4  -1  -2    0.93    0.23 
  -4  -1  -2    0.81    0.32 
  -4   1  -3    0.97    0.34 
   4   1   3    1.21    0.37 
  -4   1  -3    0.47    0.35 
  -4   1  -3    0.56    0.26 
   4  -1   3    0.31    0.28 
  -4  -1  -3    0.60    0.21 
  -4  -1  -3    0.42    0.32 
   4  -1   3    0.36    0.28 
  -4  -1  -3    0.17    0.29 
   4   1   4    0.60    0.42 
  -4   1  -4    0.75    0.29 
  -4   1  -4    0.53    0.36 
   4   1   4    0.67    0.40 
  -4   1  -4    0.43    0.43 
   4  -1   4    1.50    0.39 
   4  -1   4    0.91    0.40 
  -4  -1  -4    1.21    0.47 
  -4  -1  -4    0.56    0.36 
   4   1   5    3.84    0.65 
   4   1   5    3.30    0.63 
  -4   1  -5    4.29    0.86 
  -4  -1  -5    3.42    0.66 
   4  -1   5    3.49    0.62 
  -4  -1  -5    5.17    0.97 
   4   1   6    0.53    0.49 
   4   1   6   -0.15    0.46 
  -4   1  -6    0.57    0.74 
   4  -1   6    0.19    0.45 
  -4  -1  -6    0.36    0.69 
  -4  -1  -6    0.51    0.50 
  -4   2   7    1.16    0.97 
   4   2  -7    1.06    0.58 
  -4  -2   7    1.46    0.75 
   4  -2  -7    0.61    0.88 
  -4   2   6    2.50    0.88 
   4   2  -6    0.69    0.48 
  -4  -2   6    0.57    0.59 
   4  -2  -6    2.07    0.82 
  -4   2   5   -0.14    0.49 
   4   2  -5    0.88    0.43 
   4  -2  -5    0.61    0.39 
   4  -2  -5    1.49    0.64 
  -4  -2   5    0.74    0.50 
  -4   2   4   10.65    1.07 
   4   2  -4    9.12    0.82 
   4  -2  -4    8.23    0.76 
   4  -2  -4    9.86    0.96 
  -4  -2   4    8.75    0.94 
  -4   2   3    7.65    0.76 
   4   2  -3    7.52    0.72 
   4   2  -3    7.97    0.58 
  -4   2   3    7.01    0.78 
  -4  -2   3    6.77    0.76 
   4  -2  -3    6.53    0.67 
   4  -2  -3    5.33    0.38 
  -4  -2   3    6.38    0.35 
   4  -2  -3    9.16    0.76 
   4   2  -2    0.93    0.28 
  -4   2   2    1.03    0.34 
  -4   2   2    1.00    0.35 
   4  -2  -2    1.14    0.35 
  -4  -2   2    1.02    0.18 
   4  -2  -2    0.83    0.17 
  -4  -2   2    0.85    0.33 
  -4   2   1    0.96    0.31 
   4   2  -1    1.04    0.26 
   4   2  -1    0.78    0.13 
  -4   2   1    0.48    0.25 
  -4  -2   1    0.65    0.19 
  -4  -2   1    0.88    0.31 
   4  -2  -1    0.77    0.18 
   4  -2  -1    0.63    0.29 
   4   2   0   53.69    1.78 
  -4   2   0   52.18    1.89 
  -4   2   0   48.88    1.70 
  -4  -2   0   53.11    1.80 
   4  -2   0   50.57    1.93 
   4  -2   0   56.01    1.78 
  -4  -2   0   48.72    1.89 
  -4  -2   0   50.99    1.72 
   4   2   1    1.95    0.28 
   4   2   1    1.01    0.32 
  -4   2  -1    1.53    0.38 
  -4   2  -1    1.10    0.30 
  -4   2  -1    1.35    0.23 
  -4  -2  -1    1.63    0.38 
  -4  -2  -1    1.24    0.29 
   4  -2   1    1.65    0.32 
   4  -2   1    1.64    0.37 
  -4  -2  -1    1.67    0.33 
  -4   2  -2   12.87    0.74 
  -4   2  -2   11.65    0.82 
   4   2   2   11.82    0.78 
   4   2   2   12.41    0.56 
  -4  -2  -2   14.53    0.81 
  -4  -2  -2   13.03    0.83 
   4  -2   2   12.54    0.52 
   4  -2   2   12.30    0.74 
   4  -2   2   11.75    0.83 
  -4   2  -3    0.87    0.32 
   4   2   3    0.88    0.37 
  -4   2  -3    0.70    0.37 
  -4  -2  -3    0.92    0.38 
  -4  -2  -3    0.86    0.42 
   4  -2   3    0.70    0.28 
   4  -2   3    0.97    0.35 
  -4   2  -4    3.80    0.54 
  -4   2  -4    3.45    0.70 
   4   2   4    3.86    0.67 
   4  -2   4    3.45    0.58 
  -4  -2  -4    3.16    0.56 
  -4  -2  -4    3.57    0.74 
   4   2   5    3.02    0.65 
  -4   2  -5    4.08    0.84 
  -4  -2  -5    4.16    0.88 
  -4  -2  -5    3.62    0.73 
   4  -2   5    4.02    0.66 
  -4   2  -6    2.77    0.88 
   4   2   6    1.59    0.56 
   4   2   6    1.91    0.60 
  -4  -2  -6    1.09    0.78 
  -4  -2  -6    1.24    0.56 
   4  -2   6    2.39    0.66 
  -4   3   6   17.82    1.75 
   4   3  -6   11.41    1.13 
   4  -3  -6   13.63    1.43 
  -4  -3   6   13.19    1.44 
  -4   3   5   10.60    1.29 
   4   3  -5    7.44    0.86 
  -4  -3   5   10.68    1.12 
   4  -3  -5    7.66    0.79 
   4  -3  -5    9.64    1.12 
  -4   3   4   25.45    1.39 
  -4   3   4   24.13    1.26 
   4   3  -4   23.74    1.25 
   4  -3  -4   26.70    1.25 
   4  -3  -4   26.30    1.52 
  -4  -3   4   24.01    1.37 
   4   3  -3    1.78    0.42 
  -4   3   3    2.39    0.50 
  -4   3   3    1.57    0.46 
   4  -3  -3    2.00    0.55 
  -4  -3   3    1.37    0.27 
  -4  -3   3    1.64    0.46 
   4  -3  -3    1.57    0.29 
  -4   3   2    3.97    0.57 
  -4   3   2    3.69    0.54 
   4   3  -2    2.93    0.46 
   4  -3  -2    1.96    0.42 
  -4  -3   2    3.25    0.55 
  -4  -3   2    2.67    0.34 
   4  -3  -2    2.39    0.32 
   4   3  -1    0.43    0.26 
  -4   3   1    0.15    0.24 
  -4   3   1    0.13    0.25 
  -4  -3   1    0.04    0.18 
   4  -3  -1    0.12    0.19 
  -4  -3   1    0.08    0.27 
   4  -3  -1    0.17    0.29 
  -4   3   0   18.23    0.76 
  -4   3   0   18.81    0.97 
   4   3   0   19.14    0.86 
   4  -3   0   19.57    0.91 
  -4  -3   0   22.63    0.99 
  -4  -3   0   21.39    0.83 
   4  -3   0   18.70    1.05 
  -4  -3   0   19.33    1.03 
  -4   3  -1    6.94    0.66 
   4   3   1    9.97    0.53 
   4   3   1    8.48    0.66 
  -4   3  -1    7.84    0.34 
  -4  -3  -1    7.80    0.79 
   4  -3   1    7.35    0.55 
  -4  -3  -1    8.32    0.62 
  -4  -3  -1    8.45    0.59 
   4  -3   1    8.81    0.71 
   4   3   2    4.50    0.35 
  -4   3  -2    3.91    0.54 
  -4   3  -2    5.53    0.73 
   4   3   2    3.33    0.55 
  -4  -3  -2    5.18    0.64 
  -4  -3  -2    5.05    0.62 
   4  -3   2    4.83    0.67 
   4  -3   2    5.45    0.60 
  -4   3  -3    2.46    0.46 
   4   3   3    2.29    0.52 
  -4   3  -3    1.66    0.51 
  -4  -3  -3    1.87    0.56 
   4  -3   3    3.61    0.67 
  -4  -3  -3    1.71    0.48 
   4  -3   3    2.83    0.53 
  -4   3  -4    3.34    0.55 
  -4   3  -4    3.42    0.74 
   4   3   4    2.64    0.63 
   4  -3   4    4.85    0.90 
  -4  -3  -4    3.04    0.69 
  -4  -3  -4    2.95    0.61 
   4  -3   4    2.66    0.56 
   4   3   5    0.47    0.50 
  -4   3  -5    0.45    0.57 
  -4   3  -5    0.62    0.42 
  -4  -3  -5    0.68    0.60 
  -4  -3  -5    0.15    0.50 
   4  -3   5   -0.29    0.40 
  -4   3  -6    2.81    0.91 
   4   3   6    1.62    0.67 
   4  -3   6    2.66    0.71 
  -4  -3  -6    2.56    1.01 
  -4  -3  -6    1.38    0.69 
  -4   4   6    0.44    0.80 
   4   4  -6   -0.45    0.48 
   4  -4  -6   -0.14    0.81 
  -4  -4   6    0.80    0.62 
   4   4  -5    0.32    0.43 
  -4   4   5    0.78    0.68 
   4  -4  -5    0.91    0.80 
  -4  -4   5    1.02    0.55 
  -4   4   4    0.35    0.43 
   4   4  -4   -0.04    0.36 
  -4   4   4    0.78    0.48 
  -4  -4   4    0.94    0.48 
   4  -4  -4    0.83    0.43 
   4  -4  -4    0.52    0.63 
  -4   4   3    8.54    0.85 
  -4   4   3    9.25    0.93 
   4   4  -3    7.84    0.82 
  -4  -4   3    9.32    0.98 
   4  -4  -3    7.06    0.62 
  -4  -4   3    8.38    0.59 
   4  -4  -3    9.09    1.03 
  -4   4   2   -0.02    0.31 
  -4   4   2   -0.17    0.32 
   4   4  -2    0.49    0.34 
   4  -4  -2    0.15    0.26 
  -4  -4   2    0.16    0.25 
   4  -4  -2    0.04    0.34 
  -4  -4   2    0.34    0.36 
  -4   4   1    7.62    0.76 
   4   4  -1    9.71    0.80 
  -4   4   1    7.48    0.57 
  -4  -4   1    7.01    0.63 
   4  -4  -1    7.26    0.83 
   4  -4  -1    7.76    0.55 
  -4  -4   1    8.68    0.70 
  -4   4   0   16.88    0.97 
   4   4   0   18.21    1.02 
   4   4   0   17.26    0.88 
  -4   4   0   16.97    0.71 
   4  -4   0   15.67    1.01 
  -4  -4   0   15.38    0.88 
   4  -4   0   16.77    0.86 
  -4  -4   0   17.20    0.73 
  -4  -4   0   15.68    0.97 
   4   4   1    6.96    0.73 
  -4   4  -1    7.13    0.73 
   4   4   1    6.74    0.52 
  -4  -4  -1    7.44    0.60 
   4  -4   1    7.34    0.70 
  -4  -4  -1    7.89    0.77 
  -4  -4  -1    6.48    0.72 
   4  -4   1    8.06    0.87 
   4   4   2    7.70    0.79 
  -4   4  -2    7.03    0.74 
   4   4   2    8.78    0.91 
  -4  -4  -2    7.52    0.82 
   4  -4   2    8.93    0.84 
  -4  -4  -2    7.79    0.81 
   4  -4   2    8.40    0.93 
   4   4   3    1.99    0.54 
  -4   4  -3    2.28    0.51 
  -4   4  -3    1.93    0.58 
  -4  -4  -3    2.37    0.61 
   4  -4   3    1.47    0.48 
  -4  -4  -3    2.48    0.56 
   4  -4   3    2.14    0.57 
  -4   4  -4    0.15    0.38 
  -4   4  -4    0.41    0.56 
   4   4   4   -0.34    0.50 
   4  -4   4    0.71    0.45 
   4  -4   4    0.17    0.56 
  -4  -4  -4   -0.15    0.52 
  -4  -4  -4    0.62    0.44 
   4   4   5    4.68    0.89 
  -4   4  -5    4.76    0.75 
  -4   4  -5    5.10    0.99 
   4  -4   5    4.76    0.80 
  -4  -4  -5    4.16    0.99 
  -4  -4  -5    3.27    0.78 
   4  -4   5    5.15    1.02 
  -4   4  -6   -0.38    0.68 
   4   4   6    0.05    0.64 
  -4  -4  -6    1.77    0.74 
   4  -4   6    0.12    0.48 
  -4  -4  -6   -0.45    0.80 
   4  -4   6   -0.40    0.75 
   4   5  -5   -0.29    0.45 
  -4   5   5    0.75    0.70 
   4  -5  -5    0.43    0.74 
  -4  -5   5    0.63    0.56 
  -4   5   4   13.99    1.08 
   4   5  -4   13.64    1.03 
  -4   5   4   11.47    1.12 
   4  -5  -4   10.77    1.20 
  -4  -5   4   11.28    1.12 
   4   5  -3    0.79    0.44 
  -4   5   3    1.05    0.51 
  -4   5   3    1.03    0.47 
   4  -5  -3    0.75    0.57 
  -4  -5   3    0.63    0.45 
   4  -5  -3    1.36    0.42 
  -4  -5   3    0.78    0.36 
  -4   5   2   -0.20    0.41 
  -4   5   2    0.59    0.38 
   4   5  -2    0.75    0.42 
   4  -5  -2    0.23    0.31 
   4  -5  -2    0.50    0.43 
  -4  -5   2    0.11    0.38 
  -4  -5   2   -0.30    0.25 
   4   5  -1    2.83    0.54 
  -4   5   1    2.57    0.56 
   4   5  -1    3.10    0.54 
  -4   5   1    3.83    0.50 
  -4  -5   1    2.73    0.57 
   4  -5  -1    3.28    0.49 
  -4  -5   1    3.81    0.55 
   4  -5  -1    2.84    0.59 
   4   5   0    9.13    0.67 
   4   5   0    8.32    0.88 
  -4   5   0    6.29    0.73 
   4  -5   0    7.04    0.69 
  -4  -5   0    6.82    0.74 
   4  -5   0    6.38    0.78 
  -4  -5   0    7.52    0.83 
  -4   5  -1   -0.05    0.33 
   4   5   1    0.09    0.45 
   4   5   1   -0.12    0.28 
  -4  -5  -1    0.18    0.28 
  -4  -5  -1   -0.30    0.31 
   4  -5   1   -0.04    0.27 
   4  -5   1    0.81    0.46 
  -4   5  -2    4.90    0.68 
   4   5   2    3.92    0.72 
   4  -5   2    5.22    0.68 
  -4  -5  -2    5.87    0.74 
  -4  -5  -2    5.19    0.73 
   4  -5   2    4.48    0.75 
  -4   5  -3    3.13    0.65 
   4   5   3    5.42    0.86 
  -4  -5  -3    3.02    0.66 
   4  -5   3    2.53    0.70 
  -4  -5  -3    3.40    0.69 
   4  -5   3    3.01    0.60 
  -4   5  -4    1.32    0.53 
  -4   5  -4    0.09    0.60 
   4   5   4   -0.31    0.58 
  -4  -5  -4    0.99    0.53 
   4  -5   4    0.07    0.61 
  -4  -5  -4    0.69    0.61 
   4  -5   4    0.75    0.53 
  -4   5  -5    1.29    0.63 
   4   5   5    0.63    0.75 
  -4   5  -5    0.71    0.69 
  -4  -5  -5   -0.23    0.54 
  -4  -5  -5    0.35    0.71 
   4  -5   5    0.79    0.56 
   4  -5   5    0.30    0.70 
   4   6  -5    0.13    0.56 
  -4   6   5    1.15    0.82 
   4  -6  -5   -0.58    0.81 
   4   6  -4   -0.01    0.50 
  -4   6   4    1.40    0.61 
   4  -6  -4    0.77    0.77 
  -4  -6   4    0.32    0.51 
   4   6  -3    2.03    0.65 
  -4   6   3    3.69    0.70 
  -4   6   3    1.61    0.62 
  -4  -6   3    2.30    0.52 
   4  -6  -3    2.30    0.81 
  -4  -6   3    2.42    0.65 
   4  -6  -3    2.75    0.84 
   4   6  -2    0.40    0.45 
  -4   6   2   -0.29    0.47 
  -4  -6   2   -0.20    0.40 
   4  -6  -2   -0.11    0.40 
   4  -6  -2    0.43    0.58 
  -4  -6   2   -0.33    0.35 
   4   6  -1    8.90    0.97 
   4   6  -1    9.46    0.93 
  -4   6   1    8.72    1.00 
   4  -6  -1    7.66    0.97 
  -4  -6   1    4.64    0.73 
   4  -6  -1    6.19    0.73 
  -4  -6   1    6.44    0.73 
  -4   6   0    0.70    0.47 
   4   6   0    0.99    0.45 
   4   6   0    0.96    0.53 
   4  -6   0    0.28    0.50 
  -4  -6   0    0.26    0.38 
  -4  -6   0    0.51    0.45 
   4  -6   0    1.08    0.45 
   4   6   1   12.38    1.24 
   4   6   1   12.86    0.87 
  -4   6  -1   10.29    1.12 
   4  -6   1    8.50    1.00 
  -4  -6  -1    6.89    0.83 
   4  -6   1    8.80    0.86 
  -4   6  -2    2.57    0.61 
   4   6   2    4.02    0.79 
  -4  -6  -2    1.22    0.52 
   4  -6   2    2.13    0.67 
   4  -6   2    2.47    0.57 
  -4   6  -3    1.79    0.62 
   4   6   3    2.74    0.83 
   4  -6   3    2.22    0.76 
   4  -6   3    1.70    0.55 
  -4  -6  -3    1.79    0.62 
  -4  -6  -3    2.14    0.68 
  -4   6  -4    0.18    0.51 
   4   6   4   -0.02    0.75 
  -4  -6  -4    0.53    0.66 
   4  -6   4    0.36    0.71 
   4  -6   4    0.10    0.51 
  -4  -6  -4   -0.11    0.48 
   4  -6   5    0.61    0.60 
  -4  -6  -5    1.38    0.75 
   4   7  -4    1.08    0.69 
   4  -7  -4   -0.20    0.75 
   4   7  -3    0.67    0.55 
   4   7  -3    0.53    0.61 
  -4   7   3    0.61    0.69 
   4  -7  -3    0.69    0.77 
  -4  -7   3    0.69    0.54 
  -4  -7   3    1.68    0.58 
   4   7  -2    0.01    0.53 
   4   7  -2    1.11    0.59 
  -4   7   2    0.61    0.60 
   4  -7  -2    0.17    0.62 
   4  -7  -2   -0.20    0.45 
  -4  -7   2    0.29    0.44 
  -4  -7   2    0.19    0.51 
   4   7  -1    2.95    0.68 
   4   7  -1    2.91    0.72 
  -4   7   1    2.39    0.71 
   4  -7  -1    2.21    0.68 
  -4  -7   1    1.66    0.59 
  -4  -7   1    2.43    0.59 
   4  -7  -1    1.66    0.53 
   4   7   0    0.78    0.51 
  -4   7   0    0.61    0.54 
   4   7   0   -0.20    0.58 
   4  -7   0    0.88    0.67 
   4  -7   0    0.38    0.45 
  -4  -7   0   -0.32    0.41 
   4   7   1    2.73    0.84 
  -4   7  -1    2.92    0.79 
  -4  -7  -1    1.22    0.54 
   4  -7   1    2.75    0.77 
   4  -7   1    1.18    0.48 
   4   7   2    4.47    0.92 
  -4   7  -2    3.78    0.79 
   4  -7   2    2.89    0.66 
  -4  -7  -2    2.52    0.69 
   4  -7   2    2.37    0.71 
  -4   7  -3    2.17    0.69 
   4   7   3    1.87    0.84 
  -4  -7  -3    1.03    0.57 
   4  -7   3    1.37    0.65 
   4  -7   3    1.00    0.69 
  -4   7  -4   -0.16    0.54 
   4   7   4   -0.64    0.80 
   4  -7   4    0.62    0.59 
  -4  -7  -4    0.07    0.62 
  -4   8   2    0.38    0.69 
   4   8  -2    0.25    0.58 
   4   8  -2   -0.51    0.63 
   4  -8  -2   -0.09    0.53 
  -4  -8   2    0.58    0.58 
  -4  -8   2    0.26    0.51 
   4  -8  -2   -0.29    0.67 
  -4   8   1    1.50    0.73 
   4   8  -1    2.96    0.79 
   4   8  -1    3.79    0.86 
   4  -8  -1    1.55    0.83 
  -4  -8   1    1.65    0.56 
   4  -8  -1    2.93    0.75 
   4   8   0   -0.01    0.73 
  -4   8   0    0.25    0.63 
   4  -8   0    1.60    0.75 
  -4  -8   0    0.42    0.52 
   4  -8   0    0.40    0.57 
   4   8   1    7.47    1.08 
  -4   8  -1    5.36    0.98 
  -4  -8  -1    4.77    0.85 
   4  -8   1    5.86    0.89 
   4  -8   1    4.82    0.97 
  -4   8  -2    1.13    0.73 
   4   8   2    1.50    0.85 
  -4  -8  -2   -0.40    0.52 
   4  -8   2    0.43    0.55 
   4  -8   2   -0.13    0.63 
  -5   0   6    8.25    1.28 
   5   0  -6    4.39    0.71 
   5   0  -5   -0.14    0.37 
  -5   0   5    0.50    0.54 
   5   0  -4   -0.47    0.30 
  -5   0   4   -0.22    0.39 
   5   0  -4    0.40    0.39 
   5   0  -3   -0.28    0.27 
   5   0  -3   -0.07    0.27 
  -5   0   3   -0.12    0.29 
   5   0  -2    0.21    0.25 
  -5   0   2    0.17    0.28 
   5   0  -2    0.02    0.26 
  -5   0   2    0.02    0.30 
   5   0  -1   -0.02    0.12 
  -5   0   1    0.16    0.26 
   5   0  -1    0.04    0.22 
   5   0  -1   -0.19    0.21 
  -5   0   1    0.14    0.28 
   5   0   0    4.94    0.52 
  -5   0   0    6.67    0.44 
   5   0   0    6.33    0.59 
   5   0   0    5.91    0.42 
  -5   0   0    6.12    0.62 
  -5   0   0    6.62    0.63 
  -5   0  -1    0.07    0.22 
  -5   0  -1    0.06    0.28 
   5   0   1   -0.25    0.23 
   5   0   1   -0.46    0.21 
  -5   0  -1    0.08    0.24 
   5   0   1   -0.17    0.25 
  -5   0  -1    0.14    0.27 
  -5   0  -2    5.76    0.56 
   5   0   2    6.63    0.62 
  -5   0  -2    6.27    0.73 
   5   0   2    6.66    0.67 
  -5   0  -2    6.03    0.62 
  -5   0  -3   -0.11    0.23 
   5   0   3    0.05    0.27 
  -5   0  -3   -0.31    0.23 
   5   0   3    0.16    0.30 
  -5   0  -3    0.07    0.38 
   5   0   4    1.87    0.51 
   5   0   4    2.41    0.57 
  -5   0  -4    1.65    0.60 
  -5   0  -4    1.57    0.48 
   5   0   5   -0.31    0.39 
  -5   0  -5    0.03    0.57 
  -5   0  -5    0.63    0.47 
  -5   0  -6    7.82    1.03 
   5   0   6    7.29    0.97 
  -5   0  -6    9.91    1.40 
   5   1  -6    0.92    0.55 
  -5   1   6    2.01    0.82 
  -5  -1   6    0.84    0.73 
   5  -1  -6    1.22    0.50 
   5   1  -5    2.96    0.58 
  -5   1   5    4.21    0.89 
   5  -1  -5    2.68    0.73 
   5  -1  -5    3.08    0.59 
  -5  -1   5    3.80    0.84 
   5   1  -4    0.42    0.39 
  -5   1   4   -0.01    0.41 
  -5  -1   4   -0.22    0.42 
   5  -1  -4    0.25    0.36 
   5  -1  -4   -0.05    0.42 
   5   1  -3    3.81    0.55 
   5   1  -3    4.15    0.44 
  -5   1   3    5.04    0.69 
  -5   1   3    4.22    0.61 
   5  -1  -3    2.56    0.46 
   5  -1  -3    4.37    0.61 
  -5  -1   3    5.32    0.75 
  -5   1   2    1.47    0.43 
   5   1  -2    1.55    0.30 
   5   1  -2    1.93    0.39 
  -5   1   2    1.10    0.40 
   5  -1  -2    2.29    0.42 
   5  -1  -2    1.28    0.36 
  -5  -1   2    1.67    0.22 
  -5  -1   2    1.96    0.47 
   5   1  -1   25.75    1.01 
  -5   1   1   23.46    1.11 
   5   1  -1   24.12    1.11 
  -5   1   1   24.84    1.18 
  -5  -1   1   23.08    1.14 
  -5  -1   1   24.70    0.90 
   5  -1  -1   24.00    0.87 
   5  -1  -1   23.48    1.13 
  -5   1   0    3.01    0.44 
   5   1   0    2.47    0.40 
  -5   1   0    2.89    0.46 
   5   1   0    3.36    0.41 
  -5  -1   0    3.55    0.53 
  -5  -1   0    3.55    0.49 
   5  -1   0    2.94    0.45 
  -5  -1   0    2.69    0.36 
   5  -1   0    3.58    0.37 
  -5  -1   0    2.56    0.38 
  -5   1  -1   69.58    2.44 
   5   1   1   66.31    2.41 
  -5   1  -1   70.95    2.32 
   5   1   1   71.20    2.33 
  -5   1  -1   67.89    2.54 
  -5  -1  -1   68.78    2.45 
  -5  -1  -1   71.70    2.46 
   5  -1   1   68.72    2.34 
   5  -1   1   66.87    2.50 
  -5  -1  -1   69.88    2.37 
  -5  -1  -1   69.41    2.38 
  -5   1  -2    7.29    0.81 
  -5   1  -2    8.61    0.63 
   5   1   2    8.11    0.64 
  -5   1  -2    7.52    0.70 
   5   1   2    8.73    0.55 
   5  -1   2    7.28    0.54 
  -5  -1  -2    8.59    0.58 
  -5  -1  -2    8.86    0.79 
   5  -1   2    8.73    0.75 
   5  -1   2    9.99    0.84 
  -5  -1  -2    7.96    0.81 
   5   1   3   37.01    1.50 
   5   1   3   34.28    1.27 
  -5   1  -3   34.48    1.44 
  -5   1  -3   32.51    1.51 
  -5   1  -3   31.39    1.65 
  -5  -1  -3   32.84    1.32 
  -5  -1  -3   34.22    1.66 
  -5  -1  -3   35.40    1.55 
   5  -1   3   34.54    1.52 
   5  -1   3   32.06    1.31 
   5   1   4    2.22    0.48 
   5   1   4    2.08    0.52 
  -5   1  -4    2.61    0.66 
  -5   1  -4    2.44    0.55 
  -5   1  -4    2.73    0.55 
   5  -1   4    1.57    0.46 
  -5  -1  -4    2.19    0.51 
  -5  -1  -4    2.56    0.68 
   5   1   5    2.11    0.62 
  -5   1  -5    1.86    0.78 
   5   1   5    2.28    0.58 
   5  -1   5    2.73    0.65 
  -5  -1  -5    1.39    0.54 
  -5  -1  -5    3.08    0.86 
   5   1   6   -0.17    0.50 
  -5   1  -6    0.51    0.85 
  -5  -1  -6    1.11    0.86 
  -5  -1  -6   -0.10    0.49 
   5  -1   6   -0.15    0.41 
   5   2  -6    1.67    0.62 
  -5   2   6    3.45    0.99 
  -5  -2   6    3.31    0.88 
   5  -2  -6    2.70    0.90 
   5   2  -5   -0.32    0.39 
  -5   2   5   -0.21    0.58 
   5  -2  -5    0.34    0.40 
   5  -2  -5    0.38    0.63 
  -5  -2   5    0.38    0.57 
  -5   2   4   -0.28    0.46 
   5   2  -4   -0.03    0.34 
  -5   2   4   -0.11    0.39 
  -5  -2   4   -0.29    0.38 
   5  -2  -4   -0.23    0.35 
   5  -2  -4   -0.13    0.50 
  -5   2   3    0.40    0.41 
   5   2  -3    0.54    0.31 
  -5   2   3    0.33    0.37 
  -5  -2   3    0.48    0.41 
   5  -2  -3   -0.10    0.34 
   5  -2  -3   -0.28    0.25 
  -5   2   2    0.08    0.29 
   5   2  -2    0.41    0.29 
  -5   2   2   -0.06    0.32 
   5  -2  -2    0.13    0.33 
  -5  -2   2    0.08    0.15 
   5  -2  -2    0.01    0.14 
  -5  -2   2    0.15    0.31 
   5   2  -1    0.34    0.28 
  -5   2   1   -0.07    0.26 
   5   2  -1    0.16    0.16 
  -5   2   1    0.26    0.28 
   5  -2  -1    0.00    0.16 
   5  -2  -1    0.31    0.33 
  -5  -2   1    0.07    0.28 
  -5  -2   1    0.25    0.20 
   5   2   0    1.25    0.32 
  -5   2   0    1.38    0.33 
  -5   2   0    1.45    0.40 
   5   2   0    1.33    0.30 
  -5  -2   0    0.90    0.34 
  -5  -2   0    0.97    0.25 
   5  -2   0    0.99    0.38 
  -5  -2   0    1.34    0.31 
   5  -2   0    1.16    0.27 
   5   2   1    7.12    0.52 
  -5   2  -1    7.10    0.49 
  -5   2  -1    6.72    0.69 
   5   2   1    7.83    0.74 
  -5   2  -1    6.88    0.80 
   5  -2   1    7.53    0.56 
   5  -2   1    8.35    0.86 
  -5  -2  -1    8.51    0.64 
  -5  -2  -1    7.43    0.76 
  -5  -2  -1    7.82    0.70 
  -5   2  -2    1.01    0.40 
   5   2   2    0.84    0.38 
  -5   2  -2    0.73    0.34 
   5   2   2    1.41    0.29 
   5  -2   2    0.94    0.26 
   5  -2   2    1.10    0.41 
   5  -2   2    1.21    0.37 
  -5  -2  -2    0.93    0.39 
  -5  -2  -2    0.63    0.32 
  -5   2  -3    1.86    0.53 
   5   2   3    2.58    0.52 
  -5   2  -3    1.75    0.44 
  -5  -2  -3    1.11    0.48 
   5  -2   3    1.68    0.43 
  -5  -2  -3    1.90    0.47 
   5  -2   3    0.78    0.49 
  -5   2  -4    0.60    0.49 
  -5   2  -4    1.04    0.42 
   5   2   4    0.14    0.41 
  -5  -2  -4    0.25    0.47 
   5  -2   4   -0.54    0.32 
  -5  -2  -4    0.37    0.43 
  -5   2  -5    1.25    0.74 
   5   2   5    0.56    0.48 
   5   2   5    0.79    0.55 
  -5  -2  -5    2.06    0.63 
  -5  -2  -5    0.81    0.67 
   5  -2   5    1.11    0.55 
   5   2   6    4.36    0.86 
  -5   2  -6    4.79    1.05 
   5   2   6    4.03    0.79 
   5  -2   6    5.67    0.93 
  -5  -2  -6    7.37    1.25 
  -5  -2  -6    4.14    0.90 
   5   3  -6    3.71    0.80 
  -5   3   6    3.31    1.07 
  -5  -3   6    3.44    0.87 
   5  -3  -6    2.77    0.94 
  -5   3   5    0.52    0.69 
   5   3  -5    0.10    0.43 
   5  -3  -5    0.39    0.44 
   5  -3  -5   -0.41    0.63 
  -5  -3   5    0.05    0.49 
  -5   3   4    0.10    0.46 
   5   3  -4    0.27    0.39 
  -5   3   4   -0.69    0.44 
  -5  -3   4   -0.19    0.45 
   5  -3  -4   -0.42    0.32 
   5  -3  -4    0.89    0.58 
   5   3  -3    0.70    0.41 
  -5   3   3    0.35    0.43 
  -5   3   3    0.33    0.44 
  -5  -3   3    1.05    0.45 
   5  -3  -3    0.85    0.52 
   5  -3  -3    0.50    0.39 
  -5   3   2    7.18    0.78 
  -5   3   2    6.23    0.72 
   5   3  -2    6.89    0.68 
  -5  -3   2    5.99    0.75 
   5  -3  -2    6.44    0.74 
  -5  -3   2    6.95    0.48 
   5  -3  -2    5.74    0.44 
  -5   3   1    7.38    0.69 
  -5   3   1    7.35    0.79 
   5   3  -1    6.83    0.67 
  -5  -3   1    6.13    0.72 
  -5  -3   1    5.93    0.55 
   5  -3  -1    7.00    0.50 
   5  -3  -1    6.70    0.77 
  -5   3   0    9.93    0.57 
   5   3   0    9.41    0.65 
  -5   3   0    9.81    0.76 
   5  -3   0    9.10    0.61 
   5  -3   0   10.05    0.82 
  -5  -3   0   11.53    0.70 
  -5  -3   0    8.67    0.90 
  -5  -3   0   10.24    0.56 
   5   3   1   16.72    0.81 
  -5   3  -1   15.06    0.96 
   5   3   1   15.31    0.97 
   5  -3   1   14.95    0.85 
  -5  -3  -1   16.35    1.01 
  -5  -3  -1   16.81    0.93 
   5  -3   1   14.44    1.01 
  -5  -3  -1   15.72    0.87 
   5   3   2   33.54    1.58 
  -5   3  -2   34.38    1.71 
  -5   3  -2   37.48    1.59 
   5   3   2   32.71    1.26 
  -5  -3  -2   34.58    1.57 
  -5  -3  -2   34.77    1.57 
   5  -3   2   33.01    1.49 
   5  -3   2   33.37    1.65 
  -5   3  -3    4.23    0.80 
   5   3   3    3.80    0.65 
  -5   3  -3    3.94    0.59 
  -5  -3  -3    3.50    0.64 
   5  -3   3    5.18    0.86 
   5  -3   3    2.99    0.58 
  -5  -3  -3    3.57    0.71 
   5   3   4    7.90    0.98 
  -5   3  -4    9.12    0.89 
  -5   3  -4    9.40    1.19 
   5  -3   4   13.02    1.36 
   5  -3   4   11.27    1.10 
  -5  -3  -4   10.02    1.17 
  -5  -3  -4    7.12    0.86 
   5   3   5   -0.33    0.47 
  -5   3  -5    0.82    0.65 
  -5  -3  -5    0.45    0.55 
   5  -3   5    0.05    0.51 
  -5  -3  -5   -0.12    0.69 
   5  -3   5   -0.60    0.60 
   5   3   6    0.90    0.55 
   5   3   6    0.30    0.53 
  -5   3  -6    1.19    0.81 
  -5  -3  -6    1.94    1.02 
  -5  -3  -6    0.38    0.56 
   5  -3   6    1.46    0.85 
   5  -3   6    1.28    0.59 
   5   4  -6    0.38    0.55 
  -5   4   6   -0.13    0.79 
   5  -4  -6    0.47    0.91 
  -5  -4   6    1.07    0.67 
  -5   4   5   -0.14    0.64 
   5   4  -5   -0.28    0.42 
   5  -4  -5   -0.09    0.76 
  -5  -4   5    0.25    0.56 
  -5   4   4    1.09    0.61 
  -5   4   4    0.43    0.53 
   5   4  -4    0.29    0.45 
  -5  -4   4    0.01    0.47 
   5  -4  -4    1.31    0.70 
   5  -4  -4    0.00    0.41 
  -5   4   3   -0.33    0.44 
  -5   4   3    0.24    0.43 
   5   4  -3   -0.07    0.35 
  -5  -4   3    0.10    0.43 
   5  -4  -3    0.19    0.55 
  -5   4   2   -0.21    0.40 
   5   4  -2   -0.18    0.33 
  -5   4   2   -0.45    0.33 
   5  -4  -2   -0.06    0.38 
  -5  -4   2   -0.03    0.25 
   5  -4  -2   -0.45    0.23 
  -5  -4   2   -0.06    0.39 
  -5   4   1    1.13    0.35 
  -5   4   1   -0.24    0.36 
   5   4  -1    0.31    0.35 
   5  -4  -1    0.17    0.44 
  -5  -4   1    0.44    0.29 
   5  -4  -1    0.07    0.26 
  -5  -4   1    0.37    0.40 
   5   4   0    0.03    0.36 
   5   4   0    0.51    0.33 
  -5   4   0    0.55    0.37 
   5  -4   0    0.67    0.46 
  -5  -4   0    0.20    0.36 
   5  -4   0    0.55    0.30 
  -5  -4   0    0.29    0.34 
   5   4   1    6.21    0.59 
   5   4   1    4.88    0.72 
  -5   4  -1    4.97    0.71 
   5  -4   1    6.23    0.68 
   5  -4   1    3.92    0.66 
  -5  -4  -1    5.85    0.71 
  -5  -4  -1    4.33    0.69 
  -5  -4  -1    4.26    0.52 
  -5   4  -2    2.51    0.55 
   5   4   2    2.93    0.67 
   5  -4   2    2.93    0.70 
  -5  -4  -2    2.99    0.60 
   5  -4   2    3.31    0.59 
  -5  -4  -2    3.15    0.58 
  -5   4  -3    1.34    0.62 
  -5   4  -3    1.05    0.46 
   5   4   3    0.85    0.53 
   5  -4   3    1.22    0.59 
   5  -4   3    0.43    0.37 
  -5  -4  -3    1.87    0.56 
  -5  -4  -3    1.10    0.56 
  -5   4  -4    0.04    0.54 
   5   4   4   -0.22    0.54 
  -5   4  -4   -0.06    0.41 
  -5  -4  -4   -0.17    0.46 
   5  -4   4   -0.14    0.54 
  -5  -4  -4   -0.24    0.57 
   5  -4   4   -0.25    0.43 
  -5   4  -5    0.61    0.54 
   5   4   5    1.14    0.70 
  -5   4  -5    1.63    0.81 
  -5  -4  -5    1.52    0.72 
   5  -4   5    1.79    0.81 
  -5  -4  -5    1.04    0.84 
   5  -4   5    1.28    0.63 
   5   5  -5   -0.39    0.49 
  -5   5   5   -0.06    0.70 
  -5  -5   5    0.01    0.61 
   5  -5  -5    0.05    0.75 
   5   5  -4    0.38    0.50 
  -5   5   4    0.49    0.60 
  -5   5   4    0.09    0.60 
   5  -5  -4    0.05    0.64 
  -5  -5   4    1.03    0.60 
   5  -5  -4   -0.15    0.45 
  -5   5   3   -0.24    0.48 
   5   5  -3   -0.27    0.39 
  -5   5   3    0.14    0.50 
  -5  -5   3   -0.34    0.41 
   5  -5  -3    0.10    0.56 
  -5   5   2    6.09    0.76 
  -5   5   2    4.85    0.79 
   5   5  -2    5.59    0.75 
  -5  -5   2    4.61    0.59 
  -5  -5   2    4.36    0.75 
   5  -5  -2    4.82    0.60 
   5  -5  -2    6.02    0.93 
  -5   5   1    1.15    0.53 
   5   5  -1    1.71    0.61 
   5   5  -1    0.76    0.46 
  -5  -5   1    0.48    0.47 
   5  -5  -1    0.79    0.53 
  -5  -5   1    0.59    0.36 
   5  -5  -1    0.64    0.38 
   5   5   0    7.52    0.75 
  -5   5   0    6.89    0.84 
   5   5   0    6.87    0.85 
   5  -5   0    6.33    0.88 
   5  -5   0    7.00    0.74 
  -5  -5   0    5.18    0.81 
  -5  -5   0    6.28    0.72 
   5   5   1    0.30    0.34 
   5   5   1    0.71    0.54 
  -5   5  -1    0.11    0.35 
  -5  -5  -1    0.21    0.48 
  -5  -5  -1    0.78    0.45 
   5  -5   1   -0.21    0.49 
   5  -5   1    0.07    0.33 
  -5   5  -2   19.09    1.24 
   5   5   2   18.77    1.31 
  -5  -5  -2   17.91    1.20 
   5  -5   2   17.36    1.13 
   5  -5   2   20.79    1.43 
   5   5   3    4.45    0.87 
  -5   5  -3    1.87    0.61 
   5  -5   3    3.34    0.87 
   5  -5   3    3.19    0.69 
  -5  -5  -3    3.07    0.75 
  -5  -5  -3    2.86    0.67 
  -5   5  -4    2.75    0.68 
  -5   5  -4    3.44    1.00 
   5   5   4    3.61    0.91 
  -5  -5  -4    3.74    0.87 
  -5  -5  -4    2.80    0.75 
   5  -5   4    3.08    0.90 
   5  -5   4    3.59    0.77 
  -5   5  -5    1.15    0.66 
  -5   5  -5    2.27    0.94 
   5   5   5    1.28    0.88 
  -5  -5  -5    2.84    0.99 
   5  -5   5    1.51    0.64 
   5  -5   5    2.24    0.90 
  -5  -5  -5    1.62    0.72 
   5   6  -4    0.29    0.58 
  -5   6   4    0.28    0.66 
  -5  -6   4    0.99    0.62 
   5  -6  -4    1.45    0.89 
  -5   6   3   -0.80    0.52 
   5   6  -3    0.44    0.56 
   5  -6  -3   -0.65    0.59 
  -5  -6   3    0.53    0.55 
   5   6  -2    1.29    0.57 
  -5   6   2    0.23    0.61 
   5  -6  -2   -0.23    0.39 
   5  -6  -2    0.52    0.58 
  -5  -6   2    0.98    0.43 
  -5  -6   2    0.60    0.54 
   5   6  -1   -0.36    0.54 
   5   6  -1    1.18    0.53 
  -5   6   1    1.03    0.59 
   5  -6  -1    0.78    0.52 
  -5  -6   1    0.95    0.55 
   5  -6  -1    0.37    0.41 
  -5  -6   1    0.27    0.39 
  -5   6   0    0.92    0.56 
   5   6   0    0.51    0.64 
   5   6   0    1.05    0.48 
   5  -6   0    0.49    0.40 
  -5  -6   0    0.65    0.44 
   5  -6   0    0.98    0.63 
  -5  -6   0    0.94    0.55 
  -5   6  -1    0.15    0.46 
   5   6   1    0.64    0.60 
   5  -6   1    0.10    0.40 
   5  -6   1    0.00    0.57 
  -5  -6  -1   -0.07    0.42 
   5   6   2    5.62    1.02 
  -5   6  -2    4.30    0.79 
  -5  -6  -2    4.45    0.80 
   5  -6   2    4.93    0.93 
   5  -6   2    5.49    0.79 
  -5   6  -3   -0.41    0.48 
   5   6   3    0.84    0.69 
   5  -6   3   -0.16    0.60 
  -5  -6  -3   -0.65    0.45 
   5  -6   3    0.12    0.44 
   5   6   4   -0.12    0.74 
  -5   6  -4   -0.22    0.48 
   5  -6   4    0.30    0.69 
  -5  -6  -4    0.57    0.63 
   5  -6   4    0.21    0.61 
  -5   7   3    0.39    0.74 
   5   7  -3    1.43    0.75 
   5  -7  -3    0.39    0.77 
  -5  -7   3    1.05    0.64 
   5   7  -2    1.91    0.72 
   5   7  -2    1.08    0.71 
  -5   7   2    1.52    0.75 
  -5  -7   2    0.60    0.48 
   5  -7  -2    2.24    0.87 
  -5  -7   2    0.90    0.58 
  -5   7   1    0.84    0.64 
   5   7  -1    0.47    0.67 
   5   7  -1   -0.69    0.52 
  -5  -7   1    0.43    0.46 
   5  -7  -1   -0.92    0.58 
  -5  -7   1    0.53    0.57 
   5  -7  -1   -0.04    0.48 
   5   7   0    3.17    0.82 
   5   7   0    3.25    0.74 
  -5   7   0    3.42    0.81 
  -5  -7   0    2.95    0.72 
  -5  -7   0    2.06    0.61 
   5  -7   0    2.37    0.62 
   5  -7   0    4.01    0.95 
   5   7   1   -0.35    0.72 
  -5   7  -1    0.50    0.59 
   5  -7   1    0.28    0.48 
  -5  -7  -1    0.20    0.50 
   5  -7   1    0.82    0.63 
   5   7   2    3.19    0.90 
  -5   7  -2    2.87    0.78 
   5  -7   2    2.48    0.67 
  -5  -7  -2    1.81    0.65 
   5  -7   2    2.31    0.87 
   5   7   3    6.66    1.21 
  -5   7  -3    4.78    0.89 
  -5  -7  -3    4.31    0.88 
   5  -7   3    4.72    1.00 
   5  -7   3    4.37    0.85 
   5   8  -1   -0.81    0.59 
   5   8  -1    0.38    0.76 
  -5   8   1    0.77    0.73 
   5  -8  -1    0.35    0.58 
  -5  -8   1   -0.24    0.51 
  -5  -8   1   -0.26    0.50 
   5  -8  -1   -0.74    0.63 
  -5   8   0    0.82    0.74 
   5   8   0   -0.92    0.82 
   5  -8   0    0.62    0.71 
  -5  -8   0    0.50    0.56 
   5  -8   0   -0.12    0.54 
  -5   8  -1    0.76    0.73 
   5   8   1    0.61    0.84 
  -5  -8  -1   -0.08    0.49 
   5  -8   1    0.18    0.58 
   5  -8   1    0.69    0.74 
  -6   0   6    3.77    1.03 
   6   0  -6    1.29    0.58 
   6   0  -5    0.44    0.43 
  -6   0   5   -0.18    0.61 
   6   0  -4    2.91    0.61 
  -6   0   4    4.23    0.87 
   6   0  -3   -0.20    0.35 
   6   0  -3    0.11    0.34 
  -6   0   3   -0.36    0.35 
  -6   0   2   18.01    1.10 
  -6   0   2   20.08    1.12 
   6   0  -2   19.36    1.08 
   6   0  -2   19.72    1.00 
  -6   0   1    0.00    0.34 
  -6   0   1   -0.31    0.32 
   6   0  -1    0.00    0.31 
   6   0  -1   -0.14    0.16 
   6   0  -1    0.26    0.31 
  -6   0   0  127.69    3.97 
   6   0   0  129.08    4.15 
  -6   0   0  130.58    4.17 
  -6   0   0  123.43    4.18 
   6   0   0  125.07    4.14 
   6   0   0  130.86    3.96 
   6   0   1   -0.16    0.30 
   6   0   1   -0.11    0.34 
  -6   0  -1   -0.36    0.29 
  -6   0  -1   -0.17    0.28 
  -6   0  -1   -0.36    0.21 
   6   0   1    0.18    0.28 
  -6   0  -1   -0.07    0.35 
   6   0   2   14.53    1.12 
  -6   0  -2   15.82    0.93 
  -6   0  -2   17.05    1.14 
   6   0   2   16.69    0.96 
   6   0   2   15.63    0.91 
  -6   0  -2   15.35    0.93 
   6   0   3   -0.13    0.37 
  -6   0  -3   -0.11    0.44 
   6   0   3    0.23    0.33 
  -6   0  -3   -0.02    0.35 
  -6   0  -3    0.02    0.30 
  -6   0  -4   -0.59    0.51 
  -6   0  -4    0.13    0.36 
   6   0   4   -0.14    0.42 
  -6   0  -5    0.63    0.50 
  -6   0  -5   -0.71    0.70 
   6   0   5    0.10    0.53 
  -6   0  -6    1.89    0.73 
   6   0   6    1.28    0.67 
   6   1  -6    0.38    0.56 
  -6   1   6    1.13    0.81 
   6  -1  -6    0.08    0.49 
  -6  -1   6   -0.23    0.80 
   6   1  -5    0.37    0.44 
  -6   1   5    0.50    0.69 
  -6  -1   5    0.57    0.69 
   6  -1  -5    0.17    0.45 
  -6   1   4   -0.28    0.47 
   6   1  -4   -0.11    0.38 
  -6  -1   4   -0.39    0.50 
   6  -1  -4    0.17    0.41 
   6  -1  -4   -0.47    0.48 
  -6   1   3    1.29    0.54 
   6   1  -3    0.82    0.42 
  -6   1   3    1.83    0.55 
   6  -1  -3    2.08    0.55 
   6  -1  -3    1.30    0.47 
  -6  -1   3    1.74    0.55 
  -6   1   2    0.73    0.44 
   6   1  -2    0.78    0.43 
   6   1  -2    0.79    0.38 
  -6   1   2    0.37    0.39 
  -6  -1   2    0.74    0.41 
   6  -1  -2    1.01    0.40 
   6  -1  -2    0.87    0.39 
   6   1  -1   18.53    0.77 
  -6   1   1   16.75    1.04 
   6   1  -1   19.46    1.02 
  -6   1   1   16.99    0.99 
   6   1  -1   16.65    0.87 
  -6  -1   1   15.85    1.01 
  -6  -1   1   16.76    0.73 
   6  -1  -1   17.08    1.01 
   6  -1  -1   15.92    0.70 
   6  -1  -1   15.36    0.96 
  -6   1   0    0.78    0.38 
   6   1   0    0.67    0.35 
  -6   1   0    0.83    0.43 
   6   1   0    1.19    0.38 
  -6  -1   0    0.80    0.29 
   6  -1   0    0.43    0.27 
  -6  -1   0    1.83    0.49 
   6  -1   0    0.93    0.42 
  -6  -1   0    0.70    0.33 
  -6  -1   0    0.70    0.38 
   6   1   1    0.14    0.32 
  -6   1  -1   -0.10    0.37 
  -6   1  -1   -0.03    0.31 
  -6   1  -1   -0.10    0.33 
   6   1   1   -0.07    0.28 
   6   1   1    0.27    0.38 
  -6  -1  -1    0.32    0.43 
  -6  -1  -1    0.20    0.28 
   6  -1   1   -0.06    0.24 
   6  -1   1    0.09    0.39 
  -6  -1  -1   -0.14    0.29 
  -6  -1  -1    0.16    0.31 
  -6   1  -2    0.11    0.38 
   6   1   2   -0.11    0.28 
   6   1   2    0.02    0.35 
   6   1   2    0.15    0.32 
  -6   1  -2    0.30    0.35 
   6  -1   2    0.01    0.29 
  -6  -1  -2    0.08    0.31 
   6  -1   2   -0.14    0.43 
  -6  -1  -2   -0.13    0.35 
  -6  -1  -2   -0.11    0.30 
   6  -1   2    0.40    0.34 
  -6  -1  -2    0.09    0.38 
   6   1   3    2.19    0.49 
  -6   1  -3    2.49    0.52 
   6   1   3    2.91    0.56 
  -6   1  -3    3.04    0.71 
   6  -1   3    1.45    0.49 
   6  -1   3    2.15    0.70 
  -6  -1  -3    2.19    0.58 
  -6  -1  -3    1.39    0.44 
   6   1   4   -0.18    0.40 
   6   1   4    0.68    0.47 
  -6   1  -4    0.19    0.50 
   6  -1   4    0.46    0.43 
  -6  -1  -4    0.87    0.56 
  -6  -1  -4    0.18    0.40 
   6   1   5    9.24    1.06 
  -6   1  -5   13.00    1.51 
  -6  -1  -5   12.83    1.44 
   6  -1   5    9.40    1.08 
  -6  -1  -5   10.61    1.10 
  -6   2   6    2.77    0.92 
   6   2  -6    0.30    0.52 
  -6  -2   6    0.69    0.79 
  -6   2   5    3.20    0.88 
   6   2  -5    2.90    0.67 
   6  -2  -5    2.17    0.79 
   6  -2  -5    1.36    0.53 
  -6  -2   5    2.82    0.83 
  -6   2   4    1.35    0.66 
   6   2  -4    0.52    0.40 
  -6   2   4    0.59    0.54 
   6  -2  -4    0.15    0.42 
   6  -2  -4    0.59    0.62 
  -6  -2   4    1.13    0.59 
  -6   2   3    2.06    0.61 
   6   2  -3    3.04    0.58 
  -6   2   3    3.64    0.73 
   6  -2  -3    2.32    0.53 
   6  -2  -3    3.23    0.69 
  -6  -2   3    2.69    0.64 
   6   2  -2    7.89    0.79 
  -6   2   2    6.64    0.83 
  -6   2   2    7.46    0.82 
   6  -2  -2    7.81    0.86 
  -6  -2   2    8.87    0.95 
   6  -2  -2    6.53    0.79 
  -6   2   1   20.49    1.04 
   6   2  -1   18.41    1.02 
  -6   2   1   18.37    1.11 
   6  -2  -1   19.09    0.86 
  -6  -2   1   20.50    0.91 
   6  -2  -1   21.66    1.18 
  -6  -2   1   20.60    1.20 
   6   2   0   56.63    2.07 
  -6   2   0   54.17    2.19 
   6   2   0   56.66    1.99 
  -6   2   0   55.02    2.02 
   6  -2   0   54.15    1.91 
   6  -2   0   53.05    2.19 
  -6  -2   0   56.85    2.19 
  -6  -2   0   54.25    1.97 
  -6  -2   0   52.45    1.93 
   6   2   1   28.08    1.21 
  -6   2  -1   28.05    1.16 
  -6   2  -1   25.04    1.33 
   6   2   1   26.98    1.35 
  -6  -2  -1   27.47    1.40 
   6  -2   1   31.12    1.55 
   6  -2   1   26.09    1.23 
  -6  -2  -1   30.08    1.33 
  -6  -2  -1   27.51    1.31 
   6   2   2    3.57    0.60 
  -6   2  -2    4.18    0.76 
  -6   2  -2    4.39    0.65 
   6   2   2    6.07    0.57 
  -6  -2  -2    4.44    0.68 
  -6  -2  -2    4.43    0.64 
   6  -2   2    5.15    0.66 
   6  -2   2    5.89    0.85 
  -6   2  -3    0.44    0.44 
   6   2   3    1.19    0.49 
  -6   2  -3    1.96    0.65 
   6  -2   3    1.20    0.45 
  -6  -2  -3    1.53    0.56 
   6  -2   3   -0.07    0.53 
  -6  -2  -3    1.22    0.49 
  -6   2  -4    0.15    0.42 
   6   2   4    0.35    0.47 
  -6   2  -4    0.20    0.54 
  -6  -2  -4   -0.14    0.44 
   6  -2   4   -0.47    0.56 
  -6  -2  -4    0.20    0.55 
   6  -2   4    0.44    0.48 
   6   2   5    0.88    0.60 
   6   2   5    0.05    0.53 
  -6   2  -5   -0.02    0.69 
  -6  -2  -5    0.19    0.73 
   6  -2   5    0.47    0.84 
   6  -2   5    0.95    0.54 
  -6  -2  -5    0.08    0.51 
  -6   3   5    0.44    0.65 
   6   3  -5    0.59    0.53 
   6  -3  -5    0.68    0.79 
   6  -3  -5    0.19    0.48 
  -6  -3   5    0.33    0.62 
  -6   3   4    0.45    0.54 
  -6   3   4    0.29    0.54 
   6   3  -4    0.06    0.42 
   6  -3  -4    0.84    0.50 
  -6  -3   4    0.44    0.57 
   6  -3  -4    0.04    0.65 
   6   3  -3    0.74    0.44 
  -6   3   3    0.03    0.49 
  -6   3   3    1.02    0.51 
   6  -3  -3    0.57    0.42 
  -6  -3   3    1.16    0.57 
   6  -3  -3    0.66    0.61 
  -6   3   2    5.40    0.80 
   6   3  -2    4.59    0.65 
  -6   3   2    3.63    0.64 
  -6  -3   2    3.09    0.68 
   6  -3  -2    5.05    0.73 
   6   3  -1    4.92    0.62 
  -6   3   1    4.07    0.68 
  -6   3   1    4.38    0.60 
   6  -3  -1    3.90    0.44 
   6  -3  -1    4.26    0.69 
  -6  -3   1    5.02    0.53 
  -6  -3   1    4.14    0.73 
   6   3   0    3.64    0.53 
  -6   3   0    2.01    0.55 
   6  -3   0    2.81    0.66 
   6  -3   0    3.23    0.47 
  -6  -3   0    1.97    0.57 
  -6  -3   0    2.57    0.47 
   6   3   1   -0.08    0.38 
  -6   3  -1    0.09    0.40 
   6   3   1    0.89    0.34 
  -6  -3  -1    0.62    0.39 
  -6  -3  -1    0.43    0.44 
  -6  -3  -1    0.67    0.35 
   6  -3   1    0.39    0.44 
   6  -3   1    1.34    0.39 
  -6   3  -2    0.33    0.39 
   6   3   2    0.24    0.47 
  -6   3  -2   -0.50    0.43 
   6  -3   2   -0.16    0.49 
   6  -3   2    0.35    0.38 
  -6  -3  -2    0.11    0.39 
  -6  -3  -2    0.02    0.38 
  -6   3  -3    0.88    0.64 
   6   3   3    0.38    0.45 
  -6   3  -3    0.81    0.47 
   6  -3   3    1.00    0.63 
  -6  -3  -3    0.52    0.51 
   6  -3   3    0.78    0.49 
  -6  -3  -3    1.06    0.56 
  -6   3  -4    3.58    0.70 
   6   3   4    2.15    0.64 
  -6   3  -4    2.21    0.79 
   6  -3   4    3.79    0.89 
  -6  -3  -4    3.82    0.85 
  -6  -3  -4    2.51    0.70 
   6  -3   4    3.97    0.77 
   6   3   5    3.04    0.80 
  -6   3  -5    4.61    1.01 
  -6  -3  -5    6.38    1.16 
   6  -3   5    5.05    1.05 
  -6  -3  -5    5.63    0.97 
   6  -3   5    5.98    0.96 
  -6   4   5    2.83    0.84 
   6   4  -5    2.28    0.66 
  -6   4   5    2.86    0.93 
  -6  -4   5    2.82    0.81 
   6  -4  -5    3.35    0.91 
   6  -4  -5    3.89    1.05 
  -6   4   4    0.11    0.58 
  -6   4   4    0.61    0.63 
   6   4  -4    0.78    0.53 
  -6  -4   4    0.31    0.65 
   6  -4  -4    1.09    0.80 
   6  -4  -4    0.77    0.50 
   6   4  -3    1.56    0.56 
  -6   4   3    1.92    0.69 
  -6   4   3    3.13    0.66 
  -6  -4   3    2.26    0.77 
   6  -4  -3    2.52    0.74 
  -6   4   2    0.12    0.38 
  -6   4   2   -0.10    0.48 
   6   4  -2   -0.12    0.41 
   6  -4  -2    0.26    0.48 
  -6  -4   2    0.19    0.49 
  -6   4   1   21.47    1.33 
   6   4  -1   23.86    1.24 
  -6  -4   1   23.50    1.37 
   6  -4  -1   21.20    1.05 
  -6  -4   1   21.50    1.12 
   6  -4  -1   24.70    1.43 
   6   4   0    2.30    0.51 
  -6   4   0    1.41    0.52 
   6   4   0    2.59    0.63 
  -6  -4   0    1.86    0.47 
  -6  -4   0    1.42    0.58 
   6  -4   0    1.56    0.42 
   6  -4   0    2.26    0.69 
  -6   4  -1   28.93    1.56 
   6   4   1   29.34    1.30 
   6   4   1   31.18    1.60 
   6  -4   1   29.19    1.66 
  -6  -4  -1   29.53    1.45 
   6  -4   1   26.05    1.34 
  -6  -4  -1   29.44    1.56 
  -6   4  -2    0.61    0.49 
   6   4   2   -0.38    0.53 
   6  -4   2   -0.20    0.38 
   6  -4   2    0.92    0.63 
  -6  -4  -2    0.29    0.46 
   6   4   3    0.38    0.52 
  -6   4  -3    0.56    0.47 
  -6   4  -3    0.82    0.70 
  -6  -4  -3    1.13    0.51 
   6  -4   3    1.70    0.74 
  -6  -4  -3    0.12    0.53 
   6  -4   3    0.12    0.43 
   6   4   4    0.71    0.63 
  -6   4  -4    0.44    0.53 
  -6   4  -4    1.45    0.73 
  -6  -4  -4    0.67    0.67 
  -6  -4  -4    0.25    0.57 
   6  -4   4    1.20    0.72 
   6  -4   4    1.05    0.60 
   6   4   5   -0.79    0.62 
  -6   4  -5    0.47    0.79 
  -6  -4  -5    0.74    0.65 
   6  -4   5    0.72    0.64 
   6  -4   5   -0.22    0.70 
  -6  -4  -5   -0.31    0.72 
   6   5  -4    0.41    0.61 
  -6   5   4    0.73    0.70 
  -6   5   4   -0.10    0.65 
  -6  -5   4    0.12    0.58 
   6  -5  -4    0.48    0.81 
   6  -5  -4   -0.48    0.46 
  -6   5   3    0.14    0.63 
   6   5  -3   -0.44    0.48 
  -6   5   3   -0.50    0.63 
   6  -5  -3   -1.18    0.62 
  -6  -5   3   -0.15    0.50 
   6   5  -2    4.11    0.75 
  -6   5   2    3.76    0.81 
  -6  -5   2    4.11    0.80 
   6  -5  -2    2.60    0.77 
   6   5  -1    0.15    0.48 
   6   5  -1   -0.48    0.56 
  -6   5   1   -0.21    0.54 
   6  -5  -1    0.28    0.54 
   6  -5  -1    0.16    0.37 
  -6  -5   1    0.42    0.59 
  -6  -5   1    0.62    0.40 
  -6   5   0    0.76    0.55 
   6   5   0    1.93    0.53 
   6   5   0    1.28    0.63 
  -6  -5   0    1.37    0.65 
   6  -5   0    1.63    0.46 
   6  -5   0    1.70    0.69 
  -6  -5   0    1.74    0.52 
   6   5   1    1.27    0.65 
  -6   5  -1    0.58    0.50 
   6  -5   1    0.57    0.53 
  -6  -5  -1    0.48    0.61 
  -6  -5  -1    0.53    0.43 
   6  -5   1    0.38    0.41 
   6   5   2   -0.52    0.61 
  -6   5  -2    0.53    0.49 
  -6  -5  -2    0.25    0.50 
   6  -5   2   -0.37    0.44 
   6  -5   2    0.56    0.67 
  -6   5  -3    0.23    0.54 
   6   5   3    0.65    0.69 
   6  -5   3    0.18    0.50 
  -6  -5  -3   -0.40    0.43 
   6  -5   3    0.89    0.75 
  -6   5  -4    4.56    0.86 
   6   5   4    3.20    0.90 
  -6  -5  -4    3.91    0.88 
  -6  -5  -4    6.44    1.48 
   6  -5   4    4.59    0.90 
   6  -5   4    4.33    1.00 
  -6   6   4    2.91    1.09 
   6   6  -4    1.67    0.75 
   6  -6  -4    2.39    1.01 
   6  -6  -4    1.50    0.97 
   6   6  -3    0.25    0.61 
  -6   6   3   -1.02    0.60 
   6  -6  -3    0.30    0.77 
  -6  -6   3    0.46    0.58 
   6   6  -2    0.90    0.58 
  -6   6   2    0.22    0.68 
   6  -6  -2    1.66    0.76 
  -6  -6   2    0.36    0.58 
   6   6  -1    7.64    0.91 
  -6   6   1    5.61    0.97 
   6   6  -1    9.02    1.20 
  -6  -6   1    4.79    0.89 
   6  -6  -1    7.02    1.06 
   6  -6  -1    4.20    0.83 
  -6  -6   1    5.69    0.77 
   6   6   0    2.50    0.81 
   6   6   0    3.87    0.66 
  -6   6   0    2.94    0.77 
   6  -6   0    3.37    0.81 
  -6  -6   0    2.05    0.67 
   6  -6   0    2.66    0.63 
  -6  -6   0    3.11    0.67 
  -6   6  -1    5.80    0.91 
   6   6   1    7.18    1.14 
   6  -6   1    6.03    1.07 
   6  -6   1    5.68    0.79 
  -6  -6  -1    4.89    0.81 
  -6   6  -2    3.49    0.75 
   6   6   2    3.11    0.94 
   6  -6   2    2.38    0.79 
  -6  -6  -2    2.08    0.67 
   6  -6   2    1.54    0.59 
  -6   6  -3    0.74    0.62 
   6   6   3    0.76    0.78 
  -6  -6  -3    0.22    0.58 
   6  -6   3    0.53    0.56 
   6  -6   3    1.10    0.80 
   6   7  -2    1.06    0.81 
  -6   7   2    0.65    0.83 
   6   7  -2    0.80    0.69 
   6  -7  -2    0.73    0.80 
  -6  -7   2    0.59    0.63 
   6   7  -1    0.50    0.61 
   6   7  -1    1.54    0.82 
  -6   7   1    0.56    0.74 
  -6  -7   1    0.98    0.67 
  -6  -7   1    1.35    0.57 
   6  -7  -1    0.25    0.67 
  -6   7   0   -0.48    0.62 
   6   7   0    1.35    0.81 
   6  -7   0    0.06    0.50 
  -6  -7   0   -0.28    0.47 
  -6  -7   0    0.35    0.63 
   6  -7   0    0.01    0.67 
   6   7   1   -0.85    0.79 
  -6   7  -1    0.16    0.68 
  -6  -7  -1    1.01    0.60 
   6  -7   1    0.40    0.55 
   6  -7   1   -0.45    0.67 
  -6   7  -2   -0.27    0.63 
   6   7   2    0.01    0.78 
   6  -7   2   -0.45    0.73 
   6  -7   2   -0.05    0.55 
  -6  -7  -2    0.01    0.56 
  -7   0   5    0.01    0.77 
   7   0  -5    0.06    0.48 
  -7   0   4    5.80    1.07 
   7   0  -4    4.42    0.77 
  -7   0   3    0.59    0.58 
   7   0  -3    0.00    0.42 
   7   0  -2    3.38    0.57 
  -7   0   2    3.05    0.65 
  -7   0   2    2.16    0.56 
   7   0  -2    2.68    0.57 
  -7   0   1   -0.35    0.34 
   7   0  -1    0.70    0.43 
  -7   0   1    0.35    0.45 
   7   0  -1    0.04    0.38 
   7   0   0    1.75    0.36 
   7   0   0    1.20    0.42 
  -7   0   0    1.95    0.54 
   7   0   0    2.14    0.53 
  -7   0   0    0.86    0.52 
   7   0   1    0.04    0.42 
  -7   0  -1    0.95    0.49 
  -7   0  -1   -0.35    0.38 
  -7   0  -1   -0.10    0.38 
   7   0   1    0.02    0.37 
   7   0   1   -0.45    0.38 
  -7   0  -1   -0.41    0.29 
   7   0   1   -0.16    0.32 
  -7   0  -2    8.46    0.87 
   7   0   2    9.73    0.89 
   7   0   2   12.42    1.25 
  -7   0  -2   10.14    1.07 
  -7   0  -2   11.08    0.96 
  -7   0  -2   11.33    0.86 
   7   0   2    7.15    0.77 
   7   0   2    9.37    0.91 
  -7   0  -3    0.07    0.40 
  -7   0  -3    0.00    0.52 
   7   0   3   -0.13    0.68 
   7   0   3   -0.18    0.42 
  -7   0  -4    8.66    1.00 
  -7   0  -4    9.83    1.24 
   7   0   4    8.07    0.96 
  -7   0  -5    0.07    0.47 
   7   0   5    0.83    0.58 
  -7   0  -5    0.10    0.81 
  -7   1   5   -1.12    0.65 
   7   1  -5   -0.06    0.46 
   7  -1  -5   -0.86    0.44 
  -7  -1   5   -0.11    0.75 
  -7   1   4    0.58    0.64 
   7   1  -4    0.65    0.50 
   7  -1  -4    0.18    0.45 
  -7  -1   4    0.73    0.66 
  -7   1   3   14.35    1.15 
  -7   1   3   11.35    1.09 
   7   1  -3    8.92    0.92 
   7  -1  -3   14.01    1.08 
   7  -1  -3    9.08    0.96 
  -7  -1   3   14.64    1.16 
  -7   1   2    3.09    0.66 
   7   1  -2    3.56    0.64 
  -7   1   2    2.50    0.63 
   7  -1  -2    1.79    0.52 
   7  -1  -2    3.85    0.64 
  -7  -1   2    2.92    0.66 
   7   1  -1   25.27    1.28 
  -7   1   1   24.23    1.36 
  -7   1   1   22.76    1.27 
   7  -1  -1   21.72    1.26 
  -7  -1   1   23.41    1.35 
   7  -1  -1   24.41    1.33 
   7   1   0    0.29    0.39 
  -7   1   0   -0.17    0.39 
   7   1   0    0.33    0.38 
  -7   1   0    0.32    0.43 
   7   1   0    0.35    0.31 
   7  -1   0    0.34    0.45 
  -7  -1   0    0.31    0.30 
  -7  -1   0    0.33    0.41 
   7  -1   0    0.26    0.40 
  -7  -1   0    0.09    0.45 
   7  -1   0   -0.09    0.26 
   7   1   1    0.68    0.40 
   7   1   1    0.45    0.41 
   7   1   1    0.90    0.49 
  -7   1  -1    1.13    0.46 
   7   1   1    0.83    0.39 
  -7   1  -1    0.45    0.46 
   7  -1   1    0.99    0.39 
   7  -1   1    1.75    0.59 
  -7  -1  -1    1.15    0.41 
  -7  -1  -1    0.62    0.44 
  -7  -1  -1    0.73    0.43 
   7  -1   1    0.77    0.39 
  -7  -1  -1    1.49    0.58 
   7   1   2    0.58    0.40 
  -7   1  -2   -0.08    0.43 
   7   1   2    0.18    0.41 
   7   1   2    0.64    0.42 
   7   1   2   -0.36    0.51 
  -7   1  -2    0.62    0.57 
  -7  -1  -2    0.41    0.38 
  -7  -1  -2    0.24    0.48 
   7  -1   2    0.23    0.52 
  -7  -1  -2    0.88    0.50 
   7  -1   2    0.16    0.37 
  -7  -1  -2    0.13    0.38 
   7   1   3    2.64    0.66 
  -7   1  -3    2.18    0.71 
  -7   1  -3    2.22    0.57 
   7   1   3    1.85    0.52 
   7  -1   3    2.95    0.61 
  -7  -1  -3    2.43    0.61 
   7  -1   3    2.80    0.83 
  -7  -1  -3    2.32    0.71 
   7   1   4   -0.07    0.79 
  -7   1  -4    0.66    0.69 
   7   1   4    1.31    0.58 
   7  -1   4   -0.27    0.49 
  -7  -1  -4    0.09    0.56 
   7  -1   4   -0.01    0.78 
  -7  -1  -4    0.20    0.45 
  -7   1  -5    1.12    0.85 
   7   1   5    1.08    0.60 
  -7  -1  -5    0.37    0.75 
  -7  -1  -5    0.56    0.50 
   7  -1   5    0.19    0.60 
  -7   2   5    0.12    0.76 
   7   2  -5    0.46    0.51 
  -7  -2   5    0.35    0.74 
   7  -2  -5   -0.02    0.47 
  -7   2   4    5.26    0.96 
  -7   2   4    2.64    0.72 
   7   2  -4    2.53    0.60 
  -7  -2   4    3.18    0.82 
   7  -2  -4    2.79    0.66 
   7  -2  -4    5.15    0.93 
   7   2  -3    1.24    0.51 
  -7   2   3    1.89    0.66 
  -7   2   3    2.05    0.67 
  -7  -2   3    0.89    0.58 
   7  -2  -3    1.04    0.70 
   7  -2  -3    1.02    0.49 
  -7   2   2    1.94    0.65 
  -7   2   2    2.38    0.59 
   7   2  -2    2.39    0.55 
   7  -2  -2    3.63    0.67 
  -7  -2   2    1.63    0.66 
   7  -2  -2    1.45    0.51 
  -7   2   1    0.01    0.40 
   7   2  -1    0.50    0.43 
  -7   2   1    0.70    0.48 
   7  -2  -1    1.09    0.58 
  -7  -2   1    1.25    0.55 
   7   2   0    0.37    0.39 
  -7   2   0    0.60    0.49 
  -7   2   0    0.49    0.44 
   7  -2   0    0.46    0.52 
  -7  -2   0   -0.57    0.42 
  -7  -2   0    0.01    0.31 
   7  -2   0    0.49    0.30 
  -7   2  -1    0.12    0.41 
   7   2   1    0.24    0.36 
   7   2   1    0.14    0.43 
   7   2   1   -0.06    0.43 
  -7  -2  -1    0.30    0.55 
   7  -2   1    0.54    0.35 
  -7  -2  -1    0.13    0.33 
   7  -2   1    0.74    0.60 
  -7  -2  -1    0.31    0.36 
  -7   2  -2    5.26    0.86 
   7   2   2    4.38    0.69 
  -7   2  -2    6.07    0.83 
   7  -2   2    5.71    0.92 
  -7  -2  -2    5.89    0.85 
  -7  -2  -2    4.41    0.67 
  -7  -2  -2    4.60    0.74 
   7  -2   2    5.69    0.73 
  -7   2  -3    4.34    0.75 
  -7   2  -3    4.67    0.95 
   7   2   3    2.63    0.64 
   7  -2   3    3.63    0.68 
  -7  -2  -3    4.95    0.86 
  -7  -2  -3    2.83    0.64 
   7  -2   3    3.92    0.89 
   7   2   4    4.77    0.78 
   7   2   4    5.36    0.84 
  -7   2  -4    6.61    1.14 
  -7  -2  -4    5.84    1.04 
   7  -2   4    8.45    1.28 
  -7  -2  -4    5.26    0.82 
   7  -2   4    5.90    0.89 
   7   2   5    0.01    0.61 
  -7   2  -5    1.67    0.85 
  -7  -2  -5    0.37    0.84 
  -7  -2  -5   -0.12    0.56 
   7  -2   5    1.11    0.64 
   7  -2   5    0.35    0.80 
   7   3  -5   -0.46    0.49 
  -7   3   5    1.64    0.87 
   7  -3  -5    1.09    0.58 
   7  -3  -5    1.29    0.89 
  -7  -3   5    1.40    0.88 
  -7   3   4    1.65    0.72 
  -7   3   4    1.29    0.71 
   7   3  -4    1.38    0.60 
   7  -3  -4    1.48    0.83 
  -7  -3   4    1.70    0.80 
   7  -3  -4    3.17    0.73 
  -7   3   3    1.93    0.72 
   7   3  -3    2.28    0.63 
  -7   3   3    2.43    0.72 
   7  -3  -3    1.73    0.77 
   7  -3  -3    2.03    0.64 
  -7  -3   3    1.14    0.71 
  -7   3   2   14.37    1.05 
   7   3  -2   16.47    1.08 
  -7   3   2   12.43    1.20 
   7  -3  -2   18.95    1.33 
  -7  -3   2   17.80    1.31 
  -7   3   1    4.59    0.79 
   7   3  -1    6.59    0.77 
  -7  -3   1    5.84    0.91 
   7  -3  -1    5.83    0.88 
   7   3   0    0.37    0.51 
  -7   3   0    1.59    0.59 
   7   3   0    1.42    0.49 
   7  -3   0    1.68    0.41 
   7  -3   0    1.86    0.66 
  -7  -3   0    1.49    0.43 
  -7  -3   0    0.93    0.60 
   7   3   1    0.03    0.46 
   7   3   1    0.00    0.37 
  -7   3  -1    0.13    0.48 
   7  -3   1    0.33    0.38 
  -7  -3  -1    0.12    0.42 
   7  -3   1    0.03    0.61 
  -7  -3  -1    0.48    0.58 
  -7   3  -2    1.29    0.57 
   7   3   2    1.16    0.55 
  -7  -3  -2    1.23    0.54 
   7  -3   2    0.93    0.71 
   7  -3   2    1.15    0.47 
  -7   3  -3    0.99    0.62 
   7   3   3    0.82    0.56 
  -7   3  -3    0.28    0.62 
  -7  -3  -3    1.05    0.62 
  -7  -3  -3    0.75    0.53 
   7  -3   3    1.04    0.67 
   7  -3   3    0.82    0.47 
  -7   3  -4    0.68    0.80 
  -7   3  -4    0.04    0.63 
   7   3   4    0.03    0.53 
  -7  -3  -4    0.69    0.67 
   7  -3   4    0.10    0.78 
   7  -3   4   -0.19    0.52 
  -7  -3  -4    0.40    0.56 
   7   4  -4    0.46    0.60 
  -7   4   4    0.55    0.73 
  -7   4   4    1.78    0.77 
   7  -4  -4    1.83    0.91 
  -7  -4   4    0.63    0.77 
   7  -4  -4    1.79    0.62 
   7   4  -3    2.56    0.73 
  -7   4   3    2.92    0.84 
  -7   4   3    3.44    0.77 
   7  -4  -3    2.83    0.75 
  -7  -4   3    4.23    1.00 
   7  -4  -3    4.24    1.00 
   7   4  -2    1.68    0.60 
  -7   4   2    1.89    0.72 
   7  -4  -2    3.02    0.82 
  -7  -4   2    3.09    0.85 
  -7   4   1    0.18    0.57 
   7   4  -1    0.31    0.48 
  -7  -4   1    0.07    0.56 
   7  -4  -1   -0.87    0.47 
  -7   4   0   -0.52    0.48 
   7   4   0    0.30    0.58 
   7   4   0   -0.12    0.42 
   7  -4   0   -0.28    0.52 
   7  -4   0   -0.09    0.37 
  -7  -4   0   -0.38    0.55 
  -7  -4   0    0.09    0.39 
  -7   4  -1    0.70    0.62 
   7   4   1    0.06    0.55 
  -7  -4  -1    0.15    0.45 
   7  -4   1    0.67    0.47 
  -7  -4  -1   -0.02    0.58 
   7  -4   1    0.30    0.68 
   7   4   2    0.47    0.62 
  -7   4  -2    0.88    0.66 
   7  -4   2    0.38    0.62 
  -7  -4  -2    0.51    0.53 
   7  -4   2    1.16    0.53 
   7   4   3    5.60    0.95 
  -7   4  -3    6.59    0.97 
   7  -4   3    6.40    1.19 
  -7  -4  -3    4.08    0.80 
   7  -4   3    5.98    0.86 
  -7   4  -4    2.14    0.74 
  -7   4  -4    1.51    0.91 
   7   4   4    0.84    0.66 
   7  -4   4    1.30    0.82 
  -7  -4  -4    1.13    0.63 
   7  -4   4    1.46    0.62 
  -7  -4  -4    1.22    1.15 
   7   5  -4    0.00    0.66 
  -7   5   4    2.50    0.87 
   7  -5  -4   -0.13    0.82 
   7  -5  -4    0.07    0.64 
  -7  -5   4    0.60    0.74 
  -7   5   3    0.39    0.75 
   7   5  -3   -0.17    0.59 
  -7  -5   3   -0.27    0.66 
   7  -5  -3    0.73    0.76 
  -7   5   2   10.86    1.30 
   7   5  -2   10.07    1.07 
   7  -5  -2    7.81    1.11 
  -7  -5   2    9.59    1.17 
   7   5  -1    0.06    0.52 
  -7   5   1   -0.46    0.59 
   7   5  -1    0.97    0.73 
   7  -5  -1   -0.84    0.55 
  -7  -5   1   -0.24    0.61 
   7   5   0    1.18    0.77 
   7   5   0    0.40    0.52 
  -7   5   0   -0.14    0.63 
   7  -5   0    1.59    0.78 
   7  -5   0    0.91    0.47 
  -7  -5   0    1.49    0.54 
  -7  -5   0    0.60    0.69 
  -7   5  -1   -0.12    0.54 
   7   5   1    0.04    0.64 
   7  -5   1    0.03    0.46 
  -7  -5  -1    0.14    0.51 
   7  -5   1    0.85    0.71 
  -7  -5  -1   -0.57    0.59 
  -7   5  -2    0.66    0.60 
   7   5   2   -0.07    0.68 
  -7  -5  -2   -0.43    0.52 
   7  -5   2    1.12    0.58 
   7  -5   2    0.86    0.80 
  -7   5  -3    0.67    0.63 
   7   5   3    0.69    0.73 
  -7  -5  -3   -0.19    0.53 
   7  -5   3   -0.26    0.68 
   7  -5   3   -0.84    0.43 
   7   6  -2    0.87    0.69 
  -7   6   2    0.87    0.77 
   7   6  -2    0.90    0.87 
   7  -6  -2    0.64    0.83 
  -7  -6   2    0.89    0.77 
   7   6  -1    0.15    0.78 
  -7   6   1    0.08    0.73 
   7   6  -1    0.05    0.59 
  -7  -6   1   -0.17    0.71 
   7  -6  -1    0.13    0.72 
   7   6   0    1.14    0.75 
  -7   6   0    0.15    0.70 
  -7  -6   0   -0.19    0.51 
   7  -6   0    0.69    0.76 
  -7  -6   0    0.18    0.72 
  -7   6  -1    0.32    0.67 
   7   6   1    0.64    0.80 
  -7  -6  -1    0.31    0.56 
   7  -6   1   -0.14    0.48 
   7  -6   1    0.11    0.69 
   7   6   2    0.08    0.81 
  -7   6  -2    0.20    0.63 
   7  -6   2    1.12    0.73 
   7  -6   2    0.70    0.61 
  -7  -6  -2   -0.42    0.58 
  -8   0   5    0.65    0.84 
   8   0  -5   -0.53    0.52 
  -8   0   4    2.15    0.77 
   8   0  -4    1.29    0.62 
   8   0  -3    0.02    0.45 
  -8   0   3   -0.31    0.51 
   8   0  -2    0.35    0.48 
  -8   0   2    0.02    0.55 
  -8   0   1   -0.27    0.50 
   8   0  -1    0.59    0.49 
  -8   0   1    0.17    0.44 
  -8   0   0    4.02    0.76 
   8   0   0    2.52    0.59 
   8   0   0    2.42    0.65 
  -8   0   0    2.59    0.65 
   8   0   1    0.33    0.43 
   8   0   1   -0.07    0.57 
   8   0   1    0.69    0.48 
  -8   0  -1   -0.60    0.51 
  -8   0  -1   -0.02    0.47 
   8   0   1   -0.39    0.37 
   8   0   2    5.21    0.73 
  -8   0  -2    6.33    0.80 
  -8   0  -2    6.36    0.94 
   8   0   2    6.69    0.84 
   8   0   2    7.06    1.04 
  -8   0  -2    5.93    0.85 
  -8   0  -3   -0.07    0.42 
  -8   0  -3    0.16    0.56 
   8   0   3    0.95    0.74 
   8   0   3   -0.26    0.44 
   8   0   4    4.86    0.87 
  -8   0  -4    7.45    1.21 
  -8   0  -4    6.76    0.96 
   8   0   4    6.81    1.37 
   8   1  -4   -0.54    0.48 
  -8   1   4   -0.23    0.66 
   8  -1  -4   -0.35    0.45 
  -8  -1   4   -0.34    0.65 
  -8   1   3    0.71    0.67 
   8   1  -3   -0.05    0.48 
   8  -1  -3    0.31    0.50 
  -8  -1   3    0.95    0.67 
  -8   1   2    0.06    0.53 
  -8   1   2    0.38    0.52 
   8   1  -2   -0.55    0.45 
   8  -1  -2    0.16    0.46 
  -8  -1   2   -0.74    0.51 
   8  -1  -2    0.45    0.76 
  -8   1   1    3.24    0.70 
   8   1  -1    3.88    0.71 
  -8   1   1    3.60    0.76 
   8  -1  -1    3.41    0.68 
   8  -1  -1    3.68    0.72 
  -8  -1   1    3.29    0.74 
  -8   1   0    1.67    0.60 
   8   1   0    1.61    0.54 
  -8   1   0    2.24    0.65 
  -8  -1   0    1.55    0.66 
   8  -1   0    1.51    0.62 
   8  -1   0    1.96    0.67 
   8   1   1    8.08    0.85 
  -8   1  -1    7.63    0.96 
   8   1   1    8.14    0.98 
   8   1   1    7.98    0.79 
   8   1   1    6.24    0.84 
  -8  -1  -1    8.37    0.87 
   8  -1   1    7.83    0.76 
  -8  -1  -1    7.76    0.80 
  -8  -1  -1    6.84    0.94 
   8  -1   1    9.88    1.12 
  -8  -1  -1    5.98    0.82 
   8  -1   1    7.80    0.95 
   8   1   2    1.84    0.54 
   8   1   2    1.15    0.71 
   8   1   2    1.68    0.56 
  -8   1  -2    0.40    0.56 
   8   1   2    1.75    0.75 
  -8   1  -2    1.71    0.70 
   8  -1   2    1.60    0.77 
  -8  -1  -2    1.78    0.69 
  -8  -1  -2    0.81    0.49 
  -8  -1  -2    0.05    0.56 
   8  -1   2    1.28    0.49 
   8   1   3    8.83    1.30 
   8   1   3    3.78    0.92 
  -8   1  -3    4.29    0.89 
   8   1   3    4.61    0.79 
   8  -1   3    4.18    0.73 
  -8  -1  -3    5.62    0.81 
  -8  -1  -3    6.37    1.02 
   8  -1   3    9.12    1.23 
   8   1   4    1.14    0.69 
  -8   1  -4    0.40    0.80 
  -8  -1  -4    0.46    0.56 
  -8  -1  -4    1.97    0.81 
   8  -1   4    1.72    1.00 
   8  -1   4    0.35    0.53 
   8   2  -4    0.67    0.53 
  -8   2   4    1.44    0.76 
  -8  -2   4    0.51    0.74 
   8  -2  -4    1.35    0.60 
  -8   2   3   -0.70    0.57 
  -8   2   3    0.50    0.61 
   8   2  -3    0.15    0.51 
   8  -2  -3   -0.39    0.72 
  -8  -2   3   -1.15    0.59 
   8  -2  -3    0.38    0.50 
   8   2  -2    0.31    0.47 
  -8   2   2    1.13    0.61 
  -8   2   2    0.19    0.53 
   8  -2  -2   -0.67    0.42 
   8  -2  -2    0.35    0.63 
  -8  -2   2    0.34    0.60 
   8   2  -1    1.17    0.55 
  -8   2   1    1.01    0.60 
  -8   2   1    1.71    0.63 
   8  -2  -1    1.71    0.63 
   8  -2  -1    2.63    0.75 
  -8  -2   1    1.74    0.72 
  -8   2   0   -0.17    0.52 
   8   2   0    0.45    0.50 
   8  -2   0    2.45    0.75 
  -8  -2   0    0.98    0.66 
   8   2   1    1.17    0.47 
   8   2   1    0.31    0.51 
  -8   2  -1    0.86    0.61 
   8   2   1    0.99    0.49 
   8  -2   1    1.28    0.47 
  -8  -2  -1    0.40    0.42 
   8  -2   1    1.87    0.80 
  -8  -2  -1   -0.52    0.59 
   8   2   2    1.81    0.59 
   8   2   2    4.31    1.28 
   8   2   2    3.26    0.66 
  -8   2  -2    3.60    0.77 
   8  -2   2    3.53    0.65 
   8  -2   2    4.22    0.97 
  -8  -2  -2    3.05    0.67 
   8   2   3    0.79    0.54 
  -8   2  -3    3.50    0.89 
   8   2   3    1.88    0.62 
  -8   2  -3    2.47    0.75 
   8  -2   3    1.62    0.55 
  -8  -2  -3    3.00    0.72 
   8  -2   3    2.50    0.87 
  -8  -2  -3    2.54    0.77 
  -8   2  -4    4.19    1.13 
   8   2   4    1.81    0.75 
   8  -2   4    3.70    1.16 
  -8  -2  -4    2.79    0.78 
   8  -2   4    3.12    0.79 
  -8  -2  -4    3.09    1.01 
  -8   3   4   -0.24    0.66 
   8   3  -4    0.16    0.58 
  -8   3   4   -0.70    0.70 
  -8  -3   4    0.13    0.81 
   8  -3  -4   -0.07    0.54 
   8  -3  -4   -0.67    0.86 
  -8   3   3    0.69    0.64 
  -8   3   3    0.17    0.67 
   8   3  -3    0.37    0.55 
   8  -3  -3    0.29    0.78 
   8  -3  -3    0.50    0.54 
  -8  -3   3    1.14    0.73 
  -8   3   2    1.06    0.70 
   8   3  -2   -0.08    0.50 
  -8  -3   2    0.97    0.72 
   8  -3  -2    0.26    0.64 
   8  -3  -2   -0.16    0.53 
  -8   3   1    0.61    0.65 
   8   3  -1    0.75    0.54 
   8  -3  -1    1.81    0.74 
  -8  -3   1    1.47    0.72 
   8   3   0    7.68    0.88 
   8   3   0    5.52    0.90 
  -8   3   0    4.62    0.86 
   8  -3   0    7.24    1.11 
  -8  -3   0    6.06    1.01 
   8   3   1    0.35    0.54 
  -8   3  -1    0.65    0.61 
   8   3   1    0.93    0.70 
   8  -3   1    1.21    0.51 
  -8  -3  -1    0.80    0.69 
  -8  -3  -1    1.36    0.54 
   8  -3   1    0.43    0.73 
   8   3   2    2.75    0.72 
  -8   3  -2    4.97    0.88 
   8  -3   2    4.59    0.73 
  -8  -3  -2    3.17    0.67 
   8  -3   2    4.03    1.02 
  -8   3  -3    0.71    0.73 
   8   3   3    0.76    0.61 
  -8  -3  -3    0.74    0.58 
   8  -3   3    1.78    0.66 
   8  -3   3    1.34    0.88 
   8   4  -3   -0.84    0.59 
  -8   4   3    0.86    0.75 
  -8  -4   3    0.16    0.76 
   8  -4  -3    0.16    0.84 
   8  -4  -3    0.39    0.62 
   8   4  -2    0.11    0.60 
  -8   4   2   -0.01    0.73 
  -8  -4   2    0.44    0.72 
   8  -4  -2    2.35    0.88 
  -8   4   1    0.92    0.64 
   8   4  -1    1.59    0.65 
  -8  -4   1    1.35    0.81 
   8  -4  -1    0.83    0.78 
   8   4   0    0.10    0.50 
  -8   4   0   -0.17    0.59 
   8   4   0   -0.10    0.63 
   8  -4   0   -0.63    0.63 
  -8  -4   0   -0.30    0.67 
  -8   4  -1   -0.04    0.63 
   8   4   1    0.72    0.70 
   8  -4   1    0.74    0.50 
   8  -4   1    1.19    0.73 
  -8  -4  -1    1.23    0.77 
  -8  -4  -1    0.41    0.53 
   8   4   2   -0.01    0.66 
  -8   4  -2   -0.06    0.70 
   8  -4   2    0.10    0.76 
  -8  -4  -2    0.56    0.61 
   8  -4   2   -0.07    0.56 
  -8   4  -3    2.90    0.92 
   8   4   3    1.90    0.76 
   8  -4   3    2.53    1.05 
   8  -4   3    2.84    0.75 
  -8  -4  -3    3.50    0.87 
  -8   5   2    0.54    0.82 
   8   5  -2   -0.35    0.63 
  -8  -5   2    0.99    0.81 
   8  -5  -2   -0.33    0.71 
  -8   5   1   -0.62    0.66 
   8   5  -1   -0.52    0.75 
   8   5  -1   -0.40    0.57 
   8  -5  -1    0.40    0.88 
  -8  -5   1    0.85    0.83 
  -8   5   0    3.09    0.91 
   8   5   0    2.19    0.93 
  -8  -5   0    1.07    0.83 
   8  -5   0    3.57    0.99 
  -8   5  -1    0.97    0.77 
   8   5   1    1.13    0.81 
  -8  -5  -1    1.28    0.62 
   8  -5   1    1.17    0.85 
  -8  -5  -1    0.48    0.73 
  -8   5  -2    2.07    0.88 
  -8  -5  -2    1.21    0.69 
   8  -5   2    1.61    0.63 
  -9   0   3    0.61    0.69 
   9   0  -3    0.37    0.61 
   9   0  -2    6.42    0.94 
  -9   0   2    5.14    0.97 
  -9   0   1   -0.02    0.60 
   9   0  -1    0.45    0.64 
  -9   0   1    0.10    0.57 
  -9   0   0    1.04    0.66 
   9   0   0    1.16    0.61 
  -9   0   0    2.47    0.70 
  -9   0  -1   -0.10    0.58 
   9   0   1    0.31    0.58 
   9   0   1   -0.25    0.70 
  -9   0  -2    4.57    0.98 
   9   0   2    8.01    1.34 
   9   0   2    4.05    0.73 
   9   0   2    9.57    1.28 
   9   0   3   -0.61    0.53 
  -9   0  -3   -0.72    0.72 
   9   0   3    1.31    0.91 
   9   1  -3    0.27    0.64 
  -9   1   3    0.98    0.76 
   9  -1  -3    0.44    0.60 
  -9  -1   3   -0.45    0.71 
  -9   1   2   -0.01    0.58 
   9   1  -2    0.10    0.58 
  -9   1   2   -0.49    0.61 
   9  -1  -2    0.36    0.61 
  -9  -1   2    0.11    0.65 
   9   1  -1    0.06    0.55 
  -9   1   1    0.21    0.59 
  -9   1   1   -0.40    0.57 
   9  -1  -1    0.24    0.60 
  -9  -1   1   -0.93    0.58 
  -9   1   0   -0.42    0.55 
   9   1   0    0.28    0.56 
   9  -1   0    0.44    0.66 
   9  -1   0    0.01    0.53 
  -9  -1   0    0.48    0.64 
   9   1   1    4.15    0.76 
  -9   1  -1    8.72    1.10 
   9   1   1    7.49    0.90 
   9  -1   1    7.99    1.17 
   9  -1   1    7.27    1.01 
  -9  -1  -1    7.96    1.10 
  -9   1  -2    0.47    0.66 
   9   1   2    0.35    0.56 
   9  -1   2    0.59    0.87 
   9  -1   2    0.32    0.55 
   9  -1   2    0.91    0.69 
  -9  -1  -2    0.86    0.55 
  -9   1  -3    4.11    1.02 
   9   1   3    1.59    0.68 
   9   1   3    6.76    1.22 
   9  -1   3    2.90    0.73 
  -9  -1  -3    4.67    1.03 
  -9  -1  -3    4.60    0.83 
   9  -1   3    5.81    1.19 
  -9   2   3    4.79    0.98 
   9   2  -3    3.81    0.86 
  -9   2   3    1.21    0.78 
  -9  -2   3    2.52    0.96 
   9  -2  -3    3.28    0.80 
   9   2  -2    2.94    0.76 
  -9   2   2    1.62    0.78 
   9  -2  -2    3.58    0.84 
  -9  -2   2    3.26    0.92 
   9   2  -1    2.70    0.77 
  -9   2   1    2.10    0.81 
  -9  -2   1    1.90    0.81 
   9  -2  -1    2.15    0.84 
   9  -2  -1    1.85    0.77 
   9   2   0    0.48    0.57 
   9   2   0   -0.26    0.55 
  -9   2   0   -0.23    0.58 
   9  -2   0    0.04    0.70 
  -9  -2   0    0.43    0.76 
   9  -2   0   -0.44    0.60 
  -9   2  -1    1.20    0.73 
   9   2   1    0.69    0.69 
   9   2   1    0.49    0.54 
   9  -2   1    1.81    0.87 
  -9  -2  -1    0.99    0.81 
   9   2   2    2.67    0.67 
   9   2   2    0.40    0.55 
  -9   2  -2    2.89    0.87 
  -9  -2  -2    2.88    0.71 
   9  -2   2    1.34    0.70 
   9  -2   2    3.84    1.11 
  -9   3   2    0.62    0.74 
   9   3  -2    0.21    0.61 
   9  -3  -2   -0.64    0.58 
   9  -3  -2   -0.39    0.74 
  -9  -3   2   -0.30    0.75 
   9   3  -1   -0.39    0.57 
  -9   3   1   -0.28    0.65 
  -9  -3   1   -1.31    0.69 
   9  -3  -1   -1.47    0.59 
   9  -3  -1    0.06    0.73 
  -9   3   0   -0.37    0.63 
   9   3   0    0.54    0.61 
   9   3   0    0.34    0.61 
   9  -3   0   -0.87    0.78 
  -9  -3   0    0.88    0.81 
  -9   3  -1    3.01    0.90 
   9   3   1    3.38    0.83 
   9  -3   1    3.92    1.02 
  -9  -3  -1    4.22    1.01 
   9   3   2    1.82    0.66 
  -9   3  -2    3.64    0.92 
   9   3   2    3.46    0.88 
   9  -3   2    3.90    1.07 
  -9  -3  -2    3.16    0.86 
   9   4  -1    2.08    0.92 
  -9   4   1    1.86    0.88 
   9   4  -1    2.28    0.76 
  -9  -4   1    1.12    0.89 
   9  -4  -1    3.04    0.98 
  -9   4   0    0.21    0.74 
   9   4   0    0.53    0.80 
   9  -4   0   -0.43    0.85 
  -9  -4   0   -0.52    0.76 
  10   0  -1    1.59    0.74 
 -10   0   1    0.34    0.76 
  10   0   0    5.67    0.98 
 -10   0   0    5.75    0.98 
  10   1  -1    0.71    0.70 
 -10   1   1    0.74    0.74 
  10  -1  -1    0.85    0.79 
  10   1   0    1.02    0.70 
 -10   1   0    0.65    0.74 
  10   1   0    0.04    0.53 
  10  -1   0    0.73    0.75 
 -10  -1   0    0.16    0.76 
   0   0   0    0.00    0.00 
;
_shelx_hkl_checksum              23837
loop_
_space_group_symop_operation_xyz
'x, y, z'
'-x, y+1/2, -z+1/2'
'-x, -y, -z'
'x, -y-1/2, z-1/2'
loop_
_atom_site_label
_atom_site_type_symbol
_atom_site_fract_x
_atom_site_fract_y
_atom_site_fract_z
_atom_site_U_iso_or_equiv
_atom_site_adp_type
_atom_site_occupancy
_atom_site_site_symmetry_order
_atom_site_calc_flag
_atom_site_refinement_flags_posn
_atom_site_refinement_flags_adp
_atom_site_refinement_flags_occupancy
_atom_site_disorder_assembly
_atom_site_disorder_group
S1 S 1.3507(3) 0.4458(6) 0.7745(6) 0.0533(10) Uani 0.5 1 d . . P A -1
H1S H 1.448(9) 0.529(8) 0.702(11) 0.064 Uiso 0.5 1 d . U P B -1
C1 C 0.6804(14) 0.5443(17) 0.2107(19) 0.0323(11) Uani 0.5 1 d D . P A -1
H1A H 0.7074 0.6171 0.0781 0.048 Uiso 0.5 1 calc R U P A -1
H1B H 0.5862 0.6041 0.2872 0.048 Uiso 0.5 1 calc R U P A -1
H1C H 0.6450 0.4193 0.1640 0.048 Uiso 0.5 1 calc R U P A -1
C2 C 0.839(3) 0.533(4) 0.370(5) 0.0323(11) Uani 0.5 1 d DG . P A -1
C3 C 0.839(3) 0.450(4) 0.580(5) 0.0341(12) Uani 0.5 1 d G . P A -1
H3 H 0.7325 0.4100 0.6378 0.041 Uiso 0.5 1 calc R U P A -1
C4 C 0.993(3) 0.424(4) 0.706(5) 0.0325(11) Uani 0.5 1 d G . P A -1
H4 H 0.9925 0.3673 0.8496 0.039 Uiso 0.5 1 calc R U P A -1
C5 C 1.148(3) 0.482(4) 0.621(5) 0.0323(11) Uani 0.5 1 d G . P A -1
C6 C 1.149(3) 0.565(4) 0.411(5) 0.0341(12) Uani 0.5 1 d G . P A -1
H6 H 1.2547 0.6048 0.3531 0.041 Uiso 0.5 1 calc R U P A -1
C7 C 0.994(3) 0.591(4) 0.285(5) 0.0325(11) Uani 0.5 1 d G . P A -1
H7 H 0.9947 0.6476 0.1413 0.039 Uiso 0.5 1 calc R U P A -1
loop_
_atom_site_aniso_label
_atom_site_aniso_U_11
_atom_site_aniso_U_22
_atom_site_aniso_U_33
_atom_site_aniso_U_23
_atom_site_aniso_U_13
_atom_site_aniso_U_12
S1 0.0358(12) 0.0682(15) 0.0550(14) -0.0026(9) -0.0068(9) 0.0079(10)
C1 0.038(3) 0.029(3) 0.0291(19) -0.0008(19) -0.0022(14) 0.0039(19)
C2 0.038(3) 0.029(3) 0.0291(19) -0.0008(19) -0.0022(14) 0.0039(19)
C3 0.037(3) 0.033(3) 0.033(2) -0.001(2) 0.0075(15) -0.001(2)
C4 0.045(3) 0.030(3) 0.022(2) 0.003(2) 0.0024(15) 0.002(2)
C5 0.038(3) 0.029(3) 0.0291(19) -0.0008(19) -0.0022(14) 0.0039(19)
C6 0.037(3) 0.033(3) 0.033(2) -0.001(2) 0.0075(15) -0.001(2)
C7 0.045(3) 0.030(3) 0.022(2) 0.003(2) 0.0024(15) 0.002(2)
loop_
_atom_type_symbol
_atom_type_description
_atom_type_scat_dispersion_real
_atom_type_scat_dispersion_imag
_atom_type_scat_source
C C 0.0033 0.0016 'International Tables Vol C Tables 4.2.6.8 and 6.1.1.4'
H H 0.0000 0.0000 'International Tables Vol C Tables 4.2.6.8 and 6.1.1.4'
S S 0.1246 0.1234 'International Tables Vol C Tables 4.2.6.8 and 6.1.1.4'
loop_
_geom_angle_atom_site_label_1
_geom_angle_atom_site_label_2
_geom_angle_atom_site_label_3
_geom_angle
C5 S1 H1S 109(4)
C2 C1 H1A 109.5
C2 C1 H1B 109.5
H1A C1 H1B 109.5
C2 C1 H1C 109.5
H1A C1 H1C 109.5
H1B C1 H1C 109.5
C3 C2 C7 120.0
C3 C2 C1 123.1(17)
C7 C2 C1 116.4(17)
C4 C3 C2 120.0
C4 C3 H3 120.0
C2 C3 H3 120.0
C3 C4 C5 120.0
C3 C4 H4 120.0
C5 C4 H4 120.0
C4 C5 C6 120.0
C4 C5 S1 121.4(12)
C6 C5 S1 118.6(13)
C5 C6 C7 120.0
C5 C6 H6 120.0
C7 C6 H6 120.0
C6 C7 C2 120.0
C6 C7 H7 120.0
C2 C7 H7 120.0
loop_
_geom_bond_atom_site_label_1
_geom_bond_atom_site_label_2
_geom_bond_distance
S1 C5 1.793(12)
S1 H1S 1.07(7)
C1 C2 1.514(11)
C1 H1A 0.9800
C1 H1B 0.9800
C1 H1C 0.9800
C2 C3 1.3900
C2 C7 1.3900
C3 C4 1.3900
C3 H3 0.9500
C4 C5 1.3900
C4 H4 0.9500
C5 C6 1.3900
C6 C7 1.3900
C6 H6 0.9500
C7 H7 0.9500
loop_
_geom_torsion_atom_site_label_1
_geom_torsion_atom_site_label_2
_geom_torsion_atom_site_label_3
_geom_torsion_atom_site_label_4
_geom_torsion
C7 C2 C3 C4 0.0
C1 C2 C3 C4 172.3(17)
C2 C3 C4 C5 0.0
C3 C4 C5 C6 0.0
C3 C4 C5 S1 -178.2(12)
C4 C5 C6 C7 0.0
S1 C5 C6 C7 178.2(11)
C5 C6 C7 C2 0.0
C3 C2 C7 C6 0.0
C1 C2 C7 C6 -172.8(15)
