#------------------------------------------------------------------------------
#$Date: 2016-06-17 01:48:17 +0300 (Fri, 17 Jun 2016) $
#$Revision: 183578 $
#$URL: file:///home/coder/svn-repositories/cod/cif/4/12/50/4125044.cif $
#------------------------------------------------------------------------------
#
# This file is available in the Crystallography Open Database (COD),
# http://www.crystallography.net/
#
# All data on this site have been placed in the public domain by the
# contributors.
#
data_4125044
loop_
_publ_author_name
'Zha, R. Helen'
'de Waal, Bas F. M.'
'Lutz, Martin'
'Teunissen, Abraham J. P.'
'Meijer, E. W.'
_publ_section_title
;
 End Groups of Functionalized Siloxane Oligomers Direct Block-Copolymeric
 or Liquid-Crystalline Self-Assembly Behavior.
;
_journal_issue                   17
_journal_name_full               'Journal of the American Chemical Society'
_journal_page_first              5693
_journal_page_last               5698
_journal_paper_doi               10.1021/jacs.6b02172
_journal_volume                  138
_journal_year                    2016
_chemical_formula_moiety         'C16 H18 N4 O2'
_chemical_formula_sum            'C16 H18 N4 O2'
_chemical_formula_weight         298.34
_space_group_crystal_system      triclinic
_space_group_IT_number           2
_space_group_name_Hall           '-P 1'
_space_group_name_H-M_alt        'P -1'
_symmetry_space_group_name_Hall  '-P 1'
_symmetry_space_group_name_H-M   'P -1'
_atom_sites_solution_hydrogens   difmap
_atom_sites_solution_primary     heavy
_atom_sites_solution_secondary   difmap
_audit_creation_method           SHELXL-2014/7
_cell_angle_alpha                88.676(2)
_cell_angle_beta                 77.819(2)
_cell_angle_gamma                80.925(2)
_cell_formula_units_Z            2
_cell_length_a                   7.7614(4)
_cell_length_b                   7.9275(4)
_cell_length_c                   12.9954(6)
_cell_measurement_reflns_used    11695
_cell_measurement_temperature    100(2)
_cell_measurement_theta_max      27.50
_cell_measurement_theta_min      1.60
_cell_volume                     771.76(7)
_computing_cell_refinement       Peakref
_computing_data_collection       Apex2
_computing_data_reduction        'Eval15, SADABS-2014/4'
_computing_structure_refinement  'SHELXL-2014/7 (Sheldrick, 2014)'
_computing_structure_solution    SHELXT
_diffrn_ambient_temperature      100(2)
_diffrn_measured_fraction_theta_full 0.999
_diffrn_measured_fraction_theta_max 0.999
_diffrn_measurement_device_type  'Bruker Kappa ApexII'
_diffrn_measurement_method       '\f and \w scans'
_diffrn_radiation_type           MoK\a
_diffrn_radiation_wavelength     0.71073
_diffrn_reflns_av_R_equivalents  0.0140
_diffrn_reflns_av_unetI/netI     0.0123
_diffrn_reflns_Laue_measured_fraction_full 0.999
_diffrn_reflns_Laue_measured_fraction_max 0.999
_diffrn_reflns_limit_h_max       9
_diffrn_reflns_limit_h_min       -10
_diffrn_reflns_limit_k_max       10
_diffrn_reflns_limit_k_min       -9
_diffrn_reflns_limit_l_max       16
_diffrn_reflns_limit_l_min       -16
_diffrn_reflns_number            13184
_diffrn_reflns_point_group_measured_fraction_full 0.999
_diffrn_reflns_point_group_measured_fraction_max 0.999
_diffrn_reflns_theta_full        25.242
_diffrn_reflns_theta_max         27.496
_diffrn_reflns_theta_min         1.603
_diffrn_source                   'sealed tube'
_exptl_absorpt_coefficient_mu    0.088
_exptl_absorpt_correction_T_max  0.7456
_exptl_absorpt_correction_T_min  0.7188
_exptl_absorpt_correction_type   multi-scan
_exptl_absorpt_process_details   SADABS-2014/4
_exptl_crystal_colour            colourless
_exptl_crystal_density_diffrn    1.284
_exptl_crystal_description       needle
_exptl_crystal_F_000             316
_exptl_crystal_size_max          0.39
_exptl_crystal_size_mid          0.19
_exptl_crystal_size_min          0.12
_refine_diff_density_max         0.289
_refine_diff_density_min         -0.224
_refine_diff_density_rms         0.038
_refine_ls_extinction_method     none
_refine_ls_goodness_of_fit_ref   1.051
_refine_ls_hydrogen_treatment    mixed
_refine_ls_matrix_type           full
_refine_ls_number_parameters     209
_refine_ls_number_reflns         3545
_refine_ls_number_restraints     0
_refine_ls_restrained_S_all      1.051
_refine_ls_R_factor_all          0.0382
_refine_ls_R_factor_gt           0.0347
_refine_ls_shift/su_max          0.000
_refine_ls_shift/su_mean         0.000
_refine_ls_structure_factor_coef Fsqd
_refine_ls_weighting_details
'w=1/[\s^2^(Fo^2^)+(0.0439P)^2^+0.2422P] where P=(Fo^2^+2Fc^2^)/3'
_refine_ls_weighting_scheme      calc
_refine_ls_wR_factor_gt          0.0889
_refine_ls_wR_factor_ref         0.0914
_reflns_Friedel_coverage         0.000
_reflns_number_gt                3215
_reflns_number_total             3545
_reflns_threshold_expression     'I > 2\s(I)'
_cod_data_source_file            ja6b02172_si_002.cif
_cod_data_source_block           l0755a
_cod_depositor_comments          'Adding full bibliography for 4125044.cif.'
_cod_original_cell_volume        771.76(6)
_cod_database_code               4125044
_shelx_shelxl_version_number     2014/7
_shelx_space_group_comment
;
The symmetry employed for this shelxl refinement is uniquely defined
by the following loop, which should always be used as a source of
symmetry information in preference to the above space-group names.
They are only intended as comments.
;
_shelx_res_file
;

    l0755a.res created by SHELXL-2014/7


TITL l0755a
CELL 0.71073 7.76145  7.92752 12.99537  88.676  77.819  80.925
ZERR       2 0.00038  0.00040  0.00058   0.002   0.002   0.002
LATT 1
SFAC C H N O
UNIT 32 36 8 4
TEMP -173
L.S. 15
FMAP 2
PLAN -20
ACTA
BOND $H
CONF
EQIV $1 1-x, 1-y, 1-z
HTAB N3 O1_$1
HTAB N4 N1
WGHT    0.043900    0.242200
FVAR       1.08976   0.74286
O1    4    0.416205    0.455550    0.627289    11.00000    0.01656    0.02787 =
         0.01771    0.00191   -0.00370   -0.00819
O2    4    0.185800    0.272355    0.168758    11.00000    0.02846    0.02236 =
         0.01846   -0.00005   -0.00546   -0.00976
N1    3    0.041038    0.278969    0.488047    11.00000    0.01464    0.01608 =
         0.02082    0.00132   -0.00381   -0.00307
N2    3    0.243012    0.336708    0.329208    11.00000    0.01670    0.01631 =
         0.01819    0.00115   -0.00366   -0.00232
N3    3    0.302751    0.392256    0.488424    11.00000    0.01405    0.02334 =
         0.01629    0.00324   -0.00301   -0.00649
H3N   2    0.393502    0.435558    0.447826    11.00000    0.03055
N4    3    0.167090    0.330583    0.660604    11.00000    0.01586    0.02390 =
         0.01639    0.00241   -0.00253   -0.00630
H4N   2    0.084639    0.293022    0.632034    11.00000    0.02860
C1    1    0.188299    0.332984    0.434695    11.00000    0.01462    0.01321 =
         0.01996    0.00145   -0.00446   -0.00050
C2    1    0.138839    0.278328    0.274727    11.00000    0.02165    0.01390 =
         0.01938    0.00036   -0.00604   -0.00191
C3    1   -0.019845    0.217999    0.321406    11.00000    0.02165    0.01928 =
         0.02501   -0.00005   -0.00875   -0.00658
AFIX  43
H3    2   -0.092735    0.176904    0.280461    11.00000   -1.20000
AFIX   0
C4    1   -0.064150    0.221619    0.429823    11.00000    0.01644    0.01349 =
         0.02623    0.00087   -0.00559   -0.00232
C5    1    0.298693    0.395167    0.595733    11.00000    0.01412    0.01691 =
         0.01736    0.00145   -0.00273   -0.00116
C6    1    0.164110    0.318076    0.771894    11.00000    0.02405    0.03488 =
         0.01540    0.00095   -0.00032   -0.01178
AFIX  23
H6A   2    0.038725    0.325347    0.810553    11.00000   -1.20000
H6B   2    0.211789    0.416829    0.794111    11.00000   -1.20000
AFIX   0
C7    1    0.269747    0.156722    0.802343    11.00000    0.03549    0.04415 =
         0.03195    0.01938   -0.01917   -0.02128
AFIX  43
H7    2    0.264067    0.138169    0.875385    11.00000   -1.20000
AFIX   0
C8    1    0.369429    0.038745    0.737056    11.00000    0.04154    0.02880 =
         0.06923    0.01479   -0.03377   -0.00890
AFIX  93
H8A   2    0.379066    0.051924    0.663311    11.00000   -1.20000
H8B   2    0.431902   -0.059781    0.763570    11.00000   -1.20000
AFIX   0
C9    1    0.346425    0.341787    0.118476    11.00000    0.02342    0.02140 =
         0.01764   -0.00071   -0.00102   -0.00352
AFIX  23
H9A   2    0.401710    0.280045    0.051354    11.00000   -1.20000
H9B   2    0.433753    0.324776    0.164826    11.00000   -1.20000
AFIX   0
C10   1    0.301456    0.529182    0.097387    11.00000    0.01574    0.02166 =
         0.01587    0.00056   -0.00094   -0.00334
C11   1    0.335129    0.652567    0.162141    11.00000    0.01914    0.02392 =
         0.02040    0.00134   -0.00666   -0.00462
AFIX  43
H11   2    0.391439    0.618979    0.219192    11.00000   -1.20000
AFIX   0
C12   1    0.285992    0.825136    0.142951    11.00000    0.02328    0.02233 =
         0.02918   -0.00101   -0.00569   -0.00685
AFIX  43
H12   2    0.307924    0.909083    0.187522    11.00000   -1.20000
AFIX   0
C13   1    0.205263    0.875341    0.059237    11.00000    0.02203    0.02315 =
         0.02877    0.00781   -0.00135   -0.00247
AFIX  43
H13   2    0.171506    0.993295    0.046851    11.00000   -1.20000
AFIX   0
C14   1    0.173772    0.753048   -0.006517    11.00000    0.02118    0.03532 =
         0.01764    0.00701   -0.00348   -0.00132
AFIX  43
H14   2    0.119922    0.787074   -0.064469    11.00000   -1.20000
AFIX   0
C15   1    0.221380    0.580987    0.012901    11.00000    0.02049    0.02986 =
         0.01457   -0.00200   -0.00219   -0.00446
AFIX  43
H15   2    0.199192    0.497457   -0.031857    11.00000   -1.20000
AFIX   0
C16   1   -0.229907    0.162043    0.490999    11.00000    0.01839    0.02263 =
         0.03043    0.00053   -0.00338   -0.00772
AFIX 127
H16A  2   -0.322631    0.179452    0.449300    21.00000   -1.50000
H16B  2   -0.272118    0.227422    0.557018    21.00000   -1.50000
H16C  2   -0.203196    0.040357    0.506620    21.00000   -1.50000
H16D  2   -0.209332    0.118702    0.559325   -21.00000   -1.50000
H16E  2   -0.259845    0.070732    0.451608   -21.00000   -1.50000
H16F  2   -0.328767    0.257797    0.502006   -21.00000   -1.50000
AFIX   0
HKLF 4

REM  l0755a
REM R1 =  0.0347 for    3215 Fo > 4sig(Fo)  and  0.0382 for all    3545 data
REM    209 parameters refined using      0 restraints

END

WGHT      0.0431      0.2460

REM Highest difference peak  0.289,  deepest hole -0.224,  1-sigma level  0.038
Q1    1   0.2285  0.2366  0.7793  11.00000  0.05    0.29
Q2    1   0.3260  0.4405  0.1077  11.00000  0.05    0.28
Q3    1  -0.0282  0.1903  0.3762  11.00000  0.05    0.24
Q4    1  -0.1401  0.1848  0.4591  11.00000  0.05    0.24
Q5    1   0.0609  0.2412  0.2995  11.00000  0.05    0.23
Q6    1   0.1679  0.3190  0.7167  11.00000  0.05    0.22
Q7    1   0.2567  0.5581  0.0587  11.00000  0.05    0.22
Q8    1   0.2935  0.5822  0.1403  11.00000  0.05    0.21
Q9    1  -0.0577  0.2410  0.3769  11.00000  0.05    0.20
Q10   1   0.3444  0.5836  0.1176  11.00000  0.05    0.20
Q11   1   0.2985  0.3892  0.5405  11.00000  0.05    0.20
Q12   1   0.2037  0.8419  0.1159  11.00000  0.05    0.19
Q13   1   0.1976  0.3516  0.3798  11.00000  0.05    0.19
Q14   1   0.3469  0.2672  0.0587  11.00000  0.05    0.18
Q15   1   0.0213  0.2703  0.5502  11.00000  0.05    0.18
Q16   1   0.1672  0.8088  0.0388  11.00000  0.05    0.18
Q17   1  -0.0054  0.2378  0.4576  11.00000  0.05    0.17
Q18   1   0.3326  0.7408  0.1435  11.00000  0.05    0.17
Q19   1   0.2007  0.3994  0.6352  11.00000  0.05    0.15
Q20   1   0.2589  0.3101  0.6264  11.00000  0.05    0.15
;
_shelx_res_checksum              9271
_shelx_hkl_file
;
  -1   0   0 730.433 11.2227   1
  -1   0   0 726.401 10.9241   3
  -1   0   0 723.145 10.9663   4
  -1   0   0 739.806 11.2308   1
  -1   0   0 727.167 10.9508   2
   1   0   0 727.828 10.9530   2
   1   0   0 739.919 11.2393   1
   1   0   0 738.674 10.9672   4
   1   0   0 747.889 11.2260   1
  -2   0   0 8438.05 124.374   1
  -2   0   0 8323.74 124.354   1
   2   0   0 8548.28 123.830   4
   2   0   0 8438.85 124.359   1
   2   0   0 8537.66 124.414   1
  -3   0   0 10.5944 0.87342   1
  -3   0   0 10.0328 0.39255   3
  -3   0   0 9.16990 0.80601   1
  -3   0   0 10.8476 0.52962   4
  -3   0   0 10.8980 0.45925   2
   3   0   0 12.0391 0.85793   1
   3   0   0 9.09814 0.47024   4
   3   0   0 9.77874 0.49535   2
   3   0   0 9.99409 0.87561   1
  -4   0   0 59.2862 1.31148   2
  -4   0   0 61.7654 1.44007   4
  -4   0   0 58.9836 1.20708   3
  -4   0   0 61.6198 2.08980   1
  -4   0   0 59.1474 2.06816   1
   4   0   0 62.7376 2.13356   1
   4   0   0 59.7493 2.05875   1
   4   0   0 62.0670 1.37722   2
  -5   0   0 290.848 4.60488   4
  -5   0   0 282.347 4.60298   3
  -5   0   0 285.341 5.91517   1
  -5   0   0 292.100 5.94667   1
   5   0   0 281.202 5.99760   1
   5   0   0 293.543 4.69184   2
   5   0   0 282.346 5.82494   1
  -6   0   0 159.452 4.21568   1
  -6   0   0 139.905 2.61392   3
  -6   0   0 148.484 2.99271   4
  -6   0   0 145.726 4.09500   1
   6   0   0 148.994 2.88724   2
   6   0   0 147.780 4.16795   1
  -7   0   0 10.1994 0.84910   4
  -7   0   0 14.1029 1.53861   1
   7   0   0 11.1962 0.82680   2
   7   0   0 10.0589 1.44389   1
  -8   0   0 207.588 5.81256   1
  -8   0   0 210.370 4.20755   4
   8   0   0 209.903 5.87501   1
   8   0   0 209.497 4.04198   2
  -9   0   0 42.8102 1.69955   4
   9   0   0 42.1560 1.59033   2
   9  -1   0 2.02755 0.75491   2
  -9   1   0 4.11675 0.80143   4
   8  -1   0 326.119 5.83836   2
   8  -1   0 326.887 7.88252   1
  -8   1   0 333.320 5.96979   4
  -8   1   0 316.597 7.70244   1
   7  -1   0 9.62065 1.51852   1
   7  -1   0 8.20772 0.76492   2
  -7   1   0 8.35398 0.81147   4
  -7   1   0 7.52687 1.42206   1
   6  -1   0 69.3653 1.77427   2
   6  -1   0 69.3692 2.81381   1
  -6   1   0 67.3727 1.41811   3
  -6   1   0 66.5102 2.74079   1
  -6   1   0 70.1325 1.82612   4
  -6   1   0 69.9232 2.78120   1
   5  -1   0 74.8030 1.73156   2
   5  -1   0 75.6842 2.58309   1
   5  -1   0 74.3272 2.66776   1
  -5   1   0 69.7885 1.41792   3
  -5   1   0 74.0164 2.60576   1
  -5   1   0 75.6293 2.64365   1
  -5   1   0 75.1876 1.76584   4
   4  -1   0 90.6784 1.87380   2
   4  -1   0 89.5715 2.59342   1
   4  -1   0 92.5279 2.70076   1
  -4   1   0 90.0977 2.64496   1
  -4   1   0 88.1418 1.86997   4
  -4   1   0 92.1673 2.61989   1
  -4   1   0 90.3319 1.61199   3
   3  -1   0 5.93395 0.46799   2
   3  -1   0 6.53549 0.82557   1
   3  -1   0 6.91220 0.74977   1
   3  -1   0 5.86998 0.46614   4
  -3   1   0 6.11138 0.77080   1
  -3   1   0 6.62361 0.46104   4
  -3   1   0 6.81134 0.76603   1
  -3   1   0 6.05801 0.40331   2
   2  -1   0 893.921 13.3574   4
   2  -1   0 892.126 13.9396   1
   2  -1   0 905.310 14.0023   1
   2  -1   0 895.633 13.3806   2
  -2   1   0 904.491 13.3682   2
  -2   1   0 897.897 13.9808   1
  -2   1   0 884.615 13.9339   1
  -2   1   0 880.259 13.3506   4
   1  -1   0 2628.89 39.8667   1
   1  -1   0 2750.57 39.4934   4
   1  -1   0 2752.23 39.9321   1
   1  -1   0 2734.25 39.5347   2
  -1   1   0 2671.87 39.4835   4
  -1   1   0 2691.07 39.8937   1
  -1   1   0 2608.24 39.8796   1
  -1   1   0 2690.35 39.5226   2
  -1   1   0 2694.48 39.4482   3
   0  -1   0 3069.54 45.2697   1
   0  -1   0 3072.25 45.2496   1
   0  -1   0 3032.40 45.0026   3
   0   1   0 3069.19 45.2610   1
   0   1   0 3048.52 45.2481   1
   0   1   0 3113.04 45.0122   2
  -1  -1   0 850.500 12.4329   4
  -1  -1   0 835.367 12.7855   1
  -1  -1   0 830.579 12.4851   3
  -1  -1   0 829.003 12.7992   1
   1   1   0 860.998 12.4315   4
   1   1   0 828.281 12.4867   3
   1   1   0 851.002 12.8044   1
   1   1   0 847.202 12.8099   1
  -2  -1   0 69.0196 1.72448   1
  -2  -1   0 65.2616 1.22906   3
  -2  -1   0 67.3491 1.25568   4
  -2  -1   0 64.6636 1.68108   1
   2   1   0 67.7406 1.25806   3
   2   1   0 69.1929 1.22189   2
   2   1   0 67.0838 1.23232   4
   2   1   0 67.0281 1.70460   1
   2   1   0 66.0210 1.68261   1
  -3  -1   0 28.6219 1.24706   1
  -3  -1   0 27.4165 0.71821   3
  -3  -1   0 27.9599 1.25737   1
  -3  -1   0 25.9355 0.78574   4
   3   1   0 27.7502 0.72517   2
   3   1   0 26.6283 1.24352   1
   3   1   0 26.7236 0.73579   3
   3   1   0 27.7102 1.23892   1
   3   1   0 27.0721 0.76357   4
  -4  -1   0 377.110 6.03574   4
  -4  -1   0 373.465 6.87402   1
  -4  -1   0 361.577 5.87302   3
  -4  -1   0 385.952 6.95033   1
   4   1   0 373.325 6.86359   1
   4   1   0 375.312 6.93544   1
   4   1   0 373.234 5.90529   3
   4   1   0 379.448 5.93357   2
  -5  -1   0 170.657 3.10122   4
  -5  -1   0 157.609 4.01979   1
  -5  -1   0 166.026 4.05437   1
  -5  -1   0 162.815 2.88269   3
   5   1   0 167.477 4.01983   1
   5   1   0 168.577 2.98228   2
   5   1   0 174.376 4.17443   1
  -6  -1   0 3.96085 0.62112   4
  -6  -1   0 3.71326 1.02610   1
  -6  -1   0 6.02963 1.04910   1
   6   1   0 3.99987 1.06754   1
   6   1   0 3.23824 0.51865   2
  -7  -1   0 184.640 4.97498   1
  -7  -1   0 182.599 3.58044   4
   7   1   0 177.748 3.39759   2
   7   1   0 166.155 4.86169   1
  -8  -1   0 -0.8209 0.58676   4
  -8  -1   0 -0.9265 1.08646   1
   8   1   0 1.02007 1.21346   1
   8   1   0 -0.1126 0.49885   2
  -9  -1   0 0.85273 0.63593   4
   9   1   0 1.23062 0.59603   2
   9  -2   0 107.780 2.83280   2
   8  -2   0 17.6404 1.14448   2
   8  -2   0 18.8200 2.17275   1
  -8   2   0 18.5717 2.11414   1
   7  -2   0 38.4714 2.43094   1
   7  -2   0 40.4375 1.47523   2
  -7   2   0 39.5446 1.46557   4
  -7   2   0 35.8692 2.33199   1
   6  -2   0 177.228 3.49561   2
   6  -2   0 178.407 4.86438   1
  -6   2   0 180.207 2.83881   3
  -6   2   0 180.260 3.49809   4
  -6   2   0 174.687 4.75366   1
   5  -2   0 77.6652 2.80402   1
   5  -2   0 85.8361 1.96846   2
   5  -2   0 82.0822 2.90936   1
  -5   2   0 85.5811 2.88250   1
  -5   2   0 81.0564 2.83829   1
  -5   2   0 83.5205 1.91926   4
  -5   2   0 82.6597 1.56588   3
   4  -2   0 12.3767 1.13088   1
   4  -2   0 11.7588 0.72756   2
   4  -2   0 13.1755 1.11988   1
  -4   2   0 14.8366 0.68813   4
  -4   2   0 13.9846 1.16320   1
  -4   2   0 12.2016 1.08990   1
  -4   2   0 11.8715 0.45655   3
   3  -2   0 667.536 11.0839   1
   3  -2   0 640.258 10.1826   4
   3  -2   0 668.962 10.2189   2
   3  -2   0 668.689 11.1707   1
  -3   2   0 669.488 11.1372   1
  -3   2   0 665.493 9.94660   3
  -3   2   0 649.748 11.0450   1
  -3   2   0 666.228 10.1482   4
   2  -2   0 182.323 2.91860   2
   2  -2   0 183.025 3.02324   4
   2  -2   0 183.482 3.74402   1
   2  -2   0 181.732 3.65803   1
  -2   2   0 184.789 3.71725   1
  -2   2   0 182.440 3.68520   1
  -2   2   0 181.574 2.91729   2
  -2   2   0 185.319 2.93325   3
   0  -2   0 4266.08 61.9567   2
   0  -2   0 4269.20 62.4342   1
   0  -2   0 4112.41 61.9274   3
   0  -2   0 4242.66 62.4513   1
   0   2   0 4246.20 62.4342   1
   0   2   0 4033.24 61.9186   3
   0   2   0 4349.65 61.9638   2
   0   2   0 4259.21 62.4505   1
  -1  -2   0 14.9004 0.78577   1
  -1  -2   0 15.2704 0.38212   4
  -1  -2   0 14.5009 0.50837   3
  -1  -2   0 13.1471 0.66829   1
   1   2   0 14.6131 0.75468   1
   1   2   0 15.6564 0.78850   1
   1   2   0 14.8721 0.53484   3
   1   2   0 14.0211 0.36035   4
   1   2   0 14.6159 0.45641   2
  -2  -2   0 881.066 13.2506   3
  -2  -2   0 879.633 13.1406   4
  -2  -2   0 866.663 13.8624   1
  -2  -2   0 882.217 13.8482   1
   2   2   0 862.321 13.8452   1
   2   2   0 881.030 13.2616   3
   2   2   0 906.773 13.9025   1
   2   2   0 902.730 13.1452   4
  -3  -2   0 165.895 2.66886   4
  -3  -2   0 168.169 2.67992   3
  -3  -2   0 167.787 3.57425   1
  -3  -2   0 165.723 3.58912   1
   3   2   0 166.787 3.56127   1
   3   2   0 163.045 2.62783   4
   3   2   0 170.863 3.57963   1
   3   2   0 168.336 2.77630   3
  -4  -2   0 320.830 6.07711   1
  -4  -2   0 307.984 6.00426   1
  -4  -2   0 313.583 5.11469   4
  -4  -2   0 305.762 5.06740   3
   4   2   0 311.982 5.02010   2
   4   2   0 310.248 6.06586   1
   4   2   0 320.867 6.02169   1
   4   2   0 312.717 5.10761   3
  -5  -2   0 32.9807 1.06259   4
  -5  -2   0 33.8051 1.78504   1
  -5  -2   0 34.1339 1.72935   1
   5   2   0 33.2021 0.98116   2
   5   2   0 31.7158 1.00379   3
   5   2   0 35.4344 1.76495   1
   5   2   0 32.1666 1.77989   1
  -6  -2   0 137.896 2.80576   4
  -6  -2   0 135.349 3.87103   1
  -6  -2   0 141.905 4.00168   1
   6   2   0 136.471 3.98632   1
   6   2   0 142.652 2.70086   2
  -7  -2   0 167.463 4.77484   1
  -7  -2   0 164.267 3.35649   4
   7   2   0 168.723 3.21804   2
   7   2   0 169.402 4.81748   1
  -8  -2   0 119.388 2.76710   4
  -8  -2   0 110.832 4.10932   1
   8   2   0 114.803 2.55973   2
   8   2   0 114.730 4.17227   1
  -9  -2   0 1.48861 0.64608   4
   9   2   0 2.43019 0.63467   2
   8  -3   0 16.3993 1.21600   2
   8  -3   0 18.5361 2.20775   1
   7  -3   0 21.5211 2.03655   1
   7  -3   0 22.4837 1.25945   2
  -7   3   0 22.7034 2.02161   1
   6  -3   0 108.254 3.81669   1
   6  -3   0 109.156 2.54973   2
  -6   3   0 105.119 1.96993   3
  -6   3   0 103.801 3.69301   1
   5  -3   0 51.2056 2.46292   1
   5  -3   0 56.1678 1.62338   2
  -5   3   0 48.9865 2.36411   1
  -5   3   0 52.7029 1.16379   3
  -5   3   0 55.0102 2.45898   1
   4  -3   0 10.4983 0.77763   2
   4  -3   0 11.4121 1.15623   1
   4  -3   0 12.6009 1.29042   1
  -4   3   0 10.7475 0.47781   3
  -4   3   0 10.7235 1.19079   1
  -4   3   0 12.6095 1.24632   1
   3  -3   0 0.23726 0.41514   2
   3  -3   0 1.65434 0.69061   1
   3  -3   0 1.10308 0.75669   1
  -3   3   0 -0.0625 0.65331   1
  -3   3   0 0.92473 0.23988   3
  -3   3   0 1.50658 0.70246   1
   2  -3   0 1147.70 17.2675   3
   2  -3   0 1155.17 18.3514   1
   2  -3   0 1172.97 17.3737   5
   2  -3   0 1164.50 17.4944   2
   2  -3   0 1178.78 18.4527   1
   2  -3   0 1131.40 17.3083   4
  -2   3   0 1166.63 18.3705   1
  -2   3   0 1149.18 18.3960   1
  -2   3   0 1166.93 17.2881   3
   1  -3   0 22.8807 0.64836   3
   1  -3   0 22.5837 0.81759   2
   1  -3   0 21.6921 0.62086   5
   1  -3   0 21.4472 0.59097   4
   1  -3   0 20.2387 1.10666   1
  -1   3   0 24.6917 0.70047   3
  -1   3   0 22.0264 0.75631   2
  -1   3   0 16.8430 0.94133   1
  -1   3   0 22.7305 1.16914   1
   0  -3   0 667.351 10.0953   2
   0  -3   0 646.929 10.0518   3
   0  -3   0 659.113 10.7437   1
   0  -3   0 691.281 10.8854   1
   0  -3   0 661.113 9.92535   5
   0   3   0 666.272 10.0820   2
   0   3   0 666.039 10.7895   1
   0   3   0 667.451 10.7925   1
   0   3   0 639.950 10.0595   3
   0   3   0 666.298 9.92634   5
  -1  -3   0 56.4255 1.21090   3
  -1  -3   0 56.8522 1.69028   1
  -1  -3   0 58.1093 1.02720   4
  -1  -3   0 56.3988 1.73869   1
   1   3   0 55.5910 1.71681   1
   1   3   0 57.7025 1.26248   3
   1   3   0 58.3611 1.08565   5
   1   3   0 60.2246 1.74698   1
   1   3   0 55.0083 1.16717   2
  -2  -3   0 370.658 6.68927   1
  -2  -3   0 380.402 6.03688   3
  -2  -3   0 379.866 6.36722   1
  -2  -3   0 378.979 5.82525   4
   2   3   0 381.224 6.07542   3
   2   3   0 386.027 6.48335   1
   2   3   0 378.607 5.81072   4
   2   3   0 388.542 6.29315   1
  -3  -3   0 520.498 7.96234   4
  -3  -3   0 515.116 8.32007   1
  -3  -3   0 519.729 8.29376   1
   3   3   0 501.606 8.12663   3
   3   3   0 523.669 8.33136   1
   3   3   0 534.688 8.37368   1
   3   3   0 517.049 7.94248   4
  -4  -3   0 1511.53 22.5162   4
  -4  -3   0 1487.11 23.7392   1
  -4  -3   0 1518.93 23.8203   1
   4   3   0 1550.60 23.8789   1
   4   3   0 1467.27 22.6272   3
   4   3   0 1504.23 23.7830   1
  -5  -3   0 22.1477 0.87745   4
  -5  -3   0 22.7145 1.52982   1
  -5  -3   0 22.0489 1.52937   1
   5   3   0 21.7462 0.90574   3
   5   3   0 20.7664 1.49572   1
   5   3   0 22.1574 0.80350   2
   5   3   0 21.3115 1.52424   1
  -6  -3   0 954.425 14.3975   4
  -6  -3   0 930.641 14.8355   1
  -6  -3   0 918.126 14.8195   1
   6   3   0 927.273 14.2404   2
   6   3   0 922.772 14.8215   1
   6   3   0 916.884 14.3636   3
  -7  -3   0 15.3481 0.94983   4
  -7  -3   0 15.5640 1.73341   1
   7   3   0 15.1189 1.74268   1
   7   3   0 13.6505 0.79349   2
  -8  -3   0 87.2150 3.64005   1
  -8  -3   0 80.7999 2.19068   4
   8   3   0 80.3195 2.01500   2
   8   3   0 78.6228 3.51086   1
  -9  -3   0 7.03745 0.87187   4
   9   3   0 7.33307 0.77671   2
   8  -4   0 0.83961 0.85645   2
   7  -4   0 82.5817 2.40478   2
   7  -4   0 82.2865 3.73419   1
  -7   4   0 84.3892 3.65857   1
   6  -4   0 116.943 4.16250   1
   6  -4   0 118.477 2.81590   2
  -6   4   0 112.975 3.96609   1
   5  -4   0 27.3983 1.28971   2
   5  -4   0 31.0825 2.04453   1
  -5   4   0 34.2408 2.06303   1
  -5   4   0 31.5022 0.89028   3
   4  -4   0 172.412 4.58830   1
   4  -4   0 185.584 3.52941   2
  -4   4   0 178.304 2.87898   3
  -4   4   0 179.894 4.56069   1
  -4   4   0 176.671 4.57063   1
   3  -4   0 128.366 3.51560   1
   3  -4   0 134.685 2.72282   2
   3  -4   0 134.843 2.56511   5
   3  -4   0 140.150 3.73089   1
  -3   4   0 131.934 3.58833   1
  -3   4   0 137.326 3.62664   1
  -3   4   0 134.000 2.41005   3
   2  -4   0 3165.14 47.1328   1
   2  -4   0 2994.22 45.7084   4
   2  -4   0 3121.87 45.7598   3
   2  -4   0 3115.94 45.7932   5
   2  -4   0 3131.48 47.1668   1
   2  -4   0 3160.53 45.9903   2
  -2   4   0 3107.14 47.1407   1
  -2   4   0 3105.92 47.1011   1
  -2   4   0 2998.65 45.7440   3
   1  -4   0 3082.24 46.0949   3
   1  -4   0 3184.81 46.0220   5
   1  -4   0 3067.48 45.9444   4
   1  -4   0 3167.06 47.3318   1
   1  -4   0 3114.70 46.2156   2
   1  -4   0 3115.16 47.2029   1
  -1   4   0 3094.87 46.0982   3
  -1   4   0 3110.14 47.2454   1
  -1   4   0 3168.99 47.2556   1
   0  -4   0 13.0546 0.57818   3
   0  -4   0 10.2249 1.01732   1
   0  -4   0 13.3443 0.46848   5
   0  -4   0 12.8198 0.63543   2
   0  -4   0 14.9135 1.05325   1
   0   4   0 13.0404 0.63088   3
   0   4   0 15.0957 1.08342   1
   0   4   0 12.7714 0.45659   5
   0   4   0 13.8509 1.06718   1
  -1  -4   0 494.481 8.05798   1
  -1  -4   0 494.040 7.48761   4
  -1  -4   0 503.422 7.99174   1
   1   4   0 498.277 7.83729   3
   1   4   0 504.911 7.98681   1
   1   4   0 485.339 7.73232   2
   1   4   0 501.733 7.96405   1
   1   4   0 487.823 7.57938   5
  -2  -4   0 10.2892 0.42798   4
  -2  -4   0 10.8096 1.01844   1
  -2  -4   0 10.6216 0.96479   1
   2   4   0 12.9033 1.06425   1
   2   4   0 10.1619 0.69861   3
   2   4   0 10.1565 0.53280   2
   2   4   0 10.5719 0.39641   4
   2   4   0 10.6046 1.01433   1
   2   4   0 10.7010 0.48357   5
  -3  -4   0 0.89133 0.65942   1
  -3  -4   0 0.31775 0.27137   4
  -3  -4   0 0.75923 0.69154   1
   3   4   0 0.39143 0.21781   4
   3   4   0 0.73021 0.38909   3
   3   4   0 1.05572 0.72697   1
   3   4   0 0.87745 0.67518   1
  -4  -4   0 32.1677 1.67781   1
  -4  -4   0 34.9533 1.80295   1
  -4  -4   0 35.7849 0.97142   4
   4   4   0 33.0782 1.76797   1
   4   4   0 32.8749 1.13759   3
   4   4   0 30.7602 1.70286   1
  -5  -4   0 145.408 2.73935   4
  -5  -4   0 142.049 3.92481   1
  -5  -4   0 140.558 3.99189   1
   5   4   0 146.671 2.91662   3
   5   4   0 149.589 4.08938   1
  -6  -4   0 156.855 4.43116   1
  -6  -4   0 155.360 4.34278   1
  -6  -4   0 152.102 2.98158   4
   6   4   0 152.506 3.09321   3
   6   4   0 147.278 4.38434   1
   6   4   0 148.202 2.89873   2
  -7  -4   0 28.2418 2.18227   1
  -7  -4   0 35.7097 1.31206   4
   7   4   0 32.2240 1.29436   3
   7   4   0 32.9657 1.15910   2
   7   4   0 34.6264 2.30412   1
  -8  -4   0 4.95019 0.75492   4
  -8  -4   0 6.57061 1.47936   1
   8   4   0 6.18268 0.67344   2
   8   4   0 3.74809 1.37817   1
  -9  -4   0 171.053 3.71005   4
   7  -5   0 11.8140 1.11477   2
   7  -5   0 10.2494 1.02360   5
   7  -5   0 9.10561 1.90573   1
   6  -5   0 17.5593 2.01374   1
   6  -5   0 15.0702 1.02335   5
   6  -5   0 15.0323 1.10651   2
  -6   5   0 11.2782 1.76842   1
   5  -5   0 71.3730 1.91383   5
   5  -5   0 70.3106 3.17760   1
   5  -5   0 69.6155 2.07453   2
  -5   5   0 67.4921 1.52724   3
  -5   5   0 64.3166 2.99963   1
   4  -5   0 30.7476 2.03761   1
   4  -5   0 29.5388 1.27102   2
   4  -5   0 29.6504 1.11890   5
  -4   5   0 29.9298 0.94828   3
  -4   5   0 29.9030 1.95374   1
   3  -5   0 767.841 11.8734   2
   3  -5   0 762.795 11.5990   5
   3  -5   0 752.141 12.9521   1
  -3   5   0 725.752 12.7079   1
  -3   5   0 745.492 11.4827   3
  -3   5   0 720.610 13.1291   1
   2  -5   0 82.2710 1.71656   5
   2  -5   0 83.6148 2.00538   2
   2  -5   0 82.6298 2.84641   1
   2  -5   0 81.9457 2.76473   1
  -2   5   0 81.3994 1.76796   3
  -2   5   0 87.4098 2.85410   1
  -2   5   0 84.7966 2.82032   1
   1  -5   0 153.173 2.55566   4
   1  -5   0 173.892 2.70862   5
   1  -5   0 161.685 3.88159   1
   1  -5   0 156.822 3.05766   2
   1  -5   0 160.759 4.03912   1
  -1   5   0 157.135 3.88717   1
  -1   5   0 160.749 2.95513   3
  -1   5   0 168.368 4.03754   1
   0  -5   0 16.3395 0.79543   2
   0  -5   0 17.0689 1.21875   1
   0  -5   0 16.8781 1.25286   1
   0  -5   0 16.7480 0.56567   5
   0   5   0 16.6000 0.75954   3
   0   5   0 16.0537 1.18267   1
   0   5   0 16.6086 1.20465   1
   0   5   0 16.2602 0.55017   5
  -1  -5   0 -0.2054 0.65124   1
  -1  -5   0 0.62728 0.19424   4
  -1  -5   0 0.98524 0.60646   1
   1   5   0 0.64574 0.21225   5
   1   5   0 0.47081 0.64780   1
   1   5   0 0.32879 0.37174   3
   1   5   0 -0.0532 0.52583   1
  -2  -5   0 141.426 2.24538   4
  -2  -5   0 144.683 3.56975   1
  -2  -5   0 148.717 3.72785   1
   2   5   0 139.651 3.62147   1
   2   5   0 143.197 2.40355   5
   2   5   0 138.376 3.56232   1
   2   5   0 141.830 2.80994   3
  -3  -5   0 67.3363 2.41189   1
  -3  -5   0 69.9420 1.39283   4
  -3  -5   0 68.7149 2.53245   1
   3   5   0 68.6713 2.47535   1
   3   5   0 70.5910 2.53559   1
   3   5   0 66.9945 1.33705   4
   3   5   0 67.7355 1.72611   3
  -4  -5   0 213.766 5.10377   1
  -4  -5   0 213.171 4.97857   1
  -4  -5   0 210.864 3.44061   4
   4   5   0 221.875 3.99493   3
   4   5   0 208.309 5.03572   1
  -5  -5   0 151.989 4.25773   1
  -5  -5   0 155.944 4.36648   1
  -5  -5   0 159.387 2.90448   4
   5   5   0 150.004 3.16072   3
   5   5   0 156.655 4.35727   1
  -6  -5   0 141.093 2.79475   4
  -6  -5   0 138.445 4.30249   1
   6   5   0 140.880 3.03419   3
   6   5   0 135.028 4.27679   1
  -7  -5   0 42.4487 2.61791   1
  -7  -5   0 45.3444 1.47191   4
   7   5   0 45.0603 1.61173   3
   7   5   0 45.6778 2.66344   1
   7   5   0 45.7744 1.40313   2
  -8  -5   0 15.2814 0.98917   4
  -8  -5   0 18.4684 2.03367   1
   8   5   0 15.8731 0.91732   2
   8   5   0 14.7674 1.06062   3
   8   5   0 16.4237 2.02398   1
  -9  -5   0 9.86111 0.96562   4
   7  -6   0 13.9691 1.28676   2
   7  -6   0 12.6233 1.07705   5
   6  -6   0 8.26496 0.87374   5
   6  -6   0 9.18403 1.09573   2
   6  -6   0 7.54230 1.73991   1
  -6   6   0 10.4513 1.76270   1
   5  -6   0 11.5663 1.76480   1
   5  -6   0 9.88926 0.81668   5
   5  -6   0 10.3499 1.06066   2
  -5   6   0 10.0897 1.69042   1
   4  -6   0 18.5759 1.16676   2
   4  -6   0 17.8260 0.91098   5
   4  -6   0 17.0078 1.79226   1
  -4   6   0 19.4476 0.83094   3
  -4   6   0 17.4971 1.73910   1
   3  -6   0 215.637 5.58191   1
   3  -6   0 216.483 3.87413   5
   3  -6   0 220.598 4.23928   2
  -3   6   0 220.190 5.50954   1
  -3   6   0 216.948 3.86472   3
   2  -6   0 647.414 10.4294   2
   2  -6   0 632.220 11.7784   1
   2  -6   0 658.721 10.0529   5
  -2   6   0 649.460 11.7192   1
  -2   6   0 640.285 10.1768   3
   1  -6   0 51.9314 2.28300   1
   1  -6   0 51.3543 1.17077   4
   1  -6   0 49.0403 1.18460   5
   1  -6   0 52.7598 1.54920   2
   1  -6   0 49.6735 2.33514   1
  -1   6   0 53.6791 2.34483   1
  -1   6   0 52.1756 1.44957   3
   0  -6   0 92.5037 2.11414   2
   0  -6   0 97.0043 3.16310   1
   0  -6   0 95.2927 1.70901   4
   0  -6   0 88.0432 2.91285   1
   0  -6   0 91.3857 1.76363   5
   0   6   0 89.2760 3.20036   1
   0   6   0 91.3202 1.75311   5
   0   6   0 93.2125 3.03716   1
   0   6   0 94.9178 2.10386   3
  -1  -6   0 10.6553 1.15107   1
  -1  -6   0 11.7510 0.45971   4
  -1  -6   0 10.5463 1.21129   1
   1   6   0 13.2022 0.81882   3
   1   6   0 12.1132 0.51757   5
   1   6   0 12.0333 1.21617   1
   1   6   0 12.3538 1.30661   1
  -2  -6   0 2.31684 0.76551   1
  -2  -6   0 1.63369 0.87931   1
  -2  -6   0 1.77992 0.27495   4
   2   6   0 2.71261 0.33586   5
   2   6   0 2.60672 0.60085   3
   2   6   0 1.86882 0.86334   1
  -3  -6   0 275.479 4.50055   4
  -3  -6   0 279.009 6.03879   1
  -3  -6   0 290.370 6.27465   1
   3   6   0 278.882 4.98782   3
   3   6   0 272.909 6.12099   1
  -4  -6   0 20.4898 1.67046   1
  -4  -6   0 22.2872 1.72787   1
  -4  -6   0 22.6558 0.78929   4
   4   6   0 24.2806 1.79825   1
   4   6   0 21.9097 1.14123   3
  -5  -6   0 16.9999 1.65828   1
  -5  -6   0 16.6158 0.77969   4
   5   6   0 18.8814 1.68232   1
   5   6   0 17.9564 1.09391   3
  -6  -6   0 44.4656 2.57212   1
  -6  -6   0 41.4769 1.29153   4
   6   6   0 41.5635 1.58177   3
   6   6   0 39.9309 2.50103   1
  -7  -6   0 4.85483 0.66152   4
  -7  -6   0 4.68033 1.39493   1
   7   6   0 5.76886 0.80258   3
   7   6   0 5.73952 1.41415   1
   7   6   0 6.72436 0.66837   2
  -8  -6   0 169.092 3.48033   4
   8   6   0 167.014 3.74159   3
   6  -7   0 51.8518 2.08977   2
   5  -7   0 0.65774 0.73921   2
   5  -7   0 -0.0022 1.37036   1
  -5   7   0 0.74179 1.34785   1
   4  -7   0 168.342 3.38707   5
   4  -7   0 178.226 3.85358   2
   4  -7   0 173.985 5.40663   1
  -4   7   0 168.692 3.31862   3
  -4   7   0 182.195 5.31155   1
   3  -7   0 6.04707 1.39069   1
   3  -7   0 7.31380 0.60095   5
   3  -7   0 5.79328 0.81049   2
  -3   7   0 7.91169 1.44394   1
  -3   7   0 7.64609 0.69526   3
   2  -7   0 4.84747 1.19079   1
   2  -7   0 4.19016 0.45980   5
   2  -7   0 4.43114 0.70119   2
  -2   7   0 6.48428 0.69122   3
  -2   7   0 5.09453 1.13714   1
   1  -7   0 36.2133 0.99752   5
   1  -7   0 36.0290 1.39906   2
   1  -7   0 33.4208 2.17212   1
  -1   7   0 42.4258 2.27532   1
  -1   7   0 33.8882 1.26342   3
   0  -7   0 9.29187 1.32782   1
   0  -7   0 7.61583 0.72241   2
   0  -7   0 7.70958 0.44080   4
   0   7   0 6.60371 1.17719   1
   0   7   0 8.01625 0.72684   3
  -1  -7   0 3.19257 1.01730   1
  -1  -7   0 4.80370 0.35849   4
   1   7   0 4.47175 0.70009   3
   1   7   0 4.39829 1.07854   1
  -2  -7   0 142.931 4.29490   1
  -2  -7   0 140.784 2.47114   4
   2   7   0 143.010 3.09684   3
   2   7   0 151.558 4.30226   1
  -3  -7   0 395.462 8.18201   1
  -3  -7   0 383.040 6.08799   4
   3   7   0 386.298 6.66696   3
   3   7   0 382.817 8.10354   1
  -4  -7   0 497.123 7.78612   4
  -4  -7   0 500.520 9.94191   1
   4   7   0 492.747 7.86918   3
   4   7   0 497.656 9.98868   1
  -5  -7   0 69.0073 1.60962   4
  -5  -7   0 68.8802 3.16710   1
   5   7   0 67.2676 2.08293   3
   5   7   0 71.0611 3.17679   1
  -6  -7   0 320.782 7.73034   1
  -6  -7   0 322.716 5.13579   4
   6   7   0 322.650 5.99719   3
   6   7   0 316.179 7.72407   1
  -7  -7   0 25.8360 1.13918   4
   7   7   0 24.3968 1.40627   3
   8   7   0 1.44117 0.80919   3
   4  -8   0 183.950 4.08642   2
   4  -8   0 179.670 5.84128   1
  -4   8   0 172.587 5.65466   1
   3  -8   0 63.6119 2.13053   2
   3  -8   0 62.9249 3.34278   1
  -3   8   0 64.3810 3.25022   1
  -3   8   0 57.9175 1.74619   3
   2  -8   0 0.57849 0.65783   2
   2  -8   0 0.71174 1.04915   1
  -2   8   0 -0.4901 0.88795   1
  -2   8   0 0.01612 0.55555   3
   1  -8   0 15.8238 1.04434   2
   1  -8   0 17.4150 1.87658   1
  -1   8   0 15.8082 0.99738   3
  -1   8   0 19.2469 1.90339   1
   0  -8   0 6.60306 1.39899   1
   0   8   0 8.97672 0.88710   3
   0   8   0 10.1833 1.55163   1
  -1  -8   0 1.71363 1.07444   1
   1   8   0 3.31765 0.69044   3
   1   8   0 4.64829 1.24069   1
  -2  -8   0 0.32258 0.91066   1
   2   8   0 -0.1164 0.85222   1
   2   8   0 0.30497 0.60612   3
  -3  -8   0 20.9890 1.92245   1
   3   8   0 21.6569 1.92159   1
   3   8   0 21.4976 1.25108   3
  -4  -8   0 279.041 7.03706   1
   4   8   0 286.853 5.47234   3
   4   8   0 293.576 7.09875   1
  -5  -8   0 5.57958 1.42587   1
   5   8   0 6.91143 0.90479   3
   5   8   0 7.05739 1.56971   1
   6   8   0 51.9608 1.98780   3
   7   8   0 125.991 3.29522   3
   3  -9   0 1.79119 0.77737   2
   2  -9   0 -0.5583 0.60755   2
  -2   9   0 0.81276 1.41357   1
  -2   9   0 0.26235 0.58501   3
   1  -9   0 1.08376 1.40984   1
   1  -9   0 0.04236 0.59975   2
  -1   9   0 0.84910 0.66534   3
  -1   9   0 1.53680 1.35600   1
   0  -9   0 4.21851 1.35159   1
   0   9   0 4.70118 0.78631   3
   0   9   0 2.57675 1.18427   1
  -1  -9   0 13.4174 1.88278   1
   1   9   0 10.8187 1.72525   1
   1   9   0 12.4799 1.08008   3
  -2  -9   0 40.8190 2.74370   1
   2   9   0 49.0253 1.79376   3
   2   9   0 47.4679 2.84382   1
  -3  -9   0 31.7843 2.53678   1
   3   9   0 34.0954 2.58506   1
   3   9   0 37.1397 1.66453   3
   4   9   0 3.84653 0.93347   3
   4   9   0 2.45124 1.42284   1
   5   9   0 29.9059 1.61249   3
   6   9   0 2.50918 0.88625   3
   0  10   0 38.3589 1.69934   3
   1  10   0 7.57639 0.98152   3
   2  10   0 103.303 2.87401   3
   3  10   0 61.5460 2.24153   3
   3  10  -1 2.52873 0.83868   3
   2  10  -1 42.6861 1.82982   3
   1  10  -1 2.82265 0.82804   3
   0  10  -1 8.96137 1.08118   3
   5   9  -1 13.6681 1.24335   3
   4   9  -1 34.2188 1.63655   3
   3   9  -1 4.70164 0.91413   3
   2   9  -1 180.408 5.41146   1
   2   9  -1 176.216 3.90542   3
  -2  -9   1 177.911 5.51636   1
   1   9  -1 0.26944 1.15481   1
   1   9  -1 2.34206 0.78730   3
  -1  -9   1 1.02472 1.29451   1
   0   9  -1 1.01464 1.17037   1
   0   9  -1 -0.5476 0.68301   3
   0  -9   1 0.70302 1.24523   1
  -1   9  -1 1.54095 1.17010   1
  -1   9  -1 0.23836 0.68589   3
   1  -9   1 -0.2971 1.06372   1
  -2   9  -1 14.9507 1.99760   1
  -2   9  -1 17.3789 1.12967   3
   2  -9   1 15.6053 1.20673   2
  -3   9  -1 28.0467 1.35883   3
   3  -9   1 28.7059 1.60426   2
   7   8  -1 48.3248 1.97362   3
   6   8  -1 86.7256 2.59717   3
   5   8  -1 79.7028 2.42709   3
  -5  -8   1 82.8459 3.70147   1
   4   8  -1 14.1247 1.14384   3
   4   8  -1 10.7060 1.69954   1
  -4  -8   1 9.79805 1.62787   1
   3   8  -1 79.7513 3.37556   1
   3   8  -1 80.6242 2.31091   3
  -3  -8   1 82.6849 3.45973   1
   2   8  -1 1.25217 0.63998   3
   2   8  -1 5.01988 1.32104   1
  -2  -8   1 1.74356 1.17451   1
   1   8  -1 7.47331 1.33819   1
   1   8  -1 7.62399 0.87105   3
  -1  -8   1 8.21425 1.36960   1
   0   8  -1 4.05739 1.14757   1
   0   8  -1 4.64908 0.79256   3
   0  -8   1 3.81447 1.16046   1
  -1   8  -1 3.59366 0.67361   3
  -1   8  -1 4.19523 1.17479   1
   1  -8   1 3.04078 0.71725   2
   1  -8   1 2.78187 1.17628   1
  -2   8  -1 5.83885 1.42219   1
  -2   8  -1 8.35927 0.83361   3
   2  -8   1 7.43506 1.48196   1
   2  -8   1 10.8660 1.00713   2
  -3   8  -1 517.920 10.5886   1
  -3   8  -1 493.364 8.18246   3
   3  -8   1 499.670 8.72504   2
   3  -8   1 503.589 10.7364   1
  -4   8  -1 177.730 5.68614   1
   4  -8   1 189.747 4.16410   2
   5  -8   1 43.2578 1.89729   2
   8   7  -1 62.9031 2.19312   3
   7   7  -1 31.9116 1.53655   3
   6   7  -1 8.69643 0.95017   3
   6   7  -1 10.1198 1.76251   1
  -6  -7   1 11.9945 1.78420   1
   5   7  -1 1.44438 1.01383   1
   5   7  -1 0.42927 0.58533   3
  -5  -7   1 0.26717 0.34935   4
  -5  -7   1 -1.3327 0.79950   1
   4   7  -1 3.24686 1.16718   1
   4   7  -1 3.19892 0.75544   3
  -4  -7   1 3.30163 0.38488   4
  -4  -7   1 3.88165 1.24681   1
   3   7  -1 12.8769 1.49122   1
   3   7  -1 14.2373 1.00504   3
  -3  -7   1 14.9007 0.54180   4
  -3  -7   1 14.9628 1.64474   1
  -3  -7   1 14.1832 1.45874   1
   2   7  -1 63.0182 1.86510   3
   2   7  -1 57.0805 2.61383   1
  -2  -7   1 56.6528 2.53732   1
  -2  -7   1 60.0931 1.14851   4
  -2  -7   1 57.1066 2.69437   1
   1   7  -1 2.91620 0.60505   3
   1   7  -1 3.53924 1.06732   1
  -1  -7   1 2.86321 0.25826   4
  -1  -7   1 1.38562 0.94945   1
  -1  -7   1 3.54193 1.08423   1
   0   7  -1 66.9871 2.79582   1
   0   7  -1 70.2290 1.88558   3
   0  -7   1 66.0866 1.52820   5
   0  -7   1 64.4937 2.72851   1
   0  -7   1 66.6993 1.29198   4
   0  -7   1 68.8920 2.93988   1
  -1   7  -1 45.4501 2.38346   1
  -1   7  -1 45.0187 1.46259   3
   1  -7   1 38.6846 1.13770   5
   1  -7   1 40.6933 1.48315   2
   1  -7   1 41.5513 2.36658   1
  -2   7  -1 187.791 5.07198   1
  -2   7  -1 190.027 3.65080   3
   2  -7   1 184.453 5.19433   1
   2  -7   1 188.411 3.43395   5
   2  -7   1 192.600 3.86612   2
  -3   7  -1 169.659 3.33114   3
  -3   7  -1 166.601 4.94540   1
   3  -7   1 168.274 3.24099   5
   3  -7   1 164.894 5.04111   1
   3  -7   1 174.817 3.67165   2
  -4   7  -1 177.210 3.45593   3
  -4   7  -1 183.869 5.37551   1
   4  -7   1 177.707 5.45170   1
   4  -7   1 179.322 3.54554   5
   4  -7   1 179.181 3.89396   2
  -5   7  -1 5.05705 1.46606   1
   5  -7   1 7.10654 1.00076   2
   5  -7   1 8.00097 1.67705   1
   5  -7   1 7.86853 0.79385   5
   6  -7   1 22.8455 1.43176   2
   8   6  -1 129.441 2.89977   2
   8   6  -1 130.245 3.14732   3
  -8  -6   1 124.244 2.84031   4
   7   6  -1 43.0542 1.66422   3
   7   6  -1 42.9256 1.46740   2
  -7  -6   1 43.5722 2.76147   1
  -7  -6   1 42.6149 1.38798   4
   6   6  -1 116.742 4.12695   1
   6   6  -1 122.825 2.88324   3
  -6  -6   1 120.567 2.46158   4
  -6  -6   1 117.558 4.10956   1
   5   6  -1 247.713 5.96686   1
   5   6  -1 236.374 4.54561   3
  -5  -6   1 238.316 5.94635   1
  -5  -6   1 236.487 3.89949   4
  -5  -6   1 233.665 5.76299   1
   4   6  -1 227.053 5.52382   1
   4   6  -1 223.422 4.28640   3
  -4  -6   1 221.670 5.35437   1
  -4  -6   1 223.013 3.56853   4
  -4  -6   1 231.847 5.56677   1
   3   6  -1 168.229 4.36739   1
   3   6  -1 169.224 3.33914   3
  -3  -6   1 157.981 4.21113   1
  -3  -6   1 160.045 4.33416   1
  -3  -6   1 159.398 2.56170   4
   2   6  -1 7.73901 0.71861   3
   2   6  -1 8.77318 1.12949   1
  -2  -6   1 9.22805 1.21108   1
  -2  -6   1 8.09125 1.03875   1
  -2  -6   1 7.78227 0.36210   4
   1   6  -1 9.80607 1.15458   1
   1   6  -1 9.08151 0.52099   5
   1   6  -1 10.9931 0.81144   3
  -1  -6   1 8.52848 1.06541   1
  -1  -6   1 8.18147 1.10381   1
  -1  -6   1 9.21422 0.35894   4
   0   6  -1 2.05251 0.81789   1
   0   6  -1 1.04095 0.44890   3
   0   6  -1 1.41709 0.30239   5
   0  -6   1 0.92332 0.74242   1
   0  -6   1 1.25479 0.30684   5
   0  -6   1 0.94815 0.20156   4
   0  -6   1 1.46083 0.77893   1
  -1   6  -1 20.2566 1.58164   1
  -1   6  -1 21.8143 0.97225   3
   1  -6   1 19.6028 0.61762   4
   1  -6   1 20.2981 1.54267   1
   1  -6   1 19.6681 0.75298   5
   1  -6   1 20.0356 0.98130   2
  -2   6  -1 787.645 13.1958   1
  -2   6  -1 771.026 12.2879   3
   2  -6   1 759.900 13.1344   1
   2  -6   1 801.991 12.2071   5
   2  -6   1 802.648 12.5246   2
   2  -6   1 804.947 13.8748   1
  -3   6  -1 1053.35 16.2433   3
  -3   6  -1 1041.85 16.9334   1
   3  -6   1 1074.15 16.2972   5
   3  -6   1 1059.92 16.9202   1
   3  -6   1 1063.08 16.5469   2
  -4   6  -1 32.7078 2.20856   1
  -4   6  -1 32.8224 1.13697   3
   4  -6   1 30.2882 1.18516   5
   4  -6   1 33.9548 1.41071   2
   4  -6   1 32.3421 2.26620   1
  -5   6  -1 89.4900 2.00690   3
  -5   6  -1 83.8837 3.54742   1
   5  -6   1 87.3786 2.42000   2
   5  -6   1 88.4560 2.23994   5
   5  -6   1 86.5971 3.70571   1
  -6   6  -1 14.2085 1.97657   1
   6  -6   1 14.7540 1.17279   2
   6  -6   1 15.7654 2.09501   1
   6  -6   1 16.6734 1.08023   5
   7  -6   1 52.5663 2.03663   2
   7  -6   1 51.5353 1.92790   5
  -9  -5   1 10.2397 0.93995   4
   8   5  -1 17.1712 1.09190   3
   8   5  -1 17.7783 1.01944   2
  -8  -5   1 17.9129 1.05002   4
   7   5  -1 5.42687 1.43195   1
   7   5  -1 5.70259 0.77184   3
   7   5  -1 5.85964 0.66403   2
  -7  -5   1 6.15782 0.68792   4
  -7  -5   1 6.35727 1.41234   1
   6   5  -1 18.4095 1.03165   3
   6   5  -1 17.7596 1.71422   1
  -6  -5   1 17.2224 1.70982   1
  -6  -5   1 18.9235 0.88605   4
  -6  -5   1 16.5014 1.72750   1
   5   5  -1 30.4932 1.99253   1
   5   5  -1 33.6121 1.28972   3
  -5  -5   1 33.6324 1.04233   4
  -5  -5   1 31.7594 1.98007   1
  -5  -5   1 34.8228 2.06877   1
   4   5  -1 5.87262 1.11075   1
   4   5  -1 7.44778 0.74115   3
  -4  -5   1 5.96573 1.10098   1
  -4  -5   1 9.85675 1.14036   1
  -4  -5   1 7.30071 0.48891   4
   3   5  -1 109.545 1.92946   4
   3   5  -1 115.661 3.28834   1
   3   5  -1 113.811 3.59526   1
   3   5  -1 109.414 2.39977   3
  -3  -5   1 115.155 3.20514   1
  -3  -5   1 111.700 1.97650   4
  -3  -5   1 112.811 3.27564   1
   2   5  -1 69.4914 1.49074   5
   2   5  -1 69.9259 2.38209   1
   2   5  -1 68.5209 1.70196   3
   2   5  -1 67.4928 2.36767   1
  -2  -5   1 69.0662 2.34681   1
  -2  -5   1 69.0389 2.41303   1
  -2  -5   1 69.4401 1.25703   4
   1   5  -1 122.046 2.44593   3
   1   5  -1 116.927 2.16460   5
   1   5  -1 120.377 3.20032   1
   1   5  -1 118.269 3.18859   1
  -1  -5   1 123.097 3.25476   1
  -1  -5   1 122.791 3.17734   1
  -1  -5   1 117.277 1.96163   4
   0   5  -1 0.15849 0.51105   1
   0   5  -1 -0.3914 0.34751   3
   0   5  -1 0.23518 0.22975   5
   0   5  -1 0.00774 0.48364   1
   0  -5   1 -0.2258 0.36295   2
   0  -5   1 0.27391 0.14999   4
   0  -5   1 0.26270 0.23705   5
   0  -5   1 0.47989 0.49225   1
   0  -5   1 0.04399 0.53729   1
  -1   5  -1 790.889 13.5651   1
  -1   5  -1 804.276 12.3385   3
  -1   5  -1 812.299 13.6016   1
   1  -5   1 793.254 13.5278   1
   1  -5   1 808.508 12.1979   5
   1  -5   1 808.552 13.1766   1
   1  -5   1 782.830 11.9919   4
   1  -5   1 791.022 12.4210   2
  -2   5  -1 123.169 2.38818   3
  -2   5  -1 117.596 3.36368   1
  -2   5  -1 123.000 3.44585   1
   2  -5   1 123.224 2.55198   2
   2  -5   1 120.553 2.33262   5
   2  -5   1 121.895 3.39200   1
   2  -5   1 121.997 3.51121   1
   2  -5   1 113.655 2.15845   4
  -3   5  -1 391.020 7.74491   1
  -3   5  -1 378.075 6.29817   3
   3  -5   1 386.630 7.80000   1
   3  -5   1 388.456 6.12675   2
   3  -5   1 390.218 7.70666   1
   3  -5   1 388.298 6.39275   5
  -4   5  -1 8.82181 0.60622   3
  -4   5  -1 11.0015 1.33482   1
   4  -5   1 10.2428 0.84894   2
   4  -5   1 10.2926 0.74698   5
   4  -5   1 9.96469 1.37100   1
  -5   5  -1 16.8943 0.76726   3
  -5   5  -1 18.1696 1.80296   1
   5  -5   1 14.8038 1.01407   2
   5  -5   1 14.9286 1.76431   1
   5  -5   1 16.7396 0.98964   5
  -6   5  -1 45.0011 2.75130   1
   6  -5   1 55.5298 3.02055   1
   6  -5   1 49.1710 1.79400   2
   6  -5   1 53.5638 1.77510   5
  -7   5  -1 33.3318 2.65379   1
   7  -5   1 31.4402 1.50970   5
   7  -5   1 31.1419 2.64617   1
   7  -5   1 30.4673 1.55119   2
   9   4  -1 11.3317 0.93067   2
  -9  -4   1 12.6007 1.03467   4
   8   4  -1 0.81701 0.52817   3
   8   4  -1 0.27873 0.50751   2
  -8  -4   1 0.55170 0.54424   4
  -8  -4   1 2.58713 1.35791   1
   7   4  -1 279.831 6.69968   1
   7   4  -1 263.942 4.78046   2
   7   4  -1 263.449 4.86985   3
  -7  -4   1 270.795 4.83077   4
  -7  -4   1 267.588 6.56249   1
   6   4  -1 11.7059 0.80659   3
   6   4  -1 11.2900 1.48666   1
   6   4  -1 9.88806 0.69593   2
  -6  -4   1 8.91502 1.36806   1
  -6  -4   1 12.4679 1.46727   1
  -6  -4   1 10.3298 0.74170   4
   5   4  -1 74.3130 1.85400   3
   5   4  -1 74.2347 2.78848   1
  -5  -4   1 76.5422 2.80807   1
  -5  -4   1 76.5395 2.74628   1
  -5  -4   1 73.1942 1.68993   4
   4   4  -1 21.7727 0.91967   3
   4   4  -1 22.1532 1.49343   1
   4   4  -1 21.7867 1.43812   1
  -4  -4   1 21.3593 0.75307   4
  -4  -4   1 23.2435 1.44728   1
  -4  -4   1 24.5305 1.53354   1
   3   4  -1 257.925 4.15229   4
   3   4  -1 259.558 4.27329   3
   3   4  -1 266.229 5.29191   1
   3   4  -1 261.150 5.36273   1
  -3  -4   1 265.288 5.36046   1
  -3  -4   1 256.164 4.17490   4
  -3  -4   1 261.972 5.29596   1
   2   4  -1 8.98703 0.93046   1
   2   4  -1 9.53347 0.91147   1
   2   4  -1 8.52857 0.47245   5
   2   4  -1 8.54568 0.64813   3
   2   4  -1 8.88998 0.33323   4
  -2  -4   1 8.78775 0.36232   4
  -2  -4   1 8.55465 0.91507   1
  -2  -4   1 8.69007 0.91249   1
   1   4  -1 358.606 5.84363   3
   1   4  -1 357.790 6.52392   1
   1   4  -1 356.979 6.43902   1
   1   4  -1 360.203 5.63732   5
  -1  -4   1 358.125 5.38811   4
  -1  -4   1 341.360 6.37291   1
  -1  -4   1 368.362 6.57743   1
   0   4  -1 214.345 4.38014   1
   0   4  -1 217.453 3.59385   5
   0   4  -1 217.868 4.45066   1
   0   4  -1 214.659 3.51340   3
   0  -4   1 214.277 3.59319   2
   0  -4   1 218.041 3.60511   5
   0  -4   1 228.663 4.56246   1
   0  -4   1 225.510 4.42712   1
  -1   4  -1 194.801 3.25685   3
  -1   4  -1 202.742 4.18536   1
  -1   4  -1 190.732 3.26831   5
  -1   4  -1 187.465 4.03886   1
   1  -4   1 196.391 3.29917   5
   1  -4   1 192.924 3.41863   2
   1  -4   1 191.030 4.22651   1
   1  -4   1 200.130 4.13684   1
   1  -4   1 192.411 3.11592   4
  -2   4  -1 3994.26 59.3071   3
  -2   4  -1 4123.05 60.6164   1
  -2   4  -1 3899.03 60.5290   1
   2  -4   1 3957.90 60.5195   1
   2  -4   1 4120.98 59.3527   5
   2  -4   1 4116.91 59.1864   4
   2  -4   1 4054.33 59.4550   2
   2  -4   1 3818.17 59.3090   3
   2  -4   1 4123.97 60.6737   1
  -3   4  -1 40.7793 1.90040   1
  -3   4  -1 39.2323 1.89008   1
  -3   4  -1 42.1440 1.09726   3
   3  -4   1 40.1439 1.95239   1
   3  -4   1 41.8582 1.19052   5
   3  -4   1 42.2299 1.91420   1
   3  -4   1 44.8373 1.33364   2
  -4   4  -1 150.186 4.05889   1
  -4   4  -1 149.849 2.70357   3
   4  -4   1 150.222 4.03853   1
   4  -4   1 148.572 2.95400   5
   4  -4   1 151.796 3.04595   2
   4  -4   1 146.330 4.11827   1
  -5   4  -1 48.5665 2.39539   1
  -5   4  -1 47.7677 1.21764   3
   5  -4   1 46.1459 2.44096   1
   5  -4   1 46.9208 1.55604   2
   5  -4   1 48.4891 1.54905   5
  -6   4  -1 9.45742 0.57401   3
  -6   4  -1 10.0185 1.56964   1
   6  -4   1 10.4199 1.63955   1
   6  -4   1 10.0732 0.89309   2
  -7   4  -1 46.3486 2.75939   1
   7  -4   1 47.2906 1.74402   2
   7  -4   1 45.9338 2.86413   1
   8  -4   1 41.2008 2.98405   1
   8  -4   1 43.4332 1.78958   2
   9   3  -1 3.57590 0.71922   2
  -9  -3   1 2.75544 0.70164   4
   8   3  -1 1.27527 0.51806   2
   8   3  -1 1.35057 1.29566   1
  -8  -3   1 2.40273 1.30161   1
  -8  -3   1 1.14908 0.59826   4
   7   3  -1 161.241 4.78186   1
   7   3  -1 163.724 3.22566   3
   7   3  -1 163.461 3.23979   2
  -7  -3   1 159.418 4.69129   1
  -7  -3   1 172.328 4.86760   1
  -7  -3   1 165.229 3.32249   4
   6   3  -1 17.0874 0.84797   2
   6   3  -1 17.2454 0.86745   3
   6   3  -1 17.1949 1.59612   1
  -6  -3   1 16.0459 1.47072   1
  -6  -3   1 21.6487 1.72794   1
  -6  -3   1 18.0922 0.88138   4
   5   3  -1 148.909 2.80052   2
   5   3  -1 147.728 2.84688   3
   5   3  -1 156.012 4.03202   1
  -5  -3   1 151.334 2.82266   4
  -5  -3   1 145.579 3.92861   1
  -5  -3   1 152.597 3.93687   1
   4   3  -1 5.16117 0.52767   3
   4   3  -1 4.43872 0.85275   1
   4   3  -1 4.13801 0.76577   1
  -4  -3   1 5.34721 0.88169   1
  -4  -3   1 4.51294 0.42482   4
  -4  -3   1 6.50675 0.94980   1
   3   3  -1 26.9223 1.37151   1
   3   3  -1 26.3333 1.39375   1
   3   3  -1 27.1929 0.72190   4
   3   3  -1 27.2105 0.91161   3
  -3  -3   1 28.4377 1.44267   1
  -3  -3   1 25.3204 1.32600   1
  -3  -3   1 27.7073 0.76361   4
   2   3  -1 4.14512 0.65668   1
   2   3  -1 6.13740 0.30313   4
   2   3  -1 7.01665 0.73682   1
   2   3  -1 7.43852 0.55276   3
  -2  -3   1 5.34838 0.71928   1
  -2  -3   1 6.59305 0.44851   3
  -2  -3   1 6.85868 0.34284   4
  -2  -3   1 5.98883 0.72361   1
   1   3  -1 615.745 10.1112   1
   1   3  -1 625.336 9.43245   2
   1   3  -1 611.953 9.37710   5
   1   3  -1 614.981 10.1155   1
   1   3  -1 620.829 9.49657   3
  -1  -3   1 626.466 9.16565   4
  -1  -3   1 621.036 9.46772   3
  -1  -3   1 606.000 10.1094   1
  -1  -3   1 621.510 10.1010   1
   0   3  -1 3785.42 55.4221   5
   0   3  -1 3708.72 55.4912   3
   0   3  -1 3728.71 55.4812   2
   0   3  -1 3740.56 56.1654   1
   0   3  -1 3826.18 56.2155   1
   0  -3   1 3721.76 55.4079   5
   0  -3   1 3791.89 55.5023   2
   0  -3   1 3812.47 56.1768   1
   0  -3   1 3775.54 55.4934   3
   0  -3   1 3810.38 56.2504   1
  -1   3  -1 2560.17 38.9849   1
  -1   3  -1 2608.36 38.9993   1
  -1   3  -1 2571.26 38.2279   2
  -1   3  -1 2578.27 38.1509   5
  -1   3  -1 2557.52 38.1789   3
   1  -3   1 2591.21 38.9855   1
   1  -3   1 2581.49 39.0316   1
   1  -3   1 2730.27 38.1915   5
   1  -3   1 2586.49 38.2404   2
   1  -3   1 2515.28 37.9962   4
   1  -3   1 2568.57 38.1741   3
  -2   3  -1 1851.92 28.1685   1
  -2   3  -1 1800.44 28.1710   1
  -2   3  -1 1864.33 27.1591   3
   2  -3   1 1879.71 27.2358   5
   2  -3   1 1807.74 28.1956   1
   2  -3   1 1820.03 28.1521   1
   2  -3   1 1855.55 27.2868   2
   2  -3   1 1822.39 27.1335   3
   2  -3   1 1772.43 27.0759   4
  -3   3  -1 95.4954 1.78546   3
  -3   3  -1 91.8101 2.68151   1
  -3   3  -1 93.1844 2.70593   1
   3  -3   1 94.6045 2.67360   1
   3  -3   1 91.3890 1.97954   2
   3  -3   1 93.4981 2.77459   1
   3  -3   1 93.6752 1.95124   5
  -4   3  -1 92.0005 2.94202   1
  -4   3  -1 98.9846 2.99781   1
  -4   3  -1 96.8738 1.84631   3
  -4   3  -1 95.8857 2.00642   4
   4  -3   1 97.3294 2.94302   1
   4  -3   1 97.6850 3.04437   1
   4  -3   1 98.3892 2.13782   2
  -5   3  -1 145.498 4.10854   1
  -5   3  -1 148.689 2.92098   4
  -5   3  -1 145.795 2.64118   3
   5  -3   1 152.374 3.03277   2
   5  -3   1 152.983 4.24151   1
  -6   3  -1 72.1538 1.53706   3
  -6   3  -1 68.9221 2.94835   1
  -6   3  -1 66.5326 1.84021   4
   6  -3   1 69.2343 3.01727   1
   6  -3   1 69.6551 1.92124   2
  -7   3  -1 21.5242 2.03878   1
   7  -3   1 23.1329 1.20478   2
   7  -3   1 22.8349 2.13823   1
  -8   3  -1 173.370 5.48876   1
   8  -3   1 171.903 3.71898   2
   8  -3   1 166.788 5.52538   1
   9   2  -1 13.2180 0.98515   2
  -9  -2   1 13.7522 1.05980   4
   8   2  -1 53.7859 1.67097   2
   8   2  -1 48.1106 2.82598   1
  -8  -2   1 53.0450 1.75658   4
  -8  -2   1 53.2096 2.89119   1
   7   2  -1 2.24581 1.05321   1
   7   2  -1 1.10210 0.48391   2
  -7  -2   1 1.08503 0.96849   1
  -7  -2   1 0.10478 0.97801   1
  -7  -2   1 0.12527 0.49995   4
   6   2  -1 18.2027 0.79961   3
   6   2  -1 18.8971 0.87021   2
   6   2  -1 16.7453 1.49398   1
  -6  -2   1 17.4240 0.90312   4
  -6  -2   1 16.8025 1.45615   1
  -6  -2   1 16.6630 1.50471   1
   5   2  -1 23.0727 1.50710   1
   5   2  -1 23.8804 0.85120   3
   5   2  -1 23.7157 1.54760   1
   5   2  -1 23.7855 0.87627   2
  -5  -2   1 24.1401 1.53186   1
  -5  -2   1 24.2078 0.90607   4
  -5  -2   1 23.3718 1.55743   1
   4   2  -1 122.029 2.26483   3
   4   2  -1 121.276 3.17320   1
   4   2  -1 120.626 2.26074   2
   4   2  -1 121.122 3.08394   1
  -4  -2   1 123.293 3.14037   1
  -4  -2   1 117.170 2.25525   4
  -4  -2   1 119.767 2.20998   3
  -4  -2   1 118.570 3.10190   1
   3   2  -1 235.432 3.87880   4
   3   2  -1 237.795 3.97526   3
   3   2  -1 243.567 4.72212   1
   3   2  -1 246.282 4.66302   1
  -3  -2   1 245.798 4.69497   1
  -3  -2   1 239.653 4.71090   1
  -3  -2   1 239.363 3.91623   4
  -3  -2   1 239.553 3.94760   3
   2   2  -1 2224.19 32.4750   4
   2   2  -1 2240.94 33.2426   1
   2   2  -1 2262.52 33.2671   1
   2   2  -1 2154.52 32.5986   3
  -2  -2   1 2206.12 33.2107   1
  -2  -2   1 2156.90 32.4673   4
  -2  -2   1 2146.96 32.5852   3
  -2  -2   1 2265.76 33.2739   1
   1   2  -1 793.591 12.1715   1
   1   2  -1 781.295 11.6903   5
   1   2  -1 758.631 11.7099   3
   1   2  -1 770.782 11.5051   4
   1   2  -1 789.407 12.1711   1
  -1  -2   1 788.618 12.1562   1
  -1  -2   1 781.286 12.1922   1
  -1  -2   1 774.383 11.7062   3
  -1  -2   1 784.876 11.5091   4
   0   2  -1 61.8076 1.19693   3
   0   2  -1 61.8805 1.12998   5
   0   2  -1 61.6853 1.18399   2
   0   2  -1 60.3874 1.50005   1
   0   2  -1 64.8097 1.54721   1
   0  -2   1 61.5629 1.54015   1
   0  -2   1 63.4881 1.18216   3
   0  -2   1 61.5255 1.13881   5
   0  -2   1 56.1327 1.37145   1
   0  -2   1 63.3425 1.20832   2
  -1   2  -1 9999.99 146.428   2
  -2   2  -1 127.564 2.02700   3
  -2   2  -1 123.257 2.22961   2
  -2   2  -1 127.201 2.09904   4
  -2   2  -1 129.195 2.86430   1
  -2   2  -1 129.123 2.84426   1
   2  -2   1 128.329 2.04828   4
   2  -2   1 121.381 2.25905   2
   2  -2   1 129.690 2.82516   1
   2  -2   1 133.442 2.91918   1
  -3   2  -1 7.79947 0.86672   1
  -3   2  -1 7.93455 0.41249   3
  -3   2  -1 6.08368 0.85657   1
  -3   2  -1 7.33928 0.47197   4
  -3   2  -1 7.62154 0.50709   2
   3  -2   1 7.42462 0.86087   1
   3  -2   1 7.55002 0.47360   4
   3  -2   1 7.26118 0.57428   2
   3  -2   1 8.38890 0.98396   1
  -4   2  -1 3.20573 0.33225   3
  -4   2  -1 5.56558 0.83916   1
  -4   2  -1 6.35724 0.96132   1
  -4   2  -1 4.19498 0.46391   4
   4  -2   1 4.35542 0.55325   2
   4  -2   1 3.95854 0.75116   1
   4  -2   1 5.19401 0.95906   1
  -5   2  -1 3.02074 0.92892   1
  -5   2  -1 3.63310 0.55812   4
  -5   2  -1 1.80675 0.89523   1
   5  -2   1 2.99794 1.01096   1
   5  -2   1 2.99762 0.51975   2
   5  -2   1 3.35900 0.90195   1
  -6   2  -1 16.1697 0.89567   4
  -6   2  -1 14.5694 1.51373   1
   6  -2   1 15.9895 0.93023   2
   6  -2   1 14.3038 1.53184   1
  -7   2  -1 8.42008 0.81835   4
  -7   2  -1 8.66586 0.54363   3
  -7   2  -1 8.90623 1.53804   1
   7  -2   1 7.28393 1.51642   1
   7  -2   1 7.34103 0.81992   2
  -8   2  -1 20.8729 2.06027   1
  -8   2  -1 19.9017 1.16382   4
   8  -2   1 20.5264 1.17757   2
   8  -2   1 22.4563 2.16200   1
   9  -2   1 16.8189 1.17510   2
   9  -2   1 16.4807 2.26745   1
   9   1  -1 104.689 2.63812   2
  -9  -1   1 104.022 2.73299   4
   8   1  -1 115.531 2.67459   2
   8   1  -1 117.533 4.24001   1
  -8  -1   1 116.788 4.19605   1
  -8  -1   1 118.849 2.81364   4
   7   1  -1 167.385 4.82282   1
   7   1  -1 169.457 3.33650   2
  -7  -1   1 178.471 4.85016   1
  -7  -1   1 166.473 3.41113   4
  -7  -1   1 159.952 4.67175   1
   6   1  -1 64.3955 1.65368   2
   6   1  -1 69.9703 2.72255   1
  -6  -1   1 65.4134 2.64058   1
  -6  -1   1 62.0302 1.68705   4
  -6  -1   1 62.8708 2.59376   1
   5   1  -1 65.0458 1.51373   2
   5   1  -1 61.5208 2.27853   1
   5   1  -1 61.4967 2.34087   1
  -5  -1   1 62.0157 1.33472   3
  -5  -1   1 58.6550 2.27971   1
  -5  -1   1 58.2114 2.27728   1
  -5  -1   1 64.4190 1.56578   4
   4   1  -1 200.933 4.35636   1
   4   1  -1 201.907 3.35766   3
   4   1  -1 202.353 4.30067   1
   4   1  -1 202.666 3.29116   2
  -4  -1   1 202.920 4.34304   1
  -4  -1   1 198.256 4.30680   1
  -4  -1   1 202.754 3.47645   4
  -4  -1   1 202.220 3.34232   3
   3   1  -1 186.167 3.02286   4
   3   1  -1 190.580 3.81335   1
   3   1  -1 189.191 3.10971   3
   3   1  -1 191.278 3.88708   1
   3   1  -1 189.330 3.19295   2
  -3  -1   1 194.804 3.86486   1
  -3  -1   1 187.684 2.99915   4
  -3  -1   1 185.859 3.08972   3
  -3  -1   1 192.881 3.84752   1
   2   1  -1 1612.69 24.7306   1
   2   1  -1 1652.35 24.1828   4
   2   1  -1 1607.58 24.1688   3
   2   1  -1 1672.81 24.7406   1
  -2  -1   1 1663.62 24.7430   1
  -2  -1   1 1615.39 24.1702   3
  -2  -1   1 1652.05 24.7510   1
  -2  -1   1 1628.99 24.1816   4
   1   1  -1 1629.75 24.6383   3
   1   1  -1 1690.44 24.9474   1
   1   1  -1 1692.60 24.5754   4
   1   1  -1 1641.38 24.9321   1
  -1  -1   1 1698.52 24.9611   1
  -1  -1   1 1658.35 24.5717   4
  -1  -1   1 1654.49 24.6396   3
  -1  -1   1 1703.83 24.9506   1
   0   1  -1 331.953 5.11732   1
   0   1  -1 322.032 4.91724   5
   0   1  -1 324.138 4.92996   3
   0   1  -1 321.157 5.11160   1
   0  -1   1 323.434 4.92574   3
   0  -1   1 323.865 4.92481   5
   0  -1   1 330.900 5.13037   1
  -1   1  -1 2.83005 0.23612   4
  -1   1  -1 2.45630 0.26325   2
  -1   1  -1 2.46579 0.22341   3
  -1   1  -1 2.36410 0.41769   1
   1  -1   1 2.75579 0.21998   4
   1  -1   1 2.74114 0.28183   2
   1  -1   1 1.15619 0.36945   1
   1  -1   1 2.94205 0.29710   5
  -2   1  -1 33.4582 0.75547   2
  -2   1  -1 34.0650 1.20260   1
  -2   1  -1 33.5873 0.77740   4
  -2   1  -1 34.8077 1.18303   1
   2  -1   1 33.7718 0.76626   4
   2  -1   1 30.1599 1.02451   1
   2  -1   1 27.3594 0.97969   1
   2  -1   1 34.1295 0.78787   2
  -3   1  -1 16.5255 0.65635   4
  -3   1  -1 14.8827 1.01783   1
  -3   1  -1 16.4500 1.01970   1
  -3   1  -1 14.9615 0.56552   2
   3  -1   1 14.6517 0.60422   4
   3  -1   1 17.1276 1.00901   1
   3  -1   1 16.8922 1.07087   1
   3  -1   1 16.2583 0.63804   2
  -4   1  -1 297.763 4.93399   4
  -4   1  -1 296.566 4.82602   2
  -4   1  -1 295.770 5.80279   1
  -4   1  -1 298.361 5.77848   1
   4  -1   1 301.746 5.88740   1
   4  -1   1 296.153 5.74678   1
   4  -1   1 297.676 4.88091   2
  -5   1  -1 74.9159 1.53478   3
  -5   1  -1 79.6102 2.67891   1
  -5   1  -1 81.8436 2.70854   1
  -5   1  -1 76.6628 1.78944   4
   5  -1   1 78.1313 2.71202   1
   5  -1   1 72.4199 2.54318   1
   5  -1   1 77.4689 1.73298   2
  -6   1  -1 14.4898 0.88219   4
  -6   1  -1 15.6360 1.53128   1
  -6   1  -1 19.3799 1.58678   1
   6  -1   1 17.0940 1.54612   1
   6  -1   1 14.8903 0.82306   2
  -7   1  -1 48.3047 2.59093   1
  -7   1  -1 49.7904 1.62286   4
   7  -1   1 49.5572 2.68572   1
   7  -1   1 49.7426 1.52967   2
  -8   1  -1 168.982 3.59423   4
  -8   1  -1 161.451 5.07694   1
   8  -1   1 173.013 5.31072   1
   8  -1   1 164.729 3.42804   2
  -9   1  -1 75.2155 2.29045   4
   9  -1   1 78.5111 3.86981   1
   9  -1   1 76.0487 2.18104   2
   9   0  -1 25.3390 1.32202   2
   8   0  -1 49.0413 1.65737   2
   8   0  -1 50.4496 2.88978   1
  -8   0   1 45.0882 1.66709   4
  -8   0   1 51.1808 2.84173   1
   7   0  -1 12.1745 0.85130   2
   7   0  -1 9.11336 1.48500   1
  -7   0   1 13.3298 1.59999   1
  -7   0   1 14.2922 1.64175   1
  -7   0   1 12.6018 0.92600   4
   6   0  -1 61.8396 1.64909   2
   6   0  -1 58.9816 2.58071   1
  -6   0   1 60.7894 1.31794   3
  -6   0   1 62.4183 1.68999   4
  -6   0   1 61.2585 2.58321   1
  -6   0   1 67.3632 2.65639   1
   5   0  -1 21.0141 1.49832   1
   5   0  -1 22.7193 0.90227   2
   5   0  -1 22.8016 1.46486   1
  -5   0   1 20.9719 0.88928   4
  -5   0   1 20.0336 1.45042   1
  -5   0   1 21.0694 0.64090   3
  -5   0   1 22.8880 1.52312   1
   4   0  -1 13.9961 1.13291   1
   4   0  -1 14.8095 0.67297   2
   4   0  -1 13.4488 1.07931   1
  -4   0   1 13.8997 0.48038   3
  -4   0   1 11.7272 1.04428   1
  -4   0   1 16.3760 0.72455   4
  -4   0   1 15.7425 1.15350   1
   3   0  -1 1804.21 27.4291   1
   3   0  -1 1760.71 26.6210   2
   3   0  -1 1797.58 26.6255   4
   3   0  -1 1795.41 27.3626   1
  -3   0   1 1769.91 27.3579   1
  -3   0   1 1810.06 26.6156   2
  -3   0   1 1820.10 26.4379   3
  -3   0   1 1803.07 26.6280   4
  -3   0   1 1790.06 27.3962   1
   2   0  -1 989.576 14.7146   2
   2   0  -1 990.370 15.1891   1
   2   0  -1 976.871 14.6881   4
   2   0  -1 975.063 14.5499   3
   2   0  -1 971.240 15.1998   1
  -2   0   1 992.703 14.6988   4
  -2   0   1 995.394 14.5516   3
  -2   0   1 994.578 15.2066   1
  -2   0   1 1005.57 14.7023   2
  -2   0   1 969.451 15.1767   1
   1   0  -1 1.89851 0.20614   4
   1   0  -1 1.97499 0.14128   3
   1   0  -1 2.47745 0.24551   2
   1   0  -1 1.73574 0.32315   1
   1   0  -1 3.23824 0.40291   1
  -1   0   1 2.59249 0.37925   1
  -1   0   1 2.04048 0.36815   1
  -1   0   1 2.99888 0.14548   3
  -1   0   1 2.75294 0.25163   4
  -1   0   1 1.89863 0.22214   2
   0   0   1 519.840 7.68300   5
  -1   0  -1 1092.15 16.3031   4
  -1   0  -1 1135.58 16.5621   1
  -1   0  -1 1106.68 16.2417   2
  -1   0  -1 1106.44 16.5516   1
   1   0   1 1098.97 16.2423   2
   1   0   1 1102.33 16.5406   1
   1   0   1 1087.92 16.2989   4
   1   0   1 1123.58 16.5654   1
  -2   0  -1 1042.93 15.7843   1
  -2   0  -1 1020.70 15.7741   1
  -2   0  -1 1034.45 15.1834   2
  -2   0  -1 1013.16 15.2630   4
   2   0   1 1036.72 15.7983   1
   2   0   1 1021.34 15.1861   2
   2   0   1 1016.88 15.2567   4
   2   0   1 1030.34 15.7622   1
  -3   0  -1 105.999 2.54090   1
  -3   0  -1 106.827 2.56029   1
  -3   0  -1 102.561 1.81894   3
  -3   0  -1 103.539 1.92986   4
  -3   0  -1 106.327 1.79796   2
   3   0   1 104.984 2.58005   1
   3   0   1 102.733 2.50637   1
   3   0   1 104.526 1.90459   4
   3   0   1 102.904 1.82456   2
  -4   0  -1 119.297 3.02893   1
  -4   0  -1 118.308 2.99467   1
  -4   0  -1 114.012 2.06248   2
  -4   0  -1 111.239 2.21300   4
  -4   0  -1 114.174 2.05337   3
   4   0   1 112.285 3.02090   1
   4   0   1 117.355 2.11408   2
   4   0   1 112.614 2.95713   1
  -5   0  -1 51.7722 1.18770   3
  -5   0  -1 50.3715 1.38296   4
  -5   0  -1 53.9088 2.14595   1
  -5   0  -1 50.7359 2.12628   1
   5   0   1 50.9105 1.27116   2
   5   0   1 53.0762 2.09817   1
   5   0   1 50.1459 2.16470   1
  -6   0  -1 153.193 3.06014   4
  -6   0  -1 155.042 4.21590   1
  -6   0  -1 154.935 4.21929   1
   6   0   1 154.745 4.24950   1
   6   0   1 154.395 2.91481   2
  -7   0  -1 38.3215 2.26860   1
  -7   0  -1 43.3745 1.50824   4
   7   0   1 42.5922 2.42788   1
   7   0   1 44.1854 1.35105   2
  -8   0  -1 155.842 3.41319   4
  -8   0  -1 156.973 4.93964   1
   8   0   1 165.895 3.27408   2
   8   0   1 161.034 5.03973   1
  -9   0  -1 19.8801 2.19219   1
  -9   0  -1 20.0902 1.24453   4
   9   0   1 20.1181 2.23487   1
   9   0   1 21.6528 1.14344   2
   9  -1  -1 64.5769 2.09582   2
   8  -1  -1 95.0083 2.44878   2
   8  -1  -1 88.5713 3.84805   1
  -8   1   1 93.7000 3.84955   1
   7  -1  -1 32.3835 2.26790   1
   7  -1  -1 27.6644 1.25341   2
  -7   1   1 34.3470 2.26548   1
  -7   1   1 31.7133 1.32331   4
   6  -1  -1 1.91408 1.04163   1
   6  -1  -1 1.63901 0.52901   2
  -6   1   1 1.61132 0.49798   4
  -6   1   1 3.34871 1.03438   1
  -6   1   1 2.01060 0.87607   1
   5  -1  -1 12.6936 1.26486   1
   5  -1  -1 8.94725 0.66632   2
   5  -1  -1 9.56062 1.15947   1
  -5   1   1 9.09621 0.39629   3
  -5   1   1 8.64755 1.06262   1
  -5   1   1 9.43399 0.69827   4
  -5   1   1 10.3301 1.13994   1
   4  -1  -1 142.014 3.44451   1
   4  -1  -1 148.660 2.70307   2
   4  -1  -1 145.340 3.56653   1
  -4   1   1 144.952 3.48356   1
  -4   1   1 141.749 2.66282   4
  -4   1   1 138.131 2.31487   3
  -4   1   1 138.232 3.26890   1
   3  -1  -1 347.639 5.52269   4
   3  -1  -1 345.694 6.29495   1
   3  -1  -1 341.519 6.17398   1
   3  -1  -1 346.458 5.56552   2
  -3   1   1 343.595 6.22232   1
  -3   1   1 347.141 5.54088   4
  -3   1   1 346.176 5.52271   2
  -3   1   1 345.586 5.22606   3
  -3   1   1 354.742 6.25764   1
   2  -1  -1 108.812 2.39584   1
   2  -1  -1 108.520 1.91015   4
   2  -1  -1 109.583 2.46111   1
   2  -1  -1 108.996 1.95588   2
  -2   1   1 109.060 2.42600   1
  -2   1   1 111.215 2.45733   1
  -2   1   1 108.825 1.69239   3
  -2   1   1 106.125 1.91866   2
   1  -1  -1 6015.49 87.9688   2
   1  -1  -1 5891.58 88.3252   1
   1  -1  -1 5982.73 88.3246   1
  -1   1   1 6152.33 87.9770   2
  -1   1   1 5978.26 88.3427   1
   0  -1  -1 218.370 3.33627   3
   0  -1  -1 225.237 3.64445   1
   0  -1  -1 214.822 3.59970   1
   0  -1  -1 215.278 3.35923   2
   0   1   1 222.299 3.62486   1
   0   1   1 217.317 3.62348   1
   0   1   1 220.341 3.35985   2
   0   1   1 216.808 3.34131   3
  -1  -1  -1 574.969 8.54066   4
  -1  -1  -1 578.445 8.89739   1
  -1  -1  -1 561.529 8.87011   1
  -1  -1  -1 570.390 8.57610   3
   1   1   1 566.201 8.53336   4
   1   1   1 583.623 8.46909   2
   1   1   1 580.962 8.90102   1
   1   1   1 571.119 8.58189   3
   1   1   1 568.187 8.88752   1
  -2  -1  -1 792.718 12.5686   1
  -2  -1  -1 803.508 12.0763   3
  -2  -1  -1 803.700 12.0615   4
  -2  -1  -1 812.519 12.6197   1
   2   1   1 801.855 12.5934   1
   2   1   1 810.738 12.0570   4
   2   1   1 816.372 12.6244   1
   2   1   1 830.825 11.9567   2
   2   1   1 793.570 12.0766   3
  -3  -1  -1 77.2162 1.53597   4
  -3  -1  -1 76.5086 1.49104   3
  -3  -1  -1 79.6102 2.15430   1
  -3  -1  -1 80.3731 2.13333   1
   3   1   1 78.1050 1.40699   2
   3   1   1 75.9867 1.50796   3
   3   1   1 80.6298 2.16086   1
   3   1   1 78.4102 2.10509   1
   3   1   1 78.0658 1.50859   4
  -4  -1  -1 36.6510 1.61287   1
  -4  -1  -1 38.2241 0.96366   3
  -4  -1  -1 38.6116 1.64625   1
  -4  -1  -1 35.7639 1.04330   4
   4   1   1 36.8237 1.67475   1
   4   1   1 37.6682 1.63163   1
   4   1   1 37.4876 0.91459   2
  -5  -1  -1 204.760 4.68296   1
  -5  -1  -1 208.778 3.70243   4
  -5  -1  -1 215.902 4.77452   1
   5   1   1 204.184 4.61842   1
   5   1   1 207.828 4.76428   1
   5   1   1 210.813 3.31157   2
  -6  -1  -1 0.64327 0.46254   4
  -6  -1  -1 0.82114 0.81413   1
  -6  -1  -1 0.46721 0.77097   1
   6   1   1 -0.1454 0.33789   2
   6   1   1 -0.0847 0.76693   1
  -7  -1  -1 508.640 10.0464   1
  -7  -1  -1 527.234 8.54104   4
   7   1   1 513.853 10.1584   1
   7   1   1 509.443 8.27408   2
  -8  -1  -1 57.5744 2.96178   1
  -8  -1  -1 56.8215 1.82306   4
   8   1   1 54.8631 1.60965   2
   8   1   1 57.1487 3.03208   1
  -9  -1  -1 91.0946 2.52196   4
  -9  -1  -1 96.4571 4.04828   1
   9   1   1 90.8764 2.27956   2
   9   1   1 92.5183 4.10431   1
   9  -2  -1 3.83542 0.90848   2
   8  -2  -1 85.6700 3.87684   1
   8  -2  -1 90.1174 2.43840   2
  -8   2   1 79.7751 3.73129   1
   7  -2  -1 5.00520 1.32689   1
   7  -2  -1 5.96195 0.82972   2
  -7   2   1 6.76336 1.39401   1
   6  -2  -1 123.940 2.74005   2
   6  -2  -1 128.397 4.00525   1
  -6   2   1 121.742 1.97545   3
  -6   2   1 126.476 3.92626   1
  -6   2   1 118.125 3.82161   1
   5  -2  -1 96.4670 3.19910   1
   5  -2  -1 98.0442 2.22169   2
  -5   2   1 94.4272 1.67382   3
  -5   2   1 97.2803 3.14760   1
  -5   2   1 100.503 3.16720   1
  -5   2   1 96.6179 1.65199   3
   4  -2  -1 1343.33 20.0727   2
   4  -2  -1 1303.88 21.1393   1
   4  -2  -1 1357.02 21.3364   1
  -4   2   1 1343.30 21.2476   1
  -4   2   1 1304.96 19.6014   3
  -4   2   1 1302.28 21.1895   1
   3  -2  -1 22.8050 1.34285   1
   3  -2  -1 25.5233 0.93209   2
   3  -2  -1 24.4292 1.27607   1
  -3   2   1 25.0919 0.55606   3
  -3   2   1 19.7693 1.13943   1
  -3   2   1 25.9517 1.32931   1
   2  -2  -1 2.96437 0.30448   4
   2  -2  -1 2.57951 0.64025   1
   2  -2  -1 3.31541 0.63400   1
   2  -2  -1 2.49007 0.44234   2
  -2   2   1 2.63853 0.62609   1
  -2   2   1 3.19555 0.39481   2
  -2   2   1 3.27127 0.66289   1
  -2   2   1 2.81017 0.21261   3
   1  -2  -1 1886.99 28.7457   1
   1  -2  -1 1903.90 28.0116   3
   1  -2  -1 1885.68 28.1567   2
   1  -2  -1 1909.77 28.6997   1
  -1   2   1 1902.12 28.7465   1
  -1   2   1 1897.43 28.7133   1
  -1   2   1 1913.46 28.1559   2
  -1   2   1 1931.14 28.0154   3
   0  -2  -1 267.680 4.17300   2
   0  -2  -1 265.049 4.29165   1
   0  -2  -1 272.838 3.96753   5
   0  -2  -1 262.354 4.11785   3
   0  -2  -1 265.238 4.64084   1
   0   2   1 267.810 4.15732   2
   0   2   1 270.083 4.27605   1
   0   2   1 259.615 4.13080   3
   0   2   1 258.797 4.25746   1
  -1  -2  -1 5.27929 0.55480   1
  -1  -2  -1 5.04903 0.33266   3
  -1  -2  -1 5.27426 0.28097   2
  -1  -2  -1 5.59747 0.58518   1
  -1  -2  -1 5.64358 0.28509   4
   1   2   1 6.87284 0.63325   1
   1   2   1 6.00311 0.57236   1
   1   2   1 4.95408 0.25589   4
   1   2   1 5.05712 0.38242   3
   1   2   1 5.32199 0.27864   2
  -2  -2  -1 898.494 13.4871   4
  -2  -2  -1 894.775 14.1970   1
  -2  -2  -1 892.182 13.5703   3
  -2  -2  -1 923.983 14.2000   1
   2   2   1 910.813 14.2077   1
   2   2   1 918.954 13.4862   4
   2   2   1 891.678 13.5797   3
   2   2   1 906.156 14.2081   1
  -3  -2  -1 924.681 13.6093   4
  -3  -2  -1 884.464 13.6347   3
  -3  -2  -1 885.940 14.4637   1
  -3  -2  -1 908.510 14.4749   1
   3   2   1 914.847 13.6772   3
   3   2   1 904.189 14.5025   1
   3   2   1 897.548 13.5826   4
   3   2   1 910.076 14.4773   1
  -4  -2  -1 74.0772 1.59703   4
  -4  -2  -1 71.9983 2.31591   1
  -4  -2  -1 71.7225 2.30767   1
   4   2   1 74.1091 2.33147   1
   4   2   1 72.4053 1.59724   3
   4   2   1 74.4904 1.44400   2
   4   2   1 74.4460 2.36955   1
  -5  -2  -1 407.582 7.72125   1
  -5  -2  -1 420.387 6.67898   4
  -5  -2  -1 405.753 7.77135   1
   5   2   1 411.737 7.84960   1
   5   2   1 412.904 6.63258   3
   5   2   1 392.848 7.64792   1
   5   2   1 420.189 6.48564   2
  -6  -2  -1 64.3625 2.57170   1
  -6  -2  -1 59.1409 2.54058   1
  -6  -2  -1 61.9201 1.66039   4
   6   2   1 63.0657 2.62415   1
   6   2   1 62.0041 1.45614   2
  -7  -2  -1 349.777 5.99897   4
  -7  -2  -1 342.152 7.54979   1
   7   2   1 348.216 5.64258   2
   7   2   1 338.567 7.57938   1
  -8  -2  -1 0.48943 1.06894   1
  -8  -2  -1 1.38340 0.58314   4
   8   2   1 0.68619 0.45725   2
   8   2   1 -0.2186 1.00136   1
  -9  -2  -1 19.9080 1.20717   4
  -9  -2  -1 20.4287 2.18120   1
   9   2   1 19.4786 1.02370   2
   9   2   1 19.5777 2.19985   1
   8  -3  -1 0.19348 0.69621   2
   7  -3  -1 38.5782 1.58149   2
   7  -3  -1 34.1492 2.42601   1
  -7   3   1 36.3378 2.43916   1
   6  -3  -1 26.7501 2.05464   1
   6  -3  -1 25.9302 1.25324   2
  -6   3   1 29.8984 2.08603   1
   5  -3  -1 99.5078 3.33994   1
   5  -3  -1 96.1857 2.31974   2
  -5   3   1 94.5109 3.25194   1
  -5   3   1 100.955 3.31495   1
  -5   3   1 96.7891 1.72204   3
   4  -3  -1 173.561 4.28022   1
   4  -3  -1 164.618 3.18950   2
   4  -3  -1 158.756 4.03226   1
  -4   3   1 162.179 2.68977   3
  -4   3   1 164.377 4.15037   1
  -4   3   1 160.012 4.07756   1
   3  -3  -1 191.011 4.24628   1
   3  -3  -1 195.390 4.38480   1
   3  -3  -1 193.752 3.49283   2
  -3   3   1 192.114 4.28411   1
  -3   3   1 191.096 3.10952   3
  -3   3   1 193.248 4.33041   1
   2  -3  -1 502.394 7.52628   3
   2  -3  -1 503.405 8.10598   1
   2  -3  -1 487.363 7.92543   1
   2  -3  -1 483.822 7.65092   4
   2  -3  -1 491.900 7.83258   2
  -2   3   1 487.701 8.04322   1
  -2   3   1 485.762 7.98605   1
  -2   3   1 518.151 7.54655   3
   1  -3  -1 477.124 7.48815   2
   1  -3  -1 489.764 7.25732   5
   1  -3  -1 486.752 7.31276   3
   1  -3  -1 486.264 7.74171   1
   1  -3  -1 469.527 7.75589   1
  -1   3   1 481.973 7.89440   1
  -1   3   1 471.501 7.44184   2
  -1   3   1 482.853 7.32426   3
  -1   3   1 460.564 7.64544   1
   0  -3  -1 829.584 12.7107   3
   0  -3  -1 866.342 13.5645   1
   0  -3  -1 850.827 13.4577   1
   0  -3  -1 852.782 12.7603   2
   0  -3  -1 859.110 12.5242   5
   0   3   1 851.957 13.4822   1
   0   3   1 855.824 12.7515   2
   0   3   1 837.685 12.7247   3
   0   3   1 821.797 13.4535   1
   0   3   1 837.650 12.5196   5
  -1  -3  -1 146.150 2.42388   4
  -1  -3  -1 149.303 2.35099   2
  -1  -3  -1 150.368 3.12113   1
  -1  -3  -1 143.123 3.15622   1
  -1  -3  -1 144.115 2.49539   3
   1   3   1 149.998 2.35968   5
   1   3   1 146.650 3.14702   1
   1   3   1 147.909 2.35784   2
   1   3   1 147.714 2.57585   3
   1   3   1 151.495 3.17745   1
  -2  -3  -1 68.9343 1.31017   4
  -2  -3  -1 70.1194 2.01530   1
  -2  -3  -1 65.4423 2.01872   1
  -2  -3  -1 69.8308 1.45391   3
   2   3   1 67.8503 1.30360   2
   2   3   1 68.1766 1.27380   4
   2   3   1 65.2231 2.00834   1
   2   3   1 70.0622 1.49155   3
   2   3   1 67.4309 2.00015   1
  -3  -3  -1 3.79387 0.74053   1
  -3  -3  -1 3.55269 0.37558   4
  -3  -3  -1 4.08737 0.78392   1
   3   3   1 3.44667 0.77296   1
   3   3   1 3.16598 0.69654   1
   3   3   1 4.40346 0.36351   4
   3   3   1 4.59190 0.51463   3
  -4  -3  -1 207.945 3.38019   4
  -4  -3  -1 206.036 4.50399   1
  -4  -3  -1 203.429 4.55197   1
   4   3   1 200.606 4.48310   1
   4   3   1 211.220 4.61669   1
   4   3   1 205.784 3.62266   3
  -5  -3  -1 64.4829 2.43695   1
  -5  -3  -1 66.4560 2.51463   1
  -5  -3  -1 66.9203 1.58192   4
   5   3   1 64.0982 1.42181   2
   5   3   1 62.7605 2.48225   1
   5   3   1 65.7819 1.63799   3
   5   3   1 65.4565 2.42441   1
  -6  -3  -1 65.3996 2.76539   1
  -6  -3  -1 65.9817 1.72345   4
  -6  -3  -1 64.0436 2.67482   1
   6   3   1 69.2882 2.78351   1
   6   3   1 64.3268 1.51243   2
   6   3   1 64.9693 1.72298   3
  -7  -3  -1 2.97209 0.67256   4
  -7  -3  -1 3.01687 1.24170   1
   7   3   1 3.23959 0.48331   2
   7   3   1 2.77931 1.21424   1
  -8  -3  -1 44.3158 1.59014   4
  -8  -3  -1 48.1022 2.77485   1
   8   3   1 45.7289 2.71846   1
   8   3   1 43.6460 1.35766   2
  -9  -3  -1 62.2667 1.99649   4
   9   3   1 53.5759 3.25009   1
   8  -4  -1 3.86062 0.89823   2
   7  -4  -1 13.9663 1.17746   2
   7  -4  -1 14.6568 1.90308   1
  -7   4   1 12.6438 1.74716   1
   6  -4  -1 8.55076 0.90828   2
   6  -4  -1 9.80780 1.61752   1
  -6   4   1 9.00212 1.46135   1
   5  -4  -1 71.2320 2.01820   2
   5  -4  -1 70.2915 3.00576   1
  -5   4   1 68.9436 1.38139   3
  -5   4   1 69.4450 2.94345   1
   4  -4  -1 80.3359 2.05824   2
   4  -4  -1 79.7396 2.95540   1
  -4   4   1 83.5941 2.93171   1
  -4   4   1 78.9445 1.53866   3
  -4   4   1 74.5577 2.85561   1
   3  -4  -1 193.069 4.61565   1
   3  -4  -1 199.745 3.64421   2
   3  -4  -1 191.370 4.48496   1
  -3   4   1 185.693 3.16897   3
  -3   4   1 196.863 4.58042   1
  -3   4   1 194.553 4.56344   1
   2  -4  -1 123.557 2.21950   5
   2  -4  -1 119.800 3.16597   1
   2  -4  -1 121.968 2.47743   2
   2  -4  -1 125.901 3.31802   1
   2  -4  -1 123.212 2.15205   3
  -2   4   1 120.688 2.19671   3
  -2   4   1 121.247 3.23793   1
  -2   4   1 126.823 3.28079   1
   1  -4  -1 107.484 2.91354   1
   1  -4  -1 105.889 2.14460   2
   1  -4  -1 104.461 1.93698   3
   1  -4  -1 108.992 2.82164   1
   1  -4  -1 109.372 1.71929   5
  -1   4   1 107.324 2.00069   3
  -1   4   1 105.128 2.83406   1
  -1   4   1 99.1111 2.51321   1
   0  -4  -1 63.4725 2.02600   1
   0  -4  -1 65.3645 1.15333   5
   0  -4  -1 63.0803 2.12370   1
   0  -4  -1 61.0619 1.43532   2
   0  -4  -1 61.9355 1.37058   3
   0   4   1 65.9719 2.08067   1
   0   4   1 67.9955 1.16311   5
   0   4   1 63.8034 2.07562   1
   0   4   1 64.4508 1.42959   3
  -1  -4  -1 1.83625 0.39085   2
  -1  -4  -1 1.64871 0.23688   4
  -1  -4  -1 1.50015 0.68532   1
  -1  -4  -1 1.15204 0.57604   1
   1   4   1 1.68069 0.19635   5
   1   4   1 1.47686 0.45413   3
   1   4   1 1.24145 0.31851   2
   1   4   1 0.62831 0.62845   1
   1   4   1 2.19271 0.67018   1
  -2  -4  -1 11.1844 0.47192   4
  -2  -4  -1 11.2673 1.02287   1
  -2  -4  -1 10.2820 0.92640   1
   2   4   1 10.6757 0.52540   2
   2   4   1 10.1473 0.94166   1
   2   4   1 10.8323 0.43142   4
   2   4   1 11.2638 0.69301   3
   2   4   1 11.5896 0.45421   5
   2   4   1 9.73175 0.93849   1
  -3  -4  -1 1.94305 0.32637   4
  -3  -4  -1 2.05152 0.63404   1
  -3  -4  -1 2.28952 0.79087   1
   3   4   1 2.85458 0.71452   1
   3   4   1 1.59571 0.28821   2
   3   4   1 1.29090 0.44153   3
   3   4   1 1.20316 0.74230   1
   3   4   1 1.76909 0.26773   4
  -4  -4  -1 9.78109 0.57671   4
  -4  -4  -1 9.05160 1.08513   1
  -4  -4  -1 11.0549 1.07509   1
   4   4   1 9.92019 1.14263   1
   4   4   1 8.79349 0.65542   3
   4   4   1 11.5127 1.10844   1
  -5  -4  -1 47.7684 1.30691   4
  -5  -4  -1 48.9772 2.27989   1
  -5  -4  -1 47.8695 2.18355   1
   5   4   1 48.0267 1.46244   3
   5   4   1 48.2537 2.29688   1
  -6  -4  -1 1391.06 20.7975   4
  -6  -4  -1 1364.27 22.6613   1
   6   4   1 1368.96 20.9337   3
   6   4   1 1352.39 20.6131   2
   6   4   1 1358.86 22.7071   1
  -7  -4  -1 6.06498 0.69704   4
  -7  -4  -1 7.64636 1.45456   1
   7   4   1 7.08329 0.74636   3
   7   4   1 7.38840 0.60258   2
   7   4   1 8.19092 1.41376   1
  -8  -4  -1 126.242 4.50452   1
  -8  -4  -1 128.822 2.92423   4
   8   4   1 124.356 4.52289   1
   8   4   1 130.127 2.65861   2
  -9  -4  -1 28.0291 1.38070   4
   9   4   1 29.0009 2.74053   1
   7  -5  -1 10.6436 1.16195   2
   7  -5  -1 12.5441 1.07337   5
   6  -5  -1 110.029 2.83097   2
   6  -5  -1 108.517 2.66563   5
   6  -5  -1 106.758 4.16573   1
  -6   5   1 110.930 4.13262   1
   5  -5  -1 30.7417 1.39384   2
   5  -5  -1 30.8457 1.23130   5
   5  -5  -1 27.6016 2.11982   1
  -5   5   1 28.8901 2.12822   1
   4  -5  -1 11.0137 0.99161   2
   4  -5  -1 15.1958 1.54905   1
   4  -5  -1 12.1802 0.76154   5
  -4   5   1 12.6846 0.59670   3
  -4   5   1 11.9036 1.36358   1
   3  -5  -1 30.3808 1.87612   1
   3  -5  -1 30.0214 1.27799   2
   3  -5  -1 30.5137 0.98313   5
  -3   5   1 29.2115 1.82091   1
  -3   5   1 29.1545 0.90514   3
  -3   5   1 27.3705 1.77805   1
   2  -5  -1 174.653 4.41702   1
   2  -5  -1 175.952 3.41260   2
   2  -5  -1 182.189 2.85915   5
   2  -5  -1 178.815 4.34186   1
  -2   5   1 181.647 4.40592   1
  -2   5   1 175.622 3.12731   3
  -2   5   1 178.870 4.36325   1
   1  -5  -1 354.608 6.73974   1
   1  -5  -1 349.277 5.63106   2
   1  -5  -1 357.573 5.49353   5
   1  -5  -1 346.664 6.90483   1
  -1   5   1 336.101 6.71409   1
  -1   5   1 360.663 6.88534   1
  -1   5   1 349.520 5.71129   3
   0  -5  -1 236.588 3.74373   5
   0  -5  -1 234.313 4.09314   2
   0  -5  -1 236.049 4.95979   1
   0  -5  -1 235.422 5.08528   1
   0   5   1 233.921 5.02364   1
   0   5   1 239.805 3.81784   3
   0   5   1 238.652 5.01151   1
  -1  -5  -1 0.96980 0.39102   2
  -1  -5  -1 0.49712 0.21977   4
  -1  -5  -1 0.70428 0.56155   1
  -1  -5  -1 0.69879 0.60182   1
   1   5   1 0.09313 0.54867   1
   1   5   1 1.03647 0.19424   5
   1   5   1 0.41931 0.39660   3
   1   5   1 0.56848 0.57109   1
  -2  -5  -1 22.6258 1.45188   1
  -2  -5  -1 22.0523 1.39012   1
  -2  -5  -1 21.3078 0.66255   4
   2   5   1 23.9327 1.44944   1
   2   5   1 22.0503 0.64795   5
   2   5   1 21.9519 0.91203   3
   2   5   1 23.7375 1.46096   1
  -3  -5  -1 13.6098 0.58246   4
  -3  -5  -1 14.4356 1.25817   1
  -3  -5  -1 14.1843 1.21982   1
   3   5   1 13.4703 1.22561   1
   3   5   1 15.5511 0.62023   5
   3   5   1 15.1369 0.55516   4
   3   5   1 14.9747 0.81061   3
   3   5   1 16.2524 1.33702   1
  -4  -5  -1 0.06498 0.71043   1
  -4  -5  -1 1.84137 0.39835   4
  -4  -5  -1 3.21006 0.90614   1
   4   5   1 2.03150 0.54097   3
   4   5   1 2.42638 0.83975   1
   4   5   1 1.15593 0.80524   1
  -5  -5  -1 280.280 6.31114   1
  -5  -5  -1 289.111 4.52704   4
  -5  -5  -1 284.710 6.39018   1
   5   5   1 280.694 6.38176   1
   5   5   1 284.711 5.07808   3
  -6  -5  -1 94.7138 2.16819   4
  -6  -5  -1 95.9523 3.53898   1
   6   5   1 94.7588 2.36409   3
   6   5   1 100.243 3.60642   1
  -7  -5  -1 102.278 3.89170   1
  -7  -5  -1 103.578 2.38914   4
   7   5   1 105.034 2.56365   3
   7   5   1 98.4016 3.87218   1
   7   5   1 98.9526 2.19641   2
  -8  -5  -1 75.8431 2.08702   4
  -8  -5  -1 72.0689 3.51735   1
   8   5   1 75.8101 1.92452   2
   8   5   1 71.7538 2.16145   3
   8   5   1 76.5378 3.60507   1
  -9  -5  -1 75.0831 2.21083   4
   6  -6  -1 105.595 2.86027   2
   6  -6  -1 98.0354 2.52805   5
   6  -6  -1 101.342 4.34762   1
   5  -6  -1 22.7525 1.33792   2
   5  -6  -1 23.3474 1.09711   5
   5  -6  -1 24.3290 2.22001   1
  -5   6   1 27.2367 2.25045   1
   4  -6  -1 2.96587 0.50883   5
   4  -6  -1 2.94414 0.72450   2
   4  -6  -1 3.00858 1.14518   1
  -4   6   1 0.76430 0.95281   1
  -4   6   1 2.23414 0.42264   3
   3  -6  -1 443.209 7.19869   2
   3  -6  -1 442.563 7.18280   5
   3  -6  -1 451.348 9.13873   1
  -3   6   1 458.519 9.06298   1
  -3   6   1 432.634 7.14937   3
   2  -6  -1 14.1193 1.51006   1
   2  -6  -1 14.4375 0.62849   5
   2  -6  -1 15.1887 0.98687   2
  -2   6   1 16.0342 1.49847   1
  -2   6   1 14.8830 0.76114   3
   1  -6  -1 13.2870 0.89559   2
   1  -6  -1 14.0575 0.53851   5
   1  -6  -1 16.1458 1.45335   1
  -1   6   1 12.0502 1.29182   1
  -1   6   1 14.6129 1.41425   1
  -1   6   1 15.0017 0.80120   3
   0  -6  -1 2.68957 0.88140   1
   0  -6  -1 2.80137 0.27978   5
   0  -6  -1 2.46584 0.82864   1
   0  -6  -1 2.04057 0.49020   2
   0   6   1 2.32649 0.78331   1
   0   6   1 1.26365 0.81898   1
   0   6   1 2.07718 0.50432   3
  -1  -6  -1 98.9581 1.89858   4
  -1  -6  -1 110.081 3.34875   1
  -1  -6  -1 106.383 2.25316   2
  -1  -6  -1 104.526 3.17849   1
   1   6   1 102.123 3.21446   1
   1   6   1 100.340 3.17499   1
   1   6   1 108.130 2.32085   3
   1   6   1 102.655 1.83470   5
  -2  -6  -1 132.443 3.77467   1
  -2  -6  -1 129.320 3.61465   1
  -2  -6  -1 128.397 2.28009   4
   2   6   1 122.742 2.19072   5
   2   6   1 126.659 2.69022   3
   2   6   1 130.726 3.71110   1
   2   6   1 126.507 3.60784   1
  -3  -6  -1 154.189 2.74661   4
  -3  -6  -1 163.084 4.33652   1
  -3  -6  -1 154.230 4.16491   1
   3   6   1 159.458 3.19973   3
   3   6   1 158.772 4.27928   1
   3   6   1 152.914 2.76941   5
  -4  -6  -1 419.225 8.51922   1
  -4  -6  -1 410.822 6.71847   4
   4   6   1 438.187 8.60341   1
   4   6   1 419.218 6.68559   3
  -5  -6  -1 1049.66 16.0359   4
  -5  -6  -1 1046.42 16.7949   1
   5   6   1 1046.69 16.8072   1
   5   6   1 1061.44 16.5126   3
  -6  -6  -1 13.1148 0.80350   4
  -6  -6  -1 12.9893 1.67406   1
   6   6   1 14.3158 1.78341   1
   6   6   1 13.9881 1.04463   3
  -7  -6  -1 16.9526 1.89817   1
  -7  -6  -1 18.6556 0.99618   4
   7   6   1 20.5039 0.93281   2
   7   6   1 18.1074 1.95212   1
   7   6   1 18.8968 1.19724   3
  -8  -6  -1 9.06106 0.84611   4
   8   6   1 8.60374 0.95662   3
   8   6   1 8.15221 1.87849   1
   5  -7  -1 7.05943 1.06403   2
   5  -7  -1 9.05459 1.83049   1
   4  -7  -1 4.37597 0.92930   2
   4  -7  -1 5.11712 1.48690   1
  -4   7   1 3.83834 1.41497   1
   3  -7  -1 57.9412 2.96752   1
   3  -7  -1 54.6497 1.88331   2
  -3   7   1 52.3557 1.48710   3
  -3   7   1 58.4150 2.89140   1
   2  -7  -1 24.9935 0.83253   5
   2  -7  -1 23.9940 1.22985   2
   2  -7  -1 26.0794 2.07713   1
  -2   7   1 28.4390 2.06104   1
  -2   7   1 26.1183 1.06054   3
   1  -7  -1 38.0193 0.95256   5
   1  -7  -1 37.9049 2.25941   1
   1  -7  -1 41.3775 1.48063   2
  -1   7   1 34.7698 2.12409   1
  -1   7   1 38.9716 1.32237   3
   0  -7  -1 205.787 3.97476   2
   0  -7  -1 207.030 3.37856   4
   0  -7  -1 216.693 5.45736   1
   0   7   1 205.136 3.92964   3
   0   7   1 210.619 5.28687   1
  -1  -7  -1 7.30648 0.46216   4
  -1  -7  -1 6.88090 1.26211   1
   1   7   1 7.60322 1.19591   1
   1   7   1 7.35247 0.76874   3
  -2  -7  -1 308.231 5.01212   4
  -2  -7  -1 305.002 6.93220   1
   2   7   1 313.428 5.52279   3
   2   7   1 315.171 6.89845   1
  -3  -7  -1 81.7505 1.70583   4
  -3  -7  -1 81.0647 3.24926   1
   3   7   1 89.6297 2.26939   3
   3   7   1 80.8155 3.17506   1
  -4  -7  -1 6.27123 1.25240   1
  -4  -7  -1 4.55642 0.47810   4
   4   7   1 6.98956 1.28786   1
   4   7   1 4.27814 0.72220   3
  -5  -7  -1 52.0556 2.81137   1
  -5  -7  -1 54.2743 1.41403   4
   5   7   1 51.5243 2.79856   1
   5   7   1 53.8975 1.84461   3
  -6  -7  -1 0.10683 0.42732   4
  -6  -7  -1 -0.9493 0.96367   1
   6   7   1 0.32825 1.06717   1
   6   7   1 -0.2146 0.63996   3
  -7  -7  -1 1.91884 1.31539   1
  -7  -7  -1 0.58486 0.52228   4
   7   7   1 0.97794 0.76730   3
   7   7   1 1.97685 1.34667   1
  -8  -7  -1 32.2442 1.36446   4
   8   7   1 33.0303 1.62919   3
   4  -8  -1 80.5844 3.96699   1
   4  -8  -1 97.8418 2.75428   2
   3  -8  -1 2.14621 1.30045   1
   3  -8  -1 2.46775 0.75780   2
  -3   8   1 3.63906 1.31876   1
   2  -8  -1 3.95534 0.74428   2
   2  -8  -1 2.62133 1.33494   1
  -2   8   1 3.81069 0.62559   3
  -2   8   1 3.49511 1.32253   1
   1  -8  -1 35.9774 1.51270   2
   1  -8  -1 33.5558 2.40581   1
  -1   8   1 35.4051 1.36954   3
  -1   8   1 33.2201 2.33477   1
   0  -8  -1 20.5032 1.11403   2
   0  -8  -1 21.5679 0.78089   4
   0  -8  -1 22.1311 1.95656   1
   0   8   1 23.9233 1.97689   1
   0   8   1 20.0198 1.10806   3
  -1  -8  -1 18.2608 1.80944   1
  -1  -8  -1 19.3743 0.71234   4
   1   8   1 19.4634 1.82919   1
   1   8   1 17.9961 1.09182   3
  -2  -8  -1 21.6203 1.95862   1
  -2  -8  -1 19.7212 0.73172   4
   2   8   1 22.3724 1.96031   1
   2   8   1 20.0715 1.17699   3
  -3  -8  -1 17.1507 1.81539   1
   3   8   1 16.8050 1.74848   1
   3   8   1 15.2191 1.07562   3
  -4  -8  -1 683.980 13.2671   1
   4   8   1 715.490 11.5774   3
   4   8   1 684.858 13.2222   1
  -5  -8  -1 258.527 6.82485   1
   5   8   1 260.207 5.14695   3
   5   8   1 257.396 6.75845   1
  -6  -8  -1 43.7102 3.07129   1
   6   8   1 43.6764 1.82219   3
   6   8   1 41.0680 2.84454   1
   7   8   1 23.7830 1.48181   3
   3  -9  -1 7.24630 1.00117   2
   2  -9  -1 68.5433 3.63997   1
   2  -9  -1 72.6389 2.33630   2
  -2   9   1 69.5181 2.00621   3
  -2   9   1 65.7063 3.59851   1
   1  -9  -1 29.6391 2.56218   1
   1  -9  -1 24.9534 1.40180   2
  -1   9   1 28.3507 1.31629   3
  -1   9   1 29.8909 2.47169   1
   0  -9  -1 10.6595 1.79681   1
   0   9   1 11.3320 1.71339   1
   0   9   1 11.8470 0.97707   3
  -1  -9  -1 12.7272 1.76295   1
   1   9   1 15.3699 1.10140   3
   1   9   1 12.8670 1.81664   1
  -2  -9  -1 44.5216 2.89501   1
   2   9   1 48.6478 1.79730   3
   2   9   1 51.4368 2.97592   1
  -3  -9  -1 375.315 8.72853   1
   3   9   1 369.653 8.62315   1
   3   9   1 365.366 6.75394   3
  -4  -9  -1 29.9805 2.53395   1
   4   9   1 29.7665 2.51143   1
   4   9   1 33.6390 1.64601   3
   5   9   1 77.1261 2.47326   3
   5   9   1 70.5277 3.67695   1
   6   9   1 -0.1817 0.81196   3
   0  10   1 15.1710 1.15704   3
   1  10   1 52.7401 1.95230   3
   2  10   1 16.1429 1.25193   3
   2  10   1 16.0979 2.22980   1
   3  10   1 591.080 13.1911   1
   3  10   1 628.909 9.86803   3
   3  10  -2 35.3258 1.74242   3
   2  10  -2 0.03285 0.82217   3
   1  10  -2 24.0497 1.47909   3
   0  10  -2 -1.2570 0.73549   3
   5   9  -2 14.8452 1.25097   3
   4   9  -2 16.8197 1.28532   3
   3   9  -2 0.23327 0.69016   3
   2   9  -2 0.81957 0.68336   3
   1   9  -2 4.70429 0.91184   3
  -1  -9   2 4.06967 1.36401   1
   0   9  -2 5.64381 0.82748   3
  -1   9  -2 6.03185 0.87026   3
  -2   9  -2 16.1055 1.12902   3
  -3   9  -2 214.080 4.36110   3
   3  -9   2 221.331 4.71602   2
   6   8  -2 156.655 3.72250   3
   5   8  -2 40.3676 1.73026   3
   4   8  -2 34.1105 1.53351   3
  -4  -8   2 33.7726 2.40943   1
   3   8  -2 17.4629 1.83048   1
   3   8  -2 18.1111 1.16748   3
  -3  -8   2 17.2720 1.85597   1
   2   8  -2 1.61953 1.09749   1
   2   8  -2 1.67485 0.75047   3
  -2  -8   2 2.09893 1.11602   1
   1   8  -2 146.439 4.46102   1
   1   8  -2 136.298 3.16702   3
  -1  -8   2 142.901 4.51136   1
   0   8  -2 156.372 3.41253   3
   0   8  -2 161.518 4.76989   1
   0  -8   2 159.014 4.84315   1
  -1   8  -2 -0.1091 0.57586   3
  -1   8  -2 -0.1244 0.88354   1
   1  -8   2 -0.0884 0.33481   5
   1  -8   2 0.71523 1.04590   1
  -2   8  -2 72.1950 2.05467   3
  -2   8  -2 68.8637 3.20380   1
   2  -8   2 68.7813 3.31738   1
   2  -8   2 72.5657 2.19614   2
   2  -8   2 70.6762 1.80111   5
  -3   8  -2 43.0270 2.72712   1
  -3   8  -2 50.1782 1.67449   3
   3  -8   2 48.4152 1.85919   2
   3  -8   2 47.5909 2.89590   1
  -4   8  -2 123.454 4.65783   1
  -4   8  -2 125.298 2.86019   3
   4  -8   2 127.132 3.22330   2
   5  -8   2 7.87721 1.03289   2
   7   7  -2 132.180 3.24142   3
   6   7  -2 34.5162 1.55539   3
   5   7  -2 292.715 7.17954   1
   5   7  -2 319.365 5.81837   3
  -5  -7   2 326.546 7.47447   1
   4   7  -2 35.8505 1.48626   3
   4   7  -2 32.4290 2.14484   1
  -4  -7   2 35.8530 2.26326   1
   3   7  -2 33.1287 2.06752   1
   3   7  -2 31.5077 1.42070   3
  -3  -7   2 30.9351 1.97853   1
  -3  -7   2 33.0337 2.09448   1
   2   7  -2 94.7724 3.32953   1
   2   7  -2 94.9303 2.39701   3
  -2  -7   2 90.9170 3.20599   1
  -2  -7   2 94.0802 3.40744   1
   1   7  -2 40.1856 1.48529   3
   1   7  -2 41.9008 2.22846   1
  -1  -7   2 42.2366 2.29709   1
  -1  -7   2 38.9309 2.13436   1
   0   7  -2 0.66361 0.61842   3
   0   7  -2 1.33987 0.83542   1
   0  -7   2 -0.2131 0.75695   1
   0  -7   2 0.74835 0.36698   5
   0  -7   2 1.37369 0.86522   1
  -1   7  -2 37.2032 2.19677   1
  -1   7  -2 39.4342 1.42372   3
   1  -7   2 36.4313 1.42244   2
   1  -7   2 36.5368 2.11122   1
   1  -7   2 40.0771 1.19965   5
   1  -7   2 40.2215 2.31927   1
  -2   7  -2 247.955 6.13712   1
  -2   7  -2 255.928 4.64777   3
   2  -7   2 258.249 4.83080   2
   2  -7   2 254.746 4.41160   5
   2  -7   2 251.516 6.24971   1
  -3   7  -2 91.0235 2.22902   3
  -3   7  -2 92.9042 3.57070   1
   3  -7   2 90.1186 3.64321   1
   3  -7   2 98.6202 2.49549   2
   3  -7   2 92.3341 2.17825   5
  -4   7  -2 10.6393 0.81193   3
  -4   7  -2 10.6889 1.64411   1
   4  -7   2 9.46993 1.68085   1
   4  -7   2 8.18067 0.76328   5
   4  -7   2 9.14262 0.92530   2
  -5   7  -2 44.3258 2.84700   1
   5  -7   2 40.2322 1.52129   5
   5  -7   2 37.9140 2.84015   1
   5  -7   2 38.6644 1.70527   2
   6  -7   2 0.06575 0.59223   5
   6  -7   2 0.19599 0.70897   2
   8   6  -2 2.93605 0.78374   3
   8   6  -2 4.56637 0.74231   2
  -8  -6   2 4.13439 0.67139   4
   7   6  -2 8.45740 0.92548   3
   7   6  -2 9.63118 0.83391   2
  -7  -6   2 9.94987 0.74227   4
   6   6  -2 30.4381 1.38018   3
   6   6  -2 28.2150 2.20228   1
  -6  -6   2 28.7113 2.23542   1
  -6  -6   2 27.3515 1.01550   4
   5   6  -2 65.3329 1.93549   3
   5   6  -2 70.0427 2.99025   1
  -5  -6   2 67.8869 2.94849   1
  -5  -6   2 65.9201 1.51287   4
   4   6  -2 102.393 3.44522   1
   4   6  -2 102.140 2.46634   3
  -4  -6   2 100.602 1.89575   4
  -4  -6   2 105.381 3.50696   1
  -4  -6   2 97.7599 3.31626   1
   3   6  -2 126.690 3.71354   1
   3   6  -2 119.269 2.71151   3
  -3  -6   2 121.820 3.58387   1
  -3  -6   2 122.467 1.94414   4
  -3  -6   2 117.884 3.64920   1
   2   6  -2 193.391 3.78970   3
   2   6  -2 203.384 4.82398   1
  -2  -6   2 204.048 4.88239   1
  -2  -6   2 197.806 4.69349   1
   1   6  -2 209.839 4.92868   1
   1   6  -2 210.371 3.92388   3
  -1  -6   2 206.230 4.78600   1
  -1  -6   2 210.900 4.97070   1
   0   6  -2 295.462 5.09521   3
   0   6  -2 292.934 6.20186   1
   0  -6   2 290.333 4.44243   4
   0  -6   2 291.507 6.04534   1
   0  -6   2 297.700 6.29916   1
   0  -6   2 287.783 4.89054   5
   0  -6   2 285.484 4.44078   4
  -1   6  -2 66.1079 2.57327   1
  -1   6  -2 64.9568 1.71933   3
   1  -6   2 64.9222 2.52982   1
   1  -6   2 67.7622 1.79412   2
   1  -6   2 63.6509 1.23623   4
   1  -6   2 64.1115 1.53383   5
   1  -6   2 63.6300 2.63988   1
  -2   6  -2 22.7898 1.67231   1
  -2   6  -2 23.3598 1.02564   3
   2  -6   2 23.5682 1.14136   2
   2  -6   2 25.0298 1.77666   1
   2  -6   2 23.1292 0.72975   4
   2  -6   2 23.1086 0.92485   5
   2  -6   2 22.9651 1.65449   1
  -3   6  -2 209.566 3.84951   3
  -3   6  -2 207.824 5.28479   1
   3  -6   2 212.666 4.07783   2
   3  -6   2 198.323 5.31857   1
   3  -6   2 207.749 3.83671   5
  -4   6  -2 82.7225 1.99205   3
  -4   6  -2 79.7645 3.27914   1
   4  -6   2 84.7654 2.28562   2
   4  -6   2 87.4745 3.50052   1
   4  -6   2 86.8252 2.12945   5
  -5   6  -2 0.52031 0.45369   3
  -5   6  -2 0.08277 1.09690   1
   5  -6   2 0.27210 0.55098   5
   5  -6   2 0.09710 0.61116   2
   5  -6   2 0.02417 1.19950   1
  -6   6  -2 1.41204 1.18862   1
   6  -6   2 -0.2555 1.11729   1
   6  -6   2 0.02077 0.59298   5
   6  -6   2 0.01439 0.73135   2
   7  -6   2 -0.7434 0.72423   2
   7  -6   2 1.28817 0.69422   5
   8   5  -2 2.82837 0.64847   2
   8   5  -2 4.04964 0.70384   3
  -8  -5   2 2.40884 0.60336   4
   7   5  -2 51.4056 1.72981   3
   7   5  -2 54.9200 1.68531   2
  -7  -5   2 55.2806 1.59206   4
  -7  -5   2 57.0859 2.96315   1
   6   5  -2 57.9697 2.75464   1
   6   5  -2 56.8374 1.68746   2
   6   5  -2 57.5324 1.76128   3
  -6  -5   2 60.4416 2.82236   1
  -6  -5   2 56.8133 1.52409   4
   5   5  -2 7.18866 1.25317   1
   5   5  -2 7.57610 0.72698   3
  -5  -5   2 6.05708 1.22574   1
  -5  -5   2 5.31049 1.14591   1
  -5  -5   2 6.97433 0.54400   4
   4   5  -2 82.8789 2.90345   1
   4   5  -2 83.9984 2.05474   3
   4   5  -2 83.6814 1.61399   4
  -4  -5   2 83.6245 1.66036   4
  -4  -5   2 84.2167 2.84676   1
  -4  -5   2 82.5551 2.92939   1
   3   5  -2 106.777 2.33600   3
   3   5  -2 105.998 3.14171   1
   3   5  -2 103.768 1.79517   4
  -3  -5   2 103.255 3.03193   1
  -3  -5   2 102.869 3.12145   1
  -3  -5   2 103.982 1.82584   4
   2   5  -2 751.303 12.1286   3
   2   5  -2 771.192 12.9496   1
   2   5  -2 783.836 13.2469   1
  -2  -5   2 798.262 13.2110   1
  -2  -5   2 793.847 11.5614   4
  -2  -5   2 770.147 12.9786   1
   1   5  -2 2.38005 0.66089   1
   1   5  -2 2.55831 0.70466   1
   1   5  -2 2.44948 0.50032   3
  -1  -5   2 2.36874 0.76446   1
  -1  -5   2 2.43246 0.63462   1
   0   5  -2 714.716 11.0048   5
   0   5  -2 715.580 12.0520   1
   0   5  -2 711.130 11.1699   3
   0   5  -2 701.771 11.7461   1
   0  -5   2 714.328 11.6179   1
   0  -5   2 725.111 12.2068   1
   0  -5   2 706.591 10.5952   4
   0  -5   2 713.096 10.5978   4
   0  -5   2 734.546 11.0332   5
  -1   5  -2 204.037 4.58677   1
  -1   5  -2 203.000 3.68448   3
  -1   5  -2 209.529 4.65006   1
   1  -5   2 208.454 4.72289   1
   1  -5   2 212.335 3.76962   2
   1  -5   2 204.752 3.29072   4
   1  -5   2 210.853 4.59971   1
   1  -5   2 205.096 3.35683   5
  -2   5  -2 510.770 9.22708   1
  -2   5  -2 507.587 8.07521   3
   2  -5   2 503.694 8.03212   5
   2  -5   2 508.670 9.31903   1
   2  -5   2 498.080 8.17727   2
   2  -5   2 507.600 9.13979   1
   2  -5   2 490.761 7.74086   4
  -3   5  -2 275.200 6.12197   1
  -3   5  -2 287.543 4.50800   3
   3  -5   2 286.975 6.27252   1
   3  -5   2 283.297 4.56456   5
   3  -5   2 278.963 6.06826   1
   3  -5   2 285.925 5.01090   2
  -4   5  -2 35.2610 1.13047   3
  -4   5  -2 31.8440 1.96930   1
   4  -5   2 34.1874 1.31592   2
   4  -5   2 34.2331 1.24215   5
   4  -5   2 34.4037 2.10947   1
  -5   5  -2 45.0059 1.31589   3
  -5   5  -2 45.0860 2.52224   1
   5  -5   2 43.5787 2.55102   1
   5  -5   2 47.5854 1.57783   5
   5  -5   2 45.7896 1.60653   2
  -6   5  -2 6.85973 0.60850   3
  -6   5  -2 4.73096 1.27710   1
   6  -5   2 6.31129 1.42640   1
   6  -5   2 5.79284 0.81453   5
   6  -5   2 4.81228 0.80571   2
  -7   5  -2 -0.1637 1.28222   1
   7  -5   2 1.12659 1.45245   1
   7  -5   2 0.30541 0.64609   5
   7  -5   2 1.07726 0.71224   2
   9   4  -2 96.0859 2.51648   2
  -9  -4   2 97.4296 2.55285   4
   8   4  -2 71.2043 1.99139   3
   8   4  -2 71.6732 2.02431   2
  -8  -4   2 72.9912 2.04033   4
   7   4  -2 0.77320 0.52230   3
   7   4  -2 -0.2959 0.49068   2
   7   4  -2 -1.2299 1.01762   1
  -7  -4   2 0.52656 0.45679   4
  -7  -4   2 0.29020 1.11780   1
   6   4  -2 0.08255 0.83487   1
   6   4  -2 0.38466 0.44169   3
   6   4  -2 0.03889 0.40101   2
  -6  -4   2 0.49354 0.97347   1
  -6  -4   2 1.03945 0.43338   4
  -6  -4   2 1.08771 0.95960   1
   5   4  -2 130.792 3.76323   1
   5   4  -2 126.213 2.65976   3
  -5  -4   2 131.524 3.77054   1
  -5  -4   2 127.479 2.47326   4
  -5  -4   2 129.575 3.67770   1
   4   4  -2 43.4408 1.30843   3
   4   4  -2 43.4900 1.97063   1
  -4  -4   2 43.5647 1.97616   1
  -4  -4   2 40.8613 1.87282   1
  -4  -4   2 45.6129 1.09807   4
   3   4  -2 227.906 4.85830   1
   3   4  -2 235.225 4.05945   3
   3   4  -2 227.788 4.87704   1
   3   4  -2 227.773 3.69445   4
  -3  -4   2 231.220 3.71684   4
  -3  -4   2 237.997 4.95522   1
  -3  -4   2 229.522 4.83462   1
   2   4  -2 153.818 2.44855   4
   2   4  -2 155.844 3.53654   1
   2   4  -2 153.185 2.88053   3
   2   4  -2 157.246 3.57490   1
  -2  -4   2 156.731 3.60800   1
  -2  -4   2 152.799 2.45924   4
  -2  -4   2 150.576 3.50218   1
   1   4  -2 331.559 6.01910   1
   1   4  -2 323.525 5.34644   3
   1   4  -2 323.993 5.20515   5
   1   4  -2 316.379 5.90955   1
  -1  -4   2 309.321 5.88320   1
  -1  -4   2 329.065 6.03699   1
   0   4  -2 28.9280 1.34773   1
   0   4  -2 30.6451 0.83387   5
   0   4  -2 28.5678 1.36896   1
   0   4  -2 28.9464 0.96204   3
   0  -4   2 29.6484 1.34402   1
   0  -4   2 30.6031 0.86317   5
   0  -4   2 27.1682 1.36961   1
  -1   4  -2 78.9691 1.62863   5
  -1   4  -2 83.0018 2.39904   1
  -1   4  -2 81.5202 1.74035   3
  -1   4  -2 80.6146 2.36623   1
   1  -4   2 78.2506 2.33047   1
   1  -4   2 81.8665 1.78270   2
   1  -4   2 82.6342 2.46980   1
   1  -4   2 78.9306 1.65403   5
   1  -4   2 80.6369 1.39709   4
  -2   4  -2 0.59047 0.62340   1
  -2   4  -2 1.92777 0.40529   3
  -2   4  -2 1.37436 0.62395   1
   2  -4   2 0.53765 0.53958   1
   2  -4   2 1.32843 0.26549   4
   2  -4   2 1.55981 0.40930   2
   2  -4   2 1.73196 0.39282   5
   2  -4   2 1.11481 0.62119   1
  -3   4  -2 2.15300 0.71648   1
  -3   4  -2 2.95807 0.39867   3
  -3   4  -2 3.88564 0.80699   1
   3  -4   2 2.81897 0.51885   2
   3  -4   2 3.32836 0.75461   1
   3  -4   2 2.44284 0.75657   1
   3  -4   2 1.66189 0.43931   5
  -4   4  -2 71.0133 1.60589   3
  -4   4  -2 68.3917 2.63081   1
   4  -4   2 67.8139 1.77807   5
   4  -4   2 69.2518 1.82665   2
   4  -4   2 73.5527 2.69000   1
   4  -4   2 71.6217 2.74639   1
  -5   4  -2 17.3839 1.62665   1
  -5   4  -2 18.9110 0.79160   3
   5  -4   2 16.0204 1.66256   1
   5  -4   2 17.3936 0.98328   2
   5  -4   2 16.0914 0.97469   5
  -6   4  -2 45.6407 1.26910   3
  -6   4  -2 43.7466 2.48245   1
   6  -4   2 45.9778 1.60812   2
   6  -4   2 46.7999 2.67654   1
   6  -4   2 44.3132 1.61993   5
  -7   4  -2 4.93205 1.37574   1
   7  -4   2 3.23287 0.73932   5
   7  -4   2 4.72051 0.85308   2
   7  -4   2 6.20432 1.50951   1
  -8   4  -2 93.7128 4.13873   1
   8  -4   2 102.068 2.87316   5
   8  -4   2 100.907 2.70513   2
   9   3  -2 31.8888 1.42839   2
  -9  -3   2 35.1278 1.52420   4
   8   3  -2 115.009 2.68637   2
  -8  -3   2 116.871 2.74966   4
  -8  -3   2 115.543 4.29560   1
   7   3  -2 87.3861 2.13352   2
   7   3  -2 82.4009 3.33351   1
   7   3  -2 81.1576 1.98960   3
  -7  -3   2 81.5618 3.33797   1
  -7  -3   2 88.0762 2.13502   4
   6   3  -2 30.7292 1.95867   1
   6   3  -2 29.1681 1.11867   2
   6   3  -2 29.4934 1.08089   3
  -6  -3   2 29.8104 1.89099   1
  -6  -3   2 29.4850 1.10485   4
  -6  -3   2 31.8165 1.96587   1
   5   3  -2 189.721 3.44624   2
   5   3  -2 181.526 4.55193   1
   5   3  -2 190.403 3.43309   3
  -5  -3   2 188.317 4.55774   1
  -5  -3   2 194.825 3.39979   4
  -5  -3   2 184.841 4.49457   1
   4   3  -2 70.3133 2.34073   1
   4   3  -2 68.2884 2.35294   1
   4   3  -2 71.5976 1.63612   3
  -4  -3   2 73.0162 2.37089   1
  -4  -3   2 71.5632 2.40178   1
  -4  -3   2 73.7993 1.52790   4
   3   3  -2 1078.31 16.1188   4
   3   3  -2 1084.29 17.2370   1
   3   3  -2 1091.02 17.2419   1
   3   3  -2 1085.98 16.3525   3
  -3  -3   2 1076.10 16.1253   4
  -3  -3   2 1070.40 17.2481   1
  -3  -3   2 1073.15 17.1859   1
   2   3  -2 680.164 11.1277   1
   2   3  -2 680.652 10.1268   4
   2   3  -2 664.421 10.4187   5
   2   3  -2 683.242 11.1375   1
   2   3  -2 686.906 10.4515   3
  -2  -3   2 673.838 11.0817   1
  -2  -3   2 681.849 10.1319   4
  -2  -3   2 660.396 10.3961   3
  -2  -3   2 696.508 11.1799   1
   1   3  -2 293.429 5.28130   1
   1   3  -2 298.696 4.76998   5
   1   3  -2 303.584 5.34755   1
   1   3  -2 298.151 4.84478   3
  -1  -3   2 296.004 4.80546   3
  -1  -3   2 293.624 5.25389   1
  -1  -3   2 294.002 5.32707   1
   0   3  -2 335.804 5.33440   2
   0   3  -2 330.664 5.36776   3
   0   3  -2 335.984 5.42049   1
   0   3  -2 339.598 5.46327   1
   0   3  -2 328.663 5.28105   5
   0  -3   2 329.331 5.33226   3
   0  -3   2 341.737 5.77029   1
   0  -3   2 337.400 5.43417   1
   0  -3   2 338.043 5.31300   5
  -1   3  -2 213.202 3.45784   2
  -1   3  -2 216.135 3.56788   3
  -1   3  -2 218.703 4.18276   1
  -1   3  -2 216.770 4.06368   1
  -1   3  -2 213.049 3.58689   5
   1  -3   2 217.790 3.44524   2
   1  -3   2 214.809 3.61299   5
   1  -3   2 215.896 3.35547   4
   1  -3   2 208.104 3.58250   3
   1  -3   2 216.198 4.17934   1
   1  -3   2 229.605 4.30326   1
  -2   3  -2 1761.03 26.3950   4
  -2   3  -2 1795.87 27.4849   1
  -2   3  -2 1767.04 26.5498   3
  -2   3  -2 1803.76 27.5381   1
   2  -3   2 1799.66 26.6227   2
   2  -3   2 1791.93 26.6233   5
   2  -3   2 1793.36 26.4096   4
   2  -3   2 1794.46 27.5598   1
   2  -3   2 1765.66 27.4817   1
  -3   3  -2 470.123 7.39484   4
  -3   3  -2 477.660 8.44461   1
  -3   3  -2 471.261 8.42346   1
  -3   3  -2 484.659 7.44525   3
   3  -3   2 460.799 7.37327   4
   3  -3   2 484.713 7.58055   2
   3  -3   2 459.166 8.32430   1
   3  -3   2 486.034 8.56992   1
   3  -3   2 480.466 7.59954   5
  -4   3  -2 2.75806 0.44027   4
  -4   3  -2 3.22652 0.76775   1
  -4   3  -2 2.46251 0.76445   1
  -4   3  -2 3.32409 0.39829   3
   4  -3   2 3.48536 0.52991   5
   4  -3   2 4.09980 0.82595   1
   4  -3   2 3.83055 0.51824   2
   4  -3   2 2.93966 0.79475   1
  -5   3  -2 15.8567 1.49015   1
  -5   3  -2 18.0941 0.85550   4
  -5   3  -2 17.7213 0.72823   3
   5  -3   2 19.6765 0.97191   2
   5  -3   2 16.0558 1.57058   1
   5  -3   2 16.6813 1.45952   1
  -6   3  -2 282.790 6.44880   1
  -6   3  -2 268.949 4.33521   3
  -6   3  -2 273.381 4.87616   4
   6  -3   2 271.731 4.92638   2
   6  -3   2 270.580 6.47244   1
  -7   3  -2 89.2970 1.92376   3
  -7   3  -2 89.6767 3.61997   1
  -7   3  -2 88.6289 2.27874   4
   7  -3   2 83.6673 2.26190   2
   7  -3   2 92.4411 3.75086   1
  -8   3  -2 33.8300 2.59311   1
  -8   3  -2 29.7442 1.41793   4
   8  -3   2 32.4806 1.46296   2
   8  -3   2 34.2323 2.70847   1
   9  -3   2 138.155 3.30052   2
   9   2  -2 0.44527 0.60696   2
  -9  -2   2 1.36981 0.67366   4
   8   2  -2 44.7530 1.58768   2
  -8  -2   2 46.6843 1.64008   4
  -8  -2   2 50.4405 2.83161   1
   7   2  -2 3.10294 0.61962   2
   7   2  -2 2.26641 1.02745   1
  -7  -2   2 2.20136 1.01123   1
  -7  -2   2 3.18183 0.64357   4
   6   2  -2 2.27865 0.98506   1
   6   2  -2 2.95421 0.44164   3
   6   2  -2 3.63634 0.58181   2
  -6  -2   2 1.82065 0.83402   1
  -6  -2   2 2.12829 0.52298   4
  -6  -2   2 1.45672 0.97788   1
   5   2  -2 21.0201 0.88355   2
   5   2  -2 20.5957 0.78899   3
   5   2  -2 20.9544 1.49501   1
  -5  -2   2 21.6763 1.47050   1
  -5  -2   2 20.1647 1.49207   1
  -5  -2   2 23.1574 0.88972   4
   4   2  -2 187.898 3.09931   3
   4   2  -2 190.131 4.19366   1
   4   2  -2 191.821 3.32522   2
   4   2  -2 180.867 4.08614   1
  -4  -2   2 190.217 4.21089   1
  -4  -2   2 183.671 4.12887   1
  -4  -2   2 181.590 2.97791   3
  -4  -2   2 196.803 3.27229   4
   3   2  -2 508.425 8.33653   1
   3   2  -2 504.377 8.11526   1
   3   2  -2 496.689 7.75480   3
   3   2  -2 492.198 7.67222   4
  -3  -2   2 498.736 8.05499   1
  -3  -2   2 506.041 7.70168   4
  -3  -2   2 492.314 7.72108   3
  -3  -2   2 503.131 8.09913   1
   2   2  -2 2741.18 40.7528   4
   2   2  -2 2759.53 40.9069   3
   2   2  -2 2791.22 41.5090   1
   2   2  -2 2851.87 41.5377   1
  -2  -2   2 2789.17 41.4893   1
  -2  -2   2 2781.26 41.5215   1
  -2  -2   2 2732.61 40.7563   4
  -2  -2   2 2745.43 40.8920   3
   1   2  -2 680.894 10.6344   1
   1   2  -2 683.949 10.2510   3
   1   2  -2 667.526 10.6223   1
   1   2  -2 672.518 10.2494   5
   1   2  -2 686.114 9.99929   4
  -1  -2   2 665.409 10.2247   3
  -1  -2   2 680.276 9.99877   4
  -1  -2   2 685.777 10.6335   1
  -1  -2   2 674.047 10.6496   1
   0   2  -2 483.274 7.56029   3
   0   2  -2 500.907 7.93805   1
   0   2  -2 494.221 7.91708   1
   0   2  -2 479.219 7.53514   5
   0   2  -2 484.531 7.53331   2
   0  -2   2 503.697 7.56139   5
   0  -2   2 505.416 7.55745   3
   0  -2   2 498.807 7.96753   1
   0  -2   2 504.324 7.92890   1
  -1   2  -2 217.385 3.91981   1
  -1   2  -2 218.900 3.56003   5
  -1   2  -2 226.172 3.55872   2
  -1   2  -2 214.767 3.93261   1
  -1   2  -2 216.020 3.55422   3
  -1   2  -2 219.948 3.36630   4
   1  -2   2 220.933 3.53714   3
   1  -2   2 215.880 3.56101   2
   1  -2   2 219.649 3.57971   5
   1  -2   2 222.768 3.36744   4
   1  -2   2 214.508 3.94074   1
   1  -2   2 222.112 4.00406   1
  -2   2  -2 381.338 6.02541   2
  -2   2  -2 387.582 6.18530   1
  -2   2  -2 394.369 6.20142   1
  -2   2  -2 385.320 5.94068   4
  -2   2  -2 378.700 6.00554   3
   2  -2   2 391.273 6.24877   1
   2  -2   2 383.483 6.05166   2
   2  -2   2 377.746 6.16754   1
   2  -2   2 376.129 5.92400   4
   2  -2   2 400.212 6.12417   5
  -3   2  -2 67.7637 1.38712   3
  -3   2  -2 68.3915 2.12966   1
  -3   2  -2 67.8456 1.41918   4
  -3   2  -2 69.7722 2.11932   1
  -3   2  -2 63.8522 1.40050   2
   3  -2   2 67.1615 2.06928   1
   3  -2   2 67.0583 1.46930   2
   3  -2   2 66.9735 2.15104   1
   3  -2   2 64.6790 1.37873   4
  -4   2  -2 28.9724 0.94179   4
  -4   2  -2 29.7080 1.57645   1
  -4   2  -2 29.5419 1.55977   1
   4  -2   2 28.7077 1.51708   1
   4  -2   2 27.7759 1.58613   1
   4  -2   2 29.5683 0.97052   2
  -5   2  -2 78.4253 2.73928   1
  -5   2  -2 79.8911 1.83572   4
  -5   2  -2 78.6039 2.74574   1
   5  -2   2 78.4522 1.81895   2
   5  -2   2 75.9669 2.67396   1
   5  -2   2 81.1393 2.87669   1
  -6   2  -2 60.0888 1.68226   4
  -6   2  -2 72.7119 2.84516   1
   6  -2   2 61.2627 1.68445   2
   6  -2   2 60.8510 2.73933   1
  -7   2  -2 33.8420 1.36494   4
  -7   2  -2 35.7537 2.34116   1
   7  -2   2 29.5138 2.26962   1
   7  -2   2 34.6264 1.31296   2
  -8   2  -2 30.0827 1.38343   4
  -8   2  -2 31.9325 2.42706   1
   8  -2   2 32.8613 2.54220   1
   8  -2   2 33.2294 1.37795   2
  -9   2  -2 192.858 4.12730   4
   9  -2   2 192.975 3.97548   2
   9  -2   2 182.457 6.20909   1
   9   1  -2 38.9651 1.59665   2
   8   1  -2 35.1125 1.42456   2
  -8  -1   2 36.0991 2.41982   1
  -8  -1   2 34.7369 1.48243   4
   7   1  -2 62.0964 2.90825   1
   7   1  -2 63.5943 1.82364   2
  -7  -1   2 66.2578 2.92316   1
  -7  -1   2 65.1717 1.83501   4
   6   1  -2 230.258 4.19041   2
   6   1  -2 232.326 5.51637   1
  -6  -1   2 231.330 5.42554   1
  -6  -1   2 235.631 5.46661   1
  -6  -1   2 222.687 3.72705   3
  -6  -1   2 236.273 4.22778   4
   5   1  -2 104.259 3.13202   1
   5   1  -2 103.121 1.96953   3
   5   1  -2 107.988 2.24206   2
  -5  -1   2 106.298 2.21618   4
  -5  -1   2 104.322 3.08955   1
  -5  -1   2 103.536 1.93639   3
  -5  -1   2 110.500 3.14459   1
   4   1  -2 2920.02 42.8046   3
   4   1  -2 2918.99 44.0004   1
   4   1  -2 2885.82 44.0025   1
   4   1  -2 2882.10 42.9961   2
  -4  -1   2 2874.41 42.9603   4
  -4  -1   2 2908.10 44.0055   1
  -4  -1   2 2919.82 42.7993   3
  -4  -1   2 2921.17 44.0215   1
   3   1  -2 3854.23 56.4457   3
   3   1  -2 3886.49 57.3176   1
   3   1  -2 3906.88 56.6053   2
   3   1  -2 3862.50 56.5334   4
   3   1  -2 3863.65 57.3468   1
  -3  -1   2 3767.18 56.5210   4
  -3  -1   2 3790.43 56.4273   3
  -3  -1   2 3858.44 57.3253   1
  -3  -1   2 3789.86 57.2941   1
   2   1  -2 5277.03 75.9764   1
   2   1  -2 5152.72 75.9203   1
   2   1  -2 5096.30 75.3624   4
   2   1  -2 5045.08 75.3507   3
  -2  -1   2 5204.95 75.9366   1
  -2  -1   2 5191.20 75.3743   4
  -2  -1   2 5010.01 75.3431   3
  -2  -1   2 5146.75 75.9274   1
   1   1  -2 727.367 11.1694   1
   1   1  -2 727.860 10.8378   4
   1   1  -2 719.568 10.9113   3
   1   1  -2 743.883 11.1792   1
  -1  -1   2 727.186 10.9061   3
  -1  -1   2 745.573 11.1877   1
   0   1  -2 2188.39 32.2673   5
   0   1  -2 2222.79 32.3645   1
   0   1  -2 2204.05 32.2432   3
   0   1  -2 2191.08 32.3607   1
   0   1  -2 2181.08 32.0942   4
   0  -1   2 2186.35 32.3727   1
   0  -1   2 2190.68 32.2716   5
   0  -1   2 2170.44 32.2353   3
  -1   1  -2 995.992 14.7658   2
  -1   1  -2 961.509 14.7075   4
  -1   1  -2 1009.44 14.8496   5
  -1   1  -2 1002.35 15.0950   1
  -1   1  -2 997.379 15.1061   1
   1  -1   2 994.072 14.7707   2
   1  -1   2 1002.05 14.7150   4
   1  -1   2 994.673 15.1174   1
   1  -1   2 1008.69 15.0919   1
   1  -1   2 997.738 14.8536   5
  -2   1  -2 2537.53 37.9715   1
  -2   1  -2 2517.10 37.9921   1
  -2   1  -2 2489.74 37.3570   2
  -2   1  -2 2595.95 37.3936   4
   2  -1   2 2541.70 37.3746   2
   2  -1   2 2572.95 38.0368   1
   2  -1   2 2592.05 37.3875   4
   2  -1   2 2475.23 37.9402   1
  -3   1  -2 178.484 2.99044   2
  -3   1  -2 177.172 3.75887   1
  -3   1  -2 181.513 2.89601   4
  -3   1  -2 182.520 3.75257   1
   3  -1   2 179.220 3.71777   1
   3  -1   2 179.238 2.84117   4
   3  -1   2 181.828 3.79731   1
   3  -1   2 181.530 2.94019   2
  -4   1  -2 155.593 3.58740   1
  -4   1  -2 153.630 2.79617   4
  -4   1  -2 156.775 3.63179   1
  -4   1  -2 150.322 2.65848   2
   4  -1   2 154.208 3.58973   1
   4  -1   2 153.194 3.67163   1
   4  -1   2 153.237 2.70908   2
  -5   1  -2 181.090 4.28854   1
  -5   1  -2 177.130 3.27854   4
  -5   1  -2 175.181 4.29050   1
   5  -1   2 185.865 4.43513   1
   5  -1   2 176.628 4.24832   1
   5  -1   2 174.400 3.15995   2
  -6   1  -2 10.5964 1.27811   1
  -6   1  -2 9.66417 0.76728   4
   6  -1   2 9.45216 1.25387   1
   6  -1   2 11.2088 0.71314   2
   6  -1   2 9.93240 1.28279   1
  -7   1  -2 54.9003 1.68284   4
  -7   1  -2 51.7797 2.65314   1
   7  -1   2 50.8008 1.51315   2
   7  -1   2 49.8174 2.67463   1
  -8   1  -2 28.3646 2.29253   1
  -8   1  -2 29.5516 1.34275   4
   8  -1   2 29.8361 2.41130   1
   8  -1   2 28.4939 1.22003   2
  -9   1  -2 31.1589 1.52515   4
  -9   1  -2 38.7319 2.75165   1
   9  -1   2 28.4966 2.53801   1
   9  -1   2 30.5655 1.35310   2
   9   0  -2 46.7487 1.79144   2
   8   0  -2 53.8658 1.80656   2
  -8   0   2 50.8406 2.86575   1
   7   0  -2 6.07225 0.74118   2
   7   0  -2 6.67096 1.39896   1
  -7   0   2 8.22555 0.82282   4
  -7   0   2 5.29193 1.31978   1
   6   0  -2 14.6862 1.47354   1
   6   0  -2 15.0085 0.87015   2
  -6   0   2 15.4834 0.56752   3
  -6   0   2 15.2754 0.88472   4
  -6   0   2 15.9055 1.48272   1
  -6   0   2 14.4425 1.47415   1
   5   0  -2 38.5850 1.23558   2
   5   0  -2 39.3889 1.91680   1
  -5   0   2 38.2982 1.19236   4
  -5   0   2 38.2937 1.86787   1
  -5   0   2 36.7815 1.83821   1
  -5   0   2 39.1219 0.86612   3
   4   0  -2 589.950 9.56748   1
   4   0  -2 594.989 9.46294   1
   4   0  -2 605.130 9.27780   2
  -4   0   2 592.816 9.23804   4
  -4   0   2 580.730 9.42275   1
  -4   0   2 587.065 9.47448   1
  -4   0   2 595.282 8.90814   3
   3   0  -2 377.066 5.97148   4
   3   0  -2 383.805 5.71740   3
   3   0  -2 367.241 6.27384   1
   3   0  -2 378.933 6.02746   2
   3   0  -2 383.136 6.64356   1
  -3   0   2 384.826 6.41012   1
  -3   0   2 377.280 5.98371   2
  -3   0   2 371.259 5.70774   3
  -3   0   2 381.131 5.99967   4
  -3   0   2 377.181 6.37671   1
   2   0  -2 1426.36 21.4228   1
   2   0  -2 1417.40 21.3840   1
   2   0  -2 1419.63 20.9101   4
   2   0  -2 1395.95 20.9488   2
   2   0  -2 1422.49 20.7273   3
  -2   0   2 1386.96 20.9327   2
  -2   0   2 1437.78 21.4129   1
  -2   0   2 1386.26 20.7208   3
  -2   0   2 1396.16 21.3834   1
   1   0  -2 4624.61 68.8048   1
   1   0  -2 4745.08 68.6391   2
   1   0  -2 4677.57 68.8364   1
  -1   0   2 4679.75 68.8118   1
  -1   0   2 4677.79 68.6226   2
   0   0  -2 231.601 3.56471   5
   0   0   2 233.647 3.57404   5
  -1   0  -2 2120.07 31.0974   2
  -1   0  -2 2085.27 31.3903   1
  -1   0  -2 2103.01 31.1833   4
  -1   0  -2 2164.19 31.4097   1
  -1   0  -2 2107.24 31.2307   5
   1   0   2 2123.56 31.2367   5
   1   0   2 2113.93 31.1818   4
   1   0   2 2168.29 31.4168   1
  -2   0  -2 206.238 3.38724   4
  -2   0  -2 210.863 3.76812   1
  -2   0  -2 210.940 3.80788   1
  -2   0  -2 210.255 3.23332   2
   2   0   2 212.679 3.24277   2
   2   0   2 216.094 3.80137   1
   2   0   2 210.116 3.83103   1
   2   0   2 214.834 3.37921   4
  -3   0  -2 160.021 3.31848   1
  -3   0  -2 157.867 2.71283   4
  -3   0  -2 156.393 2.55355   2
  -3   0  -2 156.485 3.32279   1
   3   0   2 160.653 3.38775   1
   3   0   2 156.927 2.57758   2
   3   0   2 158.059 2.56663   4
   3   0   2 156.481 3.31106   1
  -4   0  -2 149.175 2.69462   4
  -4   0  -2 143.099 2.54874   3
  -4   0  -2 146.847 2.31549   2
  -4   0  -2 148.214 3.47382   1
  -4   0  -2 147.497 3.45925   1
   4   0   2 146.161 3.42367   1
   4   0   2 147.019 2.38852   2
   4   0   2 141.567 3.46413   1
  -5   0  -2 70.3908 2.43991   1
  -5   0  -2 66.0871 1.60933   4
  -5   0  -2 62.5903 1.36533   2
  -5   0  -2 66.5592 2.38922   1
   5   0   2 65.4652 2.41630   1
   5   0   2 66.2124 1.43702   2
   5   0   2 65.0410 2.32501   1
  -6   0  -2 32.2215 1.92165   1
  -6   0  -2 29.9637 1.15542   4
  -6   0  -2 30.2625 1.84426   1
   6   0   2 28.0120 1.76764   1
   6   0   2 29.7947 0.99198   2
   6   0   2 31.7018 1.91099   1
  -7   0  -2 503.023 9.92864   1
  -7   0  -2 509.445 8.19155   4
   7   0   2 499.627 8.15777   2
   7   0   2 517.175 10.1457   1
  -8   0  -2 300.245 7.20034   1
  -8   0  -2 293.662 5.45897   4
   8   0   2 297.542 7.28236   1
   8   0   2 290.059 5.14583   2
  -9   0  -2 119.810 2.94149   4
  -9   0  -2 110.434 4.38971   1
   9   0   2 111.534 4.49293   1
   9   0   2 119.242 2.65691   2
   9  -1  -2 21.4371 1.35728   2
   8  -1  -2 5.09183 0.86503   2
  -8   1   2 8.43805 1.69589   1
   7  -1  -2 2.77728 0.64684   2
   7  -1  -2 3.89039 1.32804   1
  -7   1   2 2.14712 1.18386   1
   6  -1  -2 1.93291 1.08090   1
   6  -1  -2 1.73934 0.55620   2
  -6   1   2 1.84251 1.00463   1
  -6   1   2 2.90257 0.94966   1
   5  -1  -2 128.113 2.64312   2
   5  -1  -2 132.859 3.67591   1
  -5   1   2 123.920 2.08721   3
  -5   1   2 127.782 3.55751   1
  -5   1   2 129.398 3.56359   1
   4  -1  -2 1393.34 21.3329   2
   4  -1  -2 1406.18 22.3321   1
   4  -1  -2 1439.18 22.4606   1
  -4   1   2 1407.61 22.3351   1
  -4   1   2 1403.59 22.3554   1
  -4   1   2 1444.59 20.8498   3
   3  -1  -2 1.17158 0.61524   1
   3  -1  -2 0.93110 0.56152   1
   3  -1  -2 1.08778 0.44567   2
  -3   1   2 0.77762 0.63931   1
  -3   1   2 0.09607 0.49532   1
   2  -1  -2 114.715 2.02135   4
   2  -1  -2 113.891 2.07828   2
   2  -1  -2 114.111 2.48577   1
   2  -1  -2 116.283 2.55511   1
  -2   1   2 115.119 2.52429   1
  -2   1   2 112.823 2.49929   1
  -2   1   2 113.311 2.05106   2
   1  -1  -2 867.929 13.3416   1
   1  -1  -2 868.336 12.9980   2
   1  -1  -2 881.394 13.3179   1
  -1   1   2 877.160 13.3403   1
  -1   1   2 870.731 12.9857   2
  -1   1   2 853.278 13.2981   1
   0  -1  -2 71.3462 1.20435   2
   0  -1  -2 73.0603 1.45293   1
   0  -1  -2 71.1910 1.41658   1
   0  -1  -2 71.3339 1.14425   5
   0  -1  -2 70.4727 1.14751   3
   0   1   2 70.8156 1.18335   2
   0   1   2 70.0809 1.13891   3
   0   1   2 70.7795 1.42664   1
  -2  -1  -2 102.557 2.24460   1
  -2  -1  -2 104.104 1.83358   3
  -2  -1  -2 106.970 1.83377   4
  -2  -1  -2 100.539 2.24176   1
   2   1   2 105.214 1.80817   4
   2   1   2 107.786 1.61418   2
   2   1   2 105.709 2.27940   1
   2   1   2 100.917 2.17523   1
  -3  -1  -2 190.235 3.22550   3
  -3  -1  -2 195.729 3.91504   1
  -3  -1  -2 192.112 3.06377   4
  -3  -1  -2 198.125 3.88802   1
   3   1   2 187.794 3.83635   1
   3   1   2 196.340 3.02569   2
   3   1   2 196.652 3.94199   1
   3   1   2 191.125 3.09327   4
  -4  -1  -2 85.1236 2.51485   1
  -4  -1  -2 84.4533 1.71106   3
  -4  -1  -2 85.4516 1.79011   4
  -4  -1  -2 83.6945 2.46577   1
   4   1   2 85.8056 2.46742   1
   4   1   2 87.9546 1.56868   2
   4   1   2 87.1156 2.55190   1
  -5  -1  -2 96.8590 2.92022   1
  -5  -1  -2 97.1299 2.07597   4
  -5  -1  -2 100.759 2.96682   1
   5   1   2 100.749 2.93236   1
   5   1   2 95.6068 2.93562   1
   5   1   2 95.3863 1.82375   2
  -6  -1  -2 154.812 3.05356   4
  -6  -1  -2 147.005 4.09510   1
  -6  -1  -2 156.260 4.19971   1
   6   1   2 153.920 2.77681   2
   6   1   2 156.024 4.27162   1
   6   1   2 154.824 4.11211   1
  -7  -1  -2 35.1885 2.20775   1
  -7  -1  -2 36.2457 1.36684   4
   7   1   2 37.8842 1.16006   2
   7   1   2 38.7151 2.31321   1
  -8  -1  -2 38.0870 1.49311   4
  -8  -1  -2 40.9325 2.52992   1
   8   1   2 39.5521 1.27363   2
   8   1   2 39.9337 2.58989   1
  -9  -1  -2 1.30915 1.25993   1
  -9  -1  -2 -0.3888 0.64643   4
   9   1   2 0.68496 1.28693   1
   9   1   2 -0.1543 0.46801   2
 -10  -1  -2 45.4503 1.87348   4
   8  -2  -2 11.7242 1.04303   2
   7  -2  -2 11.9114 1.63550   1
   7  -2  -2 13.0316 0.99981   2
  -7   2   2 14.3033 1.76309   1
   6  -2  -2 8.16489 1.39092   1
   6  -2  -2 9.26136 0.86295   2
  -6   2   2 7.55346 1.33708   1
  -6   2   2 8.08534 1.31504   1
   5  -2  -2 5.04860 0.70677   2
   5  -2  -2 6.61883 1.14213   1
  -5   2   2 6.30641 1.08442   1
  -5   2   2 4.38425 0.93325   1
   4  -2  -2 194.724 3.50708   2
   4  -2  -2 188.434 4.43712   1
   4  -2  -2 185.588 4.28891   1
  -4   2   2 186.683 4.36982   1
  -4   2   2 194.063 4.36812   1
   3  -2  -2 8.81380 0.96138   1
   3  -2  -2 7.48051 0.86386   1
   3  -2  -2 9.97028 0.67057   2
  -3   2   2 10.8274 1.01873   1
  -3   2   2 9.98793 0.96295   1
   2  -2  -2 330.202 5.24481   4
   2  -2  -2 336.989 5.96214   1
   2  -2  -2 334.803 5.36335   2
   2  -2  -2 327.879 5.86169   1
  -2   2   2 327.919 5.88656   1
  -2   2   2 332.481 4.94526   3
  -2   2   2 331.202 5.92105   1
  -2   2   2 318.317 5.28292   2
   1  -2  -2 220.350 3.37669   3
   1  -2  -2 219.462 3.61524   2
   1  -2  -2 224.156 4.07719   1
   1  -2  -2 220.603 4.01149   1
  -1   2   2 216.050 4.04851   1
  -1   2   2 221.155 4.03557   1
  -1   2   2 217.434 3.37845   3
  -1   2   2 215.599 3.57085   2
   0  -2  -2 1228.46 17.8797   2
   0  -2  -2 1205.35 17.8327   3
   0  -2  -2 1192.14 18.3840   1
   0  -2  -2 1188.92 18.3440   1
   0   2   2 1202.14 17.8334   3
   0   2   2 1218.43 18.3931   1
   0   2   2 1192.16 18.3766   1
   0   2   2 1207.85 17.8660   2
  -1  -2  -2 317.125 4.88450   3
  -1  -2  -2 306.481 4.76251   2
  -1  -2  -2 314.590 5.01167   1
  -1  -2  -2 306.252 5.11776   1
  -1  -2  -2 308.458 4.82606   4
   1   2   2 309.640 5.00727   1
   1   2   2 314.116 4.76342   2
   1   2   2 321.528 5.13256   1
   1   2   2 313.878 4.89835   3
  -2  -2  -2 788.712 11.7774   4
  -2  -2  -2 791.343 12.4727   1
  -2  -2  -2 776.518 11.8365   3
  -2  -2  -2 775.894 12.4163   1
   2   2   2 778.030 12.4568   1
   2   2   2 779.111 11.6227   2
   2   2   2 791.440 11.8601   3
   2   2   2 785.750 11.7649   4
   2   2   2 793.259 12.4659   1
  -3  -2  -2 253.415 4.80565   1
  -3  -2  -2 253.411 4.84514   1
  -3  -2  -2 249.236 4.07584   4
  -3  -2  -2 241.900 4.09177   3
   3   2   2 243.155 4.13466   3
   3   2   2 241.249 4.73890   1
   3   2   2 250.103 4.85924   1
   3   2   2 251.029 4.04088   4
  -4  -2  -2 504.345 7.91302   4
  -4  -2  -2 495.763 8.44340   1
  -4  -2  -2 510.780 8.54110   1
   4   2   2 496.084 8.44554   1
   4   2   2 509.532 7.66427   2
   4   2   2 512.325 7.95768   3
   4   2   2 500.069 8.88040   1
  -5  -2  -2 30.5944 1.71225   1
  -5  -2  -2 29.4813 1.02632   4
  -5  -2  -2 28.0242 1.60739   1
   5   2   2 29.3063 1.62568   1
   5   2   2 27.3967 0.78172   2
   5   2   2 28.7153 1.67291   1
  -6  -2  -2 186.229 3.45648   4
  -6  -2  -2 175.554 4.56043   1
  -6  -2  -2 186.483 4.72495   1
   6   2   2 183.792 3.13079   2
   6   2   2 178.668 4.70063   1
   6   2   2 174.230 4.53021   1
  -7  -2  -2 676.918 12.5954   1
  -7  -2  -2 684.120 10.9392   4
   7   2   2 678.979 10.5828   2
   7   2   2 683.707 12.6757   1
  -8  -2  -2 39.0614 2.49180   1
  -8  -2  -2 38.2665 1.51304   4
   8   2   2 36.7401 2.52243   1
   8   2   2 38.8127 1.22323   2
  -9  -2  -2 16.9731 1.17558   4
  -9  -2  -2 14.8399 1.97071   1
   9   2   2 15.4548 2.06155   1
 -10  -2  -2 3.75190 0.83930   4
   8  -3  -2 9.52063 1.04709   2
   7  -3  -2 37.0264 2.54870   1
   7  -3  -2 33.5420 1.51363   2
  -7   3   2 36.4798 2.50821   1
   6  -3  -2 48.8847 2.58937   1
   6  -3  -2 45.8546 1.65240   2
  -6   3   2 46.8211 2.52247   1
   5  -3  -2 773.353 11.8721   2
   5  -3  -2 734.608 13.2060   1
  -5   3   2 730.779 13.0957   1
  -5   3   2 722.714 13.0826   1
   4  -3  -2 63.9445 1.73795   2
   4  -3  -2 66.6845 2.53382   1
  -4   3   2 62.7054 2.43557   1
  -4   3   2 63.8637 2.41092   1
   3  -3  -2 37.6224 1.70635   1
   3  -3  -2 37.8317 1.20352   2
   3  -3  -2 40.0606 1.78443   1
  -3   3   2 38.1441 1.75778   1
  -3   3   2 39.9971 0.78382   3
  -3   3   2 36.0596 1.69663   1
   2  -3  -2 8.26625 0.32845   3
   2  -3  -2 6.95296 0.81381   1
   2  -3  -2 8.31524 0.94141   1
   2  -3  -2 7.71570 0.66928   2
  -2   3   2 8.88437 0.36633   3
  -2   3   2 6.76534 0.86204   1
  -2   3   2 7.55442 0.82887   1
   1  -3  -2 24.5083 1.18155   1
   1  -3  -2 25.4733 0.86674   2
   1  -3  -2 25.5151 1.26825   1
   1  -3  -2 25.5022 0.64795   3
  -1   3   2 26.6239 0.69175   3
  -1   3   2 25.0046 0.81127   2
  -1   3   2 25.2138 1.24252   1
  -1   3   2 24.6397 1.22674   1
   0  -3  -2 709.203 11.6621   1
   0  -3  -2 697.670 10.8758   2
   0  -3  -2 722.246 10.8311   3
   0  -3  -2 731.404 11.6307   1
   0   3   2 716.163 11.6286   1
   0   3   2 722.514 10.8754   2
   0   3   2 711.849 10.8339   3
   0   3   2 725.619 11.6353   1
  -1  -3  -2 13.3550 0.49556   4
  -1  -3  -2 13.8855 0.93865   1
  -1  -3  -2 12.8183 0.54086   3
  -1  -3  -2 13.1796 0.90383   1
  -1  -3  -2 12.7759 0.50671   2
   1   3   2 13.0037 0.60128   3
   1   3   2 13.3936 0.31480   5
   1   3   2 13.1996 0.92583   1
   1   3   2 12.5263 0.50626   2
   1   3   2 13.3907 0.91013   1
  -2  -3  -2 88.5583 2.40261   1
  -2  -3  -2 91.8975 1.68541   4
  -2  -3  -2 91.0309 1.79749   3
  -2  -3  -2 89.6596 2.35081   1
   2   3   2 93.0744 1.83684   3
   2   3   2 89.0308 1.59755   2
   2   3   2 88.5529 1.63506   4
   2   3   2 95.2990 2.42442   1
   2   3   2 88.0393 2.36838   1
  -3  -3  -2 9.44140 0.94216   1
  -3  -3  -2 9.54758 1.02146   1
  -3  -3  -2 10.3344 0.55002   4
   3   3   2 10.3014 0.65755   3
   3   3   2 10.8810 1.02323   1
   3   3   2 9.23946 0.47355   4
   3   3   2 9.61987 0.40125   2
  -4  -3  -2 117.846 3.13132   1
  -4  -3  -2 119.624 2.27668   4
  -4  -3  -2 121.254 3.25153   1
   4   3   2 119.627 2.38435   3
   4   3   2 116.515 3.22651   1
   4   3   2 120.675 3.16686   1
  -5  -3  -2 626.132 11.2404   1
  -5  -3  -2 641.515 10.6890   1
  -5  -3  -2 650.650 10.0354   4
   5   3   2 645.425 9.77671   2
   5   3   2 624.523 11.2654   1
   5   3   2 655.676 10.1352   3
   5   3   2 634.974 10.7699   1
  -6  -3  -2 326.492 6.99270   1
  -6  -3  -2 328.778 5.36804   4
   6   3   2 324.016 5.26095   2
   6   3   2 318.926 6.96987   1
  -7  -3  -2 87.8626 2.16249   4
  -7  -3  -2 81.8647 3.28836   1
   7   3   2 85.3659 1.82185   2
   7   3   2 79.4087 3.26942   1
  -8  -3  -2 9.73462 0.89679   4
  -8  -3  -2 10.3426 1.66315   1
   8   3   2 10.8160 0.69411   2
   8   3   2 13.0189 1.78442   1
  -9  -3  -2 -0.3910 1.32870   1
  -9  -3  -2 1.26594 0.67167   4
   9   3   2 -0.8724 1.34450   1
   8  -4  -2 6.77427 1.08430   2
   7  -4  -2 3.61612 0.84694   2
   6  -4  -2 6.06259 0.93653   2
   6  -4  -2 7.73455 1.56229   1
  -6   4   2 4.98069 1.38558   1
   5  -4  -2 331.154 7.33736   1
   5  -4  -2 331.236 5.89941   2
  -5   4   2 330.310 7.23411   1
  -5   4   2 323.558 7.25969   1
   4  -4  -2 10.2147 0.83979   2
   4  -4  -2 10.6390 1.35902   1
  -4   4   2 8.24297 1.27014   1
  -4   4   2 9.99840 0.41733   3
  -4   4   2 8.93176 1.26040   1
   3  -4  -2 5.83873 0.70426   2
   3  -4  -2 4.32228 0.90256   1
  -3   4   2 6.43271 1.01510   1
  -3   4   2 5.89846 0.94676   1
  -3   4   2 7.22636 0.38710   3
   2  -4  -2 317.843 5.05037   5
   2  -4  -2 324.401 5.03833   2
   2  -4  -2 313.496 6.27076   1
   2  -4  -2 316.048 4.99770   3
   2  -4  -2 319.430 6.14605   1
  -2   4   2 309.240 5.00631   3
  -2   4   2 320.028 6.22597   1
  -2   4   2 315.804 6.23375   1
   1  -4  -2 19.0943 0.63087   3
   1  -4  -2 19.9240 0.53343   5
   1  -4  -2 20.3354 1.30983   1
   1  -4  -2 20.5076 0.87702   2
   1  -4  -2 21.2274 1.26930   1
  -1   4   2 23.4257 1.32154   1
  -1   4   2 19.7011 1.27287   1
  -1   4   2 19.2221 0.67516   3
   0  -4  -2 219.278 3.49727   2
   0  -4  -2 217.036 4.40069   1
   0  -4  -2 214.000 3.61687   3
   0  -4  -2 220.256 4.55309   1
   0   4   2 218.917 4.48237   1
   0   4   2 209.097 4.40132   1
   0   4   2 218.031 3.48774   3
  -1  -4  -2 14.2649 0.53859   4
  -1  -4  -2 12.9711 0.58543   2
  -1  -4  -2 14.3680 1.11660   1
  -1  -4  -2 12.5646 0.95858   1
   1   4   2 13.3646 0.68198   3
   1   4   2 13.5999 0.34140   5
   1   4   2 14.2451 1.10011   1
   1   4   2 13.8383 0.59441   2
   1   4   2 13.7435 1.01800   1
  -2  -4  -2 134.429 2.35164   4
  -2  -4  -2 135.447 3.25014   1
  -2  -4  -2 133.230 3.31437   1
   2   4   2 134.800 3.29645   1
   2   4   2 134.142 2.55532   3
   2   4   2 135.927 3.31274   1
   2   4   2 132.018 2.35326   2
  -3  -4  -2 3.81521 0.77838   1
  -3  -4  -2 5.38058 0.90903   1
  -3  -4  -2 4.88547 0.42735   4
   3   4   2 3.20318 0.81692   1
   3   4   2 4.61891 0.52344   3
   3   4   2 4.06353 0.80783   1
   3   4   2 4.19650 0.33979   2
   3   4   2 4.21608 0.35491   4
  -4  -4  -2 5.67401 0.87817   1
  -4  -4  -2 2.98814 0.78318   1
  -4  -4  -2 5.70780 0.50641   4
   4   4   2 6.09951 0.93214   1
   4   4   2 4.72633 0.86178   1
   4   4   2 5.45798 0.56402   3
   4   4   2 4.96012 0.36203   2
  -5  -4  -2 484.982 9.25726   1
  -5  -4  -2 488.185 9.19641   1
  -5  -4  -2 511.221 7.90439   4
   5   4   2 488.196 8.05595   3
   5   4   2 491.212 9.31293   1
   5   4   2 485.442 9.23131   1
  -6  -4  -2 400.684 6.32628   4
  -6  -4  -2 386.501 8.14178   1
   6   4   2 395.749 6.29274   3
   6   4   2 396.841 6.35810   2
   6   4   2 404.945 8.27035   1
  -7  -4  -2 16.0820 0.96431   4
  -7  -4  -2 13.9449 1.66839   1
   7   4   2 13.9166 1.67965   1
   7   4   2 14.8559 0.71782   2
  -8  -4  -2 6.62904 1.53135   1
  -8  -4  -2 5.40147 0.73813   4
   8   4   2 5.79763 0.59729   2
   8   4   2 6.05170 1.57344   1
  -9  -4  -2 5.75274 0.85283   4
   9   4   2 3.93645 1.52024   1
   7  -5  -2 0.96453 0.82278   2
   6  -5  -2 36.6337 1.66442   2
   6  -5  -2 32.5093 2.47971   1
  -6   5   2 33.7144 2.45852   1
   5  -5  -2 13.3849 1.04756   2
   5  -5  -2 13.1775 1.69781   1
  -5   5   2 13.5944 1.69161   1
   4  -5  -2 2.55392 0.50806   5
   4  -5  -2 2.78292 1.02276   1
   4  -5  -2 2.83524 0.70183   2
  -4   5   2 3.64601 0.36429   3
  -4   5   2 4.49000 1.18257   1
   3  -5  -2 22.2458 1.11205   2
   3  -5  -2 24.1891 1.74736   1
   3  -5  -2 22.7008 0.84499   5
  -3   5   2 23.2204 0.76062   3
  -3   5   2 25.5860 1.72821   1
  -3   5   2 21.4184 1.61683   1
   2  -5  -2 0.21424 0.24022   5
   2  -5  -2 0.61698 0.24903   3
   2  -5  -2 -0.2386 0.64149   1
   2  -5  -2 0.27779 0.51049   2
  -2   5   2 1.50198 0.79128   1
  -2   5   2 0.42512 0.30902   3
  -2   5   2 -0.1786 0.61592   1
   1  -5  -2 7.19277 0.62304   2
   1  -5  -2 7.65777 1.07312   1
   1  -5  -2 6.00701 0.31944   5
   1  -5  -2 6.69510 0.90439   1
  -1   5   2 7.51894 0.53131   3
  -1   5   2 6.37772 0.97156   1
  -1   5   2 6.57808 0.90847   1
   0  -5  -2 3.19212 0.84456   1
   0  -5  -2 4.46806 0.84603   1
   0  -5  -2 3.51378 0.47088   2
   0   5   2 2.09937 0.74264   1
   0   5   2 3.46329 0.44701   3
   0   5   2 3.06774 0.76140   1
  -1  -5  -2 165.067 4.03873   1
  -1  -5  -2 167.884 2.78938   4
  -1  -5  -2 172.715 3.03670   2
  -1  -5  -2 166.326 3.92864   1
   1   5   2 164.584 3.95001   1
   1   5   2 168.948 2.64549   5
   1   5   2 166.204 4.02121   1
   1   5   2 170.969 3.10184   3
  -2  -5  -2 41.0710 1.91363   1
  -2  -5  -2 39.7838 1.01120   4
  -2  -5  -2 38.5379 1.77049   1
   2   5   2 41.8333 1.90867   1
   2   5   2 39.5459 1.83258   1
   2   5   2 40.7298 0.86145   5
   2   5   2 41.2397 1.25976   3
  -3  -5  -2 7.60100 0.48469   4
  -3  -5  -2 6.71404 0.96831   1
  -3  -5  -2 5.63150 0.93563   1
   3   5   2 8.09944 0.69087   3
   3   5   2 6.56086 0.96348   1
   3   5   2 9.48796 1.13932   1
  -4  -5  -2 325.185 6.68470   1
  -4  -5  -2 331.514 5.39806   4
  -4  -5  -2 318.272 6.79724   1
   4   5   2 327.914 5.42158   3
   4   5   2 334.906 6.86196   1
   4   5   2 329.267 6.74891   1
  -5  -5  -2 1160.88 19.4414   1
  -5  -5  -2 1143.79 17.5518   4
   5   5   2 1157.34 17.8541   3
   5   5   2 1149.76 19.4449   1
  -6  -5  -2 84.3877 1.99905   4
  -6  -5  -2 89.4156 3.38234   1
   6   5   2 82.3616 2.19554   3
   6   5   2 79.5977 3.27030   1
  -7  -5  -2 56.6174 1.69842   4
  -7  -5  -2 58.1883 2.97361   1
   7   5   2 55.8288 1.81896   3
   7   5   2 55.9362 1.42807   2
   7   5   2 55.4562 2.96740   1
  -8  -5  -2 33.6356 2.60587   1
  -8  -5  -2 37.4172 1.45686   4
   8   5   2 34.9892 2.64082   1
  -9  -5  -2 91.1154 2.48588   4
   9   5   2 87.1219 4.19750   1
   6  -6  -2 130.681 3.32146   2
   5  -6  -2 20.6299 1.33331   2
   5  -6  -2 18.7398 0.98641   5
   5  -6  -2 17.0382 1.98758   1
  -5   6   2 17.2605 1.92459   1
   4  -6  -2 0.27900 1.08251   1
   4  -6  -2 0.07448 0.61790   2
   4  -6  -2 0.67340 0.40939   5
  -4   6   2 -0.0310 0.98112   1
   3  -6  -2 53.6170 2.68375   1
   3  -6  -2 56.1114 1.37667   5
   3  -6  -2 56.9901 1.82764   2
  -3   6   2 54.9519 1.37184   3
  -3   6   2 54.6603 2.63975   1
   2  -6  -2 51.4827 1.62209   2
   2  -6  -2 48.7946 2.42615   1
   2  -6  -2 47.5802 1.12802   5
  -2   6   2 47.0651 2.35581   1
  -2   6   2 47.5891 2.35437   1
  -2   6   2 50.0793 1.32022   3
   1  -6  -2 91.4100 3.26710   1
   1  -6  -2 91.1458 2.19430   2
   1  -6  -2 88.5834 1.61513   5
  -1   6   2 93.7119 3.11846   1
  -1   6   2 94.2475 2.02700   3
  -1   6   2 92.9066 3.14772   1
   0  -6  -2 33.6755 1.96110   1
   0  -6  -2 35.4258 1.22336   2
   0   6   2 34.9300 1.16757   3
   0   6   2 34.1471 1.92736   1
   0   6   2 34.6058 1.90603   1
  -1  -6  -2 80.6331 1.66397   4
  -1  -6  -2 83.5558 1.90559   2
  -1  -6  -2 84.1097 2.93302   1
   1   6   2 82.5085 2.88009   1
   1   6   2 81.4154 1.95253   3
   1   6   2 83.8487 1.32381   5
   1   6   2 80.2193 2.82326   1
  -2  -6  -2 321.626 7.23212   1
  -2  -6  -2 346.831 7.17287   1
  -2  -6  -2 353.288 5.61131   4
   2   6   2 358.782 7.17701   1
   2   6   2 347.568 5.53068   3
   2   6   2 361.197 7.10512   1
   2   6   2 346.549 5.41598   5
  -3  -6  -2 0.02684 0.31098   4
  -3  -6  -2 0.54855 0.75830   1
   3   6   2 -0.3494 0.65997   1
   3   6   2 0.19459 0.72258   1
   3   6   2 -0.1664 0.53140   3
   3   6   2 0.01537 0.21946   5
  -4  -6  -2 26.2696 1.90770   1
  -4  -6  -2 26.4210 0.91791   4
   4   6   2 24.4457 1.17203   3
   4   6   2 26.9623 1.91719   1
  -5  -6  -2 685.903 10.9044   4
  -5  -6  -2 690.590 12.8196   1
   5   6   2 707.555 12.8922   1
   5   6   2 705.404 11.3471   3
  -6  -6  -2 77.7280 3.32658   1
  -6  -6  -2 76.3965 1.90878   4
   6   6   2 74.7669 3.31462   1
   6   6   2 80.4084 2.21160   3
  -7  -6  -2 85.0958 2.15282   4
  -7  -6  -2 85.9452 3.72532   1
   7   6   2 87.9278 3.76507   1
   7   6   2 85.2309 1.94278   2
   7   6   2 85.3730 2.39683   3
  -8  -6  -2 -0.5603 1.12616   1
  -8  -6  -2 0.57152 0.63045   4
   8   6   2 -0.3756 1.18126   1
   8   6   2 0.44321 0.61463   3
   5  -7  -2 1.20975 0.90516   2
   4  -7  -2 4.52605 1.51430   1
   4  -7  -2 3.68264 0.84454   2
  -4   7   2 2.52626 1.34650   1
   3  -7  -2 8.01571 1.57439   1
   3  -7  -2 10.0043 1.01872   2
  -3   7   2 10.3963 0.68589   3
  -3   7   2 7.90957 1.51129   1
   2  -7  -2 1.50278 1.14023   1
   2  -7  -2 2.64912 0.70170   2
  -2   7   2 3.27593 0.55276   3
  -2   7   2 3.53997 1.23032   1
   1  -7  -2 10.1811 1.45993   1
   1  -7  -2 7.95289 0.83829   2
  -1   7   2 7.39024 1.30685   1
  -1   7   2 8.19659 0.70075   3
   0  -7  -2 74.9558 3.06938   1
   0  -7  -2 73.2231 1.96216   2
   0  -7  -2 76.0770 1.64685   4
   0   7   2 74.0964 1.90927   3
   0   7   2 76.6301 3.02433   1
  -1  -7  -2 43.6191 1.13435   4
  -1  -7  -2 42.0353 1.40212   2
  -1  -7  -2 42.7445 2.32833   1
   1   7   2 42.3860 2.28796   1
   1   7   2 44.2918 1.46818   3
  -2  -7  -2 476.610 7.54205   4
  -2  -7  -2 479.886 9.49268   1
   2   7   2 480.774 7.87955   3
   2   7   2 474.818 9.42962   1
  -3  -7  -2 180.864 5.04339   1
  -3  -7  -2 183.640 3.28365   4
   3   7   2 189.205 3.78090   3
   3   7   2 192.748 5.07754   1
  -4  -7  -2 1305.74 22.2714   1
  -4  -7  -2 1288.07 19.8985   4
   4   7   2 1333.71 20.4834   3
   4   7   2 1346.22 22.3739   1
  -5  -7  -2 8.58908 0.65010   4
  -5  -7  -2 8.08729 1.44584   1
   5   7   2 7.82708 1.49680   1
   5   7   2 7.63339 0.89242   3
  -6  -7  -2 19.5629 0.95630   4
  -6  -7  -2 18.7458 2.01856   1
   6   7   2 22.3370 1.31103   3
   6   7   2 22.8236 2.15192   1
  -7  -7  -2 0.64291 0.56348   4
  -7  -7  -2 0.21285 1.16348   1
   7   7   2 -0.0982 1.16259   1
   7   7   2 0.39611 0.66998   3
  -8  -7  -2 26.4235 1.26476   4
   8   7   2 23.7788 2.48403   1
   8   7   2 27.3864 1.52175   3
   4  -8  -2 1.53747 0.89104   2
   3  -8  -2 10.5966 1.09730   2
   3  -8  -2 8.36251 1.70634   1
  -3   8   2 10.6143 1.72847   1
   2  -8  -2 5.40598 0.88604   2
   2  -8  -2 1.12452 1.13623   1
  -2   8   2 4.91125 0.65451   3
  -2   8   2 6.29364 1.43236   1
   1  -8  -2 29.8516 1.40443   2
   1  -8  -2 27.2023 2.19049   1
  -1   8   2 24.3354 2.02930   1
  -1   8   2 29.3828 1.21120   3
   0  -8  -2 0.23699 1.10515   1
   0  -8  -2 0.03657 0.30146   4
   0  -8  -2 0.57382 0.56312   2
   0   8   2 0.52124 1.09078   1
   0   8   2 0.24648 0.50154   3
  -1  -8  -2 0.76657 1.01781   1
  -1  -8  -2 2.75453 0.41512   4
   1   8   2 2.70238 0.63308   3
   1   8   2 2.22299 1.08903   1
  -2  -8  -2 1.83831 1.04208   1
  -2  -8  -2 2.13133 0.39151   4
   2   8   2 2.89578 1.07058   1
   2   8   2 3.23208 0.74470   3
  -3  -8  -2 7.34142 1.41648   1
  -3  -8  -2 5.18198 0.49994   4
   3   8   2 3.98334 1.27944   1
   3   8   2 4.38799 0.84203   3
  -4  -8  -2 218.472 3.84339   4
  -4  -8  -2 215.709 5.97286   1
   4   8   2 220.091 5.99720   1
   4   8   2 219.951 4.46281   3
  -5  -8  -2 25.3651 1.01012   4
  -5  -8  -2 26.1374 2.32677   1
   5   8   2 26.0117 2.30153   1
   5   8   2 24.0131 1.33876   3
  -6  -8  -2 -0.2793 1.12692   1
   6   8   2 1.47115 1.24594   1
   6   8   2 0.36357 0.66159   3
   7   8   2 1.02239 0.83025   3
   7   8   2 1.62032 1.51325   1
   3  -9  -2 14.3756 1.23727   2
   2  -9  -2 15.1119 1.25708   2
   2  -9  -2 10.5906 1.98548   1
   1  -9  -2 15.2878 1.13331   2
   1  -9  -2 14.4551 1.94771   1
  -1   9   2 17.2609 1.98480   1
  -1   9   2 14.0847 1.00074   3
   0  -9  -2 1.08626 0.67239   2
   0  -9  -2 0.95135 1.12899   1
   0   9   2 1.17232 0.67154   3
   0   9   2 -0.3871 1.00897   1
  -1  -9  -2 11.8021 1.72340   1
   1   9   2 16.0237 1.07839   3
   1   9   2 12.0028 1.72517   1
  -2  -9  -2 16.7683 2.02075   1
   2   9   2 18.2576 1.19633   3
   2   9   2 14.1319 1.88822   1
  -3  -9  -2 247.189 6.78561   1
   3   9   2 247.474 6.72636   1
   3   9   2 250.268 4.97843   3
  -4  -9  -2 38.9372 2.76184   1
   4   9   2 40.7810 1.77442   3
   4   9   2 41.3648 2.80125   1
   5   9   2 1.85569 1.50330   1
   5   9   2 1.05569 0.79651   3
   6   9   2 2.75675 0.94796   3
   0  10   2 20.8832 1.27052   3
   1  10   2 17.2715 1.25689   3
   2  10   2 17.3548 1.25231   3
   3  10   2 57.0126 2.12975   3
   2  10  -3 9.13939 1.10512   3
   1  10  -3 7.47330 1.02789   3
   0  10  -3 65.2906 2.26296   3
   5   9  -3 15.4408 1.32301   3
   4   9  -3 17.1826 1.33266   3
   3   9  -3 14.4886 1.24200   3
   2   9  -3 1.88264 0.76087   3
   1   9  -3 62.4526 2.09253   3
   0   9  -3 165.321 3.69747   3
  -1   9  -3 0.53051 0.70826   3
  -2   9  -3 90.7646 2.52423   3
  -3   9  -3 24.5636 1.35303   3
   6   8  -3 1.47275 0.77949   3
   5   8  -3 42.4354 1.77670   3
   4   8  -3 2.19515 0.73443   3
  -4  -8   3 2.28737 1.30423   1
   3   8  -3 3.61421 0.84960   3
  -3  -8   3 1.12979 1.08990   1
   2   8  -3 -0.2204 0.55637   3
   2   8  -3 0.11568 0.86186   1
  -2  -8   3 -1.2829 0.80302   1
   1   8  -3 1.92563 0.66160   3
   1   8  -3 0.49551 0.95457   1
  -1  -8   3 0.69203 1.09984   1
   0   8  -3 34.2693 2.27672   1
   0   8  -3 32.2565 1.42365   3
   0  -8   3 31.5060 2.22824   1
  -1   8  -3 82.5603 2.26308   3
  -1   8  -3 82.8693 3.41928   1
   1  -8   3 76.3742 1.94525   5
   1  -8   3 83.8972 3.52596   1
  -2   8  -3 1.73950 0.69887   3
  -2   8  -3 2.63946 1.22946   1
   2  -8   3 1.36710 1.14648   1
   2  -8   3 1.76448 0.51849   5
  -3   8  -3 16.1637 1.04850   3
   3  -8   3 14.8229 0.92931   5
   3  -8   3 16.2980 1.15332   2
  -4   8  -3 7.59045 0.84115   3
   4  -8   3 6.58351 0.95815   2
   5  -8   3 13.9120 1.22632   2
   7   7  -3 87.5581 2.56661   3
   7   7  -3 91.0249 2.44453   2
   6   7  -3 65.1983 2.12458   3
   5   7  -3 14.0799 1.09184   3
  -5  -7   3 14.8748 1.72319   1
   4   7  -3 26.5063 1.34984   3
   4   7  -3 25.8840 1.97442   1
  -4  -7   3 29.2980 2.08017   1
   3   7  -3 5.02516 0.82865   3
   3   7  -3 3.04747 1.07089   1
  -3  -7   3 1.69010 0.92738   1
   2   7  -3 26.5800 1.84160   1
   2   7  -3 23.2672 1.21332   3
  -2  -7   3 21.5697 1.68580   1
  -2  -7   3 20.1203 1.75034   1
   1   7  -3 618.161 10.0296   3
   1   7  -3 605.496 11.2820   1
  -1  -7   3 604.698 11.0936   1
  -1  -7   3 605.111 11.2840   1
   0   7  -3 -0.2287 0.75252   1
   0   7  -3 0.65305 0.60314   3
   0  -7   3 -0.0754 0.33186   5
   0  -7   3 -0.0296 0.75606   1
   0  -7   3 -0.3061 0.73746   1
  -1   7  -3 117.366 3.74929   1
  -1   7  -3 115.821 2.65627   3
   1  -7   3 115.104 3.83356   1
   1  -7   3 111.990 3.64071   1
   1  -7   3 115.304 2.44343   5
  -2   7  -3 73.5394 3.05977   1
  -2   7  -3 73.3521 1.99872   3
   2  -7   3 72.7609 1.85773   5
   2  -7   3 77.8356 3.19695   1
   2  -7   3 70.9210 2.05718   2
  -3   7  -3 61.3675 2.88687   1
  -3   7  -3 55.9157 1.71785   3
   3  -7   3 56.3885 1.65732   5
   3  -7   3 51.8564 2.78909   1
   3  -7   3 54.3810 1.85503   2
  -4   7  -3 202.572 5.68087   1
  -4   7  -3 201.677 3.93640   3
   4  -7   3 202.332 5.82302   1
   4  -7   3 200.608 4.20735   2
   4  -7   3 204.951 3.99995   5
  -5   7  -3 11.6169 1.81352   1
  -5   7  -3 9.54660 0.82076   3
   5  -7   3 11.2813 0.94010   5
   5  -7   3 10.8228 1.09028   2
   6  -7   3 11.7353 1.02982   5
   6  -7   3 10.5571 1.13378   2
   8   6  -3 5.80887 0.84315   3
   8   6  -3 4.55053 0.77247   2
   7   6  -3 0.50520 0.53357   2
   7   6  -3 2.20410 0.68378   3
   6   6  -3 116.274 2.79665   3
  -6  -6   3 112.947 4.03929   1
  -6  -6   3 115.323 2.33864   4
   5   6  -3 3.55026 0.74854   3
   5   6  -3 2.79538 1.03732   1
  -5  -6   3 2.21034 1.02672   1
  -5  -6   3 3.47242 0.41844   4
   4   6  -3 21.6059 1.16100   3
   4   6  -3 21.3964 1.68087   1
  -4  -6   3 22.8854 0.68498   4
  -4  -6   3 22.4342 1.66725   1
  -4  -6   3 24.9941 1.83866   1
   3   6  -3 6.13967 0.72926   3
   3   6  -3 5.15514 1.02624   1
  -3  -6   3 4.93148 0.27634   4
  -3  -6   3 6.31712 1.01999   1
  -3  -6   3 5.80311 1.04092   1
   2   6  -3 -0.2929 0.45256   3
   2   6  -3 -0.7490 0.54830   1
  -2  -6   3 -0.0356 0.66727   1
  -2  -6   3 0.79925 0.65160   1
   1   6  -3 155.008 4.08642   1
   1   6  -3 154.012 3.18392   3
  -1  -6   3 159.476 4.01170   1
  -1  -6   3 163.800 4.17664   1
   0   6  -3 40.9685 1.37149   3
   0   6  -3 39.8912 1.98761   1
   0  -6   3 37.2425 1.98470   1
   0  -6   3 39.6054 1.18875   5
   0  -6   3 41.4085 1.95415   1
  -1   6  -3 45.5866 1.46023   3
  -1   6  -3 45.2266 2.17485   1
   1  -6   3 45.2712 2.24787   1
   1  -6   3 48.7603 2.16225   1
   1  -6   3 47.1786 0.90439   4
   1  -6   3 48.0691 1.32772   5
  -2   6  -3 59.7631 1.67649   3
  -2   6  -3 59.4505 2.56472   1
   2  -6   3 57.3617 2.60273   1
   2  -6   3 61.2634 1.75645   2
   2  -6   3 58.3365 2.49243   1
   2  -6   3 61.2483 1.59774   5
  -3   6  -3 34.9709 2.10443   1
  -3   6  -3 35.0279 1.25827   3
   3  -6   3 33.7532 1.22937   5
   3  -6   3 30.4220 1.31613   2
   3  -6   3 36.8727 2.22807   1
   3  -6   3 33.5942 2.07279   1
  -4   6  -3 51.2925 2.61401   1
  -4   6  -3 51.9824 1.55839   3
   4  -6   3 52.0543 1.62917   5
   4  -6   3 47.7534 2.62075   1
   4  -6   3 53.6577 1.73839   2
  -5   6  -3 52.5597 2.81141   1
  -5   6  -3 51.5469 1.55388   3
   5  -6   3 49.6288 1.76598   2
   5  -6   3 49.4949 2.83440   1
   5  -6   3 52.0231 1.73133   5
  -6   6  -3 12.0492 1.75383   1
   6  -6   3 13.2570 1.03590   5
   6  -6   3 10.7907 1.81895   1
   6  -6   3 13.4048 1.12234   2
   7  -6   3 13.4742 1.14224   2
   7  -6   3 13.6013 1.14450   5
   8   5  -3 2.28633 0.64646   2
   8   5  -3 2.10812 0.63663   3
  -8  -5   3 0.72591 0.55675   4
   7   5  -3 108.427 2.63627   3
   7   5  -3 111.620 2.66030   2
  -7  -5   3 110.511 2.45968   4
  -7  -5   3 114.008 4.16948   1
   6   5  -3 50.7219 2.63914   1
   6   5  -3 51.1058 1.62675   2
   6   5  -3 51.4274 1.66955   3
  -6  -5   3 58.2725 2.77230   1
  -6  -5   3 53.5073 1.44090   4
   5   5  -3 64.7166 1.81955   3
   5   5  -3 61.3724 2.69832   1
  -5  -5   3 65.5096 2.75041   1
  -5  -5   3 65.1810 1.48443   4
  -5  -5   3 61.8126 2.63773   1
   4   5  -3 12.0508 0.82831   3
   4   5  -3 12.0371 0.51671   4
   4   5  -3 13.4454 1.31108   1
  -4  -5   3 11.8889 1.22612   1
  -4  -5   3 12.0129 0.53878   4
  -4  -5   3 11.8484 1.33363   1
   3   5  -3 32.3786 0.73518   4
   3   5  -3 33.9979 1.24166   3
   3   5  -3 33.4843 1.77861   1
  -3  -5   3 33.1694 0.75342   4
  -3  -5   3 33.8657 1.71790   1
  -3  -5   3 33.5175 1.78260   1
   2   5  -3 798.152 13.4213   1
   2   5  -3 787.143 12.4053   3
  -2  -5   3 781.506 13.0253   1
  -2  -5   3 803.677 13.3939   1
   1   5  -3 360.692 6.77300   1
   1   5  -3 354.065 5.71594   3
   1   5  -3 346.847 6.69750   1
  -1  -5   3 353.767 6.63677   1
  -1  -5   3 348.277 6.75181   1
   0   5  -3 68.9906 1.69167   3
   0   5  -3 66.4422 2.28293   1
   0   5  -3 67.7472 2.29700   1
   0  -5   3 65.5644 1.55025   5
   0  -5   3 65.9586 2.23304   1
   0  -5   3 68.6206 2.37808   1
  -1   5  -3 32.7760 1.10757   3
  -1   5  -3 30.2080 1.58563   1
   1  -5   3 31.2611 1.61027   1
   1  -5   3 28.7155 0.97943   5
   1  -5   3 30.0136 0.64430   4
   1  -5   3 30.7387 1.66151   1
  -2   5  -3 8.44115 1.07649   1
  -2   5  -3 8.55599 0.67413   3
   2  -5   3 8.62185 1.01522   1
   2  -5   3 8.73322 0.71759   2
   2  -5   3 7.88612 0.40276   4
   2  -5   3 7.43645 0.60503   5
   2  -5   3 7.21178 1.03511   1
  -3   5  -3 153.468 4.12512   1
  -3   5  -3 154.499 2.98853   3
   3  -5   3 153.254 4.19631   1
   3  -5   3 152.966 3.02944   5
   3  -5   3 155.664 3.12208   2
   3  -5   3 154.808 4.09596   1
  -4   5  -3 85.7714 1.97931   3
  -4   5  -3 83.5006 3.09705   1
   4  -5   3 87.0358 3.26615   1
   4  -5   3 84.8316 2.10709   5
   4  -5   3 82.5379 3.07859   1
   4  -5   3 85.4656 2.17269   2
  -5   5  -3 37.7582 2.30486   1
  -5   5  -3 38.9122 1.26003   3
   5  -5   3 37.7855 2.40812   1
   5  -5   3 36.3352 1.42100   5
   5  -5   3 35.2376 1.41449   2
  -6   5  -3 11.5158 0.76513   3
  -6   5  -3 13.4119 1.68619   1
   6  -5   3 11.3732 0.98448   2
   6  -5   3 11.8238 0.97155   5
   6  -5   3 12.6314 1.70697   1
  -7   5  -3 52.2574 3.10421   1
   7  -5   3 48.8491 1.81007   2
   7  -5   3 48.2132 1.87880   5
   9   4  -3 13.9100 1.07376   2
   8   4  -3 1.80876 0.57260   3
   8   4  -3 0.97369 0.62341   2
  -8  -4   3 1.32297 0.62683   4
   7   4  -3 89.0393 2.19860   3
   7   4  -3 92.1176 2.30902   2
  -7  -4   3 91.8305 3.58270   1
  -7  -4   3 90.4366 2.17832   4
   6   4  -3 19.2704 1.69546   1
   6   4  -3 18.6781 0.96356   3
   6   4  -3 21.7453 1.04645   2
  -6  -4   3 19.8477 0.90905   4
  -6  -4   3 19.1764 1.74243   1
   5   4  -3 5.25874 1.02498   1
   5   4  -3 4.65355 0.59530   3
  -5  -4   3 5.68373 0.51101   4
  -5  -4   3 5.03012 0.99987   1
  -5  -4   3 3.06242 0.91600   1
   4   4  -3 0.54890 0.46157   3
   4   4  -3 -0.2690 0.70609   1
  -4  -4   3 -0.3625 0.67414   1
  -4  -4   3 -0.1524 0.26816   4
  -4  -4   3 -0.2507 0.53040   1
   3   4  -3 496.602 8.99728   1
   3   4  -3 512.453 7.82442   4
   3   4  -3 518.133 9.00590   1
   3   4  -3 520.612 8.24834   3
  -3  -4   3 528.711 9.16399   1
  -3  -4   3 512.894 7.82791   4
  -3  -4   3 507.978 8.75919   1
   2   4  -3 703.374 10.4373   4
   2   4  -3 709.508 10.9679   3
   2   4  -3 698.872 11.7658   1
   2   4  -3 702.304 11.7602   1
  -2  -4   3 706.513 11.8075   1
  -2  -4   3 689.425 11.6925   1
  -2  -4   3 708.052 10.4399   4
   1   4  -3 1167.53 17.9360   1
   1   4  -3 1133.68 17.1109   3
   1   4  -3 1139.59 17.8758   1
  -1  -4   3 1070.33 17.0624   5
  -1  -4   3 1129.06 17.9044   1
  -1  -4   3 1120.37 17.8278   1
   0   4  -3 930.325 14.7630   1
   0   4  -3 906.249 13.9129   5
   0   4  -3 915.042 13.9910   3
   0   4  -3 899.449 14.7221   1
   0  -4   3 920.790 14.8364   1
   0  -4   3 916.634 13.9297   5
   0  -4   3 909.584 14.7272   1
  -1   4  -3 48.2778 1.28615   3
  -1   4  -3 48.9640 1.77441   1
  -1   4  -3 49.7783 1.80690   1
   1  -4   3 48.2859 1.30298   2
   1  -4   3 49.6182 1.78179   1
   1  -4   3 49.8824 0.89874   4
   1  -4   3 49.7472 1.24999   5
   1  -4   3 47.9963 1.83531   1
  -2   4  -3 23.2822 1.34839   1
  -2   4  -3 23.6234 0.86840   3
  -2   4  -3 22.6074 1.34771   1
   2  -4   3 23.6447 1.34052   1
   2  -4   3 24.1926 0.64946   4
   2  -4   3 24.6557 0.91317   2
   2  -4   3 23.4892 0.89199   5
   2  -4   3 23.6652 1.42061   1
  -3   4  -3 118.042 2.34128   3
  -3   4  -3 115.997 2.15783   4
  -3   4  -3 116.371 3.27017   1
  -3   4  -3 109.570 3.33223   1
   3  -4   3 123.836 3.30507   1
   3  -4   3 118.463 3.34026   1
   3  -4   3 116.624 2.40696   5
   3  -4   3 117.763 2.42906   2
  -4   4  -3 208.941 3.69185   3
  -4   4  -3 202.440 4.91647   1
  -4   4  -3 204.042 3.59668   4
   4  -4   3 207.249 3.87295   5
   4  -4   3 207.408 4.88789   1
   4  -4   3 207.237 3.83235   2
   4  -4   3 209.472 5.05292   1
  -5   4  -3 13.1674 0.75405   4
  -5   4  -3 12.5790 0.71507   3
  -5   4  -3 14.4582 1.50886   1
   5  -4   3 12.1462 1.37945   1
   5  -4   3 12.9319 0.86248   2
   5  -4   3 12.1862 0.91545   5
   5  -4   3 13.7599 1.58805   1
  -6   4  -3 153.544 3.10576   4
  -6   4  -3 147.944 2.91974   3
  -6   4  -3 148.756 4.54527   1
   6  -4   3 155.069 3.37204   5
   6  -4   3 151.881 4.73700   1
   6  -4   3 148.460 3.21654   2
  -7   4  -3 30.1269 2.25683   1
  -7   4  -3 28.8143 1.29649   4
  -7   4  -3 28.3843 1.10012   3
   7  -4   3 29.0114 1.47129   5
   7  -4   3 28.6739 1.35490   2
   7  -4   3 26.9694 2.33067   1
  -8   4  -3 54.0502 3.18704   1
   8  -4   3 51.1859 2.02737   5
   8  -4   3 48.0387 1.82158   2
   9   3  -3 4.47951 0.82330   2
   8   3  -3 45.9959 1.65759   2
  -8  -3   3 50.3987 1.70014   4
   7   3  -3 1.11469 0.52640   2
   7   3  -3 0.92572 0.44735   3
  -7  -3   3 0.60098 0.47048   4
  -7  -3   3 2.22226 1.11786   1
   6   3  -3 15.3504 1.55254   1
   6   3  -3 17.6838 0.85356   3
   6   3  -3 17.5879 0.94592   2
  -6  -3   3 17.7004 0.89161   4
  -6  -3   3 20.5974 1.66813   1
  -6  -3   3 17.0461 1.53640   1
   5   3  -3 149.065 2.95817   2
   5   3  -3 152.536 2.88889   3
   5   3  -3 147.048 3.96261   1
  -5  -3   3 153.526 4.02649   1
  -5  -3   3 151.212 2.84156   4
  -5  -3   3 155.684 3.97174   1
   4   3  -3 30.7799 1.57858   1
   4   3  -3 29.6399 0.98077   3
  -4  -3   3 28.9026 0.87367   4
  -4  -3   3 28.9868 1.56850   1
  -4  -3   3 28.0848 1.51021   1
   3   3  -3 90.8969 2.53235   1
   3   3  -3 89.1352 2.48128   1
   3   3  -3 95.3861 1.92462   3
   3   3  -3 90.4114 1.67189   4
  -3  -3   3 92.4220 1.69534   4
  -3  -3   3 93.3257 2.50262   1
  -3  -3   3 92.6293 2.56139   1
   2   3  -3 864.989 13.6358   1
   2   3  -3 850.105 13.6185   1
   2   3  -3 861.424 12.6161   4
   2   3  -3 856.102 12.9499   3
  -2  -3   3 864.465 13.6450   1
  -2  -3   3 800.199 12.6228   4
  -2  -3   3 843.448 13.5656   1
   1   3  -3 1.51431 0.48837   1
   1   3  -3 1.61968 0.38147   3
   1   3  -3 1.57737 0.33008   5
   1   3  -3 0.89986 0.42452   1
  -1  -3   3 1.67722 0.30700   3
  -1  -3   3 1.64815 0.51265   1
  -1  -3   3 1.64159 0.50802   1
   0   3  -3 228.081 4.21274   1
   0   3  -3 218.574 3.77045   5
   0   3  -3 224.867 3.65295   3
   0   3  -3 230.653 4.25959   1
   0   3  -3 222.130 3.68814   2
   0  -3   3 223.214 4.24971   1
   0  -3   3 228.194 4.21100   1
   0  -3   3 233.914 3.81955   3
   0  -3   3 231.117 3.84536   5
  -1   3  -3 5.07738 0.42759   5
  -1   3  -3 5.95047 0.67306   1
  -1   3  -3 5.10575 0.24552   4
  -1   3  -3 5.26976 0.44473   3
  -1   3  -3 4.63248 0.67464   1
  -1   3  -3 4.98680 0.44944   2
   1  -3   3 5.06419 0.45301   5
   1  -3   3 5.30207 0.39926   3
   1  -3   3 6.16521 0.73539   1
   1  -3   3 4.62220 0.61974   1
   1  -3   3 4.41955 0.23207   4
  -2   3  -3 202.081 3.98075   1
  -2   3  -3 207.353 3.32358   3
  -2   3  -3 209.395 3.35356   4
  -2   3  -3 207.102 4.22246   1
   2  -3   3 204.916 3.33566   4
   2  -3   3 216.195 3.35497   5
   2  -3   3 210.218 4.31015   1
   2  -3   3 206.286 4.18844   1
   2  -3   3 203.656 3.47630   2
  -3   3  -3 169.058 2.96904   3
  -3   3  -3 168.595 3.84548   1
  -3   3  -3 165.159 3.80577   1
  -3   3  -3 161.866 2.85135   4
   3  -3   3 167.891 3.82788   1
   3  -3   3 160.895 2.81719   4
   3  -3   3 161.964 3.07077   5
   3  -3   3 168.481 3.02323   2
   3  -3   3 172.341 3.94221   1
  -4   3  -3 28.4143 1.62920   1
  -4   3  -3 28.9673 0.93982   3
  -4   3  -3 28.6986 0.93620   4
  -4   3  -3 28.5428 1.61717   1
   4  -3   3 29.9402 1.04526   2
   4  -3   3 29.0522 1.68135   1
   4  -3   3 29.7762 1.65649   1
   4  -3   3 27.4758 1.07824   5
  -5   3  -3 -0.0272 0.35000   3
  -5   3  -3 -0.9351 0.68038   1
  -5   3  -3 0.20527 0.42894   4
   5  -3   3 -0.0269 0.74985   1
   5  -3   3 -0.3619 0.43928   2
   5  -3   3 -0.4624 0.85418   1
   5  -3   3 0.59769 0.57588   5
  -6   3  -3 74.0792 1.73240   3
  -6   3  -3 71.1629 1.87147   4
  -6   3  -3 69.3016 2.94398   1
   6  -3   3 75.3546 2.12929   5
   6  -3   3 73.3904 3.08989   1
   6  -3   3 75.3823 1.94506   2
  -7   3  -3 67.9825 1.70741   3
  -7   3  -3 70.9621 1.98004   4
  -7   3  -3 68.8366 3.21361   1
   7  -3   3 69.9826 3.30769   1
   7  -3   3 69.0751 1.94940   2
  -8   3  -3 527.007 8.42832   4
  -8   3  -3 536.167 11.1429   1
   8  -3   3 526.759 8.34539   2
   8  -3   3 523.270 11.2562   1
  -9   3  -3 0.59174 0.71133   4
   9  -3   3 1.15037 0.71436   2
   9  -3   3 1.14906 0.85617   5
   9   2  -3 10.2729 0.99232   2
   8   2  -3 3.44820 0.69235   2
   7   2  -3 8.35733 0.79124   2
   7   2  -3 5.93585 1.26820   1
  -7  -2   3 9.25707 1.39349   1
  -7  -2   3 7.95131 0.74675   4
   6   2  -3 282.066 4.51348   3
   6   2  -3 279.036 6.26531   1
   6   2  -3 283.642 4.99315   2
  -6  -2   3 287.435 6.28510   1
  -6  -2   3 267.456 6.12228   1
  -6  -2   3 282.578 4.91668   4
   5   2  -3 68.4150 2.51488   1
   5   2  -3 65.2117 1.50818   3
   5   2  -3 70.3648 1.73041   2
  -5  -2   3 65.5203 2.44904   1
  -5  -2   3 69.5150 1.63595   4
  -5  -2   3 69.5525 2.46956   1
   4   2  -3 38.3518 1.14873   2
   4   2  -3 36.3338 1.62949   1
   4   2  -3 39.5728 1.02259   3
   4   2  -3 36.2089 1.66685   1
  -4  -2   3 38.8392 1.69703   1
  -4  -2   3 35.7014 1.62402   1
  -4  -2   3 36.7977 0.95925   3
  -4  -2   3 38.5029 1.04029   4
   3   2  -3 540.602 8.99496   1
   3   2  -3 532.719 8.31112   4
   3   2  -3 547.547 8.39415   3
   3   2  -3 538.052 9.14614   1
  -3  -2   3 543.536 8.36421   3
  -3  -2   3 557.378 9.22122   1
  -3  -2   3 533.202 9.06233   1
  -3  -2   3 548.350 8.32823   4
   2   2  -3 79.4702 1.97298   1
   2   2  -3 78.9348 1.56077   3
   2   2  -3 77.1214 1.40405   4
   2   2  -3 76.8114 1.98122   1
  -2  -2   3 77.3016 1.52229   3
  -2  -2   3 78.9196 1.97369   1
  -2  -2   3 79.8541 2.00022   1
   1   2  -3 241.025 3.87871   1
   1   2  -3 240.308 3.63630   4
   1   2  -3 240.988 3.90909   3
   1   2  -3 241.869 3.89612   1
   1   2  -3 237.296 3.93529   5
  -1  -2   3 240.087 4.03479   1
  -1  -2   3 234.583 3.86523   3
   0   2  -3 436.155 6.76856   3
   0   2  -3 446.469 7.06381   1
   0   2  -3 440.408 7.04939   1
   0   2  -3 441.964 6.78443   5
   0  -2   3 439.160 6.75320   3
   0  -2   3 427.211 7.06282   1
   0  -2   3 426.951 6.78035   5
  -1   2  -3 311.100 5.08765   1
  -1   2  -3 310.140 4.94232   2
  -1   2  -3 306.263 4.99750   5
  -1   2  -3 313.666 5.30263   1
  -1   2  -3 307.971 4.98542   3
  -1   2  -3 317.012 4.75469   4
   1  -2   3 316.329 5.11534   1
   1  -2   3 318.718 5.04139   5
   1  -2   3 315.607 5.12868   1
   1  -2   3 317.562 4.75318   4
  -2   2  -3 42.9861 1.06293   3
  -2   2  -3 45.5376 0.96217   4
  -2   2  -3 43.6419 1.49528   1
  -2   2  -3 42.9636 1.02484   2
  -2   2  -3 46.1374 1.49306   1
   2  -2   3 43.9506 0.93786   4
   2  -2   3 44.9095 1.53964   1
   2  -2   3 45.4089 1.14958   5
   2  -2   3 44.5948 1.05694   2
   2  -2   3 45.0854 1.48465   1
  -3   2  -3 59.2777 1.31159   2
  -3   2  -3 63.9888 2.01639   1
  -3   2  -3 61.9501 1.32862   4
  -3   2  -3 62.9240 1.98339   1
   3  -2   3 59.5456 1.28638   4
   3  -2   3 62.0907 2.04981   1
   3  -2   3 58.5829 1.93468   1
   3  -2   3 60.0690 1.49125   5
   3  -2   3 62.0059 1.36583   2
  -4   2  -3 2.77793 0.75104   1
  -4   2  -3 0.38959 0.56432   1
  -4   2  -3 1.39677 0.37447   4
   4  -2   3 1.45570 0.69304   1
   4  -2   3 2.57073 0.44452   2
   4  -2   3 0.82756 0.64477   1
  -5   2  -3 0.43509 0.80309   1
  -5   2  -3 0.79781 0.41046   4
   5  -2   3 0.26671 0.37767   2
   5  -2   3 0.08529 0.62601   1
   5  -2   3 0.87046 0.90156   1
  -6   2  -3 101.147 3.41463   1
  -6   2  -3 102.137 2.30211   4
   6  -2   3 100.072 2.23073   2
   6  -2   3 99.8124 3.38266   1
   6  -2   3 99.4092 3.48446   1
  -7   2  -3 10.7778 1.47921   1
  -7   2  -3 12.3078 0.88717   4
   7  -2   3 11.9506 0.86903   2
   7  -2   3 12.9965 1.62011   1
  -8   2  -3 6.81884 1.51606   1
  -8   2  -3 5.89759 0.83006   4
   8  -2   3 6.21071 1.50862   1
   8  -2   3 3.67810 0.69775   2
  -9   2  -3 31.8426 1.54848   4
  -9   2  -3 32.7097 2.73949   1
   9  -2   3 33.2573 1.42643   2
   9   1  -3 36.3862 1.61602   2
   8   1  -3 0.12675 0.58754   2
   7   1  -3 2.17255 0.64297   2
   7   1  -3 1.98210 1.13663   1
  -7  -1   3 1.22530 1.04400   1
   6   1  -3 574.074 10.6979   1
   6   1  -3 573.729 9.36314   2
  -6  -1   3 577.368 9.35590   4
  -6  -1   3 595.497 10.6988   1
  -6  -1   3 566.418 10.6277   1
   5   1  -3 0.65372 0.73486   1
   5   1  -3 0.30867 0.25686   3
   5   1  -3 0.45941 0.44991   2
  -5  -1   3 0.58786 0.24029   3
  -5  -1   3 0.47490 0.78445   1
  -5  -1   3 0.21710 0.44402   4
  -5  -1   3 0.27090 0.68748   1
   4   1  -3 425.669 7.65685   1
   4   1  -3 425.290 6.96288   2
   4   1  -3 433.591 6.67808   3
   4   1  -3 430.941 7.79100   1
  -4  -1   3 442.936 6.90638   4
  -4  -1   3 428.882 7.74385   1
  -4  -1   3 439.903 7.75834   1
  -4  -1   3 425.943 6.65330   3
   3   1  -3 855.327 13.5848   1
   3   1  -3 844.844 12.7448   3
   3   1  -3 858.164 12.9779   2
   3   1  -3 857.341 13.6259   1
   3   1  -3 852.486 12.8590   4
  -3  -1   3 875.099 13.6342   1
  -3  -1   3 833.552 12.7287   3
  -3  -1   3 828.905 13.5638   1
   2   1  -3 522.103 7.94977   4
   2   1  -3 521.425 7.92555   3
   2   1  -3 524.464 8.44479   1
   2   1  -3 528.865 8.08455   2
   2   1  -3 516.578 8.44377   1
  -2  -1   3 516.750 8.46188   1
  -2  -1   3 522.755 7.91791   3
  -2  -1   3 533.599 8.47507   1
   1   1  -3 301.575 4.80525   1
   1   1  -3 293.946 4.58968   3
   1   1  -3 293.339 4.77926   1
   1   1  -3 296.526 4.69694   5
  -1  -1   3 292.920 4.57522   3
  -1  -1   3 293.615 4.79041   1
  -1  -1   3 294.007 4.77634   1
   0   1  -3 -0.2379 0.20369   5
   0   1  -3 0.25182 0.18213   1
   0   1  -3 0.32111 0.19157   1
   0  -1   3 -0.2600 0.17347   1
   0  -1   3 0.27300 0.18443   1
   0  -1   3 0.44360 0.21750   3
   0  -1   3 0.14256 0.21735   5
  -1   1  -3 17.3228 0.44720   4
  -1   1  -3 17.7147 0.67198   1
  -1   1  -3 16.0771 0.47093   2
  -1   1  -3 16.3527 0.56033   5
  -1   1  -3 17.1378 0.66845   1
   1  -1   3 16.2101 0.56843   5
   1  -1   3 18.0074 0.69198   1
   1  -1   3 17.2794 0.43520   4
  -2   1  -3 71.7005 1.35392   4
  -2   1  -3 71.4124 1.79672   1
  -2   1  -3 72.7268 1.76086   1
   2  -1   3 72.8915 1.49215   5
   2  -1   3 71.5055 1.32376   2
   2  -1   3 74.2621 1.85833   1
   2  -1   3 70.6211 1.79308   1
   2  -1   3 72.4110 1.34017   4
  -3   1  -3 31.8444 0.78319   2
  -3   1  -3 30.7630 1.33392   1
  -3   1  -3 34.0977 1.40387   1
  -3   1  -3 33.6001 0.90633   4
   3  -1   3 32.1333 0.82148   2
   3  -1   3 30.8137 0.83853   4
   3  -1   3 26.2423 1.16141   1
   3  -1   3 33.5063 1.36851   1
  -4   1  -3 15.1700 1.13296   1
  -4   1  -3 15.7830 0.73858   4
  -4   1  -3 16.5600 1.16017   1
  -4   1  -3 16.0646 0.58316   2
   4  -1   3 15.5491 1.09701   1
   4  -1   3 16.8477 0.65060   2
   4  -1   3 16.6459 1.16640   1
  -5   1  -3 56.4653 2.24800   1
  -5   1  -3 54.4684 2.19491   1
  -5   1  -3 55.1584 1.44111   4
   5  -1   3 56.6658 2.19840   1
   5  -1   3 55.7867 1.32755   2
   5  -1   3 51.7198 2.20490   1
  -6   1  -3 10.6857 1.36770   1
  -6   1  -3 12.1395 0.79577   4
   6  -1   3 12.8434 0.72385   2
   6  -1   3 12.9224 1.41282   1
   6  -1   3 13.5766 1.49430   1
  -7   1  -3 314.446 5.52379   4
  -7   1  -3 311.459 7.05908   1
   7  -1   3 308.572 7.16503   1
   7  -1   3 307.375 5.09020   2
  -8   1  -3 219.611 5.89964   1
  -8   1  -3 213.357 4.28270   4
   8  -1   3 212.994 6.01877   1
   8  -1   3 211.501 4.00690   2
  -9   1  -3 1.09104 1.32261   1
  -9   1  -3 2.26331 0.71606   4
   9  -1   3 2.52776 1.44265   1
   9  -1   3 2.48681 0.65535   2
   9   0  -3 1.17626 0.72152   2
   8   0  -3 15.1667 1.08401   2
   7   0  -3 99.3431 3.64948   1
   7   0  -3 99.3081 2.48528   2
  -7   0   3 102.726 3.66375   1
   6   0  -3 3.79256 0.61397   2
   6   0  -3 4.56897 1.09310   1
  -6   0   3 2.05395 0.99354   1
  -6   0   3 1.90060 0.88616   1
   5   0  -3 120.127 3.40091   1
   5   0  -3 118.667 2.44301   2
  -5   0   3 114.767 1.86807   3
  -5   0   3 115.165 3.32054   1
  -5   0   3 114.711 3.30111   1
   4   0  -3 65.8918 1.58391   2
   4   0  -3 64.0064 2.20570   1
   4   0  -3 62.5063 2.10733   1
  -4   0   3 67.9784 2.20949   1
  -4   0   3 66.8670 2.19136   1
  -4   0   3 64.9028 1.15760   3
   3   0  -3 2182.32 32.4693   2
   3   0  -3 2214.66 33.1382   1
   3   0  -3 2186.43 33.1579   1
   3   0  -3 2179.27 32.1047   3
  -3   0   3 2207.34 33.1447   1
  -3   0   3 2163.42 32.1010   3
  -3   0   3 2163.61 33.1176   1
   2   0  -3 97.9145 1.79481   4
   2   0  -3 101.462 1.89724   2
   2   0  -3 103.337 1.62783   3
   2   0  -3 98.5093 2.15628   1
   2   0  -3 99.9832 2.20844   1
  -2   0   3 102.760 2.20696   1
  -2   0   3 97.4760 1.84768   2
  -2   0   3 100.067 2.21169   1
  -2   0   3 99.9572 1.61300   3
   1   0  -3 1571.77 23.3625   2
   1   0  -3 1553.08 23.2104   3
   1   0  -3 1574.09 23.4796   1
   1   0  -3 1604.71 23.5014   1
  -1   0   3 1592.56 23.4843   1
  -1   0   3 1573.45 23.4907   1
   0   0  -3 416.401 6.27781   5
   0   0   3 405.829 6.28146   5
  -1   0  -3 569.979 8.70409   1
  -1   0  -3 588.195 8.62013   5
  -1   0  -3 557.680 8.55041   4
  -1   0  -3 570.758 8.70376   1
   1   0   3 563.250 8.70849   1
   1   0   3 569.989 8.62129   5
   1   0   3 563.210 8.54636   4
   1   0   3 574.745 8.72757   1
  -2   0  -3 934.801 14.2220   1
  -2   0  -3 925.339 14.1934   1
  -2   0  -3 940.984 13.5822   2
  -2   0  -3 901.407 13.7451   4
   2   0   3 915.476 13.5800   2
   2   0   3 916.661 14.1842   1
   2   0   3 934.838 13.7518   4
   2   0   3 894.433 13.8150   5
   2   0   3 917.481 14.2105   1
  -3   0  -3 194.947 3.84366   1
  -3   0  -3 195.576 3.02945   2
  -3   0  -3 190.307 3.84360   1
  -3   0  -3 192.316 3.04217   4
   3   0   3 195.552 3.07873   4
   3   0   3 189.739 3.88659   1
   3   0   3 190.264 3.83515   1
   3   0   3 190.968 3.04423   2
  -4   0  -3 35.6973 1.57785   1
  -4   0  -3 34.4686 0.80097   2
  -4   0  -3 34.7967 1.57377   1
  -4   0  -3 34.0797 1.04453   4
   4   0   3 34.8051 0.84213   2
   4   0   3 35.8881 1.55345   1
   4   0   3 33.5154 1.59594   1
  -5   0  -3 908.546 13.7478   2
  -5   0  -3 911.317 15.2478   1
  -5   0  -3 915.356 15.2540   1
  -5   0  -3 928.509 14.0405   4
   5   0   3 894.637 15.1781   1
   5   0   3 901.248 13.7650   2
   5   0   3 931.728 15.3452   1
  -6   0  -3 209.718 3.83606   4
  -6   0  -3 204.024 4.98561   1
   6   0   3 201.671 4.90640   1
   6   0   3 207.726 5.06125   1
   6   0   3 203.509 3.45715   2
  -7   0  -3 12.7966 1.48971   1
  -7   0  -3 13.6862 0.93719   4
   7   0   3 14.7052 0.76745   2
   7   0   3 16.2910 1.66819   1
  -8   0  -3 131.851 4.41011   1
  -8   0  -3 129.817 2.97837   4
   8   0   3 127.361 2.66010   2
   8   0   3 127.955 4.45388   1
  -9   0  -3 3.35961 1.38041   1
  -9   0  -3 1.56255 0.73293   4
   9   0   3 2.50071 1.34068   1
   9  -1  -3 18.6231 1.33269   2
   8  -1  -3 4.68497 0.86672   2
   7  -1  -3 99.4734 3.78127   1
   7  -1  -3 102.652 2.60569   2
  -7   1   3 109.871 3.85520   1
   6  -1  -3 1.64631 0.92972   1
   6  -1  -3 1.04594 0.60219   2
  -6   1   3 1.47794 0.86619   1
  -6   1   3 0.67818 0.83295   1
   5  -1  -3 59.9501 2.47200   1
   5  -1  -3 65.5167 1.73938   2
  -5   1   3 67.0151 2.52336   1
  -5   1   3 67.6186 2.49795   1
   4  -1  -3 53.1454 1.99270   1
   4  -1  -3 54.2673 2.07785   1
   4  -1  -3 58.3700 1.51067   2
  -4   1   3 56.9327 2.07616   1
  -4   1   3 55.7648 2.05883   1
   3  -1  -3 209.130 4.26705   1
   3  -1  -3 212.920 3.64623   2
   3  -1  -3 211.490 4.18324   1
  -3   1   3 200.792 4.23415   1
  -3   1   3 206.374 4.22254   1
   2  -1  -3 402.874 6.82593   1
   2  -1  -3 409.031 6.78370   1
   2  -1  -3 401.849 6.38834   2
  -2   1   3 403.293 6.35149   2
  -2   1   3 409.451 6.85284   1
  -2   1   3 399.972 6.74056   1
   1  -1  -3 21.2641 0.81650   1
   1  -1  -3 23.1180 0.44426   3
   1  -1  -3 22.1978 0.68012   2
   1  -1  -3 22.0757 0.84161   1
  -1   1   3 20.8903 0.63369   2
  -1   1   3 23.0106 0.84318   1
   0  -1  -3 480.219 7.56707   1
   0  -1  -3 479.515 7.36679   2
   0  -1  -3 481.399 7.31580   5
   0   1   3 492.298 7.32602   5
   0   1   3 494.738 7.59409   1
   0   1   3 491.657 7.36717   2
  -1  -1  -3 29.9424 0.69975   4
  -1  -1  -3 29.7834 0.55100   2
  -1  -1  -3 29.5883 0.87469   1
  -1  -1  -3 28.8388 0.89849   1
  -1  -1  -3 29.4381 0.63239   5
   1   1   3 29.6569 0.54380   2
   1   1   3 28.8088 0.90834   1
   1   1   3 28.9370 0.68054   4
   1   1   3 29.8377 0.64039   5
  -2  -1  -3 1596.21 23.9730   1
  -2  -1  -3 1572.95 23.4683   4
  -2  -1  -3 1570.49 23.4968   3
  -2  -1  -3 1597.03 23.9568   1
   2   1   3 1599.60 23.4634   4
   2   1   3 1570.07 23.9535   1
   2   1   3 1585.14 23.9784   1
  -3  -1  -3 136.120 3.00825   1
  -3  -1  -3 133.544 2.40722   3
  -3  -1  -3 139.149 3.04875   1
  -3  -1  -3 137.376 2.42014   4
   3   1   3 132.041 3.03282   1
   3   1   3 133.942 2.38012   4
   3   1   3 135.272 2.99248   1
   3   1   3 140.279 2.11647   2
  -4  -1  -3 0.22961 0.53770   1
  -4  -1  -3 0.53721 0.60302   1
  -4  -1  -3 0.27384 0.42485   4
   4   1   3 -0.0597 0.57440   1
   4   1   3 -0.1068 0.52228   1
   4   1   3 0.36912 0.20226   2
  -5  -1  -3 221.194 4.83638   1
  -5  -1  -3 217.776 4.86546   1
  -5  -1  -3 220.572 3.84091   4
   5   1   3 212.566 4.78193   1
   5   1   3 218.551 4.89079   1
   5   1   3 216.611 3.53920   2
  -6  -1  -3 492.976 9.41997   1
  -6  -1  -3 510.634 8.14997   4
   6   1   3 491.148 7.74619   2
   6   1   3 500.229 9.48846   1
   6   1   3 496.131 9.34382   1
  -7  -1  -3 713.889 11.1098   4
  -7  -1  -3 678.189 12.5872   1
   7   1   3 684.263 12.7164   1
   7   1   3 678.583 10.6594   2
  -8  -1  -3 4.64619 0.74896   4
  -8  -1  -3 3.04110 1.28554   1
   8   1   3 3.64860 0.52501   2
   8   1   3 2.88412 1.30969   1
  -9  -1  -3 3.15034 0.76042   4
  -9  -1  -3 4.06124 1.42380   1
   9   1   3 3.10809 1.43228   1
 -10  -1  -3 11.2527 1.11372   4
   8  -2  -3 70.9092 2.26865   2
   7  -2  -3 86.4153 2.38854   2
  -7   2   3 80.9717 3.38064   1
   6  -2  -3 0.40821 0.89331   1
   6  -2  -3 0.83697 0.60051   2
  -6   2   3 1.04058 0.87626   1
   5  -2  -3 174.220 3.41811   2
   5  -2  -3 172.937 4.48321   1
  -5   2   3 168.084 4.34527   1
  -5   2   3 166.705 4.38860   1
   4  -2  -3 163.795 3.14584   2
   4  -2  -3 159.006 3.99256   1
  -4   2   3 162.159 3.96351   1
  -4   2   3 162.379 3.93382   1
   3  -2  -3 77.8480 1.79887   2
   3  -2  -3 78.0695 2.35617   1
   3  -2  -3 76.7328 2.28988   1
  -3   2   3 75.8584 2.34719   1
  -3   2   3 80.4743 2.36802   1
   2  -2  -3 0.74562 0.45091   1
   2  -2  -3 1.13072 0.48005   2
   2  -2  -3 1.29783 0.57599   1
  -2   2   3 1.03741 0.53334   1
  -2   2   3 0.80932 0.56820   1
   1  -2  -3 62.3742 1.67806   1
   1  -2  -3 60.4570 1.70610   1
   1  -2  -3 63.8692 1.03030   3
   1  -2  -3 63.5961 1.35209   2
  -1   2   3 62.1547 1.70109   1
  -1   2   3 60.9449 1.29342   2
  -1   2   3 62.9258 1.69761   1
  -1   2   3 62.8074 1.08952   3
   0  -2  -3 706.727 10.9375   1
   0  -2  -3 702.850 11.0018   1
   0  -2  -3 706.101 10.2482   5
   0  -2  -3 702.112 10.3996   3
   0  -2  -3 683.256 10.4450   2
   0   2   3 695.695 10.4418   2
   0   2   3 685.841 10.9315   1
   0   2   3 680.508 10.3969   3
   0   2   3 686.965 10.9365   1
  -1  -2  -3 129.177 2.14187   4
  -1  -2  -3 132.806 2.68638   1
  -1  -2  -3 131.880 2.08734   3
  -1  -2  -3 130.233 2.13304   2
  -1  -2  -3 128.585 2.61516   1
   1   2   3 130.777 2.65119   1
   1   2   3 128.764 2.11634   2
   1   2   3 128.567 2.63077   1
   1   2   3 129.908 2.15384   3
   1   2   3 132.700 2.03963   5
  -2  -2  -3 195.109 3.24821   4
  -2  -2  -3 198.902 3.80145   1
  -2  -2  -3 192.859 3.19410   3
  -2  -2  -3 189.543 3.70456   1
   2   2   3 201.891 3.80866   1
   2   2   3 194.753 3.15850   3
   2   2   3 194.460 2.98606   2
   2   2   3 188.774 3.19625   4
   2   2   3 201.528 3.79254   1
  -3  -2  -3 33.0480 1.43010   1
  -3  -2  -3 32.2172 0.93631   4
  -3  -2  -3 30.9541 1.39214   1
  -3  -2  -3 32.7628 0.95380   3
   3   2   3 31.7396 0.88679   4
   3   2   3 34.5848 1.46467   1
   3   2   3 36.0218 1.47340   1
  -4  -2  -3 271.707 5.39982   1
  -4  -2  -3 259.856 5.27781   1
  -4  -2  -3 266.496 4.23156   4
   4   2   3 267.912 5.31790   1
   4   2   3 274.911 5.41572   1
   4   2   3 267.269 4.13269   2
  -5  -2  -3 338.480 5.38236   4
  -5  -2  -3 329.149 6.65604   1
  -5  -2  -3 328.614 6.56903   1
   5   2   3 339.746 6.62049   1
   5   2   3 337.101 5.20612   2
   5   2   3 332.856 6.67899   1
  -6  -2  -3 -0.0210 0.53250   4
  -6  -2  -3 -0.7861 0.75633   1
   6   2   3 0.37778 0.88881   1
   6   2   3 0.04213 0.26224   2
   6   2   3 2.36234 0.95915   1
  -7  -2  -3 200.662 5.29993   1
  -7  -2  -3 199.398 3.88451   4
   7   2   3 196.595 3.33531   2
   7   2   3 201.305 5.34354   1
  -8  -2  -3 4.14479 0.79015   4
  -8  -2  -3 5.09376 1.38534   1
   8   2   3 3.13596 1.32146   1
   8   2   3 5.03532 0.52477   2
  -9  -2  -3 8.82204 1.73378   1
  -9  -2  -3 5.22229 0.87465   4
   9   2   3 5.51346 1.68289   1
 -10  -2  -3 1.56467 0.84002   4
   8  -3  -3 6.15568 0.99603   2
   7  -3  -3 84.5379 2.44972   2
  -7   3   3 82.3029 3.72757   1
   6  -3  -3 7.23408 1.35630   1
   6  -3  -3 8.37534 0.89446   2
  -6   3   3 9.23691 1.48647   1
   5  -3  -3 76.4637 2.06462   2
   5  -3  -3 73.4483 2.95709   1
  -5   3   3 74.2774 2.88171   1
  -5   3   3 78.5851 2.94411   1
   4  -3  -3 2.44722 0.56729   2
   4  -3  -3 4.10568 0.97902   1
  -4   3   3 3.24746 0.86276   1
  -4   3   3 2.51729 0.78504   1
   3  -3  -3 207.210 3.75602   2
   3  -3  -3 202.219 4.57919   1
   3  -3  -3 202.577 4.49306   1
  -3   3   3 210.994 4.58077   1
  -3   3   3 210.123 4.60126   1
   2  -3  -3 258.400 4.10174   2
   2  -3  -3 249.126 3.90413   3
   2  -3  -3 254.210 5.07414   1
   2  -3  -3 256.329 4.97439   1
  -2   3   3 250.175 3.91809   3
  -2   3   3 254.978 5.03365   1
  -2   3   3 252.116 5.04518   1
   1  -3  -3 124.678 2.06267   3
   1  -3  -3 126.563 2.89250   1
   1  -3  -3 125.331 2.98229   1
   1  -3  -3 126.193 2.38293   2
  -1   3   3 126.196 2.00637   3
  -1   3   3 124.378 2.93441   1
  -1   3   3 128.664 2.95597   1
   0  -3  -3 229.295 4.37283   1
   0  -3  -3 222.461 3.74356   2
   0  -3  -3 222.494 3.63147   3
   0  -3  -3 224.698 4.25790   1
   0   3   3 216.254 3.67887   2
   0   3   3 229.595 3.66951   3
   0   3   3 219.264 4.29138   1
   0   3   3 229.358 4.34324   1
  -1  -3  -3 57.5914 1.16530   2
  -1  -3  -3 56.3170 1.22466   3
  -1  -3  -3 56.9722 1.72292   1
  -1  -3  -3 54.9067 1.17552   4
  -1  -3  -3 54.0436 1.74015   1
   1   3   3 56.2704 1.24996   3
   1   3   3 56.6201 1.74911   1
   1   3   3 53.0180 1.72517   1
   1   3   3 53.6931 1.12781   2
  -2  -3  -3 1117.47 17.1890   3
  -2  -3  -3 1147.38 17.9728   1
  -2  -3  -3 1142.62 18.0165   1
  -2  -3  -3 1142.80 17.1169   4
   2   3   3 1139.30 17.9964   1
   2   3   3 1141.04 16.9743   2
   2   3   3 1162.06 17.2335   3
   2   3   3 1165.37 17.1137   4
   2   3   3 1133.31 17.9929   1
  -3  -3  -3 1805.89 27.8768   1
  -3  -3  -3 1838.49 26.8059   4
  -3  -3  -3 1825.32 27.8242   1
   3   3   3 1745.54 26.8975   3
   3   3   3 1767.97 26.5511   2
   3   3   3 1842.82 27.8955   1
   3   3   3 1784.14 27.8365   1
  -4  -3  -3 1522.05 22.5426   4
  -4  -3  -3 1523.53 23.7877   1
  -4  -3  -3 1466.37 23.6657   1
   4   3   3 1522.83 23.8203   1
   4   3   3 1486.92 22.6430   3
   4   3   3 1496.88 23.7388   1
  -5  -3  -3 -0.0320 0.77772   1
  -5  -3  -3 -0.2466 0.41108   4
  -5  -3  -3 0.21672 0.76874   1
   5   3   3 0.10646 0.77053   1
   5   3   3 0.62305 0.81056   1
   5   3   3 0.54800 0.22231   2
  -6  -3  -3 1464.14 23.9052   1
  -6  -3  -3 1475.76 22.1965   4
   6   3   3 1433.40 23.8005   1
   6   3   3 1451.27 23.9239   1
   6   3   3 1482.18 21.7905   2
  -7  -3  -3 62.7834 1.83446   4
  -7  -3  -3 63.1786 2.88906   1
   7   3   3 64.3844 1.43786   2
   7   3   3 66.1618 2.97641   1
  -8  -3  -3 31.4084 1.36311   4
  -8  -3  -3 35.0509 2.44583   1
   8   3   3 29.7540 2.33502   1
  -9  -3  -3 56.8375 3.29740   1
  -9  -3  -3 57.7186 1.95901   4
   9   3   3 53.9618 3.26059   1
   7  -4  -3 0.36095 0.72149   2
   6  -4  -3 32.3102 2.35379   1
   6  -4  -3 29.2073 1.48223   2
  -6   4   3 29.8003 2.21968   1
   5  -4  -3 79.3021 3.21141   1
   5  -4  -3 77.4068 2.20986   2
  -5   4   3 77.4381 3.14155   1
   4  -4  -3 13.1657 1.40866   1
   4  -4  -3 13.5254 0.95247   2
  -4   4   3 13.2245 1.36379   1
  -4   4   3 12.8121 1.36250   1
   3  -4  -3 21.6032 1.57714   1
   3  -4  -3 23.3098 1.09807   2
  -3   4   3 29.2259 1.70538   1
  -3   4   3 26.2215 1.61482   1
  -3   4   3 25.3477 0.63450   3
   2  -4  -3 4.66979 0.83843   1
   2  -4  -3 4.33503 0.64557   2
   2  -4  -3 6.15285 0.88770   1
   2  -4  -3 4.45753 0.30137   3
  -2   4   3 5.38438 0.35586   3
  -2   4   3 5.29143 0.88250   1
  -2   4   3 5.40067 0.83743   1
   1  -4  -3 24.8669 0.57188   5
   1  -4  -3 26.1624 1.36023   1
   1  -4  -3 26.8863 1.42892   1
   1  -4  -3 23.4666 0.90653   2
   1  -4  -3 24.5590 0.69665   3
  -1   4   3 23.7464 1.35134   1
  -1   4   3 22.0900 0.71423   3
  -1   4   3 26.0086 1.40067   1
   0  -4  -3 90.0293 2.57184   1
   0  -4  -3 91.5028 2.49991   1
   0  -4  -3 90.5727 1.75576   3
   0  -4  -3 91.1328 1.87439   2
   0   4   3 91.4541 1.79986   3
   0   4   3 92.3999 2.58733   1
   0   4   3 92.1886 2.52796   1
  -1  -4  -3 2.52619 0.31329   4
  -1  -4  -3 2.08050 0.36063   2
  -1  -4  -3 2.40934 0.69587   1
  -1  -4  -3 2.30502 0.58119   1
   1   4   3 2.28376 0.60822   1
   1   4   3 2.01711 0.66011   1
   1   4   3 2.12102 0.33563   2
   1   4   3 1.52385 0.37376   3
  -2  -4  -3 242.719 4.82660   1
  -2  -4  -3 238.785 3.93383   4
  -2  -4  -3 234.653 3.86726   2
  -2  -4  -3 234.533 4.89268   1
   2   4   3 236.567 4.87305   1
   2   4   3 240.141 3.84105   3
   2   4   3 233.069 4.84303   1
   2   4   3 233.026 3.86282   2
  -3  -4  -3 489.341 8.80212   1
  -3  -4  -3 510.007 8.94965   1
  -3  -4  -3 513.284 7.83840   4
   3   4   3 493.360 7.66108   2
   3   4   3 495.346 8.00595   3
   3   4   3 500.231 8.84792   1
   3   4   3 494.924 8.86768   1
  -4  -4  -3 162.226 4.08804   1
  -4  -4  -3 167.101 2.97421   4
  -4  -4  -3 159.635 3.97408   1
   4   4   3 164.244 3.13488   3
   4   4   3 165.736 4.13359   1
   4   4   3 159.954 2.63731   2
   4   4   3 162.225 4.02868   1
  -5  -4  -3 100.867 3.26012   1
  -5  -4  -3 98.5112 2.13122   4
   5   4   3 105.223 3.33756   1
   5   4   3 98.2301 2.28090   3
   5   4   3 96.7204 1.79915   2
   5   4   3 97.4742 3.19074   1
  -6  -4  -3 20.7265 0.99936   4
  -6  -4  -3 21.6593 1.81293   1
   6   4   3 21.0175 0.71590   2
   6   4   3 21.9814 1.83997   1
   6   4   3 22.1915 1.07142   3
  -7  -4  -3 44.6053 1.52085   4
  -7  -4  -3 45.3748 2.59317   1
   7   4   3 45.2524 2.60977   1
   7   4   3 44.5749 1.14290   2
  -8  -4  -3 39.1988 1.53105   4
  -8  -4  -3 40.5847 2.66367   1
   8   4   3 37.2238 2.62938   1
  -9  -4  -3 6.18061 1.62449   1
  -9  -4  -3 6.27204 0.91333   4
   9   4   3 4.88731 1.59808   1
   7  -5  -3 51.9972 2.09677   2
   6  -5  -3 0.79042 0.72559   2
   5  -5  -3 11.9233 1.59072   1
   5  -5  -3 12.8652 1.12718   2
  -5   5   3 9.75321 1.43335   1
   4  -5  -3 0.62235 0.61818   2
   4  -5  -3 1.11377 0.94476   1
  -4   5   3 1.02899 0.87759   1
  -4   5   3 2.27780 1.08582   1
   3  -5  -3 97.5487 1.98176   5
   3  -5  -3 97.1277 2.38122   2
   3  -5  -3 101.161 3.37284   1
  -3   5   3 93.6684 3.25174   1
  -3   5   3 97.1605 1.82007   3
  -3   5   3 98.6522 3.31424   1
   2  -5  -3 72.6080 1.88994   2
   2  -5  -3 73.4963 1.48081   3
   2  -5  -3 78.0772 2.77727   1
   2  -5  -3 72.9405 1.45552   5
  -2   5   3 73.3594 2.66670   1
  -2   5   3 74.8383 1.53604   3
  -2   5   3 70.8789 2.64455   1
   1  -5  -3 238.635 4.29530   2
   1  -5  -3 246.342 3.77365   5
   1  -5  -3 245.690 5.36848   1
  -1   5   3 231.265 5.23391   1
  -1   5   3 250.253 5.30649   1
  -1   5   3 247.073 3.96014   3
   0  -5  -3 104.495 2.19660   2
   0  -5  -3 108.243 2.98972   1
   0  -5  -3 108.820 3.13478   1
   0   5   3 105.476 3.02855   1
   0   5   3 105.922 2.12097   3
   0   5   3 106.868 3.07032   1
  -1  -5  -3 715.288 11.4548   1
  -1  -5  -3 722.305 10.9151   4
  -1  -5  -3 716.689 11.0003   2
  -1  -5  -3 707.563 11.7661   1
   1   5   3 688.170 11.3523   1
   1   5   3 705.336 11.6299   1
   1   5   3 723.614 11.0794   3
  -2  -5  -3 533.671 8.14357   4
  -2  -5  -3 505.448 9.25366   1
  -2  -5  -3 529.397 8.17063   2
  -2  -5  -3 515.229 9.39222   1
   2   5   3 508.607 9.33935   1
   2   5   3 527.185 7.83294   5
   2   5   3 524.514 9.40600   1
   2   5   3 523.557 8.36623   3
  -3  -5  -3 305.692 6.25782   1
  -3  -5  -3 294.225 6.08934   1
  -3  -5  -3 303.142 4.95322   4
   3   5   3 310.408 4.89789   3
   3   5   3 273.474 4.79266   2
   3   5   3 305.374 6.24729   1
   3   5   3 304.419 6.19006   1
  -4  -5  -3 1.43740 0.42652   4
  -4  -5  -3 1.85728 0.88730   1
   4   5   3 1.90743 0.59707   3
   4   5   3 1.03163 0.83505   1
   4   5   3 1.60269 0.31069   2
   4   5   3 0.97107 0.77541   1
  -5  -5  -3 194.567 3.53720   4
  -5  -5  -3 193.909 4.98170   1
   5   5   3 186.251 4.94599   1
   5   5   3 194.983 3.78221   3
  -6  -5  -3 347.452 5.62744   4
  -6  -5  -3 333.531 7.54328   1
   6   5   3 340.984 5.56414   2
   6   5   3 351.771 7.70627   1
   6   5   3 349.036 6.11463   3
  -7  -5  -3 263.742 6.58943   1
  -7  -5  -3 261.714 4.77129   4
   7   5   3 262.386 4.12255   2
   7   5   3 247.944 6.57323   1
   7   5   3 261.453 4.96652   3
  -8  -5  -3 17.5086 2.10658   1
  -8  -5  -3 17.3978 1.09571   4
   8   5   3 12.8324 1.92871   1
  -9  -5  -3 0.88091 0.70019   4
   9   5   3 -0.4262 1.60544   1
   6  -6  -3 5.85795 1.11119   2
   5  -6  -3 16.2776 1.24699   2
  -5   6   3 16.7688 1.97853   1
   4  -6  -3 40.9977 2.54777   1
   4  -6  -3 39.3897 1.65778   2
   4  -6  -3 36.2267 1.19331   5
  -4   6   3 37.4995 2.41434   1
   3  -6  -3 24.2505 0.84033   5
   3  -6  -3 23.9098 1.90366   1
   3  -6  -3 25.5864 1.28767   2
  -3   6   3 24.0007 0.82778   3
  -3   6   3 21.7982 1.83875   1
   2  -6  -3 108.436 1.96294   5
   2  -6  -3 111.310 2.58382   2
   2  -6  -3 111.829 3.66181   1
  -2   6   3 108.685 3.56461   1
  -2   6   3 106.290 2.16614   3
  -2   6   3 107.638 3.55513   1
   1  -6  -3 371.463 5.98335   2
   1  -6  -3 373.124 7.69470   1
  -1   6   3 364.367 7.51974   1
  -1   6   3 361.543 6.07984   3
  -1   6   3 379.499 7.61226   1
   0  -6  -3 339.893 5.35760   2
   0  -6  -3 332.399 7.01200   1
   0   6   3 339.239 5.48455   3
   0   6   3 347.704 7.03021   1
   0   6   3 322.252 6.84349   1
  -1  -6  -3 108.216 3.40104   1
  -1  -6  -3 113.408 2.16472   4
  -1  -6  -3 111.844 2.32217   2
   1   6   3 110.463 3.39419   1
   1   6   3 111.076 2.37094   3
   1   6   3 102.997 3.30347   1
  -2  -6  -3 3.87840 1.00398   1
  -2  -6  -3 4.07718 0.42575   4
   2   6   3 3.77903 0.89227   1
   2   6   3 3.61640 0.58948   3
   2   6   3 3.93478 0.97988   1
  -3  -6  -3 0.13342 0.72597   1
  -3  -6  -3 1.63942 0.39075   4
   3   6   3 0.26808 0.74593   1
   3   6   3 1.04044 0.90836   1
   3   6   3 1.08516 0.23523   5
   3   6   3 0.53984 0.48988   3
  -4  -6  -3 8.70624 0.62071   4
  -4  -6  -3 9.53811 1.35551   1
   4   6   3 11.1730 0.91104   3
   4   6   3 9.86476 1.34611   1
  -5  -6  -3 9.86900 0.70809   4
  -5  -6  -3 12.1156 1.55858   1
   5   6   3 7.37119 1.38232   1
   5   6   3 9.28882 0.83934   3
  -6  -6  -3 1.51165 1.19080   1
  -6  -6  -3 0.64440 0.52385   4
   6   6   3 1.74327 0.71941   3
   6   6   3 0.31118 1.11432   1
  -7  -6  -3 15.1535 0.94651   4
  -7  -6  -3 17.2637 1.93673   1
   7   6   3 16.4212 1.16924   3
   7   6   3 17.8946 1.97306   1
  -8  -6  -3 0.68286 0.62422   4
  -8  -6  -3 0.90655 1.24659   1
   8   6   3 1.49604 1.33315   1
  -9  -6  -3 10.1958 0.98686   4
   5  -7  -3 0.11170 0.76093   2
   4  -7  -3 34.7043 1.61812   2
   3  -7  -3 0.87625 1.05841   1
   3  -7  -3 0.25893 0.64132   2
  -3   7   3 2.12763 1.08670   1
   2  -7  -3 45.3848 1.67034   2
   2  -7  -3 46.9450 2.58821   1
  -2   7   3 46.7337 1.34825   3
  -2   7   3 48.3366 2.58705   1
   1  -7  -3 18.1690 1.68864   1
   1  -7  -3 14.6691 0.96418   2
  -1   7   3 13.9780 0.81172   3
  -1   7   3 16.0736 1.59796   1
   0  -7  -3 116.118 3.91529   1
   0  -7  -3 122.824 2.41827   4
   0  -7  -3 120.745 2.69922   2
   0   7   3 121.994 2.59641   3
   0   7   3 127.966 3.93957   1
  -1  -7  -3 685.204 10.8434   2
  -1  -7  -3 669.694 10.5507   4
  -1  -7  -3 670.558 12.4569   1
   1   7   3 689.856 12.4541   1
   1   7   3 676.714 10.8748   3
  -2  -7  -3 3.14997 0.43613   4
  -2  -7  -3 3.56521 1.03529   1
   2   7   3 5.28795 0.68314   3
   2   7   3 5.00937 1.13365   1
  -3  -7  -3 163.094 3.02339   4
  -3  -7  -3 161.328 4.69847   1
   3   7   3 166.548 4.72440   1
   3   7   3 163.792 3.42934   3
  -4  -7  -3 34.9434 1.13654   4
  -4  -7  -3 31.9447 2.18741   1
   4   7   3 33.5722 2.22941   1
   4   7   3 35.8745 1.46449   3
  -5  -7  -3 381.573 6.03986   4
  -5  -7  -3 372.876 8.46010   1
   5   7   3 382.654 6.82021   3
   5   7   3 392.394 8.55968   1
  -6  -7  -3 117.517 4.33560   1
  -6  -7  -3 126.207 2.66477   4
   6   7   3 122.473 3.04133   3
   6   7   3 122.787 4.42312   1
  -7  -7  -3 2.40431 0.62284   4
  -7  -7  -3 2.56200 1.32737   1
   7   7   3 3.22267 0.83983   3
   7   7   3 2.58887 1.35717   1
  -8  -7  -3 25.2635 1.26983   4
   8   7   3 26.9316 1.50296   3
   4  -8  -3 10.9639 1.20309   2
   3  -8  -3 11.2197 1.14995   2
   2  -8  -3 12.5774 1.86676   1
   2  -8  -3 16.5286 1.14592   2
  -2   8   3 15.4405 0.88140   3
  -2   8   3 14.6479 1.87122   1
   1  -8  -3 14.3489 1.03128   2
   1  -8  -3 10.9306 1.61291   1
  -1   8   3 14.3897 1.68964   1
  -1   8   3 15.5449 0.92599   3
   0  -8  -3 4.64468 0.51612   4
   0  -8  -3 4.42443 0.70000   2
   0  -8  -3 3.95221 1.25535   1
   0   8   3 3.45044 0.65216   3
   0   8   3 4.45006 1.24014   1
  -1  -8  -3 315.587 7.36940   1
  -1  -8  -3 319.935 5.62303   2
  -1  -8  -3 306.599 4.93916   4
   1   8   3 314.384 5.63225   3
   1   8   3 313.251 7.31641   1
  -2  -8  -3 -0.6565 0.98531   1
  -2  -8  -3 0.40625 0.36468   4
   2   8   3 0.06760 0.53316   3
   2   8   3 0.18952 0.98493   1
  -3  -8  -3 73.2545 3.30307   1
  -3  -8  -3 69.9895 1.68886   4
   3   8   3 72.3419 2.13776   3
   3   8   3 69.9265 3.20341   1
  -4  -8  -3 1.04793 0.41560   4
  -4  -8  -3 0.54508 1.21433   1
   4   8   3 1.70253 1.27309   1
   4   8   3 0.36499 0.71339   3
  -5  -8  -3 13.0415 0.79530   4
  -5  -8  -3 13.3353 1.83359   1
   5   8   3 14.0017 1.81476   1
   5   8   3 12.0053 1.10323   3
  -6  -8  -3 15.5298 0.90810   4
  -6  -8  -3 14.5838 2.06763   1
   6   8   3 14.3417 1.19993   3
   6   8   3 14.5100 2.03727   1
   7   8   3 9.64053 1.13825   3
   2  -9  -3 21.1534 1.34833   2
   1  -9  -3 121.491 3.05371   2
   1  -9  -3 117.239 4.62852   1
  -1   9   3 122.676 2.80199   3
   0  -9  -3 196.676 4.10029   2
   0  -9  -3 191.048 5.82416   1
   0   9   3 198.192 3.97810   3
   0   9   3 193.754 5.78186   1
  -1  -9  -3 3.04858 1.38422   1
   1   9   3 1.07149 1.24838   1
   1   9   3 0.87686 0.69035   3
  -2  -9  -3 38.7644 2.72837   1
   2   9   3 38.1485 1.60070   3
   2   9   3 36.5733 2.61466   1
  -3  -9  -3 -0.5694 1.03948   1
   3   9   3 1.12117 1.13506   1
   3   9   3 0.67297 0.68197   3
  -4  -9  -3 195.509 6.01670   1
   4   9   3 208.242 6.12192   1
   4   9   3 205.374 4.35023   3
  -5  -9  -3 122.863 4.79903   1
   5   9   3 125.543 3.26393   3
   6   9   3 5.62818 0.95472   3
   1  10   3 13.3770 1.13789   3
   2  10   3 9.67850 1.07693   3
   3  10   3 0.40125 0.73811   3
   4   9  -4 4.13350 0.96152   3
   3   9  -4 1.95290 0.77554   3
   2   9  -4 11.1494 1.10845   3
   1   9  -4 1.48051 0.73122   3
   0   9  -4 167.775 3.79459   3
  -1   9  -4 1.61988 0.69800   3
  -2   9  -4 12.7048 1.08437   3
  -3   9  -4 14.5586 1.15630   3
   6   8  -4 -0.0245 0.67118   3
   5   8  -4 28.8135 1.51415   3
   4   8  -4 26.7342 1.43684   3
   3   8  -4 96.8102 2.64731   3
  -3  -8   4 94.4518 3.74049   1
   2   8  -4 3.48392 0.73652   3
  -2  -8   4 3.01025 1.12108   1
   1   8  -4 1.21591 0.64834   3
  -1  -8   4 1.12807 1.09981   1
   0   8  -4 17.7714 1.16515   3
   0  -8   4 16.7412 1.79843   1
   0  -8   4 15.7059 0.91786   5
  -1   8  -4 1.35762 0.72052   3
   1  -8   4 -0.6107 1.03652   1
   1  -8   4 0.65737 0.44807   5
  -2   8  -4 22.1739 1.24664   3
   2  -8   4 19.1003 1.03659   5
   2  -8   4 23.1137 2.07529   1
  -3   8  -4 17.0094 1.09792   3
   3  -8   4 17.1712 1.01813   5
  -4   8  -4 2.76955 0.72812   3
   4  -8   4 1.38034 0.72008   2
   4  -8   4 1.87781 0.64313   5
   7   7  -4 69.0470 2.17645   2
   7   7  -4 67.7655 2.22850   3
   6   7  -4 0.45434 0.71489   3
   5   7  -4 1.61109 0.70686   3
  -5  -7   4 1.45410 1.09375   1
   4   7  -4 3.79137 0.81376   3
  -4  -7   4 4.83957 1.21785   1
   3   7  -4 22.8839 1.25915   3
   3   7  -4 18.9615 1.72711   1
  -3  -7   4 21.6590 1.80879   1
   2   7  -4 41.4087 1.55145   3
   2   7  -4 39.6559 2.19279   1
  -2  -7   4 42.3226 2.29626   1
   1   7  -4 81.2540 2.22204   3
   1   7  -4 83.0764 3.07127   1
  -1  -7   4 81.2653 3.13002   1
   0   7  -4 160.692 4.50536   1
   0   7  -4 165.332 3.44626   3
   0  -7   4 168.910 3.27188   5
   0  -7   4 161.165 4.56980   1
  -1   7  -4 17.9474 1.62589   1
  -1   7  -4 17.8705 1.07847   3
   1  -7   4 17.2640 0.90738   5
   1  -7   4 17.5097 1.69762   1
  -2   7  -4 9.35463 0.85300   3
  -2   7  -4 11.3947 1.45520   1
   2  -7   4 8.89589 0.72823   5
   2  -7   4 7.90823 1.30937   1
  -3   7  -4 0.67937 1.10885   1
  -3   7  -4 2.22186 0.67172   3
   3  -7   4 2.43812 1.22086   1
   3  -7   4 2.39894 0.57545   5
   3  -7   4 1.74923 0.70298   2
  -4   7  -4 94.3384 2.36598   3
   4  -7   4 96.3088 3.85862   1
   4  -7   4 90.6006 2.50652   2
   4  -7   4 90.6089 2.37747   5
  -5   7  -4 0.45782 0.53527   3
   5  -7   4 -0.2648 0.60506   2
   5  -7   4 -0.0676 0.51631   5
   6  -7   4 13.7901 1.11120   5
   6  -7   4 13.7961 1.20224   2
   7   6  -4 2.31703 0.72813   3
   7   6  -4 3.37115 0.71804   2
   6   6  -4 4.51260 0.77522   3
  -6  -6   4 6.15678 1.36775   1
   5   6  -4 152.782 3.32179   3
  -5  -6   4 152.173 4.51770   1
   4   6  -4 137.480 3.04810   3
   4   6  -4 137.073 4.04868   1
  -4  -6   4 136.169 4.07816   1
   3   6  -4 91.1435 3.14038   1
   3   6  -4 98.1940 2.38039   3
  -3  -6   4 95.7834 3.11605   1
  -3  -6   4 97.0938 3.21803   1
   2   6  -4 69.4337 1.91210   3
   2   6  -4 68.5667 2.58918   1
  -2  -6   4 68.0080 2.65830   1
  -2  -6   4 67.9240 2.52660   1
   1   6  -4 -0.3766 0.55615   1
   1   6  -4 0.34984 0.50028   3
  -1  -6   4 0.34364 0.70002   1
  -1  -6   4 -0.0666 0.64067   1
   0   6  -4 17.7176 1.42013   1
   0   6  -4 19.0003 1.03135   3
   0  -6   4 20.5441 1.45654   1
   0  -6   4 21.6888 1.58183   1
   0  -6   4 20.8457 0.91760   5
  -1   6  -4 6.28891 1.02839   1
  -1   6  -4 7.54887 0.77404   3
   1  -6   4 7.53707 1.04459   1
   1  -6   4 7.04518 1.09420   1
   1  -6   4 7.42322 0.61694   5
  -2   6  -4 29.9341 1.87316   1
  -2   6  -4 31.4983 1.22109   3
   2  -6   4 29.6907 1.14814   5
   2  -6   4 32.2819 1.88649   1
   2  -6   4 31.8348 1.98429   1
  -3   6  -4 17.4591 0.95959   3
  -3   6  -4 18.0908 1.62755   1
   3  -6   4 16.2965 0.93647   5
   3  -6   4 15.8940 1.60408   1
   3  -6   4 18.7238 1.64446   1
   3  -6   4 16.6291 1.02306   2
  -4   6  -4 4.92774 1.21180   1
  -4   6  -4 4.68258 0.63719   3
   4  -6   4 5.52376 0.79166   2
   4  -6   4 4.64048 1.19441   1
   4  -6   4 5.26953 0.72308   5
  -5   6  -4 0.64649 0.50454   3
  -5   6  -4 0.50960 0.98761   1
   5  -6   4 1.67347 1.16968   1
   5  -6   4 0.59253 0.53246   5
   5  -6   4 1.16060 0.61005   2
  -6   6  -4 3.34012 0.64407   3
   6  -6   4 4.07724 0.81238   2
   6  -6   4 4.86263 0.84288   5
   7  -6   4 3.74020 0.82272   5
   7  -6   4 1.93221 0.80801   2
   8   5  -4 4.04355 0.72892   3
   8   5  -4 3.14498 0.72522   2
   7   5  -4 0.58705 0.52493   3
   7   5  -4 -0.2563 0.51790   2
   6   5  -4 6.02925 0.72203   3
   6   5  -4 4.97668 0.71981   2
  -6  -5   4 6.12398 1.26013   1
   5   5  -4 99.6181 2.33355   3
   5   5  -4 93.0009 3.27344   1
  -5  -5   4 89.9993 3.26476   1
   4   5  -4 165.091 4.29987   1
   4   5  -4 164.584 3.32844   3
  -4  -5   4 165.355 4.21096   1
  -4  -5   4 166.332 4.32057   1
   3   5  -4 122.447 2.61550   3
   3   5  -4 120.996 3.38531   1
   3   5  -4 120.575 1.93821   4
  -3  -5   4 121.906 3.34238   1
  -3  -5   4 117.948 3.39708   1
   2   5  -4 0.70903 0.50829   3
   2   5  -4 1.29415 0.63399   1
  -2  -5   4 -0.4642 0.59127   1
  -2  -5   4 1.75240 0.67794   1
   1   5  -4 2.38455 0.53399   3
   1   5  -4 2.19142 0.72158   1
  -1  -5   4 2.95004 0.77697   1
  -1  -5   4 4.66683 0.75901   1
   0   5  -4 46.2940 1.90051   1
   0   5  -4 47.4914 1.38458   3
   0  -5   4 43.4195 1.27543   5
   0  -5   4 41.5193 1.86742   1
   0  -5   4 47.1611 1.83825   1
  -1   5  -4 11.3635 0.72784   3
  -1   5  -4 9.93292 1.02293   1
   1  -5   4 10.6660 1.07831   1
   1  -5   4 11.3907 0.67017   5
   1  -5   4 11.2859 1.07016   1
  -2   5  -4 36.8570 1.85813   1
  -2   5  -4 39.5889 1.25820   3
   2  -5   4 36.9625 0.83780   4
   2  -5   4 37.8774 1.28828   2
   2  -5   4 36.5862 1.81551   1
   2  -5   4 36.5275 1.21801   5
   2  -5   4 37.1252 1.90998   1
  -3   5  -4 149.886 4.03868   1
  -3   5  -4 157.093 3.06062   3
   3  -5   4 152.088 3.09498   5
   3  -5   4 156.721 3.13090   2
   3  -5   4 146.426 4.03068   1
   3  -5   4 159.977 4.23463   1
  -4   5  -4 41.4129 1.33570   3
  -4   5  -4 40.9917 2.15864   1
   4  -5   4 40.4025 1.43074   2
   4  -5   4 35.8785 2.08256   1
   4  -5   4 38.1125 2.21719   1
   4  -5   4 37.7335 1.38709   5
  -5   5  -4 85.5544 3.32838   1
  -5   5  -4 76.3964 1.95060   3
   5  -5   4 75.3027 3.26564   1
   5  -5   4 80.0281 2.19131   5
   5  -5   4 80.1973 2.13081   2
  -6   5  -4 29.3155 2.30071   1
  -6   5  -4 32.5637 1.23356   3
   6  -5   4 35.2480 1.44103   2
   6  -5   4 33.1403 1.48159   5
   6  -5   4 31.4776 2.44024   1
   7  -5   4 33.8923 1.62270   5
   7  -5   4 35.6582 1.54419   2
   8   4  -4 15.8060 1.10391   2
   7   4  -4 0.57773 0.49972   3
   7   4  -4 0.06077 0.58727   2
  -7  -4   4 -0.3437 1.07680   1
   6   4  -4 105.510 2.50734   2
   6   4  -4 104.458 2.39281   3
  -6  -4   4 106.900 3.61961   1
   5   4  -4 208.993 5.09561   1
   5   4  -4 216.484 3.92851   3
  -5  -4   4 206.242 4.95066   1
  -5  -4   4 212.849 5.08032   1
   4   4  -4 52.9384 2.18157   1
   4   4  -4 52.3628 1.49607   3
  -4  -4   4 52.2664 2.17050   1
  -4  -4   4 53.3867 2.12599   1
   3   4  -4 37.1962 1.69475   1
   3   4  -4 37.1553 0.84474   4
   3   4  -4 37.6324 1.21258   3
  -3  -4   4 38.5042 1.74571   1
  -3  -4   4 37.3137 1.64369   1
   2   4  -4 5.68762 0.78803   1
   2   4  -4 5.24247 0.23732   4
   2   4  -4 4.68204 0.75968   1
   2   4  -4 4.01475 0.52838   3
  -2  -4   4 5.05665 0.75816   1
  -2  -4   4 6.35093 0.74750   1
   1   4  -4 114.997 2.83979   1
   1   4  -4 114.032 2.32496   3
   1   4  -4 110.508 2.78017   1
  -1  -4   4 114.828 2.30673   5
  -1  -4   4 116.274 2.88225   1
  -1  -4   4 113.962 2.79026   1
   0   4  -4 1.89004 0.59379   1
   0   4  -4 2.29168 0.46388   3
   0   4  -4 1.66289 0.53058   1
   0  -4   4 2.43256 0.54802   1
   0  -4   4 2.66261 0.39450   5
   0  -4   4 1.86895 0.55909   1
  -1   4  -4 142.631 3.35317   1
  -1   4  -4 152.175 2.83027   3
  -1   4  -4 145.747 3.39432   1
   1  -4   4 154.870 3.51798   1
   1  -4   4 150.996 2.80161   5
   1  -4   4 148.877 2.31315   4
   1  -4   4 142.839 3.35453   1
  -2   4  -4 33.0760 1.08497   3
  -2   4  -4 29.4788 1.51824   1
  -2   4  -4 32.4775 1.57939   1
  -2   4  -4 32.6594 0.75772   4
   2  -4   4 32.8902 1.08526   5
   2  -4   4 33.7292 1.63428   1
   2  -4   4 32.8031 1.07323   2
   2  -4   4 32.4692 0.75718   4
   2  -4   4 31.4089 1.52094   1
  -3   4  -4 22.0506 0.72708   4
  -3   4  -4 23.5329 1.47576   1
  -3   4  -4 22.2265 0.90411   3
   3  -4   4 22.6273 0.95510   2
   3  -4   4 22.3557 1.51617   1
   3  -4   4 22.6820 0.96107   5
   3  -4   4 24.3013 1.47611   1
   3  -4   4 21.2904 0.70682   4
  -4   4  -4 466.376 7.46748   4
  -4   4  -4 471.177 8.93425   1
  -4   4  -4 468.060 7.63819   3
   4  -4   4 470.722 7.71197   2
   4  -4   4 454.300 8.81231   1
   4  -4   4 477.955 7.86037   5
   4  -4   4 482.854 9.06794   1
  -5   4  -4 3.10392 0.49862   4
  -5   4  -4 3.29492 1.09202   1
  -5   4  -4 2.27313 0.52119   3
   5  -4   4 3.60642 0.64411   5
   5  -4   4 3.14376 1.12520   1
   5  -4   4 2.71342 1.03429   1
   5  -4   4 2.48391 0.57851   2
  -6   4  -4 160.002 4.71871   1
  -6   4  -4 159.604 3.15375   3
  -6   4  -4 160.201 3.20800   4
   6  -4   4 158.669 3.31165   2
   6  -4   4 158.592 3.49651   5
   6  -4   4 160.336 4.86497   1
  -7   4  -4 71.9964 1.87039   3
  -7   4  -4 77.0678 3.39607   1
  -7   4  -4 70.1841 1.99076   4
   7  -4   4 73.1402 3.48277   1
   7  -4   4 72.4661 2.28511   5
   7  -4   4 72.1662 2.06869   2
  -8   4  -4 13.1861 1.03886   4
   8  -4   4 11.5802 1.13362   5
   8  -4   4 13.2567 1.05530   2
   8   3  -4 27.1950 1.35384   2
   7   3  -4 11.4206 0.93862   2
   7   3  -4 11.5241 0.75035   3
  -7  -3   4 12.1358 1.60013   1
   6   3  -4 10.0238 0.80011   2
   6   3  -4 9.77908 0.68516   3
   6   3  -4 9.63533 1.34000   1
  -6  -3   4 9.39376 1.30027   1
   5   3  -4 66.4274 1.60268   3
   5   3  -4 61.2615 2.45532   1
   5   3  -4 66.2271 1.74901   2
  -5  -3   4 63.6502 2.49655   1
  -5  -3   4 64.5323 2.46774   1
   4   3  -4 1.92888 0.44802   3
   4   3  -4 1.03132 0.63741   1
  -4  -3   4 2.19598 0.73964   1
  -4  -3   4 1.34407 0.67493   1
   3   3  -4 344.884 5.46177   4
   3   3  -4 355.722 5.73480   3
   3   3  -4 343.589 6.36966   1
   3   3  -4 352.032 6.45033   1
  -3  -3   4 339.448 6.34074   1
  -3  -3   4 357.134 6.45835   1
   2   3  -4 104.577 2.06918   3
   2   3  -4 104.934 1.63455   4
   2   3  -4 101.595 2.48685   1
   2   3  -4 100.902 2.51849   1
  -2  -3   4 103.647 2.55460   1
  -2  -3   4 103.325 2.48906   1
   1   3  -4 260.334 4.74736   1
   1   3  -4 255.766 4.23295   3
  -1  -3   4 269.404 4.80930   1
  -1  -3   4 258.323 4.35355   5
  -1  -3   4 262.739 4.71544   1
   0   3  -4 21.6025 0.99667   1
   0   3  -4 20.6083 0.99132   1
   0   3  -4 19.2816 0.73822   5
   0   3  -4 19.1017 0.76600   3
   0  -3   4 19.7637 1.03684   1
   0  -3   4 23.5861 0.81979   5
   0  -3   4 20.0515 0.95989   1
  -1   3  -4 240.903 4.52998   1
  -1   3  -4 244.409 4.53528   1
  -1   3  -4 242.554 3.70982   4
  -1   3  -4 241.875 3.85868   3
   1  -3   4 239.186 4.04948   5
   1  -3   4 241.606 3.70336   4
   1  -3   4 239.786 4.50274   1
   1  -3   4 247.734 4.61747   1
  -2   3  -4 115.521 2.77880   1
  -2   3  -4 110.197 2.74109   1
  -2   3  -4 110.111 2.18830   3
  -2   3  -4 110.333 1.92039   4
   2  -3   4 111.228 2.72134   1
   2  -3   4 104.852 1.89457   4
   2  -3   4 109.762 2.15274   2
   2  -3   4 122.840 2.87162   1
   2  -3   4 106.749 2.22655   5
  -3   3  -4 22.3097 0.83169   3
  -3   3  -4 20.1836 1.26010   1
  -3   3  -4 19.7392 1.24046   1
  -3   3  -4 21.0326 0.70605   4
   3  -3   4 21.3694 0.81355   2
   3  -3   4 20.6129 0.87995   5
   3  -3   4 21.4370 0.68468   4
   3  -3   4 21.6421 1.29421   1
   3  -3   4 23.8617 1.38106   1
  -4   3  -4 30.4199 1.67249   1
  -4   3  -4 31.4986 0.97544   4
  -4   3  -4 31.0160 1.03309   3
   4  -3   4 32.5596 1.69759   1
   4  -3   4 31.5377 1.05690   2
   4  -3   4 30.6600 1.16573   5
   4  -3   4 31.2457 1.75926   1
  -5   3  -4 491.938 7.93667   3
  -5   3  -4 494.743 7.93466   4
  -5   3  -4 485.903 9.30755   1
   5  -3   4 502.413 8.25726   5
   5  -3   4 494.752 9.40640   1
   5  -3   4 491.089 7.97321   2
   5  -3   4 484.543 9.22954   1
  -6   3  -4 4.95536 0.62536   4
  -6   3  -4 3.04914 1.14935   1
  -6   3  -4 4.11342 0.53054   3
   6  -3   4 4.76134 1.19416   1
   6  -3   4 2.77759 1.11817   1
   6  -3   4 4.56184 0.78323   5
   6  -3   4 4.54890 0.63795   2
  -7   3  -4 298.518 7.19441   1
  -7   3  -4 303.557 5.47121   4
  -7   3  -4 303.071 5.24392   3
   7  -3   4 308.019 5.46386   2
   7  -3   4 305.436 5.80693   5
   7  -3   4 317.945 7.47370   1
  -8   3  -4 103.562 2.64763   4
  -8   3  -4 104.567 4.19236   1
   8  -3   4 110.005 2.62183   2
   8  -3   4 103.460 2.92889   5
   8  -3   4 102.884 4.29197   1
  -9   3  -4 326.597 6.19624   4
   9  -3   4 331.162 6.09492   2
   9  -3   4 340.155 6.66109   5
   9   2  -4 17.0264 1.22512   2
   8   2  -4 10.4207 0.95246   2
   7   2  -4 119.391 2.80930   2
  -7  -2   4 122.778 4.02219   1
   6   2  -4 13.7008 1.44176   1
   6   2  -4 13.2657 0.67450   3
   6   2  -4 12.9607 0.89122   2
  -6  -2   4 13.1330 1.45877   1
   5   2  -4 33.3070 0.99424   3
   5   2  -4 34.5199 1.22960   2
   5   2  -4 32.9136 1.76208   1
  -5  -2   4 35.2803 1.80615   1
  -5  -2   4 32.6562 1.78712   1
   4   2  -4 22.0862 1.33244   1
   4   2  -4 22.7519 0.94583   2
   4   2  -4 22.8502 0.77380   3
  -4  -2   4 22.3730 1.35635   1
  -4  -2   4 20.4058 1.26533   1
  -4  -2   4 20.9774 0.71044   3
   3   2  -4 95.7897 2.47710   1
   3   2  -4 96.3046 1.77479   4
   3   2  -4 93.5061 2.39528   1
   3   2  -4 94.1847 1.83732   3
  -3  -2   4 94.9875 1.79088   3
  -3  -2   4 92.9495 2.41537   1
  -3  -2   4 94.3508 2.44988   1
   2   2  -4 48.1477 1.15130   3
   2   2  -4 48.9818 1.00281   4
   2   2  -4 51.6551 1.49809   1
   2   2  -4 47.1273 1.48717   1
  -2  -2   4 48.1653 1.09318   3
  -2  -2   4 49.2878 1.51025   1
   1   2  -4 3.55751 0.22328   4
   1   2  -4 3.43734 0.45984   1
   1   2  -4 3.65000 0.40837   3
   1   2  -4 3.36535 0.44374   1
   1   2  -4 3.06128 0.36709   5
  -1  -2   4 3.07225 0.32793   3
  -1  -2   4 2.54963 0.43987   1
   0   2  -4 123.352 2.37870   1
   0   2  -4 124.694 2.24004   3
   0   2  -4 122.124 1.94440   4
   0   2  -4 124.112 2.23225   5
   0   2  -4 118.849 2.34453   1
   0  -2   4 123.514 2.26911   5
   0  -2   4 126.958 2.41410   1
   0  -2   4 122.584 2.19291   3
  -1   2  -4 10.2805 0.66535   1
  -1   2  -4 9.59858 0.34611   4
  -1   2  -4 9.71293 0.46873   2
  -1   2  -4 11.1475 0.54332   5
  -1   2  -4 10.0982 0.55426   3
  -1   2  -4 12.5930 0.70765   1
   1  -2   4 10.3495 0.68120   1
   1  -2   4 9.86613 0.53940   5
   1  -2   4 10.5338 0.33716   4
  -2   2  -4 606.820 9.79403   1
  -2   2  -4 589.702 9.72998   1
  -2   2  -4 590.776 9.21432   3
  -2   2  -4 587.225 9.12471   2
  -2   2  -4 601.557 9.02880   4
  -2   2  -4 586.032 9.26632   5
   2  -2   4 603.039 9.02573   4
   2  -2   4 591.562 9.30291   5
   2  -2   4 607.585 9.14847   2
   2  -2   4 589.795 9.74802   1
   2  -2   4 611.753 9.84443   1
  -3   2  -4 77.6326 1.58663   2
  -3   2  -4 79.8185 1.60360   4
  -3   2  -4 83.3714 2.29907   1
  -3   2  -4 76.2934 2.26080   1
   3  -2   4 76.6917 1.78433   5
   3  -2   4 84.1656 2.38085   1
   3  -2   4 78.3767 1.55902   4
   3  -2   4 80.0829 1.61973   2
   3  -2   4 79.5057 2.25795   1
  -4   2  -4 19.0048 1.29195   1
  -4   2  -4 19.7696 1.29527   1
  -4   2  -4 19.1520 0.78970   4
   4  -2   4 21.4160 1.33712   1
   4  -2   4 18.4621 0.89940   5
   4  -2   4 20.1474 0.75536   2
   4  -2   4 20.7236 1.37200   1
  -5   2  -4 37.0281 1.88626   1
  -5   2  -4 34.8681 1.14265   4
   5  -2   4 36.0365 1.30447   5
   5  -2   4 32.2563 1.78581   1
   5  -2   4 32.8494 1.06324   2
   5  -2   4 33.4358 1.86933   1
  -6   2  -4 25.8047 1.07822   4
  -6   2  -4 25.2729 1.78605   1
   6  -2   4 20.5479 1.68428   1
   6  -2   4 24.1099 0.99537   2
   6  -2   4 29.2382 1.94463   1
  -7   2  -4 271.968 4.88670   4
  -7   2  -4 253.316 6.36937   1
   7  -2   4 263.861 4.69508   2
   7  -2   4 270.178 6.62747   1
  -8   2  -4 3.47569 1.30349   1
  -8   2  -4 0.86220 0.62345   4
   8  -2   4 3.14674 1.32702   1
  -9   2  -4 3.24824 0.84879   4
  -9   2  -4 0.85118 1.39272   1
   9   1  -4 0.74876 0.70153   2
   8   1  -4 1.15792 0.71841   2
   7   1  -4 85.9479 2.30218   2
  -7  -1   4 88.9518 3.36693   1
   6   1  -4 60.4567 1.75929   2
   6   1  -4 61.8755 2.61771   1
  -6  -1   4 62.4409 2.62641   1
   5   1  -4 144.157 3.75051   1
   5   1  -4 141.590 2.43158   3
   5   1  -4 138.644 2.85302   2
  -5  -1   4 134.614 3.64856   1
  -5  -1   4 136.591 2.28715   3
  -5  -1   4 139.489 3.67972   1
   4   1  -4 1071.12 16.2891   2
   4   1  -4 1033.86 17.0519   1
   4   1  -4 1075.33 15.9252   3
   4   1  -4 1067.12 17.1505   1
  -4  -1   4 1054.54 15.9064   3
  -4  -1   4 1085.46 17.1246   1
  -4  -1   4 1064.59 17.1188   1
   3   1  -4 411.492 6.25471   3
   3   1  -4 413.817 6.54330   1
   3   1  -4 399.781 6.46674   1
   3   1  -4 402.262 6.52919   2
  -3  -1   4 403.537 6.23120   3
  -3  -1   4 401.528 6.55599   1
  -3  -1   4 397.915 6.59786   1
   2   1  -4 99.5603 2.19558   1
   2   1  -4 97.4724 1.77700   4
   2   1  -4 98.0580 1.75775   3
   2   1  -4 96.3065 2.13734   1
   2   1  -4 98.0345 1.92784   2
  -2  -1   4 100.388 2.18754   1
  -2  -1   4 99.5839 1.73236   3
   1   1  -4 217.275 3.59821   1
   1   1  -4 212.785 3.45752   3
   1   1  -4 211.799 3.58204   5
   1   1  -4 214.866 3.58707   1
  -1  -1   4 214.316 3.59646   1
  -1  -1   4 213.259 3.44279   3
  -1  -1   4 214.404 3.58179   1
   0   1  -4 750.274 11.6051   5
   0   1  -4 765.389 11.5537   3
   0   1  -4 769.484 11.4957   1
   0   1  -4 782.884 11.5022   1
   0  -1   4 781.547 11.4938   1
   0  -1   4 743.431 11.6151   5
   0  -1   4 781.485 11.5083   1
  -1   1  -4 2354.56 34.5935   1
  -1   1  -4 2324.74 34.5623   1
  -1   1  -4 2329.12 34.4936   5
  -1   1  -4 2378.96 34.3120   4
   1  -1   4 2288.67 34.2939   4
   1  -1   4 2339.86 34.6027   1
   1  -1   4 2351.84 34.5153   5
   1  -1   4 2292.18 34.5610   1
  -2   1  -4 186.648 2.96943   5
  -2   1  -4 186.644 3.43629   1
  -2   1  -4 183.935 2.95864   2
  -2   1  -4 174.925 3.00014   4
  -2   1  -4 179.651 3.43961   1
   2  -1   4 188.061 3.48981   1
   2  -1   4 184.894 2.94512   5
   2  -1   4 179.627 2.98683   4
   2  -1   4 181.934 3.42651   1
  -3   1  -4 1780.93 27.1485   1
  -3   1  -4 1757.85 26.2378   2
  -3   1  -4 1801.33 27.1523   1
  -3   1  -4 1749.10 26.3464   4
   3  -1   4 1799.21 26.2545   2
   3  -1   4 1791.96 27.1859   1
   3  -1   4 1739.88 27.1024   1
   3  -1   4 1745.54 26.5276   5
   3  -1   4 1804.06 26.3537   4
  -4   1  -4 958.008 14.5743   2
  -4   1  -4 973.680 14.7526   4
  -4   1  -4 968.178 15.7474   1
  -4   1  -4 993.007 15.8281   1
   4  -1   4 955.715 14.5908   2
   4  -1   4 984.043 15.8390   1
   4  -1   4 965.098 15.7500   1
  -5   1  -4 11.1899 1.17923   1
  -5   1  -4 9.57168 0.70091   4
  -5   1  -4 9.81465 1.17483   1
  -5   1  -4 9.47828 0.50310   2
   5  -1   4 8.72604 0.53728   2
   5  -1   4 10.0298 1.10870   1
   5  -1   4 8.62086 1.15627   1
  -6   1  -4 296.548 5.10129   4
  -6   1  -4 293.635 6.39875   1
   6  -1   4 292.068 6.48920   1
   6  -1   4 285.326 6.33764   1
   6  -1   4 292.055 4.69823   2
  -7   1  -4 115.784 3.89550   1
  -7   1  -4 119.194 2.68734   4
   7  -1   4 114.884 2.41582   2
   7  -1   4 115.554 3.98044   1
  -8   1  -4 442.936 7.60406   4
  -8   1  -4 441.091 9.42060   1
   8  -1   4 439.440 9.58420   1
   8  -1   4 441.300 7.31576   2
  -9   1  -4 87.8675 2.49810   4
  -9   1  -4 84.3669 3.89693   1
   8   0  -4 -0.5258 0.57820   2
   7   0  -4 224.840 4.44075   2
  -7   0   4 226.129 5.79911   1
   6   0  -4 12.7051 1.42369   1
   6   0  -4 11.3964 0.87443   2
  -6   0   4 14.3170 1.49082   1
   5   0  -4 351.135 6.96350   1
   5   0  -4 350.757 5.63117   2
  -5   0   4 341.814 6.87413   1
  -5   0   4 348.064 6.92940   1
  -5   0   4 345.073 5.29856   3
   4   0  -4 184.923 4.10978   1
   4   0  -4 182.945 3.37148   2
   4   0  -4 182.772 2.86314   3
   4   0  -4 177.499 3.97829   1
  -4   0   4 179.308 4.05731   1
  -4   0   4 183.322 4.06209   1
  -4   0   4 181.391 2.85187   3
   3   0  -4 759.259 11.7233   2
   3   0  -4 763.808 12.3431   1
   3   0  -4 747.265 12.2720   1
   3   0  -4 766.612 11.2990   3
  -3   0   4 763.617 11.2913   3
  -3   0   4 768.875 12.3021   1
  -3   0   4 753.144 12.2837   1
   2   0  -4 11.9884 0.75949   1
   2   0  -4 13.1296 0.64101   2
   2   0  -4 13.8642 0.39936   3
   2   0  -4 12.6569 0.75405   1
  -2   0   4 13.0715 0.77954   1
   1   0  -4 1199.19 18.0655   2
   1   0  -4 1194.78 17.9033   3
   1   0  -4 1234.48 18.1437   1
   1   0  -4 1197.39 18.0794   5
   1   0  -4 1206.41 18.1139   1
  -1   0   4 1220.89 18.1344   1
  -1   0   4 1222.97 18.1230   1
   0   0  -4 28.1933 0.70860   5
   0   0  -4 27.7760 0.68449   2
   0   0   4 27.6050 0.72728   5
  -1   0  -4 548.577 8.41629   1
  -1   0  -4 563.274 8.41041   5
  -1   0  -4 549.338 8.33803   4
  -1   0  -4 557.479 8.42132   1
   1   0   4 561.298 8.43680   1
   1   0   4 546.298 8.40883   5
   1   0   4 543.678 8.41446   1
   1   0   4 542.592 8.32503   4
  -2   0  -4 5.91252 0.41262   4
  -2   0  -4 5.72991 0.54597   1
  -2   0  -4 6.82204 0.24516   2
  -2   0  -4 4.57390 0.49020   1
   2   0   4 6.74205 0.36047   4
   2   0   4 6.74982 0.43144   5
   2   0   4 6.41785 0.60388   1
   2   0   4 6.71210 0.61140   1
  -3   0  -4 6.56025 0.28781   2
  -3   0  -4 6.77552 0.74750   1
  -3   0  -4 6.37348 0.74331   1
  -3   0  -4 7.13623 0.52083   4
   3   0   4 6.29373 0.44963   4
   3   0   4 5.75334 0.68412   1
   3   0   4 7.82920 0.54656   5
   3   0   4 6.94114 0.29779   2
  -4   0  -4 55.5225 1.96766   1
  -4   0  -4 54.8457 1.95049   1
  -4   0  -4 55.6214 1.07726   2
  -4   0  -4 55.9010 1.37644   4
   4   0   4 54.6367 1.10056   2
   4   0   4 57.6908 1.96803   1
   4   0   4 59.7638 2.04408   1
  -5   0  -4 77.4742 2.61168   1
  -5   0  -4 81.8905 1.84868   4
  -5   0  -4 77.2290 1.49335   2
  -5   0  -4 82.1898 2.64490   1
   5   0   4 80.3736 2.60886   1
   5   0   4 79.5365 2.68067   1
   5   0   4 79.8582 1.54357   2
  -6   0  -4 86.2227 3.02945   1
  -6   0  -4 91.6658 2.12548   4
  -6   0  -4 86.6226 1.73381   2
   6   0   4 91.1471 1.80051   2
   6   0   4 91.2868 3.06161   1
   6   0   4 89.7283 3.12656   1
  -7   0  -4 36.7686 2.21571   1
  -7   0  -4 36.3922 1.37262   4
   7   0   4 36.6656 1.10337   2
   7   0   4 34.1661 2.24086   1
  -8   0  -4 80.5886 2.23626   4
  -8   0  -4 77.8492 3.40619   1
   8   0   4 78.1609 1.84787   2
   8   0   4 80.3951 3.54094   1
  -9   0  -4 4.01387 0.79989   4
  -9   0  -4 3.32401 1.57303   1
   9   0   4 3.86635 1.63395   1
   8  -1  -4 32.8480 1.57147   2
   7  -1  -4 0.98113 0.73914   2
  -7   1   4 0.43240 0.99574   1
   6  -1  -4 2.53981 0.72156   2
   6  -1  -4 2.31271 1.09646   1
  -6   1   4 1.66839 0.99340   1
   5  -1  -4 150.035 4.04691   1
   5  -1  -4 155.535 3.12966   2
  -5   1   4 147.945 3.96291   1
  -5   1   4 150.210 3.99304   1
   4  -1  -4 0.46135 0.69664   1
   4  -1  -4 0.22792 0.41001   2
  -4   1   4 0.78490 0.66648   1
  -4   1   4 0.72219 0.63760   1
   3  -1  -4 3.53180 0.50106   2
   3  -1  -4 4.71159 0.74698   1
   3  -1  -4 3.37505 0.65324   1
  -3   1   4 3.70462 0.67216   1
  -3   1   4 5.53217 0.72507   1
   2  -1  -4 38.8492 1.36131   1
   2  -1  -4 39.5348 1.08666   2
   2  -1  -4 38.3172 1.31086   1
  -2   1   4 40.1174 1.36762   1
  -2   1   4 39.6563 1.35740   1
   1  -1  -4 350.734 5.75023   1
   1  -1  -4 345.548 5.77613   1
   1  -1  -4 351.653 5.53918   2
  -1   1   4 353.531 5.77678   1
  -1   1   4 350.200 5.51260   2
   0  -1  -4 529.302 8.20605   1
   0  -1  -4 525.701 8.17578   1
   0  -1  -4 528.764 8.01680   2
   0  -1  -4 537.484 7.99465   5
   0   1   4 525.089 8.00645   2
   0   1   4 526.299 8.19650   1
   0   1   4 532.516 8.00123   5
   0   1   4 530.657 8.19749   1
  -1  -1  -4 5.38226 0.42202   1
  -1  -1  -4 5.65718 0.37860   4
  -1  -1  -4 5.65530 0.44933   1
  -1  -1  -4 5.01051 0.29294   5
  -1  -1  -4 5.40672 0.25295   2
   1   1   4 5.49106 0.45807   1
   1   1   4 5.54630 0.24195   2
   1   1   4 6.23899 0.32374   5
  -2  -1  -4 26.0166 0.98858   1
  -2  -1  -4 20.9831 0.86749   1
  -2  -1  -4 24.9037 0.73903   4
   2   1   4 25.4229 0.70252   4
   2   1   4 26.2974 1.01683   1
   2   1   4 25.9717 1.02728   1
   2   1   4 26.1823 0.71438   5
  -3  -1  -4 1103.34 16.9948   1
  -3  -1  -4 1085.63 16.9927   1
  -3  -1  -4 1090.16 16.3080   4
   3   1   4 1078.08 16.9895   1
   3   1   4 1080.52 17.0176   1
   3   1   4 1064.65 16.2691   4
  -4  -1  -4 1223.59 18.5582   4
  -4  -1  -4 1234.38 19.5205   1
  -4  -1  -4 1241.16 19.5200   1
   4   1   4 1259.36 19.5846   1
   4   1   4 1236.01 18.1539   2
   4   1   4 1192.00 19.4472   1
  -5  -1  -4 417.631 6.86943   4
  -5  -1  -4 429.981 7.93266   1
  -5  -1  -4 421.985 7.84180   1
   5   1   4 428.942 7.96089   1
   5   1   4 415.790 6.43957   2
   5   1   4 415.766 7.82851   1
  -6  -1  -4 15.4400 0.87509   4
  -6  -1  -4 17.6009 1.48930   1
   6   1   4 17.7847 0.62886   2
   6   1   4 17.7037 1.50501   1
   6   1   4 17.5954 1.53975   1
  -7  -1  -4 334.999 7.25706   1
  -7  -1  -4 328.580 5.76160   4
   7   1   4 320.764 5.29828   2
   7   1   4 326.253 7.29268   1
  -8  -1  -4 390.150 8.61405   1
  -8  -1  -4 398.250 6.91165   4
   8   1   4 398.891 6.41989   2
   8   1   4 390.966 8.77078   1
  -9  -1  -4 23.5922 2.33489   1
  -9  -1  -4 24.6660 1.38292   4
   9   1   4 25.2609 2.40853   1
 -10  -1  -4 16.7242 1.29145   4
   8  -2  -4 49.6460 1.95761   2
   7  -2  -4 37.8184 1.58862   2
  -7   2   4 35.2875 2.44323   1
   6  -2  -4 0.33940 0.60250   2
   6  -2  -4 -0.9577 0.79205   1
  -6   2   4 0.57050 0.86286   1
   5  -2  -4 24.0967 1.69826   1
   5  -2  -4 25.1431 1.18773   2
  -5   2   4 25.3922 1.71233   1
  -5   2   4 26.0761 1.71656   1
   4  -2  -4 39.8956 1.87262   1
   4  -2  -4 36.7053 1.31569   2
  -4   2   4 37.7424 1.81689   1
  -4   2   4 40.2321 1.86729   1
   3  -2  -4 8.66701 0.87872   1
   3  -2  -4 7.61979 0.64812   2
   3  -2  -4 7.39636 0.85790   1
  -3   2   4 8.07069 0.87010   1
  -3   2   4 7.39174 0.86143   1
   2  -2  -4 215.074 3.74622   2
   2  -2  -4 220.560 4.21489   1
   2  -2  -4 218.833 4.29617   1
  -2   2   4 209.690 4.24973   1
  -2   2   4 218.652 4.25804   1
   1  -2  -4 44.5031 0.85567   3
   1  -2  -4 44.8220 1.41187   1
   1  -2  -4 45.9526 1.45580   1
   1  -2  -4 45.0638 1.12791   2
  -1   2   4 43.9535 1.07288   2
  -1   2   4 47.3970 1.45443   1
  -1   2   4 46.1035 1.45898   1
   0  -2  -4 74.3275 1.77092   1
   0  -2  -4 76.3345 1.29339   5
   0  -2  -4 76.9514 1.85119   1
   0  -2  -4 75.3963 1.45859   2
   0  -2  -4 75.6934 1.38639   3
   0   2   4 75.6683 1.43016   2
   0   2   4 75.2646 1.81636   1
   0   2   4 75.2675 1.81483   1
  -1  -2  -4 1042.04 15.8296   4
  -1  -2  -4 1043.27 16.2550   1
  -1  -2  -4 1065.80 15.6903   2
  -1  -2  -4 1047.03 16.3148   1
  -1  -2  -4 1055.94 15.8234   3
   1   2   4 1085.87 15.6505   5
   1   2   4 1066.90 16.3046   1
   1   2   4 1056.07 16.3116   1
   1   2   4 1058.09 15.6840   2
  -2  -2  -4 112.989 2.13218   3
  -2  -2  -4 117.698 2.12269   4
  -2  -2  -4 114.893 2.62140   1
  -2  -2  -4 119.619 2.59377   1
  -2  -2  -4 116.955 1.83837   2
   2   2   4 116.321 2.63427   1
   2   2   4 117.563 2.62626   1
   2   2   4 117.379 1.83763   2
   2   2   4 119.280 2.09766   4
   2   2   4 116.084 1.87169   5
  -3  -2  -4 346.663 6.21128   1
  -3  -2  -4 350.858 5.57312   4
  -3  -2  -4 341.702 6.23652   1
   3   2   4 343.947 6.21741   1
   3   2   4 340.536 6.25913   1
  -4  -2  -4 218.356 4.61844   1
  -4  -2  -4 216.002 4.66560   1
  -4  -2  -4 225.024 3.82960   4
   4   2   4 220.977 4.64736   1
   4   2   4 229.984 4.76592   1
  -5  -2  -4 0.20912 0.38018   4
  -5  -2  -4 0.48262 0.65672   1
  -5  -2  -4 -0.7031 0.67727   1
   5   2   4 0.77794 0.68046   1
   5   2   4 0.44369 0.17643   2
   5   2   4 -0.7426 0.66909   1
  -6  -2  -4 48.7052 2.32187   1
  -6  -2  -4 42.1163 1.37078   4
   6   2   4 44.3762 2.27400   1
   6   2   4 42.9448 2.14999   1
   6   2   4 42.9418 0.96046   2
  -7  -2  -4 635.727 10.2311   4
  -7  -2  -4 634.595 11.8132   1
   7   2   4 623.181 11.8309   1
   7   2   4 621.641 9.63714   2
  -8  -2  -4 3.71238 0.71383   4
  -8  -2  -4 4.24276 1.27192   1
   8   2   4 3.10453 1.26907   1
  -9  -2  -4 192.884 5.78122   1
  -9  -2  -4 188.823 4.01912   4
   9   2   4 175.228 5.69795   1
 -10  -2  -4 0.58164 0.71764   4
   8  -3  -4 0.24179 0.88930   2
   7  -3  -4 49.8999 1.89690   2
   6  -3  -4 56.8322 1.90255   2
  -6   3   4 55.3072 2.72456   1
   5  -3  -4 13.3689 1.45001   1
   5  -3  -4 12.8648 0.95789   2
  -5   3   4 13.6862 1.42365   1
  -5   3   4 10.3290 1.50317   1
   4  -3  -4 10.0610 1.19111   1
   4  -3  -4 9.15557 0.85073   2
  -4   3   4 9.72252 1.15757   1
  -4   3   4 7.99659 1.07012   1
   3  -3  -4 3.02803 0.61166   2
   3  -3  -4 4.03018 0.87016   1
  -3   3   4 2.98647 0.71672   1
  -3   3   4 4.09920 0.83980   1
   2  -3  -4 28.0861 1.01156   2
   2  -3  -4 30.6269 1.41888   1
   2  -3  -4 29.0168 1.43925   1
   2  -3  -4 27.9671 0.58720   3
  -2   3   4 29.6483 1.43778   1
  -2   3   4 30.2796 1.43568   1
   1  -3  -4 368.873 6.48744   1
   1  -3  -4 362.852 6.35156   1
   1  -3  -4 352.494 5.83368   2
   1  -3  -4 360.209 5.54313   3
  -1   3   4 367.291 6.45695   1
  -1   3   4 352.711 5.54288   3
  -1   3   4 356.064 6.43159   1
   0  -3  -4 39.4033 1.42870   1
   0  -3  -4 42.7258 1.07917   2
   0  -3  -4 41.8943 0.97166   3
   0  -3  -4 40.7325 1.50763   1
   0   3   4 39.3076 1.47295   1
   0   3   4 43.7984 0.99653   3
   0   3   4 41.6245 1.49488   1
   0   3   4 41.4224 1.00988   2
  -1  -3  -4 240.413 4.04787   3
  -1  -3  -4 248.889 4.08388   4
  -1  -3  -4 251.969 4.64218   1
  -1  -3  -4 244.415 4.66998   1
  -1  -3  -4 242.479 3.96631   2
   1   3   4 244.126 3.94655   2
   1   3   4 247.464 4.65069   1
   1   3   4 249.806 4.70897   1
   1   3   4 248.847 4.09814   3
  -2  -3  -4 374.388 6.67379   1
  -2  -3  -4 375.572 5.71715   2
  -2  -3  -4 378.009 6.62037   1
  -2  -3  -4 372.434 5.94589   4
   2   3   4 382.361 6.64430   1
   2   3   4 357.960 5.91545   4
   2   3   4 376.224 5.71634   2
   2   3   4 371.610 6.02008   3
   2   3   4 371.341 6.63954   1
  -3  -3  -4 313.113 6.00306   1
  -3  -3  -4 321.312 5.16564   4
  -3  -3  -4 310.786 5.89191   1
   3   3   4 314.146 4.79951   2
   3   3   4 314.988 5.26969   3
   3   3   4 310.795 5.94100   1
   3   3   4 318.219 6.01941   1
  -4  -3  -4 102.513 2.06446   4
  -4  -3  -4 96.6495 2.80408   1
  -4  -3  -4 100.205 2.91402   1
   4   3   4 99.3348 2.92996   1
   4   3   4 98.3350 2.85681   1
   4   3   4 98.6139 1.64505   2
  -5  -3  -4 49.8824 2.21091   1
  -5  -3  -4 48.2804 1.38928   4
   5   3   4 53.8931 2.22138   1
   5   3   4 53.0169 2.27378   1
   5   3   4 52.9530 0.99173   2
  -6  -3  -4 70.0238 2.80840   1
  -6  -3  -4 69.7264 1.82578   4
   6   3   4 68.6284 2.81370   1
   6   3   4 71.3883 2.77292   1
   6   3   4 70.2484 1.33424   2
  -7  -3  -4 413.187 8.73864   1
  -7  -3  -4 421.422 6.75699   4
   7   3   4 422.634 8.86276   1
   7   3   4 421.513 6.55598   2
  -8  -3  -4 11.4975 0.95713   4
  -8  -3  -4 10.2934 1.58807   1
   8   3   4 11.5626 1.70417   1
  -9  -3  -4 48.8661 1.81290   4
  -9  -3  -4 43.9175 2.92714   1
   9   3   4 49.4080 3.09444   1
   7  -4  -4 1.92032 0.83079   2
   6  -4  -4 124.894 3.06653   2
  -6   4   4 117.645 4.21434   1
   5  -4  -4 5.06784 1.20395   1
   5  -4  -4 4.40329 0.82080   2
  -5   4   4 5.85938 1.30016   1
   4  -4  -4 36.4675 1.45427   2
   4  -4  -4 31.9183 2.00442   1
  -4   4   4 35.1944 2.04621   1
  -4   4   4 34.6614 2.02012   1
   3  -4  -4 161.758 4.19210   1
   3  -4  -4 161.649 3.24145   2
  -3   4   4 158.030 4.09423   1
  -3   4   4 162.548 4.15745   1
   2  -4  -4 1.63820 0.76508   1
   2  -4  -4 4.28936 0.57744   2
   2  -4  -4 3.89406 0.27232   3
  -2   4   4 2.80871 0.80633   1
  -2   4   4 3.80252 0.30404   3
  -2   4   4 3.43749 0.80331   1
   1  -4  -4 20.2900 1.28730   1
   1  -4  -4 23.0780 0.92462   2
   1  -4  -4 22.5159 1.28607   1
   1  -4  -4 22.2015 0.66402   3
  -1   4   4 22.3754 1.32847   1
  -1   4   4 21.4410 1.29533   1
  -1   4   4 24.4969 0.70736   3
   0  -4  -4 86.4630 2.49443   1
   0  -4  -4 84.4960 1.78660   2
   0  -4  -4 83.3161 1.64529   3
   0  -4  -4 81.5917 2.36939   1
   0   4   4 80.1716 2.39493   1
   0   4   4 83.6387 1.68128   3
   0   4   4 85.7727 2.45583   1
  -1  -4  -4 282.771 4.67015   4
  -1  -4  -4 290.822 5.44960   1
  -1  -4  -4 283.865 5.54008   1
  -1  -4  -4 280.082 4.63897   2
   1   4   4 279.740 4.60302   2
   1   4   4 289.175 5.54071   1
   1   4   4 281.415 4.72283   3
   1   4   4 284.935 5.49897   1
  -2  -4  -4 24.0019 1.28718   1
  -2  -4  -4 21.9360 0.78152   4
  -2  -4  -4 22.7924 0.68827   2
  -2  -4  -4 21.3032 1.28461   1
   2   4   4 22.8115 0.67555   2
   2   4   4 23.7283 0.90993   3
   2   4   4 22.6949 1.30762   1
   2   4   4 21.5203 1.29493   1
  -3  -4  -4 793.603 13.4072   1
  -3  -4  -4 807.313 12.2309   4
  -3  -4  -4 809.772 13.3848   1
   3   4   4 782.213 11.9680   2
   3   4   4 794.576 12.3725   3
   3   4   4 793.953 13.4317   1
   3   4   4 796.874 13.4085   1
  -4  -4  -4 11.8556 1.16847   1
  -4  -4  -4 11.3291 0.67327   4
  -4  -4  -4 10.7590 1.08970   1
   4   4   4 8.81874 0.69967   3
   4   4   4 9.71556 1.08697   1
   4   4   4 10.2515 0.41481   2
   4   4   4 11.5395 1.17625   1
  -5  -4  -4 146.209 4.02119   1
  -5  -4  -4 144.143 2.84314   4
   5   4   4 138.367 2.31256   2
   5   4   4 143.611 3.95323   1
   5   4   4 147.370 2.99337   3
   5   4   4 148.052 4.07392   1
  -6  -4  -4 157.834 4.46688   1
  -6  -4  -4 164.710 3.19914   4
   6   4   4 145.292 4.35424   1
   6   4   4 161.239 4.55291   1
   6   4   4 159.977 2.52317   2
  -7  -4  -4 30.4929 1.28246   4
  -7  -4  -4 30.9241 2.17658   1
   7   4   4 35.6162 2.33212   1
  -8  -4  -4 1.82830 1.20042   1
  -8  -4  -4 0.62497 0.63680   4
   8   4   4 3.41078 1.30534   1
  -9  -4  -4 67.6547 2.13473   4
  -9  -4  -4 63.9266 3.52643   1
   9   4   4 66.6992 3.60190   1
   6  -5  -4 0.49395 0.75012   2
   5  -5  -4 10.8311 1.04499   2
  -5   5   4 9.19063 1.43817   1
   4  -5  -4 80.6497 2.26276   2
   4  -5  -4 76.3083 3.12001   1
  -4   5   4 79.0866 3.13048   1
   3  -5  -4 79.9448 2.12401   2
   3  -5  -4 74.8414 2.92222   1
  -3   5   4 75.9451 2.89581   1
  -3   5   4 73.9679 1.43753   3
  -3   5   4 77.2751 2.92908   1
   2  -5  -4 47.9104 1.09873   3
   2  -5  -4 51.3071 2.28842   1
   2  -5  -4 50.4064 1.09899   5
   2  -5  -4 50.4660 1.57203   2
  -2   5   4 52.1564 2.26930   1
  -2   5   4 50.9170 1.17104   3
  -2   5   4 52.6449 2.27384   1
   1  -5  -4 79.9344 2.72703   1
   1  -5  -4 81.0511 1.93270   2
  -1   5   4 80.4904 2.71492   1
  -1   5   4 76.6773 1.64773   3
  -1   5   4 78.4946 2.65123   1
   0  -5  -4 169.813 3.17340   2
   0  -5  -4 165.894 4.14228   1
   0   5   4 172.799 4.11148   1
   0   5   4 170.263 4.13533   1
   0   5   4 175.019 3.08579   3
  -1  -5  -4 299.102 6.05667   1
  -1  -5  -4 307.645 5.05585   4
  -1  -5  -4 303.848 5.08364   2
  -1  -5  -4 303.243 6.18045   1
   1   5   4 310.841 5.00094   3
   1   5   4 302.153 6.09492   1
   1   5   4 313.901 6.19539   1
  -2  -5  -4 595.236 10.5225   1
  -2  -5  -4 602.167 9.25442   2
  -2  -5  -4 613.237 9.32613   4
  -2  -5  -4 572.697 10.3982   1
   2   5   4 615.452 9.50731   3
   2   5   4 586.558 10.1496   1
   2   5   4 590.246 10.5363   1
  -3  -5  -4 111.449 3.29730   1
  -3  -5  -4 113.061 2.20806   4
   3   5   4 105.376 2.01994   2
   3   5   4 104.880 3.18626   1
   3   5   4 106.547 3.26591   1
   3   5   4 113.118 2.40643   3
  -4  -5  -4 9.65363 0.64590   4
  -4  -5  -4 9.53599 1.17594   1
   4   5   4 8.06614 0.71770   3
   4   5   4 8.56998 1.14833   1
   4   5   4 7.31112 1.14501   1
   4   5   4 8.95889 0.47747   2
  -5  -5  -4 17.7632 0.86634   4
  -5  -5  -4 17.3343 1.53903   1
   5   5   4 16.9412 0.63687   2
   5   5   4 18.3605 1.05731   3
   5   5   4 15.2992 1.51761   1
   5   5   4 20.2597 1.65610   1
  -6  -5  -4 254.135 6.27213   1
  -6  -5  -4 263.320 4.65500   4
   6   5   4 255.992 6.32427   1
   6   5   4 252.336 4.20919   2
   6   5   4 265.238 4.89845   3
  -7  -5  -4 72.5781 1.99551   4
  -7  -5  -4 74.3790 3.29760   1
   7   5   4 72.9745 3.34631   1
  -8  -5  -4 22.3765 2.18347   1
  -8  -5  -4 23.6717 1.25682   4
   8   5   4 28.5903 2.38256   1
  -9  -5  -4 0.83877 0.72743   4
  -9  -5  -4 0.88196 1.38877   1
   6  -6  -4 28.0472 1.68380   2
   5  -6  -4 11.4952 1.21077   2
   4  -6  -4 56.8806 1.99635   2
   4  -6  -4 54.7741 3.03790   1
  -4   6   4 58.9110 2.90969   1
   3  -6  -4 53.6476 1.82310   2
   3  -6  -4 50.3379 2.64885   1
  -3   6   4 57.9847 2.73354   1
   2  -6  -4 5.58827 0.75353   2
   2  -6  -4 5.07757 0.34325   5
   2  -6  -4 4.45377 1.06909   1
  -2   6   4 3.54384 1.06895   1
  -2   6   4 5.92229 0.50410   3
  -2   6   4 6.02615 1.12137   1
   1  -6  -4 0.66717 0.93316   1
   1  -6  -4 -0.1375 0.48635   2
  -1   6   4 -0.0389 0.83684   1
  -1   6   4 -0.6754 0.79472   1
  -1   6   4 0.69688 0.40439   3
   0  -6  -4 478.333 9.12276   1
   0  -6  -4 483.995 7.78100   2
   0   6   4 470.516 7.64583   3
   0   6   4 461.491 8.91088   1
   0   6   4 467.701 9.03847   1
  -1  -6  -4 8.23059 1.20737   1
  -1  -6  -4 6.79745 0.53566   4
  -1  -6  -4 7.19379 0.64504   2
   1   6   4 6.14250 0.62318   3
   1   6   4 4.79983 1.03705   1
   1   6   4 8.39292 1.19898   1
  -2  -6  -4 501.130 9.52604   1
  -2  -6  -4 505.023 7.97742   4
  -2  -6  -4 505.198 7.99741   2
   2   6   4 496.409 8.19490   3
   2   6   4 490.950 9.41047   1
   2   6   4 501.782 9.42241   1
  -3  -6  -4 11.7378 1.38172   1
  -3  -6  -4 9.98268 0.63462   4
   3   6   4 10.3905 1.33329   1
   3   6   4 10.0627 0.39509   5
   3   6   4 10.2595 1.32808   1
   3   6   4 10.5043 0.81216   3
  -4  -6  -4 -0.0436 0.82858   1
  -4  -6  -4 1.60192 0.47176   4
   4   6   4 1.44040 0.63900   3
   4   6   4 1.06406 0.98802   1
   4   6   4 1.67998 0.99435   1
  -5  -6  -4 103.229 2.29483   4
  -5  -6  -4 104.153 3.70136   1
   5   6   4 104.487 2.58294   3
   5   6   4 107.283 3.74921   1
  -6  -6  -4 196.584 3.76403   4
  -6  -6  -4 190.615 5.44583   1
   6   6   4 195.762 5.53077   1
   6   6   4 202.136 4.08527   3
  -7  -6  -4 49.6672 1.61649   4
  -7  -6  -4 47.0130 2.86118   1
   7   6   4 50.3090 1.85324   3
   7   6   4 44.7527 2.84130   1
  -8  -6  -4 31.9130 2.67587   1
  -8  -6  -4 35.5529 1.47467   4
   8   6   4 33.6116 2.75808   1
  -9  -6  -4 5.32536 0.89017   4
   5  -7  -4 36.9905 1.78680   2
   4  -7  -4 7.98900 1.10223   2
   3  -7  -4 13.8189 1.81786   1
   3  -7  -4 16.2057 1.15058   2
  -3   7   4 14.6710 1.77508   1
   2  -7  -4 1.98469 1.02458   1
   2  -7  -4 0.03793 0.62684   2
  -2   7   4 0.47169 0.39354   3
  -2   7   4 0.01136 0.85077   1
   1  -7  -4 80.7662 3.25772   1
   1  -7  -4 73.8403 2.07320   2
  -1   7   4 77.7856 3.14871   1
  -1   7   4 75.3374 1.84666   3
   0  -7  -4 121.188 2.45953   4
   0  -7  -4 112.438 3.88047   1
   0  -7  -4 122.623 2.70356   2
   0   7   4 123.746 3.94553   1
   0   7   4 121.809 2.57804   3
   0   7   4 114.657 3.82329   1
  -1  -7  -4 0.73876 0.52368   2
  -1  -7  -4 1.03334 0.37506   4
  -1  -7  -4 0.94933 0.91555   1
   1   7   4 1.93900 0.96160   1
   1   7   4 0.69037 0.48522   3
   1   7   4 0.39436 0.87445   1
  -2  -7  -4 1.57707 0.42197   4
  -2  -7  -4 1.37315 0.88945   1
   2   7   4 0.50993 0.51097   3
   2   7   4 0.92473 0.83210   1
  -3  -7  -4 97.1957 3.55182   1
  -3  -7  -4 97.1238 2.12516   4
   3   7   4 100.114 2.44402   3
   3   7   4 97.7556 3.55595   1
  -4  -7  -4 7.37856 1.30318   1
  -4  -7  -4 5.47811 0.58407   4
   4   7   4 6.38488 0.83542   3
   4   7   4 5.61184 1.22507   1
  -5  -7  -4 85.5882 2.05121   4
  -5  -7  -4 87.4898 3.58685   1
   5   7   4 89.2796 2.41429   3
   5   7   4 81.2528 3.49982   1
  -6  -7  -4 102.712 2.37261   4
  -6  -7  -4 98.8521 3.95548   1
   6   7   4 100.120 4.01457   1
   6   7   4 100.874 2.70398   3
  -7  -7  -4 25.0197 1.18794   4
  -7  -7  -4 27.3764 2.43502   1
   7   7   4 21.3919 2.26631   1
   7   7   4 28.6353 1.48431   3
  -8  -7  -4 8.15464 0.88809   4
   4  -8  -4 5.11277 0.99525   2
   3  -8  -4 74.0665 2.36794   2
   2  -8  -4 0.28592 0.70677   2
   1  -8  -4 8.01663 1.58307   1
   1  -8  -4 5.10029 0.85382   2
  -1   8   4 6.47999 1.47871   1
  -1   8   4 5.89712 0.67171   3
   0  -8  -4 8.69818 0.83929   2
   0  -8  -4 9.88581 0.69090   4
   0  -8  -4 10.5888 1.66362   1
   0   8   4 9.58440 0.83243   3
   0   8   4 11.1827 1.64733   1
  -1  -8  -4 41.6808 1.48759   2
  -1  -8  -4 41.4544 1.26536   4
  -1  -8  -4 39.6126 2.46786   1
   1   8   4 41.4942 1.50096   3
   1   8   4 38.2623 2.43833   1
  -2  -8  -4 8.75962 0.64780   4
  -2  -8  -4 11.1592 1.57762   1
   2   8   4 10.9536 1.51366   1
   2   8   4 10.7481 0.90273   3
  -3  -8  -4 13.5285 1.66776   1
  -3  -8  -4 12.0510 0.74364   4
   3   8   4 11.1965 0.99193   3
   3   8   4 9.97937 1.51393   1
  -4  -8  -4 5.38868 1.38555   1
  -4  -8  -4 3.95186 0.56353   4
   4   8   4 2.72171 1.25397   1
   4   8   4 3.12013 0.72457   3
  -5  -8  -4 67.3567 1.79102   4
  -5  -8  -4 63.9405 3.32146   1
   5   8   4 66.7627 3.35204   1
   5   8   4 70.5432 2.20805   3
  -6  -8  -4 3.27676 0.62012   4
  -6  -8  -4 4.19410 1.52815   1
   6   8   4 5.41922 1.60051   1
   6   8   4 4.27500 0.90541   3
  -7  -8  -4 1.28443 0.58109   4
  -7  -8  -4 0.27617 1.55599   1
   7   8   4 1.14392 0.76044   3
   2  -9  -4 10.6035 1.15676   2
   1  -9  -4 0.33733 0.72601   2
   0  -9  -4 67.0186 1.84838   4
   0  -9  -4 67.2023 2.10181   2
   0   9   4 65.0669 1.97629   3
  -1  -9  -4 0.31490 1.26032   1
  -1  -9  -4 0.24566 0.62550   2
   1   9   4 0.61847 0.63329   3
  -2  -9  -4 -0.2002 1.18108   1
   2   9   4 1.27549 1.23107   1
   2   9   4 0.49363 0.70793   3
  -3  -9  -4 2.29064 1.47249   1
   3   9   4 2.88959 1.43794   1
   3   9   4 2.72380 0.81540   3
  -4  -9  -4 6.88451 1.58779   1
   4   9   4 4.83023 0.89773   3
  -5  -9  -4 45.4276 3.10559   1
   5   9   4 49.3855 1.96941   3
   6   9   4 1.06981 0.77930   3
   1  10   4 3.66924 0.81509   3
   2  10   4 0.87936 0.69565   3
   3  10   4 27.8877 1.53859   3
   4   9  -5 138.043 3.52588   3
   3   9  -5 4.06562 0.88051   3
   2   9  -5 42.4316 1.84519   3
   1   9  -5 16.7019 1.22385   3
   0   9  -5 3.23890 0.89668   3
  -1   9  -5 0.04826 0.72068   3
   1  -9   5 0.54593 0.51861   5
  -2   9  -5 6.93601 0.94693   3
   5   8  -5 20.6287 1.37610   3
   4   8  -5 78.2850 2.43618   3
   3   8  -5 49.8481 1.86545   3
   2   8  -5 0.34645 0.66529   3
  -2  -8   5 0.08401 1.04761   1
   1   8  -5 2.23818 0.72158   3
  -1  -8   5 2.33179 1.09199   1
   0   8  -5 8.39082 0.88741   3
   0  -8   5 6.49812 0.72463   5
   0  -8   5 9.15556 1.43443   1
  -1   8  -5 10.1619 1.00285   3
   1  -8   5 8.90971 0.79145   5
   1  -8   5 6.05648 1.32479   1
  -2   8  -5 3.02438 0.78199   3
  -3   8  -5 0.16230 0.68018   3
   3  -8   5 0.01214 0.52246   5
  -4   8  -5 7.97639 0.92116   3
   4  -8   5 6.82637 0.83700   5
   6   7  -5 17.7664 1.20454   3
   5   7  -5 27.8427 1.43459   3
   4   7  -5 111.427 2.82504   3
  -4  -7   5 109.297 3.84669   1
   3   7  -5 -0.1127 0.53558   3
  -3  -7   5 0.71171 0.88821   1
   2   7  -5 192.864 3.98734   3
  -2  -7   5 198.068 5.12881   1
   1   7  -5 41.9389 1.59302   3
   1   7  -5 41.2158 2.25276   1
  -1  -7   5 39.3080 2.22108   1
   0   7  -5 53.0853 1.74613   3
   0   7  -5 49.7135 2.41230   1
   0  -7   5 52.9297 1.61871   5
   0  -7   5 53.9033 2.54240   1
  -1   7  -5 6.43149 1.23612   1
  -1   7  -5 7.15956 0.86494   3
   1  -7   5 6.83267 1.28481   1
   1  -7   5 6.21402 0.69520   5
  -2   7  -5 12.9909 1.70975   1
  -2   7  -5 16.1741 1.03594   3
   2  -7   5 14.0492 0.90450   5
   2  -7   5 14.2307 1.66962   1
  -3   7  -5 50.3220 1.73370   3
   3  -7   5 54.9175 1.73699   5
   3  -7   5 48.9171 2.76644   1
  -4   7  -5 1.42340 0.59314   3
   4  -7   5 1.18835 0.64058   2
   4  -7   5 1.50878 0.57990   5
  -5   7  -5 34.5159 1.45274   3
   5  -7   5 32.2493 1.56609   2
   5  -7   5 32.2079 1.49815   5
   6  -7   5 2.82733 0.82537   5
   6  -7   5 0.54465 0.70087   2
   7   6  -5 15.1518 1.09171   3
   7   6  -5 13.9167 1.09745   2
   6   6  -5 28.9823 1.36231   3
   5   6  -5 104.891 2.62304   3
  -5  -6   5 106.892 3.71028   1
   4   6  -5 91.0286 2.35432   3
  -4  -6   5 85.4317 3.19395   1
   3   6  -5 1.80885 0.91999   1
   3   6  -5 0.07600 0.59634   3
  -3  -6   5 -0.0053 0.77040   1
   2   6  -5 15.7052 1.35744   1
   2   6  -5 17.5721 1.00164   3
  -2  -6   5 15.2831 1.29498   1
  -2  -6   5 15.6415 1.41440   1
   1   6  -5 85.3720 2.87172   1
   1   6  -5 89.6257 2.23498   3
  -1  -6   5 86.6438 2.80868   1
  -1  -6   5 89.7845 2.99528   1
   0   6  -5 78.1179 2.05024   3
   0   6  -5 75.9385 2.68248   1
   0  -6   5 79.8056 2.82610   1
   0  -6   5 73.9023 2.63422   1
   0  -6   5 79.2251 1.94979   5
  -1   6  -5 3.58721 0.64845   3
  -1   6  -5 2.64745 0.90128   1
   1  -6   5 3.83687 0.97533   1
   1  -6   5 3.42608 0.91274   1
   1  -6   5 2.12438 0.47577   5
  -2   6  -5 0.52545 0.83594   1
  -2   6  -5 0.41438 0.52171   3
   2  -6   5 -1.1385 0.69325   1
   2  -6   5 0.61299 0.80698   1
   2  -6   5 2.08899 0.49308   5
  -3   6  -5 3.58987 0.60888   3
  -3   6  -5 3.00690 1.04431   1
   3  -6   5 3.80001 0.65228   5
   3  -6   5 3.44888 1.15274   1
  -4   6  -5 109.783 3.79499   1
  -4   6  -5 110.158 2.59906   3
   4  -6   5 115.552 3.96425   1
   4  -6   5 106.320 2.65791   2
   4  -6   5 113.007 2.67953   5
  -5   6  -5 -0.1673 0.53654   3
   5  -6   5 0.01896 0.55802   5
   5  -6   5 0.64573 1.05916   1
   5  -6   5 0.59664 0.63108   2
  -6   6  -5 1.17215 0.59213   3
   6  -6   5 1.10618 0.73029   2
   6  -6   5 0.80424 0.61916   5
   7  -6   5 14.2601 1.21835   5
   7  -6   5 14.8128 1.16735   2
   8   5  -5 2.45359 0.76507   2
   7   5  -5 4.30778 0.78701   2
   7   5  -5 6.29303 0.77382   3
   6   5  -5 68.3292 1.95025   3
   6   5  -5 68.7286 2.03722   2
  -6  -5   5 70.5327 3.06011   1
   5   5  -5 1.46445 0.58540   3
  -5  -5   5 0.37501 0.91222   1
   4   5  -5 13.9088 1.37297   1
   4   5  -5 14.6669 0.92430   3
  -4  -5   5 14.2575 1.38319   1
   3   5  -5 36.7759 1.81313   1
   3   5  -5 31.7861 0.73317   4
   3   5  -5 33.4023 1.27983   3
  -3  -5   5 36.0125 1.85231   1
  -3  -5   5 33.5694 1.70497   1
   2   5  -5 289.044 5.82283   1
   2   5  -5 295.168 5.09957   3
  -2  -5   5 291.860 5.90830   1
  -2  -5   5 282.479 5.73180   1
   1   5  -5 0.41429 0.53224   1
   1   5  -5 1.03005 0.44634   3
  -1  -5   5 1.18002 0.63735   1
  -1  -5   5 0.44123 0.51094   1
   0   5  -5 6.87253 0.70057   3
   0   5  -5 6.31642 0.87894   1
   0  -5   5 7.58896 0.93725   1
   0  -5   5 7.58467 0.62230   5
   0  -5   5 7.20840 0.86039   1
  -1   5  -5 3.37554 0.74276   1
  -1   5  -5 3.29614 0.53230   3
   1  -5   5 3.20281 0.70628   1
   1  -5   5 3.72693 0.49662   5
   1  -5   5 2.54628 0.78391   1
  -2   5  -5 7.29615 0.66815   3
  -2   5  -5 5.62605 0.93639   1
   2  -5   5 6.85396 0.33395   4
   2  -5   5 7.49401 1.11323   1
   2  -5   5 5.46407 0.61423   5
   2  -5   5 8.48422 1.01781   1
  -3   5  -5 38.4985 2.01254   1
  -3   5  -5 43.8228 1.39715   3
   3  -5   5 42.3166 1.03255   4
   3  -5   5 39.4130 1.99176   1
   3  -5   5 41.6089 1.41475   5
   3  -5   5 43.9789 1.41328   2
   3  -5   5 40.3815 2.09682   1
  -4   5  -5 35.6065 2.05453   1
  -4   5  -5 34.6269 1.03533   4
  -4   5  -5 35.2411 1.27995   3
   4  -5   5 34.3430 1.35646   5
   4  -5   5 34.0781 2.01025   1
   4  -5   5 33.7957 1.30923   2
   4  -5   5 35.5666 2.16756   1
  -5   5  -5 39.2066 1.39726   3
  -5   5  -5 43.6724 2.42222   1
  -5   5  -5 40.2700 1.25760   4
   5  -5   5 45.0093 2.54763   1
   5  -5   5 41.0807 1.57784   5
   5  -5   5 42.7224 1.50134   2
  -6   5  -5 195.297 3.67957   4
  -6   5  -5 190.788 3.75062   3
   6  -5   5 190.079 4.07712   5
   6  -5   5 190.002 3.88978   2
   6  -5   5 183.163 5.51530   1
  -7   5  -5 0.34633 0.52382   3
   7  -5   5 0.31885 0.69391   5
   7  -5   5 -0.5613 0.61518   2
   8   4  -5 6.94201 0.93174   2
   7   4  -5 134.280 3.09895   2
   7   4  -5 127.867 2.79427   3
   6   4  -5 0.40698 0.46130   3
   6   4  -5 -0.5736 0.55785   2
  -6  -4   5 -0.2692 0.88412   1
   5   4  -5 149.123 4.14999   1
   5   4  -5 150.824 3.05825   3
   5   4  -5 153.669 3.20245   2
  -5  -4   5 159.465 4.19637   1
   4   4  -5 184.603 4.38469   1
   4   4  -5 179.032 3.44876   3
  -4  -4   5 180.052 4.36509   1
  -4  -4   5 186.302 4.32240   1
   3   4  -5 79.8688 2.49932   1
   3   4  -5 81.2059 1.50726   4
   3   4  -5 82.9295 1.93917   3
  -3  -4   5 82.2245 2.55595   1
  -3  -4   5 84.3779 2.49786   1
   2   4  -5 581.786 9.35206   3
   2   4  -5 599.578 9.65545   1
   2   4  -5 590.087 8.79638   4
  -2  -4   5 582.514 9.76129   1
  -2  -4   5 590.081 9.60336   1
   1   4  -5 228.668 4.57179   1
   1   4  -5 233.392 4.56780   1
   1   4  -5 232.390 4.09505   3
  -1  -4   5 229.557 4.52209   1
  -1  -4   5 235.463 4.10025   5
  -1  -4   5 233.095 4.66145   1
   0   4  -5 82.7878 1.87756   3
   0   4  -5 84.6303 2.28693   1
   0   4  -5 81.0245 2.24304   1
   0  -4   5 80.3601 1.85062   5
   0  -4   5 80.3735 2.31291   1
   0  -4   5 78.5503 2.19760   1
  -1   4  -5 2.10661 0.50344   3
  -1   4  -5 2.10129 0.61147   1
  -1   4  -5 2.52744 0.62475   1
   1  -4   5 3.25680 0.68567   1
   1  -4   5 2.99097 0.49058   5
   1  -4   5 2.49046 0.60357   1
  -2   4  -5 354.398 5.51222   4
  -2   4  -5 363.490 6.69514   1
  -2   4  -5 356.169 5.87555   3
   2  -4   5 355.601 5.51208   4
   2  -4   5 358.111 6.04288   5
   2  -4   5 358.087 6.76229   1
   2  -4   5 356.041 6.69343   1
  -3   4  -5 404.204 7.64527   1
  -3   4  -5 404.922 6.73660   3
  -3   4  -5 406.663 6.39217   4
   3  -4   5 407.241 7.74629   1
   3  -4   5 405.709 6.38643   4
   3  -4   5 398.026 7.58281   1
   3  -4   5 413.046 6.73690   2
   3  -4   5 416.287 6.88212   5
  -4   4  -5 386.337 6.29764   4
  -4   4  -5 397.709 7.75249   1
  -4   4  -5 382.524 6.29445   3
   4  -4   5 385.292 7.63991   1
   4  -4   5 393.298 6.29713   2
   4  -4   5 397.925 6.28892   5
   4  -4   5 390.710 7.80674   1
  -5   4  -5 1.91986 0.50271   3
  -5   4  -5 1.74261 0.49976   4
  -5   4  -5 1.93211 0.92039   1
   5  -4   5 2.07439 0.62326   5
   5  -4   5 1.59662 0.51585   2
   5  -4   5 2.79756 0.97721   1
   5  -4   5 2.01597 1.05928   1
  -6   4  -5 235.019 4.29721   4
  -6   4  -5 234.157 4.33493   3
  -6   4  -5 242.112 5.96067   1
   6  -4   5 230.642 4.65754   5
   6  -4   5 237.764 4.42550   2
   6  -4   5 231.024 6.06640   1
  -7   4  -5 -0.0506 1.08498   1
  -7   4  -5 -0.1107 0.46301   3
  -7   4  -5 0.81302 0.57839   4
   7  -4   5 1.15305 1.18992   1
   7  -4   5 -0.4997 0.58523   5
   7  -4   5 1.29015 0.63352   2
  -8   4  -5 77.7449 2.20438   4
   8  -4   5 75.8396 2.18963   2
   8  -4   5 74.9265 2.49920   5
   8   3  -5 32.2353 1.51024   2
   7   3  -5 26.9051 1.06278   3
   7   3  -5 29.2256 1.37189   2
  -7  -3   5 27.0122 2.06864   1
   6   3  -5 19.8356 0.89625   3
   6   3  -5 19.5140 1.08677   2
  -6  -3   5 22.2611 1.75653   1
   5   3  -5 5.42224 0.56536   3
   5   3  -5 3.39148 0.88436   1
   5   3  -5 5.64368 0.65964   2
  -5  -3   5 5.04909 1.03068   1
  -5  -3   5 6.40927 1.01098   1
   4   3  -5 11.7292 1.10575   1
   4   3  -5 10.9711 0.67978   3
  -4  -3   5 12.0561 1.12998   1
  -4  -3   5 11.5994 1.07268   1
   3   3  -5 196.610 4.08049   1
   3   3  -5 188.170 3.10983   4
   3   3  -5 193.832 3.42698   3
   3   3  -5 191.880 4.08167   1
  -3  -3   5 196.930 4.11360   1
  -3  -3   5 185.979 3.99311   1
   2   3  -5 63.4971 1.17702   4
   2   3  -5 59.1781 1.80348   1
   2   3  -5 64.4191 1.50919   3
   2   3  -5 61.5834 1.84805   1
  -2  -3   5 64.7694 1.90073   1
   1   3  -5 121.253 2.61210   1
   1   3  -5 123.055 2.35506   3
   1   3  -5 117.757 2.63537   1
   1   3  -5 122.261 1.94336   4
  -1  -3   5 121.302 2.42164   5
  -1  -3   5 120.808 2.70024   1
   0   3  -5 44.9834 1.41072   1
   0   3  -5 42.8307 1.38053   1
   0   3  -5 44.2085 1.21010   3
   0  -3   5 42.9886 1.44733   1
   0  -3   5 46.2144 1.23270   5
  -1   3  -5 21.2455 1.03147   1
  -1   3  -5 23.1241 1.05702   1
  -1   3  -5 20.1865 0.84186   3
  -1   3  -5 22.2824 0.52098   4
   1  -3   5 22.2414 1.05640   1
   1  -3   5 21.1337 0.49147   4
   1  -3   5 22.7385 0.87596   5
   1  -3   5 21.6251 1.08916   1
  -2   3  -5 229.115 4.52574   1
  -2   3  -5 232.297 4.51258   1
  -2   3  -5 233.379 3.89818   3
  -2   3  -5 236.091 3.71189   4
   2  -3   5 223.775 3.67930   4
   2  -3   5 230.402 3.92543   5
   2  -3   5 236.142 4.56083   1
   2  -3   5 233.161 4.59837   1
  -3   3  -5 18.2389 0.79557   3
  -3   3  -5 17.3238 0.65035   4
  -3   3  -5 19.4296 1.22045   1
  -3   3  -5 15.2139 1.11255   1
   3  -3   5 17.4234 0.75967   2
   3  -3   5 18.0909 0.87889   5
   3  -3   5 18.1257 1.21937   1
   3  -3   5 17.3362 1.16231   1
   3  -3   5 16.6740 0.60983   4
  -4   3  -5 35.4038 1.16166   3
  -4   3  -5 36.6402 1.06738   4
  -4   3  -5 36.3136 1.79200   1
   4  -3   5 35.1238 1.11676   2
   4  -3   5 37.1829 1.78432   1
   4  -3   5 36.2637 1.27462   5
   4  -3   5 35.6696 1.84465   1
  -5   3  -5 34.7248 1.95225   1
  -5   3  -5 35.2987 1.19010   3
  -5   3  -5 34.9923 1.16454   4
   5  -3   5 34.3969 1.17155   2
   5  -3   5 35.4778 1.94515   1
   5  -3   5 34.9148 2.04987   1
   5  -3   5 33.6008 1.36184   5
  -6   3  -5 86.8512 2.09167   4
  -6   3  -5 85.3710 3.25526   1
  -6   3  -5 86.9189 2.06854   3
   6  -3   5 91.5227 3.42196   1
   6  -3   5 85.1635 2.35855   5
   6  -3   5 86.4942 2.06856   2
   6  -3   5 87.0945 3.25071   1
  -7   3  -5 21.0025 1.01515   3
  -7   3  -5 18.7897 1.05746   4
  -7   3  -5 19.8974 1.92715   1
   7  -3   5 19.4441 1.22867   5
   7  -3   5 20.6032 1.04124   2
   7  -3   5 18.8711 1.92559   1
  -8   3  -5 15.3315 1.07783   4
  -8   3  -5 14.2852 0.92463   3
   8  -3   5 15.6659 0.99662   2
   8  -3   5 13.9799 1.25220   5
  -9   3  -5 26.8067 1.43099   4
   9  -3   5 26.2912 1.67418   5
   8   2  -5 216.074 4.47144   2
   7   2  -5 4.63613 0.73677   2
  -7  -2   5 4.35100 1.26752   1
   6   2  -5 270.920 4.41373   3
   6   2  -5 270.893 5.04561   2
  -6  -2   5 281.724 6.21866   1
   5   2  -5 8.44358 0.72502   2
   5   2  -5 8.82813 0.56422   3
   5   2  -5 10.7252 1.19085   1
  -5  -2   5 9.53267 1.13719   1
  -5  -2   5 10.5791 1.10583   1
   4   2  -5 15.0057 1.15862   1
   4   2  -5 14.1715 0.65348   3
   4   2  -5 16.3572 0.85332   2
  -4  -2   5 13.8886 1.11899   1
  -4  -2   5 14.8142 1.11092   1
   3   2  -5 381.263 5.95156   3
   3   2  -5 370.256 6.58200   1
   3   2  -5 374.531 6.31793   1
   3   2  -5 367.525 6.12655   2
  -3  -2   5 361.895 5.88931   3
  -3  -2   5 363.446 6.56328   1
  -3  -2   5 379.816 6.59842   1
   2   2  -5 48.1463 1.44086   1
   2   2  -5 47.4859 1.45470   1
   2   2  -5 47.3539 1.15316   3
   2   2  -5 47.9698 1.00536   4
  -2  -2   5 46.6046 1.09910   3
  -2  -2   5 47.4893 1.49011   1
  -2  -2   5 47.0187 1.44778   1
   1   2  -5 14.3483 0.69804   1
   1   2  -5 14.3067 0.62148   3
   1   2  -5 15.7374 0.73607   1
  -1  -2   5 13.9891 0.57813   3
  -1  -2   5 15.5730 0.71004   1
  -1  -2   5 13.6603 0.72433   1
   0   2  -5 11.5136 0.60058   1
   0   2  -5 9.17914 0.54889   1
   0   2  -5 10.4432 0.35095   4
   0   2  -5 9.48743 0.52875   5
   0   2  -5 11.0137 0.58878   3
   0  -2   5 10.6427 0.59857   1
   0  -2   5 9.89550 0.56580   1
   0  -2   5 9.84890 0.58010   5
  -1   2  -5 83.2617 1.87562   1
  -1   2  -5 84.9486 1.45651   4
  -1   2  -5 84.8460 1.73793   3
  -1   2  -5 78.1248 1.79690   5
  -1   2  -5 84.8727 1.63153   2
  -1   2  -5 85.1502 1.89633   1
   1  -2   5 82.0320 1.89233   1
   1  -2   5 83.9898 1.76949   5
   1  -2   5 81.4548 1.43311   4
  -2   2  -5 175.329 2.80123   2
  -2   2  -5 178.528 3.49984   1
  -2   2  -5 179.096 3.51010   1
  -2   2  -5 170.878 2.84784   4
  -2   2  -5 178.774 3.14574   3
   2  -2   5 177.187 3.51820   1
   2  -2   5 175.969 2.91567   4
   2  -2   5 177.822 3.55657   1
   2  -2   5 179.448 3.21208   5
  -3   2  -5 -0.6169 0.50390   1
  -3   2  -5 0.26476 0.26323   2
  -3   2  -5 -0.4469 0.47984   1
  -3   2  -5 -0.7507 0.31331   4
   3  -2   5 0.08545 0.37196   5
   3  -2   5 0.04240 0.47014   1
   3  -2   5 -0.3112 0.29292   2
   3  -2   5 -0.2854 0.53273   1
   3  -2   5 -0.0915 0.24970   4
  -4   2  -5 528.765 8.34982   4
  -4   2  -5 539.826 9.07116   1
  -4   2  -5 524.640 9.34493   1
   4  -2   5 537.189 9.44035   1
   4  -2   5 534.974 8.64096   5
   4  -2   5 525.994 9.23196   1
   4  -2   5 529.672 8.29813   2
  -5   2  -5 6.65829 1.07494   1
  -5   2  -5 5.64701 0.59270   4
   5  -2   5 6.25827 1.07323   1
   5  -2   5 6.92779 0.71903   5
   5  -2   5 6.27172 0.54084   2
   5  -2   5 7.40708 1.08564   1
  -6   2  -5 106.348 3.49511   1
  -6   2  -5 105.852 2.40264   4
   6  -2   5 106.427 3.59499   1
   6  -2   5 107.201 2.24719   2
   6  -2   5 112.026 2.68679   5
   6  -2   5 108.889 3.50486   1
  -7   2  -5 0.08392 1.05067   1
  -7   2  -5 0.09236 0.60923   4
   7  -2   5 -1.2003 1.08260   1
   7  -2   5 -0.6477 0.64999   5
   7  -2   5 0.23787 0.43036   2
  -8   2  -5 80.3865 3.56775   1
  -8   2  -5 76.3302 2.19107   4
   8  -2   5 77.7877 2.46705   5
   8  -2   5 72.6656 3.54707   1
   8  -2   5 74.7007 1.96318   2
  -9   2  -5 276.641 5.35045   4
   9  -2   5 270.990 5.68707   5
   8   1  -5 106.818 2.82339   2
   7   1  -5 107.727 2.72732   2
  -7  -1   5 114.797 3.86601   1
   6   1  -5 61.0044 1.81694   2
  -6  -1   5 59.4265 2.56539   1
   5   1  -5 722.527 11.3362   2
   5   1  -5 706.782 10.7693   3
   5   1  -5 720.445 11.4784   1
  -5  -1   5 699.059 11.3809   1
  -5  -1   5 699.028 10.7515   3
  -5  -1   5 710.381 11.3526   1
   4   1  -5 15.7272 0.56657   3
   4   1  -5 16.4641 1.17772   1
  -4  -1   5 15.2191 0.52834   3
  -4  -1   5 16.0343 1.14132   1
  -4  -1   5 16.6128 1.16039   1
   3   1  -5 300.218 5.37847   1
   3   1  -5 291.398 4.62644   3
   3   1  -5 297.263 4.61922   2
   3   1  -5 282.642 5.23210   1
  -3  -1   5 286.581 4.59554   3
  -3  -1   5 288.551 5.28791   1
   2   1  -5 97.1865 2.13544   1
   2   1  -5 98.1301 1.81860   4
   2   1  -5 98.5789 2.00271   2
   2   1  -5 99.9208 2.17198   1
   2   1  -5 99.4313 1.80244   3
  -2  -1   5 100.052 2.15540   1
  -2  -1   5 100.606 2.16897   1
  -2  -1   5 97.7963 1.76277   3
   1   1  -5 0.64312 0.24857   1
   1   1  -5 0.36166 0.27379   5
   1   1  -5 0.17021 0.25488   1
   1   1  -5 0.47821 0.23897   3
  -1  -1   5 0.18420 0.26593   1
  -1  -1   5 -0.1332 0.21971   1
   0   1  -5 27.7469 0.77503   3
   0   1  -5 28.4027 0.82044   5
   0  -1   5 29.1388 0.86904   5
  -1   1  -5 84.6213 1.63611   1
  -1   1  -5 81.7013 1.62725   1
  -1   1  -5 79.0098 1.64043   5
  -1   1  -5 83.2359 1.48925   4
   1  -1   5 85.9652 1.65885   1
   1  -1   5 79.2371 1.46029   4
   1  -1   5 85.6548 1.64546   1
   1  -1   5 82.5257 1.69443   5
  -2   1  -5 87.5235 2.00522   1
  -2   1  -5 83.6985 1.96203   1
  -2   1  -5 86.0726 1.55061   2
  -2   1  -5 82.5796 1.74819   5
  -2   1  -5 86.0989 1.61750   4
   2  -1   5 87.5948 1.80775   5
   2  -1   5 89.5322 2.03919   1
   2  -1   5 86.7007 1.59426   4
  -3   1  -5 325.757 5.79449   1
  -3   1  -5 323.966 5.19315   4
  -3   1  -5 329.348 5.80135   1
  -3   1  -5 316.381 5.03341   2
   3  -1   5 318.093 5.14702   4
   3  -1   5 317.455 5.76491   1
   3  -1   5 325.469 5.39023   5
   3  -1   5 320.525 5.83373   1
  -4   1  -5 380.917 6.25428   4
  -4   1  -5 389.722 7.11956   1
  -4   1  -5 385.163 6.05497   2
  -4   1  -5 391.354 7.09879   1
   4  -1   5 390.097 7.16551   1
   4  -1   5 391.968 7.10125   1
   4  -1   5 395.095 6.50513   5
   4  -1   5 386.345 6.07390   2
  -5   1  -5 460.708 8.58361   1
  -5   1  -5 468.254 7.57262   4
  -5   1  -5 457.828 7.28090   2
   5  -1   5 473.939 7.32126   2
   5  -1   5 468.435 7.80178   5
   5  -1   5 475.629 8.71602   1
   5  -1   5 472.316 8.61883   1
  -6   1  -5 -0.5108 0.85387   1
  -6   1  -5 1.79092 0.57077   4
   6  -1   5 1.57382 0.87829   1
   6  -1   5 0.13580 0.84899   1
   6  -1   5 0.91681 0.38032   2
  -7   1  -5 7.69174 1.30300   1
  -7   1  -5 9.07829 0.80844   4
   7  -1   5 8.20436 1.35359   1
   7  -1   5 9.14979 1.44137   1
   7  -1   5 6.56913 0.58859   2
  -8   1  -5 0.32448 0.63675   4
  -8   1  -5 -1.0618 0.96001   1
   8  -1   5 -0.0643 0.42263   2
   8  -1   5 -0.7231 1.14995   1
  -9   1  -5 216.298 4.47004   4
   8   0  -5 0.61180 0.67350   2
   7   0  -5 -0.0883 0.68340   2
  -7   0   5 0.46711 0.95596   1
   6   0  -5 1.20046 0.58126   2
  -6   0   5 0.96952 0.83084   1
   5   0  -5 94.8611 2.26934   2
   5   0  -5 92.4433 2.95207   1
  -5   0   5 94.2215 2.96595   1
  -5   0   5 89.5197 2.88988   1
   4   0  -5 371.062 6.91010   1
   4   0  -5 373.035 5.61506   3
   4   0  -5 371.876 5.86767   2
  -4   0   5 363.625 6.87127   1
  -4   0   5 371.620 6.87166   1
   3   0  -5 159.119 2.53948   3
   3   0  -5 156.959 3.39477   1
   3   0  -5 160.749 2.98330   2
   3   0  -5 159.313 3.32926   1
  -3   0   5 158.627 3.38263   1
  -3   0   5 156.907 3.40856   1
   2   0  -5 28.7500 0.93058   2
   2   0  -5 29.2343 0.66859   3
   2   0  -5 30.0569 1.08581   1
   2   0  -5 29.2037 1.04566   1
  -2   0   5 27.5803 1.05812   1
  -2   0   5 30.6296 1.07739   1
   1   0  -5 211.791 3.50921   1
   1   0  -5 211.309 3.40786   2
   1   0  -5 208.650 3.54167   5
   1   0  -5 210.723 3.36821   3
   1   0  -5 208.183 3.49132   1
  -1   0   5 211.077 3.51468   1
  -1   0   5 211.912 3.49437   1
   0   0  -5 15.8296 0.55946   5
   0   0  -5 15.5137 0.54840   2
   0   0   5 15.9854 0.59273   5
  -1   0  -5 7.20133 0.41781   5
  -1   0  -5 6.85147 0.38276   4
  -1   0  -5 7.28508 0.37313   1
  -1   0  -5 7.68544 0.38569   1
   1   0   5 7.62598 0.40395   1
   1   0   5 6.46743 0.44528   5
   1   0   5 7.30408 0.38881   1
  -2   0  -5 365.199 6.04280   1
  -2   0  -5 365.819 5.51362   2
  -2   0  -5 366.749 5.73033   4
  -2   0  -5 370.353 6.03832   1
  -2   0  -5 354.874 5.78400   5
   2   0   5 359.616 5.69366   4
   2   0   5 357.803 5.81291   5
   2   0   5 372.516 6.08699   1
  -3   0  -5 1341.78 20.0665   4
  -3   0  -5 1366.29 20.7131   1
  -3   0  -5 1349.71 19.7745   2
  -3   0  -5 1357.03 20.7282   1
   3   0   5 1310.11 20.0718   4
   3   0   5 1343.96 20.1856   5
   3   0   5 1303.18 20.6674   1
   3   0   5 1353.17 20.7508   1
  -4   0  -5 133.086 2.16921   2
  -4   0  -5 130.297 2.50116   4
  -4   0  -5 133.105 3.18313   1
  -4   0  -5 129.980 3.17597   1
   4   0   5 129.235 3.16639   1
   4   0   5 131.377 2.17860   2
   4   0   5 129.333 2.61206   5
   4   0   5 136.833 3.28735   1
  -5   0  -5 48.3718 1.34368   4
  -5   0  -5 44.4181 1.96203   1
  -5   0  -5 45.2007 0.97358   2
   5   0   5 49.6666 2.10266   1
   5   0   5 47.1674 1.98976   1
   5   0   5 44.4388 0.99817   2
  -6   0  -5 23.6339 1.64514   1
  -6   0  -5 21.3062 0.67613   2
  -6   0  -5 20.1757 1.01501   4
   6   0   5 23.9529 0.74947   2
   6   0   5 23.1123 1.69762   1
   6   0   5 19.3082 1.51870   1
  -7   0  -5 4.80567 0.76754   4
  -7   0  -5 5.01872 1.21461   1
   7   0   5 5.65545 1.22155   1
   7   0   5 4.66156 0.47391   2
   7   0   5 4.42206 1.13155   1
  -8   0  -5 216.353 5.85200   1
  -8   0  -5 220.619 4.31415   4
   8   0   5 217.960 3.93022   2
   8   0   5 205.289 5.86955   1
  -9   0  -5 2.22815 1.49604   1
  -9   0  -5 0.78371 0.74963   4
   8  -1  -5 0.57193 0.71148   2
   7  -1  -5 3.92263 0.75720   2
  -7   1   5 4.34450 1.35685   1
   6  -1  -5 4.97309 0.73840   2
  -6   1   5 5.00590 1.16566   1
   5  -1  -5 2.51800 0.69246   2
   5  -1  -5 3.04901 0.87524   1
  -5   1   5 2.72499 0.87171   1
  -5   1   5 1.77128 0.87235   1
   4  -1  -5 9.73084 1.03065   1
   4  -1  -5 10.2974 0.74496   2
  -4   1   5 9.44597 1.04128   1
  -4   1   5 8.46108 1.00804   1
   3  -1  -5 134.313 2.64137   2
   3  -1  -5 134.467 3.13625   1
   3  -1  -5 125.609 3.01546   1
  -3   1   5 138.405 3.12010   1
  -3   1   5 133.966 3.12416   1
   2  -1  -5 3.10418 0.52406   1
   2  -1  -5 2.59578 0.47889   2
   2  -1  -5 2.97413 0.52711   1
  -2   1   5 2.52727 0.51534   1
   1  -1  -5 103.226 1.94007   2
   1  -1  -5 101.381 2.08553   1
   1  -1  -5 101.603 2.11344   1
   1  -1  -5 102.774 1.87424   5
  -1   1   5 105.646 2.11799   1
  -1   1   5 105.674 2.14186   1
  -1   1   5 100.897 1.92380   2
   0  -1  -5 452.162 6.99694   1
   0  -1  -5 440.695 6.88605   2
   0  -1  -5 449.346 6.87205   5
   0  -1  -5 456.796 7.03178   1
   0   1   5 454.457 7.01891   1
   0   1   5 430.955 6.85681   2
   0   1   5 443.348 6.88293   5
   0   1   5 452.441 7.01606   1
  -1  -1  -5 62.7187 1.16069   2
  -1  -1  -5 62.7664 1.31643   4
  -1  -1  -5 62.3777 1.23769   5
  -1  -1  -5 61.7379 1.38347   1
  -1  -1  -5 61.7131 1.41831   1
   1   1   5 61.2379 1.40455   1
   1   1   5 63.4410 1.43103   1
   1   1   5 64.8539 1.25352   5
  -2  -1  -5 265.017 4.34624   4
  -2  -1  -5 271.191 3.99659   2
  -2  -1  -5 262.093 4.36754   1
  -2  -1  -5 266.043 4.45927   1
   2   1   5 260.671 4.29858   4
   2   1   5 271.446 4.32450   5
   2   1   5 262.388 4.47918   1
  -3  -1  -5 1140.76 17.8023   1
  -3  -1  -5 1133.26 17.1631   4
  -3  -1  -5 1159.96 17.8531   1
   3   1   5 1110.14 17.7809   1
   3   1   5 1149.30 17.2028   5
   3   1   5 1147.28 17.8346   1
  -4  -1  -5 402.056 7.19604   1
  -4  -1  -5 409.229 6.49840   4
  -4  -1  -5 401.281 7.26184   1
   4   1   5 397.295 7.28373   1
   4   1   5 395.387 7.18941   1
  -5  -1  -5 77.1741 2.58544   1
  -5  -1  -5 77.9821 1.82004   4
  -5  -1  -5 73.5963 2.69204   1
   5   1   5 77.7020 1.28864   2
   5   1   5 74.4581 2.54417   1
   5   1   5 82.3099 2.66643   1
  -6  -1  -5 48.8358 2.29669   1
  -6  -1  -5 44.6396 1.44554   4
   6   1   5 46.3819 1.01263   2
   6   1   5 51.1069 2.29199   1
   6   1   5 46.8730 2.30109   1
  -7  -1  -5 0.51844 0.61570   4
  -7  -1  -5 1.64626 1.09454   1
   7   1   5 1.37332 1.10019   1
   7   1   5 1.67424 0.34246   2
   7   1   5 0.70534 1.06942   1
  -8  -1  -5 76.1096 3.34455   1
  -8  -1  -5 82.8641 2.28075   4
   8   1   5 86.7221 3.60155   1
  -9  -1  -5 12.2111 1.94122   1
  -9  -1  -5 8.99125 1.01370   4
   9   1   5 9.78814 1.86508   1
 -10  -1  -5 1.06805 0.74380   4
   8  -2  -5 22.2720 1.42485   2
   7  -2  -5 4.43434 0.82452   2
   6  -2  -5 36.7370 1.55979   2
  -6   2   5 37.1111 2.25525   1
   5  -2  -5 307.101 6.69443   1
   5  -2  -5 325.803 5.67896   2
  -5   2   5 314.003 6.70006   1
   4  -2  -5 2.48006 0.66123   2
   4  -2  -5 3.52496 0.83658   1
  -4   2   5 5.03396 0.89514   1
  -4   2   5 2.52287 0.81205   1
   3  -2  -5 111.961 2.38521   2
   3  -2  -5 109.342 2.93571   1
  -3   2   5 112.775 2.92239   1
  -3   2   5 113.242 2.96984   1
   2  -2  -5 148.512 3.20475   1
   2  -2  -5 148.909 2.79471   2
   2  -2  -5 148.784 3.25267   1
  -2   2   5 151.491 3.25778   1
  -2   2   5 143.544 3.24329   1
   1  -2  -5 1245.83 18.4604   5
   1  -2  -5 1234.47 19.0604   1
   1  -2  -5 1228.98 18.6183   2
   1  -2  -5 1254.25 19.1502   1
   1  -2  -5 1250.77 18.3389   3
  -1   2   5 1262.57 19.1140   1
  -1   2   5 1196.20 19.1658   1
   0  -2  -5 126.840 2.04825   3
   0  -2  -5 127.639 2.12756   5
   0  -2  -5 128.153 2.63591   1
   0  -2  -5 122.877 2.55745   1
   0  -2  -5 132.272 2.27856   2
   0   2   5 126.910 2.22727   2
   0   2   5 130.130 2.63154   1
  -1  -2  -5 1054.63 16.2406   1
  -1  -2  -5 1072.84 15.8183   4
  -1  -2  -5 1051.98 15.6087   5
  -1  -2  -5 1064.16 15.7753   3
  -1  -2  -5 1043.73 16.1861   1
  -1  -2  -5 1048.20 15.6259   2
   1   2   5 1027.11 15.6168   2
   1   2   5 1053.37 16.2228   1
   1   2   5 1035.91 15.6064   5
  -2  -2  -5 713.306 10.9564   4
  -2  -2  -5 718.631 11.4767   1
  -2  -2  -5 702.241 10.9610   3
  -2  -2  -5 720.527 11.5186   1
  -2  -2  -5 730.193 10.6307   2
   2   2   5 722.084 11.5257   1
   2   2   5 710.290 10.6209   2
   2   2   5 724.747 11.5268   1
   2   2   5 709.897 10.8156   5
  -3  -2  -5 630.004 9.57954   4
  -3  -2  -5 627.401 10.2870   1
  -3  -2  -5 615.720 10.3016   1
   3   2   5 604.102 10.2701   1
   3   2   5 616.690 9.49875   5
   3   2   5 608.018 10.3171   1
  -4  -2  -5 52.3111 1.95534   1
  -4  -2  -5 57.1447 2.03135   1
  -4  -2  -5 54.7025 1.40617   4
   4   2   5 57.3127 2.07998   1
   4   2   5 55.2515 1.99056   1
  -5  -2  -5 9.30894 0.66502   4
  -5  -2  -5 7.32500 1.02511   1
   5   2   5 9.71098 1.15510   1
   5   2   5 7.40495 1.00174   1
  -6  -2  -5 -0.1855 0.53232   4
  -6  -2  -5 0.35500 0.75257   1
   6   2   5 -0.5858 0.82934   1
   6   2   5 1.74558 0.88379   1
  -7  -2  -5 18.9962 1.09491   4
  -7  -2  -5 18.6836 1.76818   1
   7   2   5 18.4651 1.69960   1
   7   2   5 18.7951 0.60877   2
   7   2   5 19.3673 1.82416   1
  -8  -2  -5 77.2635 2.20354   4
  -8  -2  -5 78.6451 3.39399   1
   8   2   5 79.1969 3.49676   1
  -9  -2  -5 42.1356 2.83869   1
  -9  -2  -5 42.9590 1.71594   4
   9   2   5 46.4552 3.02888   1
 -10  -2  -5 25.0269 1.47613   4
   7  -3  -5 0.98575 0.76155   2
   6  -3  -5 14.2565 1.16283   2
  -6   3   5 15.9904 1.73761   1
   5  -3  -5 0.52902 0.93203   1
   5  -3  -5 0.24343 0.68396   2
  -5   3   5 0.14121 0.78317   1
   4  -3  -5 45.3822 1.52663   2
   4  -3  -5 44.0484 2.11947   1
  -4   3   5 41.3550 2.06352   1
  -4   3   5 44.1513 2.09261   1
   3  -3  -5 4.69577 0.65288   2
   3  -3  -5 6.21446 0.94460   1
  -3   3   5 4.39900 0.85600   1
  -3   3   5 6.79755 0.92790   1
   2  -3  -5 125.553 3.14226   1
   2  -3  -5 125.637 3.10896   1
   2  -3  -5 124.868 2.54560   2
  -2   3   5 127.363 3.12689   1
  -2   3   5 126.497 3.15003   1
   1  -3  -5 97.3624 1.71315   3
   1  -3  -5 102.495 2.51305   1
   1  -3  -5 96.0240 1.58159   5
   1  -3  -5 101.275 2.58390   1
   1  -3  -5 97.0005 2.02337   2
  -1   3   5 100.044 2.53885   1
  -1   3   5 96.0497 2.51926   1
   0  -3  -5 -0.0434 0.38887   1
   0  -3  -5 -0.4236 0.38650   2
   0  -3  -5 -0.5063 0.37586   1
   0  -3  -5 0.33807 0.12502   5
   0  -3  -5 0.11390 0.25267   3
   0   3   5 -0.2610 0.45970   1
   0   3   5 0.26997 0.40125   1
   0   3   5 0.02739 0.27002   2
  -1  -3  -5 239.875 4.54602   1
  -1  -3  -5 244.997 3.94058   2
  -1  -3  -5 242.029 3.83596   4
  -1  -3  -5 243.271 4.65699   1
  -1  -3  -5 244.005 4.02157   3
   1   3   5 245.077 3.90849   2
   1   3   5 241.509 4.60290   1
   1   3   5 241.579 3.68335   5
   1   3   5 235.369 4.55663   1
  -2  -3  -5 902.659 13.9047   4
  -2  -3  -5 921.847 14.6540   1
  -2  -3  -5 930.694 14.7273   1
  -2  -3  -5 942.538 13.6502   2
   2   3   5 901.146 13.6440   5
   2   3   5 902.095 14.6990   1
   2   3   5 901.477 13.6324   2
   2   3   5 923.659 14.7050   1
  -3  -3  -5 247.491 3.91391   4
  -3  -3  -5 244.909 4.90522   1
  -3  -3  -5 245.020 4.95769   1
   3   3   5 243.930 3.73852   2
   3   3   5 246.386 4.98615   1
   3   3   5 241.100 4.92839   1
  -4  -3  -5 6.38790 0.90056   1
  -4  -3  -5 5.96352 0.57789   4
  -4  -3  -5 5.04605 0.90141   1
   4   3   5 5.84465 0.96457   1
   4   3   5 5.33622 0.83421   1
  -5  -3  -5 52.7485 1.46877   4
  -5  -3  -5 54.2462 2.27435   1
   5   3   5 55.0313 2.27822   1
   5   3   5 52.2393 2.25366   1
  -6  -3  -5 180.702 3.52158   4
  -6  -3  -5 185.381 4.80788   1
   6   3   5 185.851 4.85821   1
   6   3   5 175.683 4.66289   1
  -7  -3  -5 136.152 4.28828   1
  -7  -3  -5 139.014 3.00396   4
   7   3   5 136.646 4.34226   1
  -8  -3  -5 205.625 4.11273   4
  -8  -3  -5 198.283 5.68942   1
   8   3   5 200.707 5.75130   1
  -9  -3  -5 42.6179 2.88834   1
  -9  -3  -5 44.7449 1.77460   4
   9   3   5 44.4707 3.32670   1
   7  -4  -5 31.3229 1.64747   2
   6  -4  -5 106.996 2.86706   2
   5  -4  -5 0.85618 0.69534   2
  -5   4   5 -0.4271 0.94329   1
   4  -4  -5 0.40735 0.58963   2
   4  -4  -5 0.23829 0.82534   1
  -4   4   5 2.03321 0.97294   1
   3  -4  -5 6.80741 1.04333   1
   3  -4  -5 6.35009 0.78565   2
  -3   4   5 6.14599 0.98673   1
  -3   4   5 8.41223 1.14958   1
   2  -4  -5 83.8334 2.02471   2
   2  -4  -5 82.8245 2.70752   1
   2  -4  -5 86.3354 1.49994   3
  -2   4   5 84.8812 2.70638   1
  -2   4   5 85.9289 2.71016   1
   1  -4  -5 639.992 9.83386   3
   1  -4  -5 648.559 10.1674   2
   1  -4  -5 642.068 10.3795   1
   1  -4  -5 655.803 9.68126   5
  -1   4   5 646.846 10.4570   1
  -1   4   5 647.029 10.4280   1
  -1   4   5 648.178 9.85486   3
   0  -4  -5 92.7437 2.51016   1
   0  -4  -5 86.6349 1.71982   3
   0  -4  -5 85.7595 1.84938   2
   0  -4  -5 84.3362 2.54358   1
   0   4   5 86.4456 2.51323   1
   0   4   5 88.8307 1.75668   3
   0   4   5 86.4894 2.52798   1
  -1  -4  -5 17.4417 1.18676   1
  -1  -4  -5 18.2964 0.75009   4
  -1  -4  -5 17.6111 0.68446   2
  -1  -4  -5 18.2845 1.12950   1
   1   4   5 17.5851 0.64677   2
   1   4   5 16.8833 0.73084   3
   1   4   5 16.2139 1.15334   1
   1   4   5 18.7532 1.17103   1
  -2  -4  -5 121.327 2.15548   2
  -2  -4  -5 119.307 3.16074   1
  -2  -4  -5 120.627 3.05985   1
  -2  -4  -5 124.599 2.34999   4
   2   4   5 120.180 3.13388   1
   2   4   5 125.728 2.43704   3
   2   4   5 123.163 3.13144   1
   2   4   5 121.048 2.13433   2
  -3  -4  -5 99.8208 2.86251   1
  -3  -4  -5 105.204 2.96419   1
  -3  -4  -5 100.618 2.06929   4
   3   4   5 96.9559 1.74584   2
   3   4   5 99.4828 2.88400   1
   3   4   5 100.533 2.94583   1
   3   4   5 102.404 2.19507   3
  -4  -4  -5 36.1885 1.13952   4
  -4  -4  -5 35.8663 1.83973   1
   4   4   5 36.4637 0.77052   2
   4   4   5 36.1972 1.25362   3
   4   4   5 36.6124 1.84242   1
   4   4   5 36.4659 1.85215   1
  -5  -4  -5 65.5490 2.61778   1
  -5  -4  -5 64.5465 1.67824   4
   5   4   5 62.9863 1.15083   2
   5   4   5 65.2713 1.15700   2
   5   4   5 65.3395 2.63379   1
   5   4   5 63.0129 2.56335   1
  -6  -4  -5 39.9544 2.29890   1
  -6  -4  -5 42.3364 1.40361   4
   6   4   5 37.6570 2.16210   1
   6   4   5 42.1769 0.84212   2
   6   4   5 44.1302 2.40237   1
  -7  -4  -5 12.8774 1.60928   1
  -7  -4  -5 13.3869 0.92626   4
   7   4   5 12.4751 1.60253   1
  -8  -4  -5 0.42375 0.67537   4
  -8  -4  -5 -0.3615 1.08897   1
   8   4   5 0.48841 1.13012   1
  -9  -4  -5 10.7842 1.05837   4
  -9  -4  -5 11.2152 1.89889   1
   6  -5  -5 1.01604 0.93005   2
   5  -5  -5 36.0823 1.64692   2
  -5   5   5 32.8458 2.56695   1
   4  -5  -5 19.8480 1.26102   2
   4  -5  -5 18.9785 2.03566   1
  -4   5   5 20.5644 1.82196   1
   3  -5  -5 -0.2497 0.60162   2
   3  -5  -5 -0.3849 0.89342   1
  -3   5   5 0.80184 0.86482   1
   2  -5  -5 545.247 9.96099   1
   2  -5  -5 502.748 8.22344   3
   2  -5  -5 540.047 8.79072   2
  -2   5   5 531.335 8.20086   3
  -2   5   5 533.994 9.86418   1
  -2   5   5 544.682 9.86887   1
   1  -5  -5 1.30986 0.69722   1
   1  -5  -5 1.88111 0.33478   3
   1  -5  -5 0.81926 0.55750   2
  -1   5   5 0.66301 0.33182   3
  -1   5   5 -0.1103 0.56318   1
  -1   5   5 1.07837 0.69011   1
   0  -5  -5 57.5820 2.27974   1
   0  -5  -5 59.8161 1.53713   2
   0   5   5 57.2264 1.40654   3
   0   5   5 60.6788 2.27819   1
   0   5   5 56.5623 2.22865   1
  -1  -5  -5 86.7915 1.87117   2
  -1  -5  -5 85.6148 2.78104   1
  -1  -5  -5 86.7991 1.88720   4
   1   5   5 89.2390 2.80283   1
   1   5   5 90.1494 1.94265   3
   1   5   5 90.4660 2.80213   1
  -2  -5  -5 37.0702 1.10109   4
  -2  -5  -5 37.2483 1.84233   1
  -2  -5  -5 33.2987 0.97322   2
   2   5   5 34.3988 1.78612   1
   2   5   5 34.8798 1.17856   3
   2   5   5 37.1732 1.80715   1
  -3  -5  -5 14.3980 1.32693   1
  -3  -5  -5 15.3941 0.76368   4
   3   5   5 15.0875 1.32491   1
   3   5   5 15.3462 0.88134   3
   3   5   5 15.0596 1.29977   1
   3   5   5 14.0791 0.58247   2
  -4  -5  -5 9.45820 0.66366   4
  -4  -5  -5 9.25331 1.17098   1
   4   5   5 9.78572 1.24843   1
   4   5   5 9.69293 1.19598   1
   4   5   5 7.84565 0.43817   2
   4   5   5 8.92538 0.79456   3
  -5  -5  -5 2.34041 0.98975   1
  -5  -5  -5 2.34366 0.53226   4
   5   5   5 3.50612 1.10409   1
   5   5   5 0.84524 0.98834   1
   5   5   5 2.32010 0.61320   3
  -6  -5  -5 103.206 2.40602   4
  -6  -5  -5 101.740 3.69018   1
   6   5   5 109.579 3.82202   1
  -7  -5  -5 25.9472 2.16106   1
  -7  -5  -5 26.5291 1.24162   4
   7   5   5 26.4343 2.23799   1
  -8  -5  -5 0.48468 0.60336   4
  -8  -5  -5 -0.1316 1.11669   1
   8   5   5 0.09103 1.11706   1
  -9  -5  -5 1.35330 0.78285   4
   5  -6  -5 1.31550 0.86590   2
   4  -6  -5 89.3464 2.54500   2
  -4   6   5 81.0286 3.47574   1
   3  -6  -5 76.7094 3.27173   1
   3  -6  -5 82.5751 2.32947   2
  -3   6   5 86.7956 3.32674   1
   2  -6  -5 872.227 13.5676   2
   2  -6  -5 827.612 14.7637   1
  -2   6   5 846.898 14.4624   1
  -2   6   5 850.962 12.9628   3
   1  -6  -5 165.662 4.54265   1
   1  -6  -5 168.844 3.40340   2
  -1   6   5 163.350 4.44613   1
  -1   6   5 172.137 3.07669   3
  -1   6   5 166.103 4.50314   1
   0  -6  -5 90.8075 2.14274   2
   0  -6  -5 89.1693 3.13425   1
   0   6   5 90.6273 2.00853   3
   0   6   5 90.8237 3.10480   1
   0   6   5 86.7003 3.03486   1
  -1  -6  -5 164.049 3.13703   2
  -1  -6  -5 164.613 4.39361   1
  -1  -6  -5 170.524 3.13573   4
   1   6   5 161.860 4.32856   1
   1   6   5 167.636 3.21033   3
   1   6   5 164.163 4.28160   1
  -2  -6  -5 4.01045 0.52173   4
  -2  -6  -5 4.29470 0.49083   2
  -2  -6  -5 5.44951 1.03399   1
   2   6   5 4.39934 0.94041   1
   2   6   5 5.17823 0.68437   3
   2   6   5 5.65453 1.02876   1
  -3  -6  -5 10.5331 0.69267   4
  -3  -6  -5 11.1975 1.35521   1
   3   6   5 11.0042 1.36197   1
   3   6   5 11.3143 1.36765   1
   3   6   5 11.0485 0.82623   3
  -4  -6  -5 0.15376 0.88635   1
  -4  -6  -5 0.59660 0.41043   4
   4   6   5 -0.2371 0.77309   1
   4   6   5 -0.3170 0.92521   1
   4   6   5 0.07648 0.55682   3
  -5  -6  -5 0.42469 0.96515   1
  -5  -6  -5 0.36415 0.43317   4
   5   6   5 -0.0042 0.88094   1
   5   6   5 0.38022 0.66303   3
  -6  -6  -5 19.9053 1.05062   4
  -6  -6  -5 21.3476 2.00023   1
   6   6   5 22.0177 1.24998   3
   6   6   5 21.2920 2.03927   1
  -7  -6  -5 27.3658 1.28299   4
  -7  -6  -5 30.0268 2.37468   1
   7   6   5 29.1543 2.41603   1
  -8  -6  -5 12.1538 1.00401   4
  -8  -6  -5 11.5105 1.98995   1
   4  -7  -5 12.6200 1.22738   2
   3  -7  -5 51.1487 1.93083   2
   2  -7  -5 -0.7999 0.65780   2
  -2   7   5 0.63904 1.07628   1
   1  -7  -5 38.5691 1.51751   2
   1  -7  -5 36.5165 2.29522   1
  -1   7   5 39.0641 1.23578   3
  -1   7   5 37.8169 2.26621   1
   0  -7  -5 15.2344 0.97900   2
   0  -7  -5 14.6645 1.62810   1
   0  -7  -5 15.3340 0.81857   4
   0   7   5 13.7416 0.84763   3
   0   7   5 13.5037 1.58319   1
  -1  -7  -5 229.610 4.26090   2
  -1  -7  -5 231.791 4.15963   4
  -1  -7  -5 228.880 5.75147   1
   1   7   5 229.605 4.28735   3
   1   7   5 249.623 5.87196   1
   1   7   5 225.115 5.64784   1
  -2  -7  -5 -0.1837 0.33871   4
  -2  -7  -5 0.78053 0.45919   2
  -2  -7  -5 -0.0569 0.94847   1
   2   7   5 -0.0812 0.92066   1
   2   7   5 0.11444 0.93566   1
   2   7   5 -0.0957 0.58191   3
  -3  -7  -5 9.81922 0.69924   4
  -3  -7  -5 13.1130 1.51977   1
   3   7   5 9.37159 1.37061   1
   3   7   5 9.16083 0.88330   3
  -4  -7  -5 11.7249 1.49959   1
  -4  -7  -5 10.8023 0.76435   4
   4   7   5 11.0507 1.48278   1
   4   7   5 11.5095 0.99567   3
  -5  -7  -5 51.8218 1.56964   4
  -5  -7  -5 50.5165 2.82530   1
   5   7   5 55.3896 1.88104   3
   5   7   5 49.1969 2.81806   1
  -6  -7  -5 3.69072 1.31435   1
  -6  -7  -5 2.88535 0.59961   4
   6   7   5 2.85955 0.73483   3
   6   7   5 2.50123 1.23342   1
  -7  -7  -5 1.92782 0.61583   4
  -7  -7  -5 3.32777 1.40181   1
   7   7   5 2.42988 0.75820   3
  -8  -7  -5 49.4199 1.76769   4
   3  -8  -5 91.5971 2.70513   2
   2  -8  -5 9.56124 0.98164   2
   1  -8  -5 5.66035 0.84046   2
  -1   8   5 5.83038 0.66508   3
  -1   8   5 7.11709 1.55523   1
   0  -8  -5 4.20729 0.56793   4
   0  -8  -5 5.02332 1.42549   1
   0  -8  -5 5.00902 0.72640   2
   0   8   5 3.89568 1.22936   1
   0   8   5 3.46706 0.65509   3
  -1  -8  -5 17.4501 1.02849   2
  -1  -8  -5 21.9787 2.02097   1
  -1  -8  -5 21.9810 0.97680   4
   1   8   5 19.9864 1.09507   3
   1   8   5 22.9514 2.05879   1
  -2  -8  -5 0.39128 0.40321   4
  -2  -8  -5 0.91708 1.18498   1
   2   8   5 1.61430 1.17255   1
   2   8   5 0.27564 0.60720   3
  -3  -8  -5 28.1512 2.20070   1
  -3  -8  -5 24.4455 1.05108   4
   3   8   5 26.0253 2.12829   1
   3   8   5 25.7266 1.30669   3
  -4  -8  -5 77.5267 3.49782   1
  -4  -8  -5 84.9315 2.04538   4
   4   8   5 79.6288 2.34258   3
   4   8   5 83.9679 3.63529   1
  -5  -8  -5 12.9706 1.81189   1
  -5  -8  -5 12.1951 0.84616   4
   5   8   5 10.8536 1.04100   3
   5   8   5 12.5907 1.84945   1
  -6  -8  -5 29.2122 2.55973   1
  -6  -8  -5 25.7139 1.20620   4
   6   8   5 27.7149 1.51010   3
  -7  -8  -5 -0.2047 0.54337   4
   7   8   5 0.60843 0.76369   3
   1  -9  -5 36.3127 1.36459   4
   1  -9  -5 38.5818 1.66820   2
   0  -9  -5 13.5314 0.86746   4
   0  -9  -5 11.2137 1.01842   2
   0   9   5 13.0342 0.96951   3
  -1  -9  -5 3.60750 0.57763   4
  -1  -9  -5 3.35076 0.69610   2
   1   9   5 3.26309 0.75688   3
  -2  -9  -5 0.44898 0.45425   4
   2   9   5 -0.1866 0.64289   3
  -3  -9  -5 18.7006 0.97751   4
   3   9   5 19.0732 1.26855   3
   4   9   5 53.9442 2.00406   3
   5   9   5 17.0134 1.31315   3
   3   9  -6 7.36499 1.02461   3
   2   9  -6 6.85875 1.02164   3
   1   9  -6 7.04277 1.05064   3
   0   9  -6 8.89666 1.02773   3
  -1   9  -6 -0.4676 0.71436   3
   1  -9   6 0.39420 0.58756   5
  -2   9  -6 1.66860 0.73958   3
   2  -9   6 1.48474 0.63685   5
   5   8  -6 91.2464 2.70025   3
   4   8  -6 149.880 3.60101   3
   3   8  -6 10.6810 1.09520   3
   2   8  -6 41.4705 1.72028   3
   1   8  -6 39.5120 1.70467   3
   0   8  -6 0.58336 0.60683   3
   0  -8   6 1.39145 0.59256   5
  -1   8  -6 93.9844 2.59183   3
   1  -8   6 94.2981 2.43767   5
  -2   8  -6 18.4807 1.23518   3
   2  -8   6 18.7514 1.11294   5
  -3   8  -6 8.10288 0.96327   3
   3  -8   6 8.86257 0.89677   5
  -4   8  -6 10.9784 1.08281   3
   4  -8   6 10.0392 1.00422   5
   6   7  -6 19.8879 1.27694   3
   5   7  -6 87.5694 2.50734   3
   4   7  -6 13.5161 1.08870   3
   3   7  -6 2.88405 0.74053   3
  -3  -7   6 0.10666 0.95649   1
   2   7  -6 25.6825 1.34040   3
  -2  -7   6 25.0033 1.86012   1
   1   7  -6 37.0950 1.53485   3
  -1  -7   6 37.6434 2.18629   1
   0   7  -6 4.41277 0.75528   3
   0  -7   6 5.36161 1.19030   1
   0  -7   6 4.17697 0.64290   5
  -1   7  -6 1.65876 0.63198   3
   1  -7   6 1.30840 0.54549   5
   1  -7   6 1.38344 0.90547   1
  -2   7  -6 2.89088 0.66029   3
   2  -7   6 2.17067 0.56752   5
   2  -7   6 3.58336 1.09890   1
  -3   7  -6 57.5336 1.88206   3
   3  -7   6 56.7312 1.84588   5
   3  -7   6 55.0135 2.87244   1
  -4   7  -6 66.1763 2.04372   3
   4  -7   6 65.7922 2.06487   5
  -5   7  -6 -0.3534 0.58772   3
   5  -7   6 1.02100 0.66554   5
   7   6  -6 36.9648 1.58347   3
   7   6  -6 38.8319 1.69343   2
   6   6  -6 39.2429 1.63179   2
   6   6  -6 38.8813 1.57069   3
   5   6  -6 1.87768 0.67822   3
  -5  -6   6 0.77208 1.04972   1
   4   6  -6 -0.1396 0.60477   3
  -4  -6   6 0.13708 0.78570   1
   3   6  -6 0.67607 0.57408   3
  -3  -6   6 0.27897 0.77593   1
   2   6  -6 35.2850 1.97669   1
   2   6  -6 34.4500 1.39624   3
  -2  -6   6 36.2889 1.92936   1
   1   6  -6 34.4409 1.35645   3
   1   6  -6 28.0351 1.67401   1
  -1  -6   6 31.2949 1.81892   1
   0   6  -6 63.7264 1.86189   3
   0   6  -6 65.3827 2.45343   1
   0  -6   6 65.9126 2.54055   1
   0  -6   6 63.2433 1.79637   5
  -1   6  -6 19.0832 1.45010   1
  -1   6  -6 16.0674 0.97858   3
   1  -6   6 18.1885 0.97804   5
   1  -6   6 17.1155 1.49996   1
  -2   6  -6 4.01446 0.94784   1
  -2   6  -6 1.10016 0.61665   3
   2  -6   6 2.14242 0.88902   1
   2  -6   6 0.27043 0.43940   5
  -3   6  -6 13.8743 0.92161   3
  -3   6  -6 12.3549 1.49143   1
   3  -6   6 15.4064 1.62432   1
   3  -6   6 15.8703 0.99515   5
  -4   6  -6 3.88596 0.70909   3
   4  -6   6 4.68010 0.76547   5
   4  -6   6 4.80869 1.33471   1
  -5   6  -6 0.44955 0.54208   3
   5  -6   6 1.68633 0.68645   2
   5  -6   6 0.33890 0.62839   5
  -6   6  -6 108.614 2.68645   3
   6  -6   6 113.531 2.83247   2
   6  -6   6 106.022 2.92419   5
   7   5  -6 19.3458 1.10387   3
   7   5  -6 20.8793 1.26072   2
   6   5  -6 113.655 2.69970   3
   6   5  -6 119.761 2.87966   2
   5   5  -6 7.65007 0.79973   3
  -5  -5   6 7.93973 1.28188   1
   4   5  -6 31.1605 1.27656   3
  -4  -5   6 30.7516 1.83962   1
   3   5  -6 12.1154 0.88777   3
   3   5  -6 12.8558 1.20341   1
  -3  -5   6 13.1213 1.28081   1
  -3  -5   6 13.9759 1.29103   1
   2   5  -6 82.7000 2.59637   1
   2   5  -6 82.0108 2.06552   3
  -2  -5   6 81.0707 2.51029   1
  -2  -5   6 88.2646 2.69894   1
   1   5  -6 0.30850 0.56329   1
   1   5  -6 0.22778 0.51356   3
  -1  -5   6 0.84614 0.67696   1
  -1  -5   6 0.12335 0.48990   1
   0   5  -6 44.9572 1.85295   1
   0   5  -6 44.4362 1.44881   3
   0  -5   6 45.2528 1.42290   5
   0  -5   6 45.0440 1.81916   1
   0  -5   6 47.4959 1.93698   1
  -1   5  -6 23.9829 1.09132   3
  -1   5  -6 24.2202 1.43329   1
   1  -5   6 21.5477 1.35787   1
   1  -5   6 25.5842 1.06283   5
   1  -5   6 22.0832 1.46951   1
  -2   5  -6 742.790 11.9287   3
  -2   5  -6 761.443 12.1991   1
   2  -5   6 758.250 11.9977   5
   2  -5   6 771.105 12.0728   1
   2  -5   6 737.328 11.2306   4
   2  -5   6 739.217 12.0550   1
  -3   5  -6 47.8866 1.08879   4
  -3   5  -6 46.3649 2.15591   1
  -3   5  -6 48.7767 1.53559   3
   3  -5   6 48.8393 2.28629   1
   3  -5   6 47.9172 1.56234   5
   3  -5   6 42.6338 2.07884   1
  -4   5  -6 174.002 3.15048   4
  -4   5  -6 180.701 4.69597   1
  -4   5  -6 179.393 3.57891   3
   4  -5   6 182.509 4.84636   1
   4  -5   6 177.081 3.68814   5
   4  -5   6 178.806 3.57478   2
  -5   5  -6 11.3295 0.69863   4
  -5   5  -6 10.1919 0.84776   3
   5  -5   6 10.7229 0.85371   2
   5  -5   6 10.2043 0.91406   5
   5  -5   6 10.4146 1.50520   1
  -6   5  -6 15.5190 1.00198   3
  -6   5  -6 17.8365 0.92349   4
   6  -5   6 12.6899 0.95887   2
   6  -5   6 17.3811 1.18409   5
   6  -5   6 20.9597 2.04142   1
  -7   5  -6 9.38609 0.87789   3
  -7   5  -6 9.25973 0.83570   4
   7  -5   6 8.20351 0.90992   2
   7  -5   6 8.53105 1.02326   5
   8   4  -6 13.5793 1.14063   2
   7   4  -6 8.55215 0.95801   2
   6   4  -6 102.646 2.33910   3
   6   4  -6 101.362 2.58559   2
  -6  -4   6 96.5001 3.48471   1
   5   4  -6 14.1548 0.97124   2
   5   4  -6 14.3704 0.86447   3
  -5  -4   6 11.8339 1.36551   1
   4   4  -6 299.420 6.10245   1
   4   4  -6 299.987 5.15210   3
  -4  -4   6 289.116 6.45663   1
  -4  -4   6 301.475 6.12225   1
   3   4  -6 0.95367 0.66861   1
   3   4  -6 0.29373 0.45162   3
   3   4  -6 0.11885 0.23423   4
  -3  -4   6 0.57146 0.54632   1
  -3  -4   6 0.70285 0.63800   1
   2   4  -6 2.65695 0.63760   1
   2   4  -6 2.48723 0.48659   3
   2   4  -6 3.03882 0.23724   4
  -2  -4   6 3.93919 0.67633   1
  -2  -4   6 3.54105 0.72403   1
   1   4  -6 2.38982 0.50605   3
   1   4  -6 1.84059 0.54240   1
  -1  -4   6 2.71463 0.46034   5
  -1  -4   6 2.75677 0.62256   1
   0   4  -6 9.30378 0.83645   1
   0   4  -6 9.58687 0.82978   1
   0   4  -6 9.49858 0.68066   3
   0  -4   6 8.34130 0.63659   5
   0  -4   6 8.52623 0.83603   1
   0  -4   6 10.1508 0.84334   1
  -1   4  -6 14.1824 0.77365   3
  -1   4  -6 13.1802 0.99529   1
   1  -4   6 13.1857 1.02428   1
   1  -4   6 14.8237 0.81807   5
   1  -4   6 12.9601 0.96821   1
  -2   4  -6 680.778 10.2752   4
  -2   4  -6 688.132 10.8273   3
  -2   4  -6 694.071 11.6212   1
   2  -4   6 698.496 11.4529   1
   2  -4   6 689.870 10.8963   5
   2  -4   6 659.294 10.2589   4
   2  -4   6 670.080 11.3534   1
  -3   4  -6 90.3935 2.13306   3
  -3   4  -6 88.1677 2.76126   1
  -3   4  -6 91.4198 1.76926   4
   3  -4   6 93.6014 2.22168   5
   3  -4   6 89.1141 2.77261   1
   3  -4   6 92.4187 1.75470   4
   3  -4   6 96.5205 2.94081   1
  -4   4  -6 119.260 2.57671   3
  -4   4  -6 119.749 3.47644   1
  -4   4  -6 115.759 2.27066   4
   4  -4   6 116.183 3.43162   1
   4  -4   6 116.188 3.54034   1
   4  -4   6 116.197 2.69537   5
   4  -4   6 117.091 2.50700   2
  -5   4  -6 657.052 10.8322   3
  -5   4  -6 676.301 12.2503   1
  -5   4  -6 677.801 10.6393   4
   5  -4   6 681.878 10.8225   2
   5  -4   6 670.295 11.0988   5
   5  -4   6 697.585 12.4292   1
  -6   4  -6 13.9342 0.86072   4
  -6   4  -6 13.9602 1.62760   1
  -6   4  -6 13.0264 0.89925   3
   6  -4   6 13.6306 0.89974   2
   6  -4   6 13.1558 1.04481   5
   6  -4   6 15.5303 1.76328   1
  -7   4  -6 8.37029 0.80011   3
  -7   4  -6 8.83837 0.81726   4
   7  -4   6 9.12039 0.82941   2
   7  -4   6 7.89790 0.99422   5
  -8   4  -6 2.95784 0.71948   4
  -8   4  -6 3.44049 0.68304   3
   8  -4   6 1.27955 0.76232   5
   8  -4   6 2.33249 0.66159   2
   8   3  -6 0.86830 0.68356   2
   7   3  -6 76.9053 2.27048   2
   6   3  -6 31.3149 1.10277   3
   6   3  -6 30.0800 1.33334   2
  -6  -3   6 31.8442 2.00099   1
   5   3  -6 27.3115 1.21659   2
   5   3  -6 29.8812 1.05953   3
  -5  -3   6 31.3589 1.80123   1
   4   3  -6 5.87041 0.55924   3
   4   3  -6 5.96113 0.65255   2
   4   3  -6 6.77866 0.93179   1
  -4  -3   6 6.83860 0.95981   1
  -4  -3   6 7.44679 0.93934   1
   3   3  -6 19.7537 1.17773   1
   3   3  -6 18.4922 0.64747   4
   3   3  -6 20.1737 0.84755   3
  -3  -3   6 21.2677 1.21703   1
   2   3  -6 13.1954 0.46760   4
   2   3  -6 13.0882 0.87051   1
   2   3  -6 14.7130 0.91981   1
   2   3  -6 14.0290 0.70801   3
  -2  -3   6 13.5889 0.88412   1
  -2  -3   6 12.7624 0.89829   1
   1   3  -6 136.766 2.83786   1
   1   3  -6 139.293 2.25328   4
   1   3  -6 138.476 2.88810   1
   1   3  -6 138.023 2.65139   3
  -1  -3   6 136.805 2.75481   5
  -1  -3   6 144.980 2.94878   1
  -1  -3   6 137.754 2.83622   1
   0   3  -6 1.70872 0.18215   4
   0   3  -6 2.73334 0.46266   3
   0   3  -6 2.38186 0.44459   1
   0   3  -6 1.98302 0.43726   1
   0  -3   6 1.70131 0.44262   1
   0  -3   6 2.12035 0.45252   5
   0  -3   6 2.70242 0.46631   1
  -1   3  -6 389.545 6.55443   1
  -1   3  -6 403.703 6.61320   3
  -1   3  -6 411.219 6.67098   1
  -1   3  -6 409.359 6.15001   4
   1  -3   6 406.016 6.54236   1
   1  -3   6 408.242 6.68735   5
  -2   3  -6 375.956 5.82615   4
  -2   3  -6 361.201 6.18707   3
  -2   3  -6 371.659 6.62761   1
  -2   3  -6 378.016 6.66036   1
   2  -3   6 379.806 6.31185   5
   2  -3   6 377.772 5.81598   4
   2  -3   6 371.698 6.61201   1
   2  -3   6 391.380 6.76342   1
  -3   3  -6 0.29960 0.50568   1
  -3   3  -6 0.16248 0.29355   4
  -3   3  -6 0.18898 0.40124   3
   3  -3   6 0.08012 0.50355   1
   3  -3   6 -0.1189 0.55878   1
   3  -3   6 0.31455 0.24852   4
   3  -3   6 0.18801 0.37570   5
  -4   3  -6 38.9698 1.82082   1
  -4   3  -6 38.2055 1.10948   4
  -4   3  -6 40.2259 1.29288   3
   4  -3   6 36.6754 1.78922   1
   4  -3   6 36.5626 1.86354   1
   4  -3   6 39.6847 1.36532   5
   4  -3   6 38.0957 1.16383   2
  -5   3  -6 341.066 5.54834   3
  -5   3  -6 347.622 7.11115   1
  -5   3  -6 347.915 5.48635   4
   5  -3   6 355.855 5.58511   2
   5  -3   6 335.418 7.05652   1
   5  -3   6 353.926 7.21696   1
   5  -3   6 347.666 6.14515   5
  -6   3  -6 5.10288 1.12424   1
  -6   3  -6 4.58601 0.63142   4
  -6   3  -6 6.68485 0.69013   3
   6  -3   6 7.25218 0.87459   5
   6  -3   6 4.88817 0.59425   2
   6  -3   6 3.92647 1.12940   1
  -7   3  -6 20.2372 1.05064   3
  -7   3  -6 20.7615 2.19368   1
  -7   3  -6 20.8398 1.09529   4
   7  -3   6 21.8020 1.31187   5
   7  -3   6 21.7865 1.03100   2
   7  -3   6 17.9843 1.95751   1
  -8   3  -6 4.45369 0.70223   3
  -8   3  -6 3.93914 0.72742   4
   8  -3   6 3.71627 0.84460   5
   8  -3   6 3.44482 0.65130   2
   8   2  -6 9.74525 1.07169   2
   7   2  -6 -0.0923 0.57278   2
   6   2  -6 19.2210 1.12559   2
   6   2  -6 20.0015 0.78275   3
  -6  -2   6 17.3312 1.58503   1
   5   2  -6 20.6829 0.79419   3
   5   2  -6 22.2950 1.07802   2
   5   2  -6 20.4877 1.49465   1
  -5  -2   6 21.0670 1.48993   1
   4   2  -6 146.383 3.57754   1
   4   2  -6 152.159 3.07688   2
   4   2  -6 151.801 2.74913   3
  -4  -2   6 148.658 3.57102   1
  -4  -2   6 156.544 3.61647   1
   3   2  -6 132.943 3.05485   1
   3   2  -6 135.208 2.71609   2
   3   2  -6 135.147 3.01257   1
   3   2  -6 136.503 2.48685   3
  -3  -2   6 134.812 3.04514   1
   2   2  -6 296.935 4.77419   1
   2   2  -6 291.196 4.77316   3
   2   2  -6 282.592 4.60366   4
   2   2  -6 289.600 4.67643   1
  -2  -2   6 281.262 4.78182   1
  -2  -2   6 294.000 4.77092   1
   1   2  -6 8.16618 0.53830   1
   1   2  -6 8.49158 0.52068   3
   1   2  -6 7.91447 0.54731   1
  -1  -2   6 8.45219 0.57263   1
  -1  -2   6 7.92643 0.51848   1
   0   2  -6 82.8327 1.71302   1
   0   2  -6 84.0537 1.75495   3
   0   2  -6 81.9869 1.68193   1
   0   2  -6 81.6036 1.46677   4
   0  -2   6 83.0122 1.74507   1
   0  -2   6 84.4559 1.83609   5
   0  -2   6 80.1171 1.69015   1
  -1   2  -6 569.660 9.06603   1
  -1   2  -6 576.673 9.06157   1
  -1   2  -6 559.370 8.91503   3
  -1   2  -6 583.518 8.63050   4
   1  -2   6 561.390 9.02999   1
   1  -2   6 570.057 9.08005   1
   1  -2   6 569.708 9.01139   5
  -2   2  -6 40.3491 1.01785   2
  -2   2  -6 41.7970 0.96485   4
  -2   2  -6 41.7269 1.18841   3
  -2   2  -6 42.6106 1.38932   1
  -2   2  -6 42.0916 1.39411   1
   2  -2   6 41.3212 1.40722   1
   2  -2   6 41.8722 1.23679   5
   2  -2   6 41.9242 0.92999   4
  -3   2  -6 32.1141 0.92308   4
  -3   2  -6 32.5278 1.40245   1
  -3   2  -6 34.0913 1.44090   1
  -3   2  -6 30.5974 0.88381   2
   3  -2   6 32.6731 0.88915   4
   3  -2   6 33.8028 1.16557   5
   3  -2   6 30.5611 1.37327   1
   3  -2   6 34.4279 1.47875   1
  -4   2  -6 259.898 4.11923   4
  -4   2  -6 260.117 5.29681   1
   4  -2   6 265.387 5.43469   1
   4  -2   6 259.994 4.29928   2
   4  -2   6 264.461 5.34806   1
   4  -2   6 256.210 4.65380   5
  -5   2  -6 21.9924 0.95489   4
  -5   2  -6 21.0421 1.53184   1
   5  -2   6 20.5124 1.06785   5
   5  -2   6 21.1961 1.50863   1
   5  -2   6 21.7951 0.82329   2
   5  -2   6 23.6526 1.63094   1
  -6   2  -6 10.4498 1.36726   1
  -6   2  -6 7.99746 0.75137   4
   6  -2   6 8.57279 0.89029   5
   6  -2   6 7.62556 1.18857   1
   6  -2   6 8.99134 0.62531   2
   6  -2   6 8.54201 1.37072   1
  -7   2  -6 4.59895 1.18871   1
  -7   2  -6 4.89999 0.74022   4
   7  -2   6 4.68420 0.56870   2
   7  -2   6 2.68233 1.23967   1
   7  -2   6 4.78294 0.85278   5
  -8   2  -6 39.5836 1.56917   4
   8  -2   6 38.2375 1.31582   2
   8  -2   6 37.6939 2.64307   1
   8  -2   6 38.4171 1.78205   5
  -9   2  -6 64.2407 2.13344   4
   9  -2   6 64.2007 2.41292   5
   8   1  -6 2.48337 0.79760   2
   7   1  -6 91.0370 2.51001   2
   6   1  -6 11.1280 0.96120   2
  -6  -1   6 11.2657 1.36497   1
   5   1  -6 482.628 8.96821   1
   5   1  -6 487.022 7.51772   3
   5   1  -6 491.912 7.85771   2
  -5  -1   6 484.413 8.90642   1
   4   1  -6 10.1846 0.78124   2
   4   1  -6 10.1304 0.49074   3
   4   1  -6 9.45991 0.96579   1
  -4  -1   6 9.92428 0.95981   1
  -4  -1   6 10.2378 0.44625   3
  -4  -1   6 10.6152 1.02100   1
   3   1  -6 82.0954 2.17526   1
   3   1  -6 83.7480 1.90419   2
   3   1  -6 80.9107 1.56093   3
   3   1  -6 81.9154 2.12933   1
  -3  -1   6 79.1536 1.52222   3
  -3  -1   6 76.9455 2.11299   1
   2   1  -6 82.4158 1.87977   1
   2   1  -6 80.0786 1.58184   3
   2   1  -6 81.1870 1.79074   2
   2   1  -6 81.0296 1.83218   1
  -2  -1   6 81.0782 1.85823   1
  -2  -1   6 84.7748 1.88184   1
   1   1  -6 66.5038 1.30563   1
   1   1  -6 65.8666 1.38549   3
   1   1  -6 68.2449 1.33355   1
  -1  -1   6 66.1570 1.32375   1
  -1  -1   6 65.7292 1.31375   1
   0   1  -6 2536.66 36.8554   4
   0   1  -6 2517.41 36.9588   3
   0   1  -6 2355.99 37.1104   5
   0  -1   6 2579.40 37.1061   5
  -1   1  -6 1216.49 18.1030   1
  -1   1  -6 1116.85 18.2918   5
  -1   1  -6 1240.58 18.0975   1
  -1   1  -6 1223.50 18.0217   4
   1  -1   6 1212.05 18.0974   1
   1  -1   6 1258.70 18.1313   1
   1  -1   6 1199.03 18.2614   5
  -2   1  -6 703.553 10.6110   4
  -2   1  -6 693.214 10.5417   2
  -2   1  -6 707.585 10.9991   1
  -2   1  -6 697.351 11.0097   1
   2  -1   6 701.046 10.8418   5
   2  -1   6 688.445 10.5791   4
   2  -1   6 684.301 10.9798   1
   2  -1   6 709.641 11.0328   1
  -3   1  -6 1.56636 0.33484   4
  -3   1  -6 1.48599 0.25275   2
  -3   1  -6 3.35925 0.59194   1
  -3   1  -6 1.09660 0.52685   1
   3  -1   6 0.80952 0.49310   1
   3  -1   6 0.71706 0.36225   5
   3  -1   6 1.49464 0.50502   1
  -4   1  -6 92.1388 2.57795   1
  -4   1  -6 89.2902 1.67060   2
  -4   1  -6 93.3344 1.92767   4
  -4   1  -6 92.4336 2.60425   1
   4  -1   6 92.8350 2.11592   5
   4  -1   6 87.1918 2.53980   1
   4  -1   6 90.9694 2.63490   1
  -5   1  -6 14.0092 1.23464   1
  -5   1  -6 14.4505 0.56458   2
  -5   1  -6 14.5371 0.79984   4
   5  -1   6 14.6016 0.90855   5
   5  -1   6 14.2863 0.58726   2
   5  -1   6 13.9067 1.22468   1
   5  -1   6 13.6686 1.29075   1
  -6   1  -6 -0.3287 0.70501   1
  -6   1  -6 -0.5607 0.45600   4
   6  -1   6 -0.1499 0.79915   1
   6  -1   6 0.08733 0.50619   5
   6  -1   6 -0.5315 0.79181   1
   6  -1   6 0.19027 0.31657   2
  -7   1  -6 15.7161 0.98251   4
  -7   1  -6 12.6639 1.54306   1
   7  -1   6 16.4567 1.68972   1
   7  -1   6 12.6403 1.09076   5
   7  -1   6 16.1089 0.74156   2
  -8   1  -6 -0.1729 0.56305   4
  -8   1  -6 -1.5289 1.08583   1
   8  -1   6 -0.3131 0.60674   5
   8  -1   6 1.62263 1.35479   1
  -9   1  -6 0.89318 0.74463   4
   9  -1   6 2.19025 0.82601   5
   8   0  -6 43.5666 1.84522   2
   7   0  -6 26.2019 1.38446   2
   6   0  -6 113.126 2.71644   2
  -6   0   6 103.731 3.45977   1
   5   0  -6 242.656 4.52202   2
   5   0  -6 233.022 5.30366   1
  -5   0   6 241.263 5.27997   1
   4   0  -6 134.730 2.20946   3
   4   0  -6 136.703 2.85394   2
   4   0  -6 136.620 3.40407   1
  -4   0   6 138.250 3.35470   1
  -4   0   6 136.032 3.35813   1
   3   0  -6 25.1660 1.21729   1
   3   0  -6 27.1522 0.63944   3
   3   0  -6 26.9508 1.20111   1
   3   0  -6 27.0988 1.02036   2
  -3   0   6 26.5691 1.22217   1
   2   0  -6 50.0508 1.36784   1
   2   0  -6 51.3236 1.32983   2
   2   0  -6 49.3529 1.01712   3
   2   0  -6 50.7629 1.42062   1
  -2   0   6 49.2361 1.41757   1
  -2   0   6 51.2079 1.40457   1
   1   0  -6 356.898 5.85894   2
   1   0  -6 361.963 5.73711   1
   1   0  -6 363.446 5.69072   3
   1   0  -6 363.933 5.87869   5
   1   0  -6 376.262 5.75938   1
  -1   0   6 373.598 5.74658   1
  -1   0   6 363.809 5.74845   1
   0   0  -6 1492.62 22.1365   2
   0   0  -6 1478.24 22.2174   5
   0   0   6 1490.85 22.2340   5
  -1   0  -6 2299.55 33.9878   5
  -1   0  -6 2286.99 33.8801   4
   1   0   6 2288.94 34.0045   5
  -2   0  -6 892.819 13.6920   4
  -2   0  -6 913.414 13.8031   5
  -2   0  -6 920.475 13.9678   1
  -2   0  -6 912.775 13.9803   1
   2   0   6 899.545 13.9687   1
   2   0   6 908.908 13.8213   5
   2   0   6 886.125 13.6757   4
   2   0   6 924.895 14.0051   1
  -3   0  -6 3.16019 0.23626   2
  -3   0  -6 2.65693 0.56068   1
  -3   0  -6 3.68165 0.59115   1
  -3   0  -6 2.89566 0.43580   4
   3   0   6 3.25261 0.60519   1
   3   0   6 4.17517 0.46119   5
   3   0   6 2.94889 0.61382   1
  -4   0  -6 624.936 10.6183   1
  -4   0  -6 639.690 9.44905   2
  -4   0  -6 628.683 9.84783   4
  -4   0  -6 624.454 10.6779   1
   4   0   6 639.344 10.4394   1
   4   0   6 642.401 10.0117   5
   4   0   6 617.231 10.3976   1
  -5   0  -6 69.5864 2.39825   1
  -5   0  -6 63.6444 1.65470   4
  -5   0  -6 65.4723 1.23952   2
   5   0   6 68.2822 2.39539   1
   5   0   6 69.7821 1.82251   5
   5   0   6 64.3320 2.42864   1
   5   0   6 66.7200 1.26014   2
  -6   0  -6 113.955 2.47365   4
  -6   0  -6 109.310 1.94655   2
  -6   0  -6 108.750 3.42173   1
   6   0   6 109.385 1.97825   2
   6   0   6 111.189 3.48993   1
   6   0   6 104.721 3.34266   1
   6   0   6 114.016 2.66395   5
  -7   0  -6 24.4200 1.21678   4
  -7   0  -6 25.9655 1.93193   1
   7   0   6 27.7195 1.97737   1
   7   0   6 25.0379 0.80122   2
   7   0   6 23.4299 1.91567   1
  -8   0  -6 155.752 4.87791   1
  -8   0  -6 166.153 3.53349   4
   8   0   6 160.168 5.04327   1
  -9   0  -6 0.34170 0.67027   4
   8  -1  -6 2.91956 0.89117   2
   7  -1  -6 45.5051 1.79194   2
   6  -1  -6 55.5673 1.86896   2
  -6   1   6 57.3082 2.62894   1
   5  -1  -6 27.7189 1.75467   1
   5  -1  -6 28.8879 1.31519   2
  -5   1   6 26.5306 1.70820   1
   4  -1  -6 0.85104 0.62780   1
   4  -1  -6 0.24269 0.48700   2
  -4   1   6 -0.1440 0.59364   1
  -4   1   6 0.00517 0.62647   1
   3  -1  -6 82.3294 2.33272   1
   3  -1  -6 85.4656 1.97294   2
   3  -1  -6 82.9572 2.54986   1
  -3   1   6 80.8024 2.31417   1
  -3   1   6 83.8694 2.32807   1
   2  -1  -6 2.18351 0.46637   2
   2  -1  -6 3.11552 0.21186   3
   2  -1  -6 4.34817 0.56902   1
   2  -1  -6 3.86408 0.53290   1
  -2   1   6 3.43040 0.52584   1
  -2   1   6 3.03675 0.53123   1
   1  -1  -6 1017.84 15.6593   2
   1  -1  -6 1020.14 15.8127   1
   1  -1  -6 1043.83 15.6241   5
   1  -1  -6 1052.48 15.8086   1
  -1   1   6 1050.43 15.8171   1
  -1   1   6 1030.46 15.8233   1
   0  -1  -6 771.230 11.9866   5
   0  -1  -6 796.052 12.0004   2
   0  -1  -6 789.344 12.0666   1
   0  -1  -6 800.118 12.0475   1
   0   1   6 778.985 12.0557   1
   0   1   6 805.153 12.0720   1
   0   1   6 809.589 12.0276   5
  -1  -1  -6 162.189 2.81949   4
  -1  -1  -6 162.391 2.68298   2
  -1  -1  -6 164.591 2.88005   1
  -1  -1  -6 164.508 2.67786   1
  -1  -1  -6 158.449 2.63802   5
   1   1   6 162.722 2.61435   5
   1   1   6 164.587 2.88725   1
   1   1   6 158.282 2.84697   1
  -2  -1  -6 28.9212 0.87734   4
  -2  -1  -6 29.0055 0.60343   2
  -2  -1  -6 27.5463 0.81611   5
  -2  -1  -6 27.7487 1.05433   1
  -2  -1  -6 28.8519 1.03383   1
   2   1   6 27.1292 1.05843   1
   2   1   6 27.1666 1.05756   1
   2   1   6 27.4611 0.83968   5
  -3  -1  -6 150.105 3.22674   1
  -3  -1  -6 154.890 2.76233   4
  -3  -1  -6 150.510 3.19764   1
   3   1   6 152.646 3.23952   1
   3   1   6 150.215 3.26471   1
   3   1   6 149.403 2.75393   5
  -4  -1  -6 19.5829 1.25192   1
  -4  -1  -6 21.3794 0.86758   4
  -4  -1  -6 23.2464 1.26262   1
   4   1   6 20.7535 0.89182   5
   4   1   6 22.5713 1.32899   1
   4   1   6 22.8543 1.28662   1
  -5  -1  -6 105.570 3.09434   1
  -5  -1  -6 108.279 2.29727   4
   5   1   6 105.666 3.12159   1
   5   1   6 108.984 3.08186   1
  -6  -1  -6 13.0247 1.35915   1
  -6  -1  -6 13.7074 0.90711   4
   6   1   6 15.9683 1.54652   1
   6   1   6 14.9700 0.44064   2
   6   1   6 13.9537 1.36092   1
  -7  -1  -6 10.6807 0.87833   4
  -7  -1  -6 9.95155 1.45946   1
   7   1   6 12.0158 1.51009   1
   7   1   6 13.3039 1.57265   1
  -8  -1  -6 54.5402 1.85836   4
  -8  -1  -6 58.6827 2.92989   1
   8   1   6 56.5238 3.02391   1
  -9  -1  -6 15.3930 1.18766   4
   7  -2  -6 1.61105 0.76159   2
   6  -2  -6 49.0785 1.83384   2
  -6   2   6 49.0915 2.53511   1
   5  -2  -6 239.685 4.62227   2
  -5   2   6 240.007 5.53951   1
   4  -2  -6 7.42398 0.76555   2
   4  -2  -6 10.7365 1.16595   1
  -4   2   6 7.49144 1.02669   1
  -4   2   6 7.65935 1.02652   1
   3  -2  -6 46.8265 1.41830   2
   3  -2  -6 43.9692 1.78585   1
  -3   2   6 45.1114 1.80867   1
  -3   2   6 45.3813 1.79926   1
   2  -2  -6 504.216 8.00384   2
   2  -2  -6 495.942 8.36440   1
   2  -2  -6 501.784 8.19225   1
  -2   2   6 492.886 7.98953   1
  -2   2   6 494.663 8.16730   1
   1  -2  -6 14.3399 0.83193   1
   1  -2  -6 13.6551 0.83591   1
   1  -2  -6 13.9156 0.52948   5
   1  -2  -6 14.0457 0.67700   2
   1  -2  -6 13.1822 0.45237   3
  -1   2   6 13.9058 0.84628   1
   0  -2  -6 2387.95 36.0898   1
   0  -2  -6 2393.66 35.5684   3
   0  -2  -6 2403.01 35.5404   5
   0  -2  -6 2469.71 36.0848   1
   0  -2  -6 2439.28 35.6502   2
   0   2   6 2414.57 36.0784   1
   0   2   6 2391.49 36.0803   1
   0   2   6 2370.69 35.6202   2
  -1  -2  -6 5.07531 0.43760   4
  -1  -2  -6 6.68048 0.46198   3
  -1  -2  -6 6.47695 0.61218   1
  -1  -2  -6 6.36313 0.55983   1
  -1  -2  -6 6.73945 0.35686   5
  -1  -2  -6 6.44136 0.38771   2
   1   2   6 7.26548 0.63333   1
   1   2   6 7.17599 0.36878   5
   1   2   6 6.95515 0.36238   2
  -2  -2  -6 0.82203 0.40193   1
  -2  -2  -6 0.85215 0.19474   2
  -2  -2  -6 0.43057 0.46851   1
  -2  -2  -6 0.92451 0.32333   4
   2   2   6 0.21432 0.44195   1
   2   2   6 0.78709 0.45843   1
   2   2   6 0.33686 0.24536   5
  -3  -2  -6 26.4183 0.92578   4
  -3  -2  -6 27.6806 1.30427   1
  -3  -2  -6 26.6257 1.25270   1
   3   2   6 27.5306 1.32784   1
   3   2   6 28.0834 0.85720   5
   3   2   6 28.3392 1.30518   1
  -4  -2  -6 0.53764 0.60602   1
  -4  -2  -6 0.14220 0.53566   1
  -4  -2  -6 0.30002 0.41364   4
   4   2   6 -0.3231 0.54577   1
   4   2   6 -0.3414 0.28589   5
   4   2   6 0.72438 0.61879   1
  -5  -2  -6 21.1944 0.94346   4
  -5  -2  -6 22.8264 1.51723   1
   5   2   6 22.5323 1.54430   1
   5   2   6 22.9506 1.50738   1
  -6  -2  -6 185.668 4.73933   1
  -6  -2  -6 189.495 3.60150   4
   6   2   6 181.892 4.75865   1
   6   2   6 182.437 4.66892   1
  -7  -2  -6 123.622 3.98620   1
  -7  -2  -6 120.768 2.76498   4
   7   2   6 120.631 4.00840   1
   7   2   6 119.271 3.92032   1
  -8  -2  -6 115.813 2.82947   4
  -8  -2  -6 115.932 4.11350   1
   8   2   6 116.857 4.27286   1
  -9  -2  -6 4.09623 0.81868   4
   7  -3  -6 43.7912 1.91179   2
   6  -3  -6 189.859 4.10889   2
   5  -3  -6 0.06107 0.70045   2
  -5   3   6 -0.5506 0.75720   1
   4  -3  -6 3.50207 0.90815   1
   4  -3  -6 3.39177 0.77817   2
  -4   3   6 2.97757 0.86370   1
   3  -3  -6 0.45800 0.50779   2
   3  -3  -6 0.04469 0.58534   1
  -3   3   6 -0.8300 0.56416   1
  -3   3   6 1.38320 0.65281   1
   2  -3  -6 614.408 10.0138   1
   2  -3  -6 624.427 9.91395   2
  -2   3   6 631.924 10.3884   1
  -2   3   6 624.505 10.0908   1
   1  -3  -6 430.123 6.57069   3
   1  -3  -6 429.561 7.00506   1
   1  -3  -6 427.606 6.59309   5
   1  -3  -6 437.361 7.02353   1
   1  -3  -6 422.711 6.89751   2
  -1   3   6 415.618 7.29670   1
  -1   3   6 428.286 7.22450   1
   0  -3  -6 281.046 4.63067   3
   0  -3  -6 290.723 5.34676   1
   0  -3  -6 290.346 4.45872   5
   0  -3  -6 292.972 4.77040   2
   0  -3  -6 286.579 5.25614   1
   0   3   6 293.556 5.32014   1
   0   3   6 285.642 5.30403   1
  -1  -3  -6 -0.2403 0.42355   1
  -1  -3  -6 -0.0058 0.31584   3
  -1  -3  -6 0.13062 0.41774   1
  -1  -3  -6 -0.0888 0.26509   2
  -1  -3  -6 0.11695 0.30969   4
   1   3   6 -0.2191 0.37069   1
   1   3   6 0.14463 0.14547   5
   1   3   6 0.45586 0.22136   2
   1   3   6 0.81078 0.43762   1
  -2  -3  -6 19.0151 1.07034   1
  -2  -3  -6 18.0995 0.75413   4
  -2  -3  -6 18.7931 0.55341   2
  -2  -3  -6 20.5128 1.14645   1
   2   3   6 18.6959 0.52893   2
   2   3   6 18.0701 1.11106   1
   2   3   6 18.3110 0.54051   5
   2   3   6 18.3884 1.09068   1
  -3  -3  -6 15.0434 1.05570   1
  -3  -3  -6 16.3367 1.15165   1
  -3  -3  -6 15.4370 0.71687   4
   3   3   6 16.8770 0.61211   5
   3   3   6 15.1338 1.14222   1
   3   3   6 14.8911 1.06829   1
  -4  -3  -6 9.51303 1.06155   1
  -4  -3  -6 8.71179 0.63051   4
   4   3   6 8.68902 1.06754   1
   4   3   6 9.59098 1.02118   1
   4   3   6 8.34838 0.56644   5
  -5  -3  -6 4.99949 0.63588   4
  -5  -3  -6 7.06740 1.12547   1
   5   3   6 6.99937 1.07513   1
   5   3   6 6.65876 1.12129   1
  -6  -3  -6 251.549 4.61492   4
  -6  -3  -6 252.265 5.92930   1
   6   3   6 261.084 5.98999   1
   6   3   6 250.469 5.80690   1
  -7  -3  -6 50.5302 2.64199   1
  -7  -3  -6 51.6451 1.68471   4
   7   3   6 53.0175 2.75657   1
   7   3   6 56.3400 2.84453   1
  -8  -3  -6 404.310 9.04781   1
  -8  -3  -6 425.631 7.30168   4
   8   3   6 422.412 9.21807   1
  -9  -3  -6 17.5792 1.26038   4
   6  -4  -6 211.840 4.54544   2
   5  -4  -6 158.740 3.57954   2
  -5   4   6 155.580 4.61201   1
   4  -4  -6 1.01358 0.68102   2
  -4   4   6 0.71543 0.83369   1
   3  -4  -6 331.318 6.86084   1
   3  -4  -6 339.624 5.91150   2
  -3   4   6 343.978 6.89217   1
  -3   4   6 327.065 6.85809   1
   2  -4  -6 3.86826 0.69719   2
   2  -4  -6 4.59922 0.91521   1
   2  -4  -6 4.64424 0.28207   3
  -2   4   6 5.59655 0.93373   1
  -2   4   6 4.31607 0.87958   1
   1  -4  -6 415.682 6.57380   3
   1  -4  -6 430.212 6.96543   2
   1  -4  -6 423.257 6.44500   5
   1  -4  -6 419.180 7.72355   1
  -1   4   6 422.617 7.74094   1
  -1   4   6 426.003 7.75783   1
   0  -4  -6 3.84198 0.39592   3
   0  -4  -6 3.98640 0.74269   1
   0  -4  -6 3.69778 0.47227   2
   0   4   6 2.98807 0.67037   1
   0   4   6 3.11769 0.72784   1
  -1  -4  -6 80.3300 1.67664   2
  -1  -4  -6 82.9488 2.44847   1
  -1  -4  -6 76.3382 2.32135   1
  -1  -4  -6 79.4469 1.77718   4
   1   4   6 80.3197 2.37374   1
   1   4   6 82.0689 2.44921   1
  -2  -4  -6 0.74660 0.32661   4
  -2  -4  -6 0.24360 0.59552   1
  -2  -4  -6 0.12966 0.50168   1
  -2  -4  -6 0.64021 0.25775   2
   2   4   6 0.27064 0.21934   2
   2   4   6 -0.3545 0.55276   1
   2   4   6 -0.2232 0.48321   1
   2   4   6 0.31021 0.13202   5
  -3  -4  -6 -0.1345 0.55533   1
  -3  -4  -6 -0.2979 0.30303   4
   3   4   6 0.58946 0.60082   1
   3   4   6 0.27537 0.56395   1
   3   4   6 -0.0097 0.19639   5
   3   4   6 -0.0430 0.17556   2
  -4  -4  -6 8.29707 0.66415   4
  -4  -4  -6 8.10973 1.07069   1
   4   4   6 8.75452 1.13501   1
   4   4   6 10.9580 1.16946   1
  -5  -4  -6 7.73084 0.68970   4
  -5  -4  -6 8.41830 1.22895   1
   5   4   6 7.90000 1.21487   1
   5   4   6 10.2617 1.22475   1
  -6  -4  -6 173.228 4.81812   1
  -6  -4  -6 184.861 3.58863   4
   6   4   6 187.995 5.00087   1
   6   4   6 175.627 4.80371   1
  -7  -4  -6 -0.0977 0.52718   4
  -7  -4  -6 0.57201 0.95732   1
   7   4   6 0.05528 1.00463   1
  -8  -4  -6 61.5261 3.18630   1
  -8  -4  -6 60.0919 1.93839   4
   8   4   6 59.7065 3.21075   1
  -9  -4  -6 102.029 2.75844   4
   6  -5  -6 0.38941 0.98155   2
   5  -5  -6 0.06823 0.70848   2
   4  -5  -6 30.1840 1.49432   2
  -4   5   6 29.4912 2.09576   1
   3  -5  -6 56.1147 2.59080   1
   3  -5  -6 56.5465 1.83599   2
  -3   5   6 61.1685 2.64290   1
   2  -5  -6 49.5216 1.62750   2
   2  -5  -6 48.6615 2.29745   1
  -2   5   6 53.8611 2.35904   1
  -2   5   6 52.4401 2.35940   1
   1  -5  -6 9.72545 0.57184   3
   1  -5  -6 9.34031 1.13990   1
   1  -5  -6 9.80063 0.81240   2
  -1   5   6 11.3656 1.17420   1
  -1   5   6 10.1389 0.55256   3
  -1   5   6 9.67293 1.14128   1
   0  -5  -6 2.76403 0.83355   1
   0  -5  -6 3.71216 0.57531   2
   0   5   6 3.25543 0.80611   1
   0   5   6 3.92067 0.46510   3
   0   5   6 3.05966 0.76142   1
  -1  -5  -6 59.6789 2.28561   1
  -1  -5  -6 59.4222 1.47200   2
  -1  -5  -6 59.3563 1.52487   4
   1   5   6 61.3355 2.31914   1
   1   5   6 59.6841 1.51929   3
   1   5   6 56.4500 2.21923   1
  -2  -5  -6 0.04386 0.28185   2
  -2  -5  -6 0.68122 0.39570   4
  -2  -5  -6 -0.1494 0.67148   1
   2   5   6 1.01569 0.75530   1
   2   5   6 1.64703 0.77296   1
   2   5   6 0.92785 0.47288   3
  -3  -5  -6 66.4377 2.54765   1
  -3  -5  -6 66.2882 1.67699   4
   3   5   6 64.0731 1.36137   2
   3   5   6 66.7137 1.80100   3
   3   5   6 71.6743 2.62887   1
   3   5   6 65.7784 2.50631   1
   3   5   6 66.4779 1.22981   5
  -4  -5  -6 0.78034 0.46705   4
  -4  -5  -6 0.72173 0.83478   1
   4   5   6 1.94739 0.80684   1
   4   5   6 -0.1846 0.83795   1
   4   5   6 0.55854 0.50504   3
  -5  -5  -6 1.49635 0.48305   4
  -5  -5  -6 3.09452 0.96671   1
   5   5   6 1.78528 0.94394   1
   5   5   6 3.12453 0.99471   1
  -6  -5  -6 95.1633 2.32736   4
  -6  -5  -6 94.7501 3.55709   1
   6   5   6 100.716 3.65444   1
  -7  -5  -6 0.97076 0.58432   4
  -7  -5  -6 1.52220 1.08051   1
   7   5   6 1.45686 1.11863   1
  -8  -5  -6 13.5008 2.06985   1
  -8  -5  -6 11.6737 1.01005   4
   8   5   6 10.6278 2.06466   1
  -9  -5  -6 67.0526 2.18320   4
   5  -6  -6 72.9397 2.45271   2
   4  -6  -6 5.44905 0.90238   2
   3  -6  -6 175.205 3.79767   2
  -3   6   6 176.877 4.99469   1
   2  -6  -6 0.55661 0.62239   2
   2  -6  -6 0.56350 1.00880   1
  -2   6   6 1.21539 0.94583   1
   1  -6  -6 243.391 4.50276   2
   1  -6  -6 241.196 5.73909   1
  -1   6   6 236.668 3.90075   3
  -1   6   6 237.433 5.67489   1
   0  -6  -6 21.7149 1.65876   1
   0  -6  -6 23.4937 1.07845   2
   0   6   6 26.9569 0.99192   3
   0   6   6 24.1801 1.69857   1
   0   6   6 25.8608 1.73669   1
  -1  -6  -6 147.615 4.11504   1
  -1  -6  -6 149.756 2.90961   2
  -1  -6  -6 151.603 2.94721   4
   1   6   6 144.885 4.08322   1
   1   6   6 152.829 2.96604   3
   1   6   6 142.807 4.00692   1
  -2  -6  -6 60.0292 1.48406   2
  -2  -6  -6 58.1146 2.54412   1
  -2  -6  -6 61.7986 1.60207   4
   2   6   6 59.2734 2.50531   1
   2   6   6 59.7045 2.54962   1
   2   6   6 56.3367 1.64619   3
  -3  -6  -6 22.1576 0.97889   4
  -3  -6  -6 22.9431 1.73572   1
   3   6   6 23.6444 1.77281   1
   3   6   6 23.7800 1.11708   3
   3   6   6 23.5371 1.73908   1
  -4  -6  -6 73.9093 1.87176   4
  -4  -6  -6 71.8785 2.95041   1
   4   6   6 76.3102 3.03473   1
   4   6   6 74.7916 2.07452   3
   4   6   6 70.8043 1.44394   5
   4   6   6 75.4951 2.97853   1
  -5  -6  -6 211.148 3.96493   4
  -5  -6  -6 206.443 5.49051   1
   5   6   6 213.185 5.58149   1
   5   6   6 203.885 4.17798   3
  -6  -6  -6 8.66131 1.55563   1
  -6  -6  -6 6.71757 0.76411   4
   6   6   6 8.36052 1.58477   1
  -7  -6  -6 54.7319 3.06607   1
  -7  -6  -6 60.4286 1.85994   4
   7   6   6 55.9213 3.13506   1
  -8  -6  -6 60.7785 1.97600   4
   4  -7  -6 9.97626 1.20397   2
   3  -7  -6 133.359 3.26710   2
   2  -7  -6 0.77357 0.65062   2
  -2   7   6 1.18650 1.12296   1
   1  -7  -6 5.21648 0.80684   2
  -1   7   6 6.18598 1.30541   1
  -1   7   6 5.64963 0.58117   3
   0  -7  -6 15.6503 1.64724   1
   0  -7  -6 16.7610 0.90731   4
   0  -7  -6 17.0010 0.99125   2
   0   7   6 16.3032 0.88906   3
   0   7   6 15.7600 1.60596   1
  -1  -7  -6 2.85199 0.52584   4
  -1  -7  -6 1.87585 0.93132   1
  -1  -7  -6 3.77128 0.58209   2
   1   7   6 3.50638 0.61225   3
   1   7   6 4.09710 1.08500   1
  -2  -7  -6 10.5602 0.72601   2
  -2  -7  -6 11.8942 1.54318   1
  -2  -7  -6 9.81442 0.72196   4
   2   7   6 8.50940 1.40828   1
   2   7   6 11.8925 0.89254   3
  -3  -7  -6 0.25508 0.94990   1
  -3  -7  -6 0.18213 0.40118   4
   3   7   6 0.49767 0.53631   3
   3   7   6 2.21457 1.13061   1
  -4  -7  -6 5.29283 1.31274   1
  -4  -7  -6 5.63056 0.63471   4
   4   7   6 6.39220 0.80072   3
   4   7   6 6.67047 1.40155   1
  -5  -7  -6 125.025 4.35716   1
  -5  -7  -6 127.305 2.80044   4
   5   7   6 126.864 3.08033   3
   5   7   6 131.706 4.45631   1
  -6  -7  -6 10.3274 0.85004   4
  -6  -7  -6 9.72923 1.60672   1
   6   7   6 9.31553 1.03426   3
   6   7   6 9.59610 1.62661   1
  -7  -7  -6 23.4904 1.22871   4
  -8  -7  -6 3.74124 0.77313   4
   3  -8  -6 4.52448 1.03987   2
   2  -8  -6 0.03847 0.66982   2
   1  -8  -6 0.23272 0.70991   2
   0  -8  -6 7.65295 0.85221   2
   0  -8  -6 8.09656 0.72781   4
   0   8   6 6.78026 1.57017   1
   0   8   6 8.80341 0.77701   3
  -1  -8  -6 16.0226 0.98512   2
  -1  -8  -6 15.6561 0.90695   4
   1   8   6 16.0729 1.01044   3
   1   8   6 17.6892 1.89965   1
  -2  -8  -6 3.00514 0.55921   4
  -2  -8  -6 3.09535 0.58696   2
   2   8   6 2.48044 1.17456   1
   2   8   6 3.41032 0.74601   3
  -3  -8  -6 48.2023 1.51426   4
   3   8   6 46.7472 1.72724   3
   3   8   6 49.7014 2.84004   1
  -4  -8  -6 5.37680 0.68798   4
   4   8   6 4.00601 1.33439   1
   4   8   6 5.69648 0.84355   3
  -5  -8  -6 0.72887 0.57219   4
   5   8   6 1.68375 0.77701   3
  -6  -8  -6 1.00976 0.61140   4
   6   8   6 0.38904 0.77868   3
  -7  -8  -6 54.2403 1.82952   4
   1  -9  -6 1.28498 0.76935   2
   1  -9  -6 2.08597 0.58417   4
   0  -9  -6 10.4010 0.84135   4
   0  -9  -6 12.1980 1.06373   2
  -1  -9  -6 52.5627 1.81041   2
  -1  -9  -6 52.1729 1.64636   4
   1   9   6 57.1798 1.84814   3
  -2  -9  -6 5.10251 0.66860   4
   2   9   6 7.72278 0.92720   3
  -3  -9  -6 54.1018 1.68648   4
   3   9   6 58.7155 2.02877   3
  -4  -9  -6 75.5951 2.05552   4
   4   9   6 76.6803 2.38976   3
  -5  -9  -6 55.1780 1.76312   4
   5   9   6 57.3239 2.13261   3
   2   9  -7 -0.4275 0.74729   3
   1   9  -7 1.65444 0.82594   3
   0   9  -7 6.92408 1.05442   3
  -1   9  -7 16.8134 1.27110   3
   1  -9   7 18.6612 1.20873   5
   4   8  -7 5.52250 0.91205   3
   3   8  -7 76.1942 2.40607   3
   2   8  -7 3.65590 0.79893   3
   1   8  -7 0.52673 0.70767   3
   0   8  -7 1.77049 0.76459   3
   0  -8   7 2.06939 0.61161   5
  -1   8  -7 0.63751 0.67483   3
   1  -8   7 1.14539 0.58360   5
  -2   8  -7 11.3695 1.03909   3
   2  -8   7 13.5246 1.04544   5
  -3   8  -7 34.9082 1.62636   3
   3  -8   7 36.7215 1.57870   5
  -4   8  -7 184.407 4.07909   3
   4  -8   7 181.952 4.06486   5
   5   7  -7 2.56112 0.80733   3
   4   7  -7 29.2798 1.46294   3
   3   7  -7 16.1875 1.12438   3
  -3  -7   7 17.3868 1.71454   1
   2   7  -7 -0.1960 0.55073   3
  -2  -7   7 0.03704 0.80511   1
   1   7  -7 0.71546 0.62768   3
  -1  -7   7 -0.0291 0.78675   1
   0   7  -7 39.2376 1.59927   3
   0  -7   7 37.2480 2.16174   1
   0  -7   7 35.5393 1.46574   5
  -1   7  -7 38.6588 1.55625   3
   1  -7   7 37.1373 1.48345   5
   1  -7   7 34.6015 2.19931   1
  -2   7  -7 24.4893 1.31034   3
   2  -7   7 20.7918 1.19015   5
   2  -7   7 18.4178 1.77648   1
  -3   7  -7 95.9101 2.57137   3
   3  -7   7 95.8825 2.55992   5
  -4   7  -7 3.05090 0.72764   3
   4  -7   7 3.22278 0.75512   5
  -5   7  -7 1.27669 0.66656   3
   5  -7   7 0.96444 0.65381   5
   6   6  -7 2.24318 0.67816   3
   6   6  -7 1.08342 0.73579   2
   5   6  -7 51.4352 1.81794   3
   4   6  -7 4.38562 0.76599   3
  -4  -6   7 2.23362 1.00948   1
   3   6  -7 109.375 2.66459   3
  -3  -6   7 105.188 3.38791   1
   2   6  -7 148.248 3.27689   3
  -2  -6   7 158.754 4.10010   1
   1   6  -7 21.9231 1.18268   3
  -1  -6   7 24.4146 1.62615   1
   0   6  -7 43.8762 1.58579   3
   0  -6   7 39.9444 1.47273   5
   0  -6   7 40.4627 2.02367   1
  -1   6  -7 8.67617 0.85814   3
   1  -6   7 7.73703 0.74595   5
   1  -6   7 8.61949 1.19377   1
  -2   6  -7 9.01013 0.90157   3
   2  -6   7 11.7066 1.41264   1
   2  -6   7 9.67416 0.86174   5
  -3   6  -7 217.075 4.25552   3
   3  -6   7 208.336 5.38837   1
   3  -6   7 214.766 4.28441   5
  -4   6  -7 0.80547 0.65463   3
   4  -6   7 1.02023 0.56235   5
   4  -6   7 0.15056 1.00101   1
  -5   6  -7 6.70025 0.80766   3
   5  -6   7 4.85544 0.78214   5
  -6   6  -7 12.8174 1.01474   3
   6  -6   7 11.0320 1.07591   5
   7   5  -7 -0.0677 0.61716   2
   6   5  -7 57.2292 1.79410   3
   6   5  -7 56.9961 1.95903   2
   5   5  -7 46.8660 1.61586   3
  -5  -5   7 49.2638 2.38934   1
   4   5  -7 12.9446 0.91800   3
  -4  -5   7 14.1150 1.37051   1
   3   5  -7 105.700 2.50475   3
  -3  -5   7 107.901 3.15541   1
   2   5  -7 2.01979 0.74498   1
   2   5  -7 2.50275 0.56074   3
  -2  -5   7 1.86322 0.67356   1
  -2  -5   7 1.02441 0.70928   1
   1   5  -7 13.2403 1.09935   1
   1   5  -7 11.7937 0.84956   3
  -1  -5   7 10.5578 0.99037   1
  -1  -5   7 12.2897 1.11422   1
   0   5  -7 536.833 8.92615   3
   0   5  -7 543.478 9.05102   1
   0  -5   7 544.700 8.98536   5
   0  -5   7 549.757 9.25763   1
   0  -5   7 544.014 8.86352   1
  -1   5  -7 0.44219 0.55838   1
  -1   5  -7 0.71770 0.57013   3
   1  -5   7 -0.3542 0.38556   5
   1  -5   7 -0.2427 0.56894   1
   1  -5   7 0.16051 0.58343   1
  -2   5  -7 31.9286 1.67944   1
  -2   5  -7 26.2300 1.17893   3
  -2   5  -7 28.4425 0.65391   4
   2  -5   7 29.2771 1.71686   1
   2  -5   7 27.5068 1.21739   5
   2  -5   7 29.6134 1.63103   1
  -3   5  -7 54.1752 2.34863   1
  -3   5  -7 57.3054 1.23819   4
  -3   5  -7 59.5986 1.77661   3
   3  -5   7 57.0900 2.46278   1
   3  -5   7 59.4177 1.81152   5
  -4   5  -7 1.29987 0.58191   3
  -4   5  -7 1.01474 0.36487   4
   4  -5   7 1.07609 0.94971   1
   4  -5   7 0.95393 0.54135   5
  -5   5  -7 6.71812 0.60035   4
  -5   5  -7 5.64257 0.75400   3
   5  -5   7 6.85557 0.84154   5
   5  -5   7 7.50454 1.41838   1
  -6   5  -7 2.47563 0.55644   4
  -6   5  -7 2.40048 0.69437   3
   6  -5   7 1.90745 0.59830   2
   6  -5   7 0.59074 0.62725   5
  -7   5  -7 14.5133 1.04995   3
  -7   5  -7 14.7180 0.96551   4
   7  -5   7 14.5111 1.06288   2
   7  -5   7 15.2543 1.23908   5
   7   4  -7 20.1523 1.26915   2
   6   4  -7 3.19778 0.57729   3
   6   4  -7 3.74066 0.78210   2
  -6  -4   7 3.38971 1.26411   1
   5   4  -7 3.27954 0.57736   3
   5   4  -7 2.59382 0.63626   2
  -5  -4   7 1.96501 0.90098   1
   4   4  -7 -0.1117 0.41417   3
  -4  -4   7 0.24383 0.68073   1
   3   4  -7 170.080 3.26581   3
   3   4  -7 170.273 3.86660   1
   3   4  -7 159.627 2.87473   4
  -3  -4   7 163.714 3.84321   1
   2   4  -7 39.2395 1.31222   3
   2   4  -7 42.5813 0.88639   4
   2   4  -7 45.9868 1.69610   1
  -2  -4   7 43.6063 1.70619   1
   1   4  -7 3.24781 0.51821   3
   1   4  -7 3.49187 0.62713   1
  -1  -4   7 3.03403 0.58679   1
  -1  -4   7 3.28469 0.53599   5
  -1  -4   7 2.79216 0.63752   1
   0   4  -7 29.6574 1.31706   1
   0   4  -7 30.0728 1.12114   3
   0  -4   7 31.8834 1.17827   5
   0  -4   7 29.3729 1.36050   1
  -1   4  -7 563.385 9.23946   3
  -1   4  -7 569.548 9.67935   1
  -1   4  -7 586.775 8.58239   4
   1  -4   7 573.801 9.32292   5
   1  -4   7 574.093 9.31117   1
  -2   4  -7 347.221 5.40542   4
  -2   4  -7 346.583 6.52333   1
  -2   4  -7 358.979 5.58514   3
   2  -4   7 343.185 6.48847   1
   2  -4   7 352.940 6.58256   1
   2  -4   7 343.310 5.38871   4
   2  -4   7 342.293 5.59940   5
  -3   4  -7 566.955 9.26624   3
  -3   4  -7 578.913 9.83354   1
  -3   4  -7 569.262 8.77280   4
   3  -4   7 568.868 9.38390   5
   3  -4   7 585.293 10.0121   1
   3  -4   7 546.578 8.74353   4
   3  -4   7 571.578 9.77956   1
  -4   4  -7 76.6441 2.73007   1
  -4   4  -7 75.0358 1.66045   4
  -4   4  -7 75.2133 1.96850   3
   4  -4   7 72.0422 2.88426   1
   4  -4   7 74.5286 2.78456   1
   4  -4   7 72.2356 2.06585   5
  -5   4  -7 80.4110 3.06401   1
  -5   4  -7 80.8609 1.89667   4
  -5   4  -7 83.3996 2.13221   3
   5  -4   7 85.7832 2.33618   5
   5  -4   7 83.9228 3.18387   1
  -6   4  -7 99.7288 2.45269   3
  -6   4  -7 97.2615 2.26520   4
   6  -4   7 103.339 2.38672   2
   6  -4   7 99.6155 2.68700   5
   6  -4   7 94.2074 3.67047   1
  -7   4  -7 27.3599 1.29024   3
  -7   4  -7 27.5005 1.22898   4
   7  -4   7 30.5265 1.28159   2
   7  -4   7 28.0031 1.51452   5
  -8   4  -7 16.2414 1.09280   3
  -8   4  -7 18.6179 1.15408   4
   8  -4   7 17.1933 1.32977   5
   7   3  -7 3.08211 0.77333   2
   6   3  -7 123.480 2.93599   2
   6   3  -7 117.948 2.47772   3
  -6  -3   7 119.950 3.71991   1
   5   3  -7 1.62843 0.45610   3
   5   3  -7 1.80896 0.62126   2
  -5  -3   7 0.92237 0.78806   1
   4   3  -7 15.2245 1.21507   1
   4   3  -7 12.9367 0.92513   2
   4   3  -7 13.3520 0.75373   3
  -4  -3   7 13.6881 1.16456   1
   3   3  -7 41.7133 1.64728   1
   3   3  -7 43.5487 1.26841   3
  -3  -3   7 43.6094 1.62653   1
  -3  -3   7 43.4710 1.65374   1
   2   3  -7 202.036 4.02791   1
   2   3  -7 210.571 3.67377   3
   2   3  -7 204.978 3.41094   4
   2   3  -7 215.382 4.05328   1
  -2  -3   7 206.923 3.96900   1
  -2  -3   7 211.837 4.05744   1
   1   3  -7 47.0594 1.32198   3
   1   3  -7 45.5662 1.37367   1
   1   3  -7 46.7812 1.42328   1
  -1  -3   7 48.7660 1.50264   5
  -1  -3   7 45.2592 1.43340   1
  -1  -3   7 47.9994 1.39922   1
   0   3  -7 2.86855 0.45722   1
   0   3  -7 1.71395 0.45560   3
   0   3  -7 2.46381 0.45520   1
   0   3  -7 2.47051 0.23121   4
   0  -3   7 2.40256 0.47145   1
   0  -3   7 2.47925 0.44814   1
   0  -3   7 4.49690 0.52860   5
  -1   3  -7 1669.97 25.0347   1
  -1   3  -7 1635.47 24.7241   3
  -1   3  -7 1676.05 24.2605   4
  -1   3  -7 1606.02 25.0030   1
   1  -3   7 1660.79 24.8430   5
   1  -3   7 1593.75 24.9757   1
  -2   3  -7 5.71287 0.57203   3
  -2   3  -7 6.16333 0.72109   1
  -2   3  -7 5.46610 0.68045   1
  -2   3  -7 5.57491 0.37881   4
   2  -3   7 5.48709 0.33759   4
   2  -3   7 6.10334 0.60857   5
   2  -3   7 4.42214 0.68507   1
  -3   3  -7 461.064 8.14691   1
  -3   3  -7 460.443 7.22179   4
  -3   3  -7 468.659 7.61193   3
   3  -3   7 460.811 8.22380   1
   3  -3   7 449.292 8.13796   1
   3  -3   7 468.508 7.71863   5
  -4   3  -7 84.7366 1.83404   4
  -4   3  -7 85.3600 2.06264   3
  -4   3  -7 86.3588 2.71202   1
   4  -3   7 86.0326 2.19729   5
   4  -3   7 84.7785 2.79044   1
   4  -3   7 81.5647 2.66138   1
  -5   3  -7 54.5261 1.62257   3
  -5   3  -7 51.1357 2.30893   1
  -5   3  -7 53.7856 1.48237   4
   5  -3   7 51.8412 2.41909   1
   5  -3   7 54.9494 1.48261   2
   5  -3   7 57.1953 1.80595   5
   5  -3   7 57.2198 2.53183   1
  -6   3  -7 9.39752 0.83256   3
  -6   3  -7 8.25467 1.29764   1
  -6   3  -7 7.87579 0.73125   4
   6  -3   7 7.19662 1.28447   1
   6  -3   7 8.58059 0.67952   2
   6  -3   7 8.59780 0.88077   5
  -7   3  -7 33.3361 1.35635   4
  -7   3  -7 34.1596 1.37921   3
   7  -3   7 38.0091 2.48711   1
   7  -3   7 34.3739 1.25516   2
   7  -3   7 36.3620 1.66133   5
  -8   3  -7 2.59628 0.68968   4
  -8   3  -7 2.43338 0.67135   3
   8  -3   7 1.20982 0.84743   5
   8   2  -7 138.000 3.44119   2
   7   2  -7 134.904 3.26769   2
   6   2  -7 1.21313 0.68504   2
  -6  -2   7 2.99330 1.00402   1
   5   2  -7 8.92419 0.86282   2
   5   2  -7 9.15710 0.57930   3
  -5  -2   7 7.96862 1.08667   1
   4   2  -7 28.1080 0.92819   3
   4   2  -7 29.9882 1.25465   2
   4   2  -7 27.1795 1.46506   1
  -4  -2   7 28.5424 1.45628   1
   3   2  -7 196.984 3.43969   3
   3   2  -7 200.835 3.98369   1
   3   2  -7 197.949 3.71724   2
  -3  -2   7 195.736 3.94483   1
  -3  -2   7 195.591 3.94301   1
   2   2  -7 12.4232 0.62811   3
   2   2  -7 11.8624 0.74126   1
   2   2  -7 12.8527 0.73420   1
   2   2  -7 10.9911 0.51918   4
  -2  -2   7 12.3014 0.75426   1
  -2  -2   7 11.7391 0.70856   1
   1   2  -7 55.8438 1.29138   1
   1   2  -7 55.5487 1.36361   3
   1   2  -7 56.0259 1.32246   1
  -1  -2   7 58.7138 1.35808   1
  -1  -2   7 55.2969 1.28761   1
   0   2  -7 551.597 8.41367   4
   0   2  -7 559.431 8.58320   1
   0   2  -7 547.672 8.56731   1
   0   2  -7 541.655 8.69439   3
   0  -2   7 559.080 8.85131   5
   0  -2   7 563.538 8.60661   1
   0  -2   7 547.425 8.56161   1
  -1   2  -7 334.942 5.53306   1
  -1   2  -7 330.741 5.21008   4
  -1   2  -7 321.586 5.50816   3
  -1   2  -7 338.050 5.52321   1
   1  -2   7 333.586 5.62704   5
   1  -2   7 329.971 5.51423   1
   1  -2   7 338.923 5.56911   1
  -2   2  -7 492.426 8.02769   3
  -2   2  -7 495.822 8.29327   1
  -2   2  -7 501.324 7.74136   4
  -2   2  -7 508.296 8.28836   1
   2  -2   7 495.794 8.27624   1
   2  -2   7 488.416 7.70740   4
   2  -2   7 515.193 8.35466   1
   2  -2   7 513.237 8.14842   5
  -3   2  -7 30.7192 1.34633   1
  -3   2  -7 26.9180 1.31666   1
  -3   2  -7 29.9183 0.89285   4
   3  -2   7 28.9336 1.12935   5
   3  -2   7 30.7220 1.37382   1
   3  -2   7 30.1823 1.38597   1
  -4   2  -7 82.3844 1.80491   4
  -4   2  -7 84.5096 2.53285   1
   4  -2   7 80.5619 2.06183   5
   4  -2   7 83.8490 2.59696   1
   4  -2   7 84.9139 2.56178   1
  -5   2  -7 65.1293 1.64229   4
  -5   2  -7 62.2010 2.41930   1
   5  -2   7 60.6518 2.39244   1
   5  -2   7 64.5987 1.87832   5
   5  -2   7 58.6884 2.43391   1
  -6   2  -7 121.269 3.75139   1
  -6   2  -7 129.745 2.70113   4
   6  -2   7 124.061 3.86724   1
   6  -2   7 122.542 2.44022   2
   6  -2   7 123.139 2.95984   5
  -7   2  -7 44.0028 1.54551   4
   7  -2   7 43.0789 2.55886   1
   7  -2   7 44.7978 1.30394   2
   7  -2   7 45.6160 1.80178   5
  -8   2  -7 24.8213 1.28224   4
   8  -2   7 27.1868 1.53533   5
  -9   2  -7 16.1723 1.19090   4
   9  -2   7 15.0061 1.31539   5
   8   1  -7 2.10703 0.90474   2
   7   1  -7 292.857 5.63422   2
   6   1  -7 10.5373 0.99052   2
  -6  -1   7 12.7575 1.42550   1
   5   1  -7 -0.5818 0.51640   2
   5   1  -7 -0.1303 0.24812   3
  -5  -1   7 0.07192 0.75295   1
   4   1  -7 242.128 3.93741   3
   4   1  -7 236.255 4.42064   2
   4   1  -7 236.888 4.88874   1
  -4  -1   7 238.959 4.84421   1
   3   1  -7 110.111 2.61698   1
   3   1  -7 110.223 2.41288   2
   3   1  -7 111.863 2.03693   3
  -3  -1   7 109.711 2.57632   1
  -3  -1   7 108.067 2.58269   1
   2   1  -7 102.047 2.15603   1
   2   1  -7 107.828 2.24316   2
   2   1  -7 108.328 2.00271   3
   2   1  -7 108.861 2.22356   1
  -2  -1   7 108.451 2.19704   1
  -2  -1   7 104.096 2.19595   1
   1   1  -7 68.2247 1.45594   3
   0   1  -7 510.848 7.91713   4
   0   1  -7 512.906 8.04645   3
   0  -1   7 517.804 8.19280   5
  -1   1  -7 5.27935 0.39382   4
   1  -1   7 4.04681 0.45539   5
  -2   1  -7 26.6333 0.81239   4
  -2   1  -7 26.7955 0.98035   1
  -2   1  -7 27.1158 0.74630   2
  -2   1  -7 27.8026 0.97860   1
   2  -1   7 27.5410 0.99441   5
   2  -1   7 30.7369 1.04731   1
   2  -1   7 29.2725 1.01569   1
   2  -1   7 26.7880 0.77424   4
  -3   1  -7 0.39358 0.45158   1
  -3   1  -7 0.00071 0.33980   4
  -3   1  -7 0.01229 0.19735   2
  -3   1  -7 -0.3848 0.39356   1
   3  -1   7 0.31838 0.42404   5
   3  -1   7 0.38380 0.44289   1
  -4   1  -7 116.823 2.06668   2
  -4   1  -7 117.102 2.33464   4
  -4   1  -7 120.443 3.01224   1
   4  -1   7 114.946 3.03890   1
   4  -1   7 120.576 2.56303   5
   4  -1   7 117.313 3.02155   1
  -5   1  -7 36.7347 1.80448   1
  -5   1  -7 35.9170 0.91874   2
  -5   1  -7 38.7109 1.23584   4
   5  -1   7 36.2983 1.38759   5
   5  -1   7 37.1404 1.81974   1
   5  -1   7 40.0952 1.93619   1
  -6   1  -7 9.92833 0.83006   4
  -6   1  -7 9.04671 1.20178   1
   6  -1   7 10.7282 0.55341   2
   6  -1   7 10.8426 1.28397   1
   6  -1   7 10.5553 1.30435   1
   6  -1   7 11.4801 0.97889   5
  -7   1  -7 10.7204 1.41066   1
  -7   1  -7 10.7234 0.92035   4
   7  -1   7 11.1298 0.60966   2
   7  -1   7 11.2238 0.98895   5
   7  -1   7 11.9067 1.53906   1
  -8   1  -7 106.376 2.70498   4
   8  -1   7 115.335 3.04328   5
   8  -1   7 107.472 4.15079   1
  -9   1  -7 87.4939 2.52523   4
   9  -1   7 89.7718 2.82311   5
   7   0  -7 25.5596 1.45081   2
   6   0  -7 85.0734 2.37671   2
  -6   0   7 84.4107 3.08749   1
   5   0  -7 0.36748 0.56408   2
  -5   0   7 1.39954 0.76549   1
   4   0  -7 180.173 3.52125   2
   4   0  -7 172.121 3.97195   1
   4   0  -7 173.928 2.80254   3
  -4   0   7 175.259 3.95885   1
   3   0  -7 29.8391 0.71874   3
   3   0  -7 28.1213 1.12796   2
   3   0  -7 32.3100 1.32508   1
  -3   0   7 28.1608 1.25411   1
   2   0  -7 35.4918 1.14081   2
   2   0  -7 36.9908 0.86952   3
   2   0  -7 36.9968 1.16420   1
   2   0  -7 37.8966 1.15130   1
  -2   0   7 38.0410 1.16948   1
  -2   0   7 34.9578 1.15233   1
   1   0  -7 466.157 7.43325   2
   1   0  -7 470.659 7.25634   3
   0   0  -7 8.85447 0.48875   2
   0   0   7 12.2605 0.63020   5
  -1   0  -7 292.248 4.80610   4
   1   0   7 300.008 4.93051   5
  -2   0  -7 7.14899 0.53996   1
  -2   0  -7 6.66189 0.48541   4
  -2   0  -7 7.48566 0.54171   1
   2   0   7 7.65455 0.56318   5
   2   0   7 7.43489 0.56838   1
   2   0   7 7.53053 0.56109   1
  -3   0  -7 1.04327 0.46739   1
  -3   0  -7 1.09489 0.18449   2
  -3   0  -7 0.99114 0.46408   1
  -3   0  -7 0.40323 0.31502   4
   3   0   7 0.43303 0.45890   1
   3   0   7 0.80082 0.41579   5
  -4   0  -7 -0.2850 0.46500   1
  -4   0  -7 0.03109 0.38125   4
  -4   0  -7 0.48840 0.57098   1
  -4   0  -7 0.06244 0.15462   2
   4   0   7 0.18599 0.53276   1
   4   0   7 0.62397 0.60580   1
   4   0   7 0.07605 0.41837   5
  -5   0  -7 70.4604 2.45363   1
  -5   0  -7 71.3780 1.27938   2
  -5   0  -7 70.3316 1.75373   4
   5   0   7 71.3609 2.51522   1
   5   0   7 70.6806 2.44863   1
   5   0   7 68.7368 1.86965   5
  -6   0  -7 3.31302 0.60364   4
  -6   0  -7 2.50062 0.97217   1
   6   0   7 2.37751 0.69411   5
   6   0   7 2.81708 1.01824   1
   6   0   7 2.54018 0.89209   1
   6   0   7 2.37805 0.28147   2
  -7   0  -7 44.2461 1.53442   4
  -7   0  -7 41.6114 2.31020   1
   7   0   7 40.9034 1.65727   5
   7   0   7 41.0845 2.39055   1
  -8   0  -7 2.71130 0.78492   4
   8   0   7 1.95626 0.81778   5
   8   0   7 2.19952 1.25678   1
  -9   0  -7 28.7680 1.48391   4
   9   0   7 29.4554 1.62481   5
   7  -1  -7 3.03798 0.80679   2
   6  -1  -7 0.93037 0.65097   2
  -6   1   7 0.80977 0.90792   1
   5  -1  -7 371.260 6.52653   2
  -5   1   7 364.298 7.29737   1
   4  -1  -7 390.769 7.36913   1
   4  -1  -7 401.169 6.41596   2
  -4   1   7 399.482 7.38092   1
  -4   1   7 389.493 7.38573   1
   3  -1  -7 25.0445 1.28901   1
   3  -1  -7 24.7335 1.08337   2
  -3   1   7 27.6362 1.29817   1
   2  -1  -7 81.0957 2.01489   1
   2  -1  -7 86.5967 2.07706   1
   2  -1  -7 85.5827 1.91842   2
   2  -1  -7 84.4424 1.48234   3
  -2   1   7 86.3272 2.07395   1
  -2   1   7 83.0113 2.07691   1
   1  -1  -7 985.834 14.8115   2
   1  -1  -7 983.742 14.8840   1
   1  -1  -7 949.750 14.7797   5
   1  -1  -7 972.990 14.8517   1
  -1   1   7 962.673 14.8657   1
  -1   1   7 972.196 14.8626   1
   0  -1  -7 203.961 3.27695   2
   0  -1  -7 208.904 3.46447   1
   0  -1  -7 203.924 3.48928   5
   0  -1  -7 204.289 3.42901   1
   0   1   7 206.918 3.45930   1
   0   1   7 203.276 3.44972   1
   0   1   7 205.991 3.34359   5
  -1  -1  -7 30.5308 0.85353   1
  -1  -1  -7 31.8834 0.90789   1
  -1  -1  -7 30.3312 0.91627   4
  -1  -1  -7 30.7293 0.85600   5
  -1  -1  -7 30.7186 0.79454   2
   1   1   7 30.4633 0.88139   5
   1   1   7 31.1493 0.88297   1
   1   1   7 31.9690 0.92738   1
  -2  -1  -7 67.9082 1.66673   1
  -2  -1  -7 67.1278 1.21836   2
  -2  -1  -7 66.5670 1.43794   5
  -2  -1  -7 65.6537 1.62452   1
  -2  -1  -7 68.0378 1.50655   4
   2   1   7 67.9046 1.48355   5
   2   1   7 65.2526 1.67717   1
   2   1   7 63.7445 1.64753   1
  -3  -1  -7 65.5046 1.86031   1
  -3  -1  -7 64.3280 1.88421   1
  -3  -1  -7 67.3618 1.54975   4
   3   1   7 65.5460 1.92704   1
   3   1   7 66.2596 1.53582   5
  -4  -1  -7 31.6493 1.46464   1
  -4  -1  -7 30.7957 1.06379   4
  -4  -1  -7 32.3255 1.49957   1
   4   1   7 30.3096 1.07436   5
   4   1   7 32.7346 1.49547   1
   4   1   7 32.4913 1.53610   1
  -5  -1  -7 29.7118 1.62288   1
  -5  -1  -7 29.7219 1.09858   4
   5   1   7 30.5533 1.69719   1
   5   1   7 29.5674 1.15806   5
   5   1   7 29.0813 1.62540   1
  -6  -1  -7 17.7710 1.00459   4
  -6  -1  -7 15.2952 1.42152   1
   6   1   7 17.7456 1.58774   1
   6   1   7 17.7219 1.52147   1
   6   1   7 19.0745 1.06850   5
  -7  -1  -7 97.0926 3.43386   1
  -7  -1  -7 94.4751 2.36979   4
   7   1   7 91.8843 2.50035   5
   7   1   7 91.4264 3.44488   1
  -8  -1  -7 135.236 3.12612   4
   8   1   7 131.293 4.52784   1
  -9  -1  -7 30.5110 1.52080   4
   7  -2  -7 0.63069 0.80052   2
   6  -2  -7 1.12187 0.81381   2
   5  -2  -7 1.08079 0.74752   2
  -5   2   7 -0.0205 0.77432   1
   4  -2  -7 20.4250 1.47576   1
   4  -2  -7 23.7936 1.19390   2
  -4   2   7 19.9116 1.42766   1
   3  -2  -7 24.7035 1.10723   2
   3  -2  -7 25.4892 1.39777   1
  -3   2   7 24.9437 1.38897   1
  -3   2   7 24.9415 1.38015   1
   2  -2  -7 46.5657 1.38028   2
   2  -2  -7 46.3704 0.88320   3
   2  -2  -7 48.3334 0.88820   3
   2  -2  -7 46.7410 1.62294   1
  -2   2   7 47.9704 1.63539   1
   1  -2  -7 77.2202 1.94165   1
   1  -2  -7 73.1062 1.49588   5
   1  -2  -7 68.3160 1.64318   2
   1  -2  -7 71.1621 1.37271   3
   1  -2  -7 73.9518 1.87902   1
  -1   2   7 72.7969 1.90577   1
  -1   2   7 77.6718 1.94772   1
   0  -2  -7 16.8983 0.60128   3
   0  -2  -7 17.9592 0.69673   2
   0  -2  -7 14.8090 0.80375   1
   0  -2  -7 17.3512 0.58211   5
   0  -2  -7 18.2506 0.82216   1
   0   2   7 17.5493 0.85981   1
   0   2   7 17.1599 0.83875   1
  -1  -2  -7 77.0569 1.50316   2
  -1  -2  -7 80.5826 1.84552   1
  -1  -2  -7 74.2496 1.86543   1
  -1  -2  -7 78.8419 1.48866   5
  -1  -2  -7 79.0750 1.69239   4
   1   2   7 75.4247 1.50367   5
   1   2   7 76.9087 1.85564   1
   1   2   7 78.7799 1.90082   1
   1   2   7 75.1824 1.46731   2
  -2  -2  -7 2.56427 0.52300   1
  -2  -2  -7 1.67058 0.22902   2
  -2  -2  -7 2.52924 0.49005   1
  -2  -2  -7 2.24584 0.39207   4
   2   2   7 2.91815 0.54161   1
   2   2   7 1.88407 0.30711   5
  -3  -2  -7 27.6431 1.29763   1
  -3  -2  -7 26.7874 0.95063   4
  -3  -2  -7 24.7452 1.20026   1
   3   2   7 25.6312 1.25823   1
   3   2   7 26.8358 0.85703   5
   3   2   7 26.5235 1.29001   1
  -4  -2  -7 741.151 11.6852   4
  -4  -2  -7 749.993 12.5559   1
   4   2   7 744.173 12.6108   1
   4   2   7 745.977 12.5499   1
   4   2   7 767.458 11.6661   5
  -5  -2  -7 1.63941 0.48359   4
  -5  -2  -7 1.48640 0.72450   1
   5   2   7 0.27155 0.75784   1
   5   2   7 0.75266 0.48166   5
   5   2   7 0.94361 0.76755   1
  -6  -2  -7 334.916 5.67260   4
  -6  -2  -7 328.909 6.89357   1
   6   2   7 315.591 6.77973   1
   6   2   7 311.004 5.75224   5
   6   2   7 326.043 6.94105   1
  -7  -2  -7 39.8668 2.29399   1
  -7  -2  -7 36.7356 1.43195   4
   7   2   7 31.2709 2.19825   1
  -8  -2  -7 26.7010 1.35236   4
   8   2   7 26.0625 2.23343   1
  -9  -2  -7 51.1332 1.93092   4
   7  -3  -7 10.7148 1.24451   2
   6  -3  -7 42.8960 1.79044   2
   5  -3  -7 407.110 7.21457   2
  -5   3   7 405.589 8.31672   1
   4  -3  -7 139.678 3.11276   2
  -4   3   7 137.960 3.84319   1
   3  -3  -7 165.930 3.37265   2
   3  -3  -7 165.798 4.03911   1
  -3   3   7 160.723 4.01326   1
  -3   3   7 168.427 4.01868   1
   2  -3  -7 1.31269 0.64342   1
   2  -3  -7 1.28996 0.56403   2
   2  -3  -7 1.42454 0.30799   5
  -2   3   7 2.28326 0.65581   1
  -2   3   7 1.24455 0.61694   1
   1  -3  -7 252.844 4.11297   5
   1  -3  -7 250.544 4.06414   3
   1  -3  -7 255.002 4.92281   1
   1  -3  -7 263.567 4.30453   2
  -1   3   7 253.575 4.92951   1
  -1   3   7 247.270 4.92778   1
   0  -3  -7 99.2287 1.90314   3
   0  -3  -7 99.0753 2.46019   1
   0  -3  -7 103.351 2.55306   1
   0  -3  -7 101.895 1.67522   5
   0  -3  -7 101.374 2.03250   2
   0   3   7 102.938 2.51763   1
  -1  -3  -7 107.837 2.54443   1
  -1  -3  -7 108.977 2.65317   1
  -1  -3  -7 108.639 2.20963   4
  -1  -3  -7 106.796 1.73244   5
  -1  -3  -7 110.295 2.02911   2
   1   3   7 107.787 1.73709   5
   1   3   7 109.917 2.64626   1
   1   3   7 107.646 2.65998   1
   1   3   7 108.611 1.98830   2
  -2  -3  -7 98.8152 2.07088   4
  -2  -3  -7 98.8007 1.77089   2
  -2  -3  -7 108.434 2.63896   1
  -2  -3  -7 98.5063 2.50457   1
   2   3   7 96.3498 1.78260   5
   2   3   7 97.7682 1.73810   2
   2   3   7 98.8815 2.55242   1
   2   3   7 102.966 2.62675   1
  -3  -3  -7 0.29178 0.59116   1
  -3  -3  -7 0.12303 0.41153   4
   3   3   7 0.38951 0.25894   5
   3   3   7 0.73327 0.58160   1
   3   3   7 0.11710 0.52449   1
  -4  -3  -7 117.354 3.21474   1
  -4  -3  -7 116.383 2.45234   4
   4   3   7 115.970 2.29896   5
   4   3   7 120.198 3.26762   1
   4   3   7 117.370 3.20825   1
  -5  -3  -7 103.914 3.19008   1
  -5  -3  -7 99.2502 2.29219   4
   5   3   7 103.810 2.23412   5
   5   3   7 101.358 3.15401   1
   5   3   7 99.5832 3.22102   1
  -6  -3  -7 4.33427 1.13353   1
  -6  -3  -7 4.41927 0.72616   4
   6   3   7 3.99847 1.14415   1
   6   3   7 3.59907 1.02804   1
  -7  -3  -7 324.673 5.77088   4
  -7  -3  -7 318.118 7.23547   1
   7   3   7 317.097 7.35177   1
  -8  -3  -7 1.22955 0.73664   4
   8   3   7 3.51261 1.43735   1
  -9  -3  -7 39.8587 1.69276   4
   6  -4  -7 64.2009 2.28592   2
   5  -4  -7 3.25703 0.81656   2
   4  -4  -7 131.726 3.09270   2
  -4   4   7 130.014 3.91441   1
   3  -4  -7 32.9371 1.35520   2
  -3   4   7 31.1144 1.82008   1
   2  -4  -7 15.9165 1.29711   1
   2  -4  -7 15.7081 0.97898   2
  -2   4   7 15.8785 1.31630   1
  -2   4   7 16.9503 1.30850   1
   1  -4  -7 7.54373 0.35345   5
   1  -4  -7 8.70046 0.73906   2
   1  -4  -7 6.31340 0.93424   1
   1  -4  -7 7.28491 0.42688   3
  -1   4   7 6.89144 0.89891   1
  -1   4   7 8.38595 0.96929   1
   0  -4  -7 158.965 2.96095   2
   0  -4  -7 161.912 3.75518   1
   0   4   7 157.465 3.69851   1
   0   4   7 152.953 3.64232   1
  -1  -4  -7 0.37834 0.32647   2
  -1  -4  -7 0.20189 0.53192   1
  -1  -4  -7 -0.3180 0.34548   4
   1   4   7 0.07634 0.53497   1
   1   4   7 0.18025 0.49439   1
  -2  -4  -7 0.12764 0.27056   2
  -2  -4  -7 -0.0018 0.32806   4
  -2  -4  -7 0.16238 0.61378   1
   2   4   7 0.60488 0.16614   5
   2   4   7 0.29074 0.54347   1
   2   4   7 -0.1063 0.54617   1
   2   4   7 0.42588 0.23310   2
  -3  -4  -7 98.8712 2.14999   4
  -3  -4  -7 98.7031 1.71054   2
  -3  -4  -7 95.9026 2.89522   1
   3   4   7 100.616 2.93935   1
   3   4   7 99.4729 1.79729   5
   3   4   7 98.1641 1.69436   2
   3   4   7 93.8570 2.82894   1
  -4  -4  -7 14.2832 0.81428   4
  -4  -4  -7 15.4256 1.35863   1
   4   4   7 13.8801 1.32184   1
   4   4   7 15.1437 1.32303   1
   4   4   7 15.0459 0.66075   5
  -5  -4  -7 9.44279 0.76659   4
  -5  -4  -7 11.1849 1.34722   1
   5   4   7 11.6271 1.39581   1
   5   4   7 10.5516 0.68188   5
   5   4   7 10.1988 1.28633   1
  -6  -4  -7 1.37664 0.60415   4
  -6  -4  -7 3.35842 1.06087   1
   6   4   7 1.76781 0.99609   1
  -7  -4  -7 129.748 2.97714   4
  -7  -4  -7 129.610 4.32044   1
   7   4   7 135.767 4.39337   1
  -8  -4  -7 13.6940 1.03451   4
   8   4   7 14.9672 2.00363   1
  -9  -4  -7 14.4014 1.18131   4
   5  -5  -7 75.7162 2.45320   2
   4  -5  -7 294.526 5.57761   2
  -4   5   7 283.242 6.98939   1
   3  -5  -7 81.8120 2.31280   2
  -3   5   7 85.0008 3.12845   1
   2  -5  -7 71.6409 2.91786   1
   2  -5  -7 72.8216 2.02711   2
  -2   5   7 78.3967 2.82566   1
   1  -5  -7 48.3482 1.55544   2
   1  -5  -7 54.1494 2.27726   1
  -1   5   7 52.1825 2.24861   1
  -1   5   7 51.7707 2.23372   1
   0  -5  -7 24.3534 1.56831   1
   0  -5  -7 23.5121 1.00231   2
   0   5   7 27.2978 1.63719   1
   0   5   7 20.8708 1.44186   1
  -1  -5  -7 24.5539 1.54397   1
  -1  -5  -7 24.2429 0.98845   4
  -1  -5  -7 24.8592 0.93838   2
   1   5   7 26.6610 1.59737   1
   1   5   7 25.1086 1.52824   1
  -2  -5  -7 76.9825 1.65177   2
  -2  -5  -7 78.9367 2.72062   1
  -2  -5  -7 74.4574 1.84546   4
   2   5   7 79.3212 2.70566   1
   2   5   7 80.7136 2.68712   1
  -3  -5  -7 7.92908 1.11707   1
  -3  -5  -7 9.40594 0.67473   4
  -3  -5  -7 9.03683 0.46958   2
   3   5   7 8.38663 1.11516   1
   3   5   7 8.60099 0.45647   2
   3   5   7 9.73106 1.15099   1
   3   5   7 8.36314 0.34972   5
  -4  -5  -7 10.6465 1.25622   1
  -4  -5  -7 8.68904 0.71693   4
   4   5   7 7.31597 1.15721   1
   4   5   7 11.9592 1.31116   1
   4   5   7 10.2876 0.52131   5
  -5  -5  -7 107.384 3.58501   1
  -5  -5  -7 108.611 2.48482   4
   5   5   7 104.264 2.18501   5
   5   5   7 115.018 3.72347   1
  -6  -5  -7 89.3871 2.25165   4
  -6  -5  -7 87.4865 3.41109   1
   6   5   7 85.3448 3.40770   1
  -7  -5  -7 1.88633 0.63836   4
   7   5   7 2.22198 1.23748   1
  -8  -5  -7 2.35252 0.69978   4
  -9  -5  -7 5.66538 0.94261   4
   5  -6  -7 0.04204 0.81351   2
   4  -6  -7 38.7472 1.72787   2
   3  -6  -7 164.452 3.67920   2
   2  -6  -7 3.15296 0.72602   2
  -2   6   7 2.49250 1.06159   1
   1  -6  -7 329.571 5.84082   2
  -1   6   7 327.783 7.05609   1
   0  -6  -7 17.9635 1.57694   1
   0  -6  -7 17.6718 0.98639   2
   0   6   7 20.4393 1.64252   1
  -1  -6  -7 4.65825 0.61106   4
  -1  -6  -7 4.46791 0.57180   2
  -1  -6  -7 4.85143 1.06068   1
   1   6   7 4.02292 0.58017   3
   1   6   7 4.07720 1.04999   1
  -2  -6  -7 66.9065 2.73205   1
  -2  -6  -7 67.9095 1.76431   4
  -2  -6  -7 65.7136 1.60044   2
   2   6   7 68.4309 2.73365   1
   2   6   7 67.6047 1.82433   3
  -3  -6  -7 0.36301 0.30196   2
  -3  -6  -7 -0.7440 0.71356   1
  -3  -6  -7 0.35190 0.47848   4
   3   6   7 0.18264 0.76154   1
   3   6   7 0.41011 0.55198   3
  -4  -6  -7 0.06385 0.90072   1
  -4  -6  -7 1.68767 0.51192   4
   4   6   7 0.71917 0.87873   1
  -5  -6  -7 35.3503 2.26239   1
  -5  -6  -7 33.6875 1.32329   4
   5   6   7 39.8937 2.35600   1
  -6  -6  -7 6.46986 1.43499   1
  -6  -6  -7 3.75636 0.69250   4
   6   6   7 7.12047 1.44712   1
  -7  -6  -7 22.6741 1.21287   4
  -8  -6  -7 112.813 2.87165   4
   4  -7  -7 0.71779 0.92297   2
   3  -7  -7 0.79096 0.86948   2
   2  -7  -7 1.44710 0.75567   2
   1  -7  -7 3.32018 0.78764   2
  -1   7   7 2.56456 1.11911   1
   0  -7  -7 31.0436 1.30890   2
   0  -7  -7 30.5719 1.22917   4
   0   7   7 30.2463 2.10418   1
   0   7   7 31.1823 1.16932   3
  -1  -7  -7 0.97009 0.44968   4
  -1  -7  -7 1.14995 0.55331   2
   1   7   7 2.47843 1.03998   1
   1   7   7 1.56255 0.53048   3
  -2  -7  -7 34.7366 1.26932   4
  -2  -7  -7 32.9234 1.16830   2
  -2  -7  -7 33.9011 2.48963   1
   2   7   7 32.5864 1.32962   3
   2   7   7 37.3408 2.24220   1
  -3  -7  -7 34.4493 2.25633   1
  -3  -7  -7 32.2754 1.25947   4
   3   7   7 30.3679 2.13234   1
   3   7   7 31.8016 1.39046   3
  -4  -7  -7 17.2379 0.98037   4
   4   7   7 16.1506 1.11161   3
   4   7   7 14.3608 1.74128   1
  -5  -7  -7 33.0229 1.34228   4
   5   7   7 32.0421 2.34350   1
  -6  -7  -7 4.27018 0.74036   4
  -7  -7  -7 5.34037 0.83616   4
   2  -8  -7 34.2397 1.66364   2
   1  -8  -7 33.5208 1.53574   2
   0  -8  -7 0.69016 0.53894   4
   0  -8  -7 1.27033 0.61667   2
   0   8   7 0.67211 0.51875   3
  -1  -8  -7 0.37912 0.46101   4
  -1  -8  -7 0.80212 0.58480   2
   1   8   7 1.08544 0.60121   3
  -2  -8  -7 1.82407 0.55842   4
  -2  -8  -7 2.63538 0.57593   2
   2   8   7 1.50415 0.67080   3
  -3  -8  -7 74.6672 2.04633   4
   3   8   7 79.2468 2.26547   3
  -4  -8  -7 22.0009 1.11440   4
   4   8   7 21.3258 1.28524   3
  -5  -8  -7 47.1544 1.65096   4
   5   8   7 52.4954 1.95834   3
  -6  -8  -7 32.8352 1.41244   4
   0  -9  -7 -0.4192 0.47341   4
   0  -9  -7 -0.5775 0.57634   2
  -1  -9  -7 0.52122 0.63781   2
  -1  -9  -7 0.04833 0.53012   4
   1   9   7 0.21792 0.57860   3
  -2  -9  -7 5.80092 0.73332   4
  -2  -9  -7 6.20244 0.76006   2
   2   9   7 5.82965 0.84218   3
  -3  -9  -7 156.768 3.34855   4
   3   9   7 159.132 3.63759   3
  -4  -9  -7 49.7921 1.68228   4
   4   9   7 49.7441 1.94412   3
   4   8  -8 6.07072 1.02845   3
   3   8  -8 -1.2273 0.58310   3
   2   8  -8 1.56118 0.82429   3
   1   8  -8 0.80255 0.75485   3
   0   8  -8 32.0134 1.56869   3
  -1   8  -8 18.5073 1.32983   3
   1  -8   8 19.1345 1.21624   5
  -2   8  -8 18.0501 1.28368   3
   2  -8   8 21.1678 1.28562   5
  -3   8  -8 32.9017 1.60469   3
   3  -8   8 31.1862 1.55346   5
   5   7  -8 37.4161 1.68656   3
   4   7  -8 17.6493 1.22422   3
   3   7  -8 109.519 2.86021   3
   2   7  -8 98.0261 2.66373   3
  -2  -7   8 100.417 3.45422   1
   1   7  -8 343.564 6.26632   3
  -1  -7   8 334.098 7.26893   1
   0   7  -8 115.970 2.87731   3
   0  -7   8 107.903 3.62690   1
   0  -7   8 110.566 2.80714   5
  -1   7  -8 13.5195 1.07817   3
   1  -7   8 14.5033 1.06724   5
   1  -7   8 14.7723 1.56016   1
  -2   7  -8 19.2793 1.19609   3
   2  -7   8 19.2557 1.17576   5
  -3   7  -8 196.138 4.18877   3
   3  -7   8 201.427 4.25914   5
  -4   7  -8 21.2412 1.30764   3
   4  -7   8 17.5049 1.25584   5
  -5   7  -8 59.6700 2.08085   3
   5  -7   8 59.0808 2.16506   5
   6   6  -8 63.5380 2.01727   3
   6   6  -8 58.5932 2.14403   2
   5   6  -8 1.41632 0.64422   3
   4   6  -8 31.3294 1.42514   3
  -4  -6   8 33.2985 2.06611   1
   3   6  -8 24.0775 1.24333   3
  -3  -6   8 24.4745 1.71272   1
   2   6  -8 230.478 4.51314   3
  -2  -6   8 230.038 5.23728   1
   1   6  -8 20.0812 1.12619   3
  -1  -6   8 18.9099 1.47045   1
   0   6  -8 349.325 6.28725   3
   0  -6   8 354.262 7.09512   1
   0  -6   8 353.050 6.30248   5
  -1   6  -8 7.37898 0.82667   3
   1  -6   8 6.81334 0.80893   5
   1  -6   8 9.11712 1.18790   1
  -2   6  -8 157.758 3.46480   3
   2  -6   8 158.242 4.35304   1
   2  -6   8 161.048 3.47129   5
  -3   6  -8 3.22852 0.74829   3
   3  -6   8 4.74241 1.19931   1
   3  -6   8 3.39106 0.74540   5
  -4   6  -8 16.6062 1.11773   3
   4  -6   8 16.4584 1.15922   5
  -5   6  -8 3.83671 0.79626   3
   5  -6   8 3.26566 0.78673   5
  -6   6  -8 10.0819 1.01501   3
   6  -6   8 7.54090 1.01835   5
   6   5  -8 8.81644 0.84882   3
   6   5  -8 7.66588 0.99001   2
   5   5  -8 36.2077 1.43893   3
   5   5  -8 38.3509 1.59875   2
  -5  -5   8 37.4607 2.25303   1
   4   5  -8 41.2649 1.48626   3
  -4  -5   8 37.0331 1.96265   1
   3   5  -8 46.4755 1.58261   3
  -3  -5   8 49.1837 2.08776   1
   2   5  -8 666.960 10.7759   3
  -2  -5   8 657.826 10.6392   1
   1   5  -8 340.565 5.99130   3
  -1  -5   8 339.787 6.49376   1
   0   5  -8 139.396 3.57555   1
   0   5  -8 152.304 3.15812   3
   0  -5   8 147.122 3.60542   1
   0  -5   8 145.669 3.16334   5
  -1   5  -8 2.92567 0.70651   3
  -1   5  -8 2.03763 0.74588   1
   1  -5   8 2.34597 0.55708   5
   1  -5   8 2.41206 0.73732   1
  -2   5  -8 401.217 6.21059   4
  -2   5  -8 416.939 6.62562   3
   2  -5   8 409.511 6.58783   5
   2  -5   8 403.482 7.77505   1
  -3   5  -8 10.8168 0.90305   3
  -3   5  -8 9.50220 0.49397   4
   3  -5   8 11.3867 0.91396   5
   3  -5   8 8.97466 1.19824   1
  -4   5  -8 4.20964 0.68347   3
  -4   5  -8 4.99372 0.48458   4
   4  -5   8 4.62015 1.17078   1
   4  -5   8 6.46518 0.78324   5
  -5   5  -8 0.92461 0.54970   3
  -5   5  -8 0.56840 0.39832   4
   5  -5   8 0.56142 0.68265   5
   5  -5   8 1.50052 1.08059   1
  -6   5  -8 0.53441 0.64146   3
  -6   5  -8 0.77411 0.47375   4
   6  -5   8 1.26675 0.73004   5
  -7   5  -8 10.2966 0.97946   3
   7  -5   8 10.8537 1.13731   5
   7   4  -8 33.8178 1.64927   2
   6   4  -8 8.49855 0.95238   2
   6   4  -8 8.11933 0.76006   3
   5   4  -8 95.9407 2.30553   3
   5   4  -8 101.605 2.60111   2
  -5  -4   8 98.4078 3.19055   1
   4   4  -8 96.6531 2.28191   3
  -4  -4   8 96.1077 2.91093   1
   3   4  -8 188.701 3.65664   3
  -3  -4   8 194.310 4.21722   1
   2   4  -8 26.7519 1.32580   1
   2   4  -8 27.2425 1.12349   3
  -2  -4   8 26.8346 1.27969   1
  -2  -4   8 26.3329 1.33347   1
   1   4  -8 11.3136 0.88642   1
   1   4  -8 12.3981 0.83977   3
   1   4  -8 10.3617 0.37163   4
   1   4  -8 10.1122 0.37519   4
  -1  -4   8 12.0635 0.86943   1
  -1  -4   8 10.2383 0.88019   1
   0   4  -8 125.529 2.03290   4
   0   4  -8 125.536 2.89196   1
   0   4  -8 124.858 2.67999   3
   0  -4   8 124.453 2.93271   1
   0  -4   8 122.879 2.82683   1
   0  -4   8 125.320 2.74676   5
  -1   4  -8 68.2843 2.05818   1
  -1   4  -8 67.3497 1.82844   3
  -1   4  -8 69.6164 1.25956   4
   1  -4   8 70.8738 2.16202   1
   1  -4   8 70.8975 1.92842   5
   1  -4   8 69.8354 2.09245   1
  -2   4  -8 138.045 2.29844   4
  -2   4  -8 141.520 2.95333   3
  -2   4  -8 137.568 3.33208   1
   2  -4   8 140.102 3.02212   5
   2  -4   8 145.893 3.44469   1
   2  -4   8 133.080 3.42842   1
  -3   4  -8 517.044 9.40435   1
  -3   4  -8 529.027 8.25076   4
  -3   4  -8 540.094 8.82005   3
   3  -4   8 542.740 8.95628   5
   3  -4   8 521.986 9.44588   1
   3  -4   8 542.528 9.56577   1
  -4   4  -8 23.8289 0.87275   4
  -4   4  -8 24.7967 1.16355   3
   4  -4   8 22.4740 1.62230   1
   4  -4   8 20.7778 1.14321   5
  -5   4  -8 46.8079 1.61046   3
  -5   4  -8 43.9788 1.32497   4
   5  -4   8 50.1934 2.45922   1
   5  -4   8 40.9061 1.66097   5
  -6   4  -8 76.4383 1.92749   4
  -6   4  -8 76.2223 2.15137   3
   6  -4   8 79.2686 3.29311   1
   6  -4   8 73.6741 2.34503   5
  -7   4  -8 36.4665 1.51152   3
  -7   4  -8 35.4176 1.38756   4
   7  -4   8 35.3860 1.73559   5
  -8   4  -8 36.6233 1.50571   4
  -8   4  -8 35.6257 1.54862   3
   8  -4   8 34.4689 1.78818   5
   7   3  -8 26.2793 1.48695   2
   6   3  -8 7.93097 0.95713   2
   5   3  -8 90.6868 2.42058   2
   5   3  -8 89.7031 2.05612   3
  -5  -3   8 91.1531 2.88798   1
   4   3  -8 8.78633 0.81194   2
   4   3  -8 8.28630 0.66070   3
  -4  -3   8 9.00844 1.00759   1
   3   3  -8 567.494 9.00119   3
   3   3  -8 559.178 9.35807   1
  -3  -3   8 559.024 9.52659   1
  -3  -3   8 562.069 9.49326   1
   2   3  -8 1137.11 17.4966   4
   2   3  -8 1194.87 17.8872   3
   2   3  -8 1172.94 18.1586   1
  -2  -3   8 1164.00 18.1191   1
  -2  -3   8 1178.33 18.1703   1
   1   3  -8 7.20164 0.38567   4
   1   3  -8 7.66363 0.59640   1
   1   3  -8 7.36266 0.60782   3
   1   3  -8 7.45158 0.61438   1
  -1  -3   8 7.55742 0.64672   1
  -1  -3   8 8.16256 0.61406   1
   0   3  -8 237.694 3.78954   4
   0   3  -8 240.809 4.13903   1
   0   3  -8 231.956 4.20756   3
   0   3  -8 235.324 4.07254   1
   0  -3   8 243.216 4.34722   5
   0  -3   8 235.007 4.23798   1
   0  -3   8 234.402 4.11844   1
  -1   3  -8 96.7279 2.22842   1
  -1   3  -8 96.2431 1.72938   4
  -1   3  -8 94.8047 2.20093   1
  -1   3  -8 97.9330 2.17949   3
   1  -3   8 94.8327 2.21226   1
   1  -3   8 94.5581 2.21632   5
   1  -3   8 95.8559 2.25940   1
  -2   3  -8 -0.1117 0.39224   1
  -2   3  -8 0.04665 0.49270   3
  -2   3  -8 0.51313 0.26859   4
   2  -3   8 0.55782 0.48487   1
   2  -3   8 0.24742 0.42020   5
   2  -3   8 0.46763 0.45318   1
   2  -3   8 1.40656 0.24391   4
  -3   3  -8 58.2012 1.66809   3
  -3   3  -8 59.3581 2.00022   1
  -3   3  -8 58.2400 1.34445   4
   3  -3   8 59.6131 1.74481   5
   3  -3   8 57.5657 2.00839   1
   3  -3   8 55.7840 2.02461   1
  -4   3  -8 0.58649 0.50950   3
  -4   3  -8 1.41908 0.44364   4
  -4   3  -8 1.04248 0.67663   1
   4  -3   8 1.32568 0.79010   1
   4  -3   8 1.82086 0.77123   1
   4  -3   8 0.53467 0.51194   5
  -5   3  -8 1.68468 0.53975   3
  -5   3  -8 1.71646 0.49786   4
  -5   3  -8 0.49626 0.82135   1
   5  -3   8 0.83834 0.63546   5
   5  -3   8 1.02255 0.83190   1
  -6   3  -8 -0.0912 0.56199   3
  -6   3  -8 1.02698 0.51059   4
   6  -3   8 1.08353 0.93081   1
   6  -3   8 0.69481 0.60678   5
  -7   3  -8 64.6013 1.88682   4
  -7   3  -8 66.1714 1.98918   3
   7  -3   8 64.6970 1.74121   2
   7  -3   8 63.8979 2.23398   5
  -8   3  -8 13.8563 1.03934   3
  -8   3  -8 11.5247 1.00584   4
   8  -3   8 10.6713 1.17799   5
   7   2  -8 70.2270 2.29606   2
   6   2  -8 98.7361 2.65064   2
  -6  -2   8 100.028 3.32503   1
   5   2  -8 19.4693 1.15817   2
   5   2  -8 19.3237 0.78734   3
  -5  -2   8 18.1563 1.39924   1
   4   2  -8 357.813 5.92451   3
   4   2  -8 369.567 6.34441   2
  -4  -2   8 360.075 6.67648   1
   3   2  -8 517.655 8.81877   1
   3   2  -8 531.169 8.32918   3
   3   2  -8 527.985 8.64636   2
  -3  -2   8 527.761 8.83630   1
  -3  -2   8 524.216 8.80666   1
   2   2  -8 333.984 5.67629   1
   2   2  -8 330.536 5.55665   3
   2   2  -8 340.593 5.70097   1
  -2  -2   8 334.598 5.66102   1
  -2  -2   8 340.697 5.69722   1
   1   2  -8 607.728 9.54294   3
   0   2  -8 240.660 4.07056   3
   0   2  -8 232.350 3.83733   4
   0  -2   8 231.611 4.20195   5
  -1   2  -8 26.6157 0.76394   4
  -1   2  -8 24.9514 0.97519   3
  -1   2  -8 25.6818 0.82938   1
  -1   2  -8 26.2562 0.85757   1
   1  -2   8 26.2569 1.01521   5
   1  -2   8 26.4564 0.86233   1
   1  -2   8 26.3739 0.87086   1
  -2   2  -8 174.098 2.96870   4
  -2   2  -8 176.041 3.37595   1
  -2   2  -8 172.853 3.28969   3
  -2   2  -8 180.614 3.37560   1
   2  -2   8 173.709 3.35506   5
   2  -2   8 177.783 3.39698   1
   2  -2   8 175.312 3.39103   1
   2  -2   8 168.045 2.86680   4
  -3   2  -8 142.739 3.19575   1
  -3   2  -8 143.181 2.62921   4
   3  -2   8 148.297 2.99538   5
   3  -2   8 143.016 3.26082   1
  -4   2  -8 38.7971 1.71390   1
  -4   2  -8 40.3469 1.18103   4
   4  -2   8 40.6104 1.76869   1
   4  -2   8 39.9829 1.77289   1
   4  -2   8 37.6604 1.38319   5
  -5   2  -8 161.687 4.07653   1
  -5   2  -8 164.006 3.15063   4
   5  -2   8 159.301 4.13943   1
   5  -2   8 165.109 4.24466   1
   5  -2   8 167.196 3.48386   5
  -6   2  -8 23.2447 1.10027   4
   6  -2   8 23.9237 1.30042   5
   6  -2   8 22.3530 1.80197   1
  -7   2  -8 1.26556 0.62027   4
   7  -2   8 2.21629 1.17038   1
   7  -2   8 1.75890 0.44724   2
   7  -2   8 1.31988 0.68439   5
  -8   2  -8 2.62724 0.76569   4
   8  -2   8 1.78902 0.75255   5
  -9   2  -8 10.1354 1.01058   4
   9  -2   8 9.72142 1.25918   5
   7   1  -8 10.7352 1.13224   2
   6   1  -8 -0.2539 0.59864   2
  -6  -1   8 -0.7246 0.81467   1
   5   1  -8 92.6900 2.43272   2
  -5  -1   8 91.5701 2.83540   1
   4   1  -8 208.498 3.39771   3
   4   1  -8 216.751 4.12448   2
  -4  -1   8 208.334 4.41081   1
   3   1  -8 2471.62 37.3652   1
   3   1  -8 2486.29 36.7228   3
   3   1  -8 2514.63 37.1629   2
  -3  -1   8 2409.86 37.3050   1
  -3  -1   8 2508.75 37.3611   1
   2   1  -8 2.36423 0.54101   2
   2   1  -8 2.56839 0.39936   1
   2   1  -8 2.95670 0.41602   1
   2   1  -8 2.23536 0.35480   3
  -2  -1   8 2.87887 0.41095   1
  -2  -1   8 2.88694 0.41935   1
   1   1  -8 711.457 11.0310   2
   1   1  -8 702.565 10.8884   3
   0   1  -8 126.589 2.41762   3
   0   1  -8 126.973 2.29319   4
   0  -1   8 125.944 2.54371   5
  -1   1  -8 0.57936 0.33118   3
  -1   1  -8 0.18308 0.23603   4
   1  -1   8 0.41583 0.32309   5
  -2   1  -8 3.77943 0.40260   4
  -2   1  -8 4.19813 0.46603   1
  -2   1  -8 5.56057 0.47404   1
   2  -1   8 3.79091 0.49257   5
   2  -1   8 4.44427 0.47811   1
   2  -1   8 4.47611 0.48347   1
  -3   1  -8 0.15777 0.40066   1
  -3   1  -8 0.09073 0.41444   1
  -3   1  -8 -0.0040 0.19540   2
  -3   1  -8 0.30209 0.31785   4
   3  -1   8 0.17590 0.44099   1
   3  -1   8 -0.0608 0.34481   5
   3  -1   8 0.15792 0.45060   1
  -4   1  -8 56.4135 1.45626   4
  -4   1  -8 54.9608 1.18912   2
  -4   1  -8 57.7482 1.96827   1
   4  -1   8 56.5955 1.65162   5
   4  -1   8 56.7937 1.98313   1
   4  -1   8 54.7751 2.00643   1
  -5   1  -8 -0.7227 0.62674   1
  -5   1  -8 0.45141 0.25455   2
  -5   1  -8 -0.6154 0.44459   4
   5  -1   8 0.29150 0.52505   5
   5  -1   8 -0.2196 0.73166   1
   5  -1   8 -0.8851 0.59328   1
  -6   1  -8 329.576 5.70917   4
  -6   1  -8 328.769 6.88133   1
   6  -1   8 323.799 6.99446   1
   6  -1   8 332.499 6.00036   5
  -7   1  -8 15.2067 1.02153   4
   7  -1   8 14.6548 1.67386   1
   7  -1   8 14.2027 1.14906   5
  -8   1  -8 -0.7618 0.55460   4
   8  -1   8 0.18364 0.79061   5
  -9   1  -8 1.28350 0.72362   4
   9  -1   8 3.99839 0.95887   5
   7   0  -8 42.1280 1.82390   2
   6   0  -8 9.81441 1.00328   2
  -6   0   8 8.70853 1.31870   1
   5   0  -8 118.749 2.89697   2
  -5   0   8 129.324 3.49154   1
   4   0  -8 550.855 9.10877   2
   4   0  -8 552.089 8.29579   3
  -4   0   8 543.589 8.80319   1
   3   0  -8 47.7198 1.04427   3
   3   0  -8 46.7102 1.60567   1
   3   0  -8 46.3140 1.50649   2
  -3   0   8 50.6673 1.63039   1
  -3   0   8 50.1412 1.65695   1
   2   0  -8 228.334 4.07567   2
   2   0  -8 224.058 3.73610   1
   2   0  -8 229.234 3.74291   3
   2   0  -8 230.042 3.76892   1
  -2   0   8 228.109 3.92989   1
  -2   0   8 222.847 3.80853   1
   1   0  -8 5.73891 0.52990   2
   1   0  -8 6.96426 0.42932   3
   0   0  -8 85.2582 1.78578   2
   0   0   8 88.0722 1.90188   5
  -1   0  -8 814.696 12.3887   4
  -1   0  -8 789.150 12.2899   2
   1   0   8 829.031 12.5311   5
  -2   0  -8 389.137 6.25283   1
  -2   0  -8 381.829 6.24370   1
  -2   0  -8 388.338 6.20132   4
   2   0   8 384.788 6.33918   5
   2   0   8 377.617 6.25168   1
   2   0   8 389.707 6.28093   1
  -3   0  -8 122.782 2.34842   4
  -3   0  -8 116.685 1.87515   2
  -3   0  -8 119.052 2.63242   1
  -3   0  -8 119.670 2.66025   1
   3   0   8 113.114 2.62977   1
   3   0   8 121.559 2.47029   5
   3   0   8 118.180 2.67776   1
  -4   0  -8 152.817 2.94561   4
  -4   0  -8 155.690 3.53404   1
  -4   0  -8 153.216 2.51826   2
   4   0   8 157.431 3.54754   1
   4   0   8 157.622 3.58498   1
   4   0   8 155.175 3.08258   5
  -5   0  -8 63.1447 1.68520   4
  -5   0  -8 62.6386 2.30866   1
  -5   0  -8 61.3452 1.14081   2
   5   0   8 62.6754 2.35418   1
   5   0   8 63.7268 1.80117   5
   5   0   8 62.7889 2.30865   1
  -6   0  -8 9.57752 1.23620   1
  -6   0  -8 9.27075 0.83400   4
   6   0   8 10.1540 1.31776   1
   6   0   8 9.31600 0.87171   5
  -7   0  -8 3.00804 0.64469   4
   7   0   8 1.33044 0.70697   5
   7   0   8 3.05152 1.09007   1
  -8   0  -8 0.70006 0.69825   4
   8   0   8 -1.1011 1.18240   1
   8   0   8 -0.2591 0.69204   5
  -9   0  -8 4.40050 0.93266   4
   9   0   8 5.67826 1.05243   5
   7  -1  -8 0.15622 0.71613   2
   6  -1  -8 77.3475 2.36472   2
   5  -1  -8 -0.3384 0.67454   2
  -5   1   8 1.88181 0.84583   1
   4  -1  -8 1243.73 18.9763   2
  -4   1   8 1198.97 19.5510   1
   3  -1  -8 639.708 10.6929   1
   3  -1  -8 633.799 10.2845   2
  -3   1   8 636.103 10.6714   1
  -3   1   8 648.156 10.7087   1
   2  -1  -8 213.587 3.91786   1
   2  -1  -8 206.734 3.79564   2
   2  -1  -8 207.066 3.88023   1
   2  -1  -8 210.880 3.36714   3
  -2   1   8 208.482 3.86839   1
  -2   1   8 198.807 3.89883   1
   1  -1  -8 39.7270 1.17277   2
   1  -1  -8 41.7297 1.11236   1
   1  -1  -8 41.0078 1.11584   1
  -1   1   8 40.7983 1.10598   1
  -1   1   8 39.8942 1.12718   1
   0  -1  -8 228.333 3.70044   2
   0   1   8 240.270 3.79527   5
  -1  -1  -8 19.3057 0.66945   2
  -1  -1  -8 20.9757 0.69574   1
  -1  -1  -8 19.5351 0.78554   4
  -1  -1  -8 19.2474 0.64920   1
   1   1   8 19.9322 0.66536   1
   1   1   8 19.1953 0.75483   5
   1   1   8 21.8920 0.72248   1
  -2  -1  -8 276.997 4.29903   4
  -2  -1  -8 278.607 4.36910   1
  -2  -1  -8 269.386 4.36961   1
  -2  -1  -8 270.728 4.28930   2
   2   1   8 263.042 4.33153   1
   2   1   8 274.623 4.36237   1
   2   1   8 270.531 4.58887   5
  -3  -1  -8 137.490 2.99448   1
  -3  -1  -8 138.140 2.19397   2
  -3  -1  -8 136.034 2.18718   2
  -3  -1  -8 130.935 2.91213   1
  -3  -1  -8 142.203 2.65877   4
   3   1   8 140.504 2.67268   5
   3   1   8 137.423 3.03222   1
   3   1   8 134.448 3.00011   1
  -4  -1  -8 364.414 5.83434   4
  -4  -1  -8 362.143 6.67693   1
   4   1   8 363.344 6.71669   1
   4   1   8 360.243 6.64522   1
   4   1   8 368.667 6.14659   5
  -5  -1  -8 213.558 4.80317   1
  -5  -1  -8 205.954 3.90891   4
   5   1   8 216.618 4.84118   1
   5   1   8 212.200 4.76036   1
   5   1   8 217.106 4.03544   5
  -6  -1  -8 12.1035 1.36048   1
  -6  -1  -8 13.1112 0.91981   4
   6   1   8 12.5578 0.92693   5
   6   1   8 9.68778 1.36749   1
   6   1   8 10.8509 1.33405   1
  -7  -1  -8 205.385 5.88480   1
  -7  -1  -8 204.783 4.05868   4
   7   1   8 203.491 5.40421   1
   7   1   8 207.060 4.22318   5
  -8  -1  -8 5.81145 0.81394   4
   8   1   8 7.69779 0.99706   5
   8   1   8 5.90780 1.46549   1
  -9  -1  -8 53.5998 1.97232   4
   9   1   8 55.0311 2.14219   5
   7  -2  -8 1.19202 0.84575   2
   6  -2  -8 124.088 3.18643   2
   5  -2  -8 359.958 6.53664   2
  -5   2   8 360.736 7.41435   1
   4  -2  -8 103.711 2.57350   2
  -4   2   8 103.056 3.08082   1
   3  -2  -8 111.687 2.57338   2
   3  -2  -8 112.341 2.97056   1
  -3   2   8 114.353 2.95344   1
   2  -2  -8 205.011 3.83079   2
   2  -2  -8 205.788 4.13186   1
   2  -2  -8 210.054 3.27971   3
   2  -2  -8 202.102 3.27097   3
  -2   2   8 206.214 4.18281   1
  -2   2   8 208.534 4.12735   1
   1  -2  -8 189.446 3.43245   2
   1  -2  -8 185.984 3.59714   1
   1  -2  -8 184.239 3.12081   3
  -1   2   8 186.710 3.64224   1
  -1   2   8 192.352 3.65466   1
   0  -2  -8 127.377 2.40748   2
   0  -2  -8 126.282 2.55087   1
   0  -2  -8 122.737 2.29517   3
   0  -2  -8 131.873 2.61565   1
   0  -2  -8 127.762 2.28781   5
   0   2   8 127.020 2.60276   1
   0   2   8 124.633 2.57143   1
  -1  -2  -8 524.460 8.48636   1
  -1  -2  -8 515.158 8.08886   5
  -1  -2  -8 520.973 8.44001   1
  -1  -2  -8 525.471 8.28273   4
  -1  -2  -8 522.014 8.05671   2
   1   2   8 511.914 8.45956   1
   1   2   8 530.500 8.50097   1
   1   2   8 516.596 8.10131   5
  -2  -2  -8 58.5877 1.16629   2
  -2  -2  -8 59.9660 1.48400   4
  -2  -2  -8 58.2358 1.31426   5
  -2  -2  -8 58.2812 1.65007   1
  -2  -2  -8 62.5669 1.73053   1
   2   2   8 60.8984 1.34749   5
   2   2   8 59.1484 1.72609   1
   2   2   8 56.8372 1.68093   1
  -3  -2  -8 241.085 3.87791   4
  -3  -2  -8 240.210 4.62412   1
  -3  -2  -8 235.991 4.66388   1
   3   2   8 233.932 4.66715   1
   3   2   8 240.747 3.83924   5
  -4  -2  -8 11.5385 0.73983   4
  -4  -2  -8 11.1030 1.05257   1
   4   2   8 9.71915 0.66465   5
   4   2   8 11.2317 1.08018   1
   4   2   8 9.94952 0.99322   1
  -5  -2  -8 15.0284 0.90479   4
  -5  -2  -8 16.4763 1.33721   1
   5   2   8 14.4092 0.83563   5
   5   2   8 13.2530 1.27795   1
   5   2   8 16.3775 1.34165   1
  -6  -2  -8 332.971 5.72296   4
  -6  -2  -8 320.770 6.86247   1
   6   2   8 323.598 5.74147   5
   6   2   8 317.259 6.89473   1
  -7  -2  -8 71.7864 3.42908   1
  -7  -2  -8 74.7976 2.10644   4
   7   2   8 72.7587 2.14433   5
   7   2   8 71.2736 3.09960   1
  -8  -2  -8 75.4769 2.20179   4
   8   2   8 71.7100 2.27143   5
   8   2   8 66.9429 3.29194   1
  -9  -2  -8 35.0265 1.63329   4
   9   2   8 35.4576 1.73801   5
   6  -3  -8 3.72525 0.99421   2
   5  -3  -8 434.382 7.52741   2
  -5   3   8 402.373 8.73026   1
   4  -3  -8 298.942 5.50109   2
  -4   3   8 289.918 6.24021   1
   3  -3  -8 16.6563 1.02556   2
  -3   3   8 18.1141 1.33868   1
   2  -3  -8 9.52146 0.97933   1
   2  -3  -8 8.75363 0.75049   2
   2  -3  -8 10.1767 0.39700   3
  -2   3   8 12.1557 1.08621   1
  -2   3   8 11.4396 1.02056   1
   1  -3  -8 230.936 4.56509   1
   1  -3  -8 228.110 3.80499   5
   1  -3  -8 235.346 4.10713   2
   1  -3  -8 224.029 3.72105   3
  -1   3   8 221.192 4.52774   1
   0  -3  -8 181.745 3.06467   5
   0  -3  -8 183.630 3.27963   2
   0  -3  -8 183.253 3.76031   1
   0   3   8 180.606 3.75333   1
  -1  -3  -8 28.9687 1.05400   4
  -1  -3  -8 30.3581 0.77456   5
  -1  -3  -8 30.5694 0.90082   2
  -1  -3  -8 32.8642 1.34177   1
  -1  -3  -8 27.1692 1.27348   1
   1   3   8 31.5692 1.32386   1
   1   3   8 29.5503 0.87646   2
   1   3   8 29.5850 0.79475   5
  -2  -3  -8 38.1172 1.53844   1
  -2  -3  -8 39.7669 0.92710   2
  -2  -3  -8 39.2172 1.20354   4
   2   3   8 38.9845 0.95387   5
   2   3   8 37.6309 1.55913   1
   2   3   8 40.4789 0.89260   2
  -3  -3  -8 0.14247 0.42412   4
  -3  -3  -8 0.15911 0.14713   2
  -3  -3  -8 -0.0773 0.56133   1
   3   3   8 -0.7052 0.46174   1
   3   3   8 -0.0286 0.25110   5
   3   3   8 0.13423 0.54441   1
  -4  -3  -8 117.234 2.49660   4
  -4  -3  -8 116.589 3.21229   1
   4   3   8 115.881 3.21629   1
   4   3   8 115.669 3.18829   1
   4   3   8 115.357 2.31552   5
  -5  -3  -8 352.195 5.91444   4
  -5  -3  -8 333.248 6.90587   1
   5   3   8 341.780 5.63438   5
   5   3   8 343.508 7.03124   1
   5   3   8 333.949 6.88185   1
  -6  -3  -8 226.298 4.25972   4
  -6  -3  -8 222.107 5.42284   1
   6   3   8 214.429 5.44783   1
   6   3   8 227.201 4.22393   5
  -7  -3  -8 177.838 3.69751   4
   7   3   8 178.193 5.11266   1
   7   3   8 176.297 3.69832   5
  -8  -3  -8 7.75265 0.89652   4
   8   3   8 7.28792 0.94010   5
  -9  -3  -8 72.4235 2.31096   4
   6  -4  -8 51.6534 2.08194   2
   5  -4  -8 1.51920 0.78669   2
   4  -4  -8 9.12512 0.94709   2
  -4   4   8 9.57188 1.36018   1
   3  -4  -8 3.51096 0.73445   2
  -3   4   8 5.02167 1.03238   1
   2  -4  -8 12.6871 0.90293   2
  -2   4   8 13.9655 1.25009   1
   1  -4  -8 12.1798 1.10619   1
   1  -4  -8 11.7875 0.54323   3
   1  -4  -8 12.0760 0.83093   2
  -1   4   8 11.7533 1.07317   1
  -1   4   8 11.7442 1.09725   1
   0  -4  -8 41.5985 0.85413   5
   0  -4  -8 42.9671 1.27624   2
   0  -4  -8 45.6857 1.82813   1
   0   4   8 38.4322 1.68394   1
   0   4   8 38.7747 1.72701   1
  -1  -4  -8 82.5512 2.49811   1
  -1  -4  -8 82.4346 1.95190   4
  -1  -4  -8 82.8403 1.77070   2
   1   4   8 83.1999 2.45448   1
   1   4   8 77.1772 2.43634   1
  -2  -4  -8 51.0420 1.44235   4
  -2  -4  -8 52.5313 1.98998   1
  -2  -4  -8 47.9560 1.15159   2
   2   4   8 49.9344 1.00583   5
   2   4   8 48.1097 1.11411   2
   2   4   8 45.3442 1.85563   1
   2   4   8 53.7698 2.00754   1
  -3  -4  -8 192.607 3.13069   2
  -3  -4  -8 198.307 3.64049   4
  -3  -4  -8 191.696 4.44677   1
   3   4   8 189.863 3.24953   5
   3   4   8 189.877 3.11932   2
   3   4   8 199.366 4.47794   1
   3   4   8 192.838 4.43774   1
  -4  -4  -8 30.3038 1.16830   4
  -4  -4  -8 31.6313 1.76036   1
   4   4   8 28.9752 0.92127   5
   4   4   8 28.1488 1.67428   1
   4   4   8 31.6660 1.80959   1
  -5  -4  -8 27.2743 1.80464   1
  -5  -4  -8 26.7400 1.17987   4
   5   4   8 27.0576 1.81990   1
   5   4   8 25.6387 0.98718   5
  -6  -4  -8 19.3039 1.72826   1
  -6  -4  -8 20.5332 1.11481   4
   6   4   8 19.9470 1.83537   1
   6   4   8 19.6554 0.99168   5
  -7  -4  -8 0.61989 0.58984   4
   7   4   8 1.02092 0.54020   5
   7   4   8 1.23906 1.04493   1
  -8  -4  -8 33.4099 1.51210   4
  -9  -4  -8 32.7051 1.60963   4
   5  -5  -8 379.631 7.09727   2
   4  -5  -8 25.0439 1.43495   2
   3  -5  -8 52.7868 1.86860   2
  -3   5   8 54.6217 2.57568   1
   2  -5  -8 67.6286 1.99424   2
  -2   5   8 68.6314 2.72284   1
   1  -5  -8 20.1141 1.04585   2
  -1   5   8 19.7790 1.47940   1
   0  -5  -8 35.8986 1.26381   2
   0  -5  -8 37.8693 1.89258   1
   0   5   8 35.3488 1.84647   1
  -1  -5  -8 0.06162 0.44636   2
  -1  -5  -8 0.53799 0.45908   4
  -1  -5  -8 0.22575 0.64425   1
   1   5   8 0.55147 0.67658   1
   1   5   8 -0.3622 0.67658   1
  -2  -5  -8 3.94568 0.90608   1
  -2  -5  -8 2.88515 0.43469   2
  -2  -5  -8 3.82927 0.57143   4
   2   5   8 3.37225 0.82846   1
   2   5   8 2.30065 0.78997   1
  -3  -5  -8 92.2240 3.05559   1
  -3  -5  -8 96.4879 2.23625   4
  -3  -5  -8 97.5768 1.81164   2
   3   5   8 97.4577 1.53782   5
   3   5   8 91.8384 3.06149   1
   3   5   8 96.8672 3.15042   1
  -4  -5  -8 12.6549 0.83312   4
  -4  -5  -8 13.6759 1.38244   1
   4   5   8 13.8879 0.58719   5
   4   5   8 11.5667 1.32706   1
  -5  -5  -8 247.196 4.57702   4
  -5  -5  -8 243.638 5.89137   1
   5   5   8 251.371 5.98670   1
   5   5   8 240.996 3.93241   5
  -6  -5  -8 21.0801 1.13659   4
   6   5   8 21.0392 1.90170   1
   6   5   8 20.3700 0.96154   5
  -7  -5  -8 77.9521 2.22039   4
   7   5   8 79.0204 3.54657   1
   7   5   8 75.2410 2.06973   5
  -8  -5  -8 13.6150 1.11138   4
   4  -6  -8 20.4367 1.44712   2
   3  -6  -8 20.3137 1.35082   2
   2  -6  -8 22.9443 1.30538   2
  -2   6   8 23.6408 1.85345   1
   1  -6  -8 3.45479 0.76376   2
  -1   6   8 3.25744 0.98556   1
   0  -6  -8 70.4151 1.92007   2
   0  -6  -8 72.9327 1.95531   4
   0   6   8 73.5271 2.87386   1
  -1  -6  -8 76.4893 1.90810   2
  -1  -6  -8 79.1541 2.03018   4
   1   6   8 83.1588 3.00496   1
  -2  -6  -8 6.59219 0.57694   2
  -2  -6  -8 7.21146 1.23751   1
  -2  -6  -8 7.16146 0.71220   4
   2   6   8 5.92682 1.09397   1
  -3  -6  -8 67.0360 2.87872   1
  -3  -6  -8 66.3281 1.82329   4
  -3  -6  -8 65.0534 1.48120   2
   3   6   8 64.6161 2.77615   1
  -4  -6  -8 280.069 4.99565   4
   4   6   8 265.057 6.37651   1
  -5  -6  -8 0.64517 0.55462   4
   5   6   8 -0.0718 1.04721   1
  -6  -6  -8 109.099 2.64345   4
   6   6   8 104.292 4.01248   1
  -7  -6  -8 17.9897 1.16196   4
  -8  -6  -8 6.59421 0.91586   4
   3  -7  -8 12.2105 1.20358   2
   2  -7  -8 21.3871 1.30398   2
   1  -7  -8 47.4289 1.73383   2
   0  -7  -8 30.9966 1.28078   4
   0  -7  -8 28.6284 1.28048   2
   0   7   8 30.7100 2.11129   1
  -1  -7  -8 20.6288 1.07130   4
  -1  -7  -8 17.9558 0.98577   2
   1   7   8 18.7492 1.78278   1
  -2  -7  -8 23.1924 0.99706   2
  -2  -7  -8 24.6965 1.13283   4
   2   7   8 24.7064 1.96490   1
  -3  -7  -8 11.5382 0.68531   2
  -3  -7  -8 12.3644 0.88251   4
   3   7   8 12.1248 1.60145   1
  -4  -7  -8 209.930 4.10047   4
   4   7   8 206.300 5.68436   1
  -5  -7  -8 135.875 3.05760   4
  -6  -7  -8 68.7519 2.06228   4
  -7  -7  -8 4.51726 0.82386   4
   2  -8  -8 -0.8035 0.78285   2
   1  -8  -8 31.5685 1.41967   4
   1  -8  -8 29.0687 1.48103   2
   0  -8  -8 0.07653 0.64140   2
   0  -8  -8 0.81295 0.57371   4
  -1  -8  -8 59.9054 1.83230   2
  -1  -8  -8 62.6309 1.87523   4
  -2  -8  -8 7.37569 0.72552   2
  -2  -8  -8 8.35267 0.82980   4
  -3  -8  -8 12.5289 0.94555   4
  -4  -8  -8 9.70092 0.89737   4
  -5  -8  -8 11.4134 0.93417   4
  -6  -8  -8 2.06288 0.66257   4
  -1  -9  -8 46.9296 1.71283   2
  -1  -9  -8 49.2596 1.70150   4
  -2  -9  -8 84.7593 2.32826   4
   2   9   8 90.2689 2.48307   3
  -3  -9  -8 36.7609 1.49324   4
   3   9   8 38.1171 1.70409   3
  -4  -9  -8 144.781 3.25575   4
   3   8  -9 12.1619 1.14730   3
   2   8  -9 71.2677 2.39589   3
   1   8  -9 181.203 4.11431   3
   0   8  -9 0.72633 0.70695   3
  -1   8  -9 109.847 3.00035   3
   1  -8   9 104.879 2.89931   5
  -2   8  -9 37.8886 1.72938   3
   2  -8   9 36.0045 1.67956   5
   4   7  -9 4.29343 0.84269   3
   3   7  -9 21.8290 1.34297   3
   2   7  -9 7.75506 0.95322   3
   1   7  -9 281.554 5.46949   3
   0   7  -9 496.117 8.62991   3
   0  -7   9 495.471 8.20477   5
  -1   7  -9 27.4231 1.45125   3
   1  -7   9 25.7847 1.38768   5
  -2   7  -9 93.5659 2.63963   3
   2  -7   9 98.7887 2.70116   5
  -3   7  -9 3.27354 0.78257   3
   3  -7   9 4.96512 0.80912   5
  -4   7  -9 0.29269 0.76084   3
   4  -7   9 -0.7962 0.55057   5
   5   6  -9 1.46678 0.66664   3
   4   6  -9 6.13399 0.84535   3
   3   6  -9 91.1950 2.45791   3
  -3  -6   9 88.5436 3.02725   1
   2   6  -9 135.788 3.13359   3
  -2  -6   9 131.958 3.66409   1
   1   6  -9 58.5625 1.92606   3
  -1  -6   9 61.3353 2.37378   1
   0   6  -9 36.7719 1.52863   3
   0  -6   9 38.4123 1.94455   1
   0  -6   9 38.8540 1.59271   5
  -1   6  -9 0.23983 0.67614   3
   1  -6   9 0.06614 0.68159   1
   1  -6   9 -0.1732 0.53481   5
  -2   6  -9 15.1192 1.12040   3
   2  -6   9 12.7446 1.39248   1
   2  -6   9 13.3155 1.04276   5
  -3   6  -9 17.0144 1.14028   3
   3  -6   9 16.5236 1.16709   5
   3  -6   9 16.9866 1.62149   1
  -4   6  -9 38.2270 1.63339   3
   4  -6   9 37.7643 1.68234   5
  -5   6  -9 0.83000 0.63749   3
   5  -6   9 0.98974 0.70504   5
  -6   6  -9 14.3074 1.17503   3
   6  -6   9 15.8066 1.32265   5
   6   5  -9 49.2037 1.98225   2
   5   5  -9 6.56950 0.79437   3
   5   5  -9 8.35722 0.99067   2
   4   5  -9 12.3553 0.93204   3
  -4  -5   9 12.3747 1.29782   1
   3   5  -9 169.952 3.55735   3
  -3  -5   9 176.089 4.12669   1
   2   5  -9 147.949 3.22035   3
  -2  -5   9 149.445 3.62966   1
   1   5  -9 2323.65 34.5687   3
  -1  -5   9 2249.15 35.0605   1
   0   5  -9 13.9055 0.96361   3
   0  -5   9 12.1673 0.92632   5
   0  -5   9 14.5877 1.15276   1
  -1   5  -9 697.045 11.4858   3
   1  -5   9 718.425 11.6210   5
   1  -5   9 708.453 11.6388   1
  -2   5  -9 1.34736 0.56117   3
   2  -5   9 0.64570 0.66948   1
   2  -5   9 3.70766 0.65399   5
  -3   5  -9 2.58530 0.68585   3
   3  -5   9 2.49238 0.72925   5
   3  -5   9 2.54743 0.90124   1
  -4   5  -9 19.0924 1.13403   3
   4  -5   9 19.1302 1.68280   1
   4  -5   9 21.1541 1.23381   5
  -5   5  -9 25.3882 1.29779   3
   5  -5   9 25.9972 1.44180   5
  -6   5  -9 1.27839 0.73372   3
   6  -5   9 3.19224 0.88162   5
  -7   5  -9 117.507 3.00842   3
   7  -5   9 114.561 3.26906   5
   6   4  -9 11.4441 1.07869   2
   5   4  -9 3.38060 0.60657   3
   5   4  -9 4.95311 0.88406   2
  -5  -4   9 4.01339 1.02420   1
   4   4  -9 6.60107 0.71218   3
   4   4  -9 6.76407 0.88554   2
  -4  -4   9 7.10879 1.01403   1
   3   4  -9 337.030 5.76834   3
  -3  -4   9 327.136 6.19820   1
   2   4  -9 337.462 5.79279   3
  -2  -4   9 332.732 6.07910   1
   1   4  -9 457.989 7.04472   4
   1   4  -9 458.857 7.55839   3
  -1  -4   9 462.069 7.85381   1
  -1  -4   9 464.751 7.45982   1
   0   4  -9 0.48822 0.20805   4
   0   4  -9 0.84590 0.48197   1
   0   4  -9 0.62058 0.52588   3
   0  -4   9 0.55540 0.44384   1
   0  -4   9 0.76206 0.49020   1
   0  -4   9 1.36112 0.59887   5
  -1   4  -9 422.440 6.93725   1
  -1   4  -9 436.263 6.79089   3
  -1   4  -9 429.924 6.55117   4
   1  -4   9 423.719 6.81513   5
   1  -4   9 421.465 7.13670   1
   1  -4   9 428.485 6.92012   1
  -2   4  -9 18.6519 0.62670   4
  -2   4  -9 19.0426 1.25170   1
  -2   4  -9 19.4304 1.05970   3
   2  -4   9 19.3554 1.09909   5
   2  -4   9 17.0549 1.18508   1
   2  -4   9 17.7470 1.21357   1
  -3   4  -9 4.63617 0.44606   4
  -3   4  -9 4.04875 0.67562   3
   3  -4   9 4.49100 0.89449   1
   3  -4   9 4.95897 0.68907   5
  -4   4  -9 59.1330 1.46826   4
  -4   4  -9 61.7362 1.87976   3
   4  -4   9 61.3835 1.96060   5
   4  -4   9 58.9239 2.44996   1
  -5   4  -9 82.6436 1.90707   4
  -5   4  -9 80.7805 2.24106   3
   5  -4   9 80.8014 2.38235   5
   5  -4   9 83.1934 3.14397   1
  -6   4  -9 70.8081 2.12005   3
  -6   4  -9 67.2323 1.83030   4
   6  -4   9 72.1026 2.34869   5
  -7   4  -9 37.8411 1.59286   3
  -7   4  -9 33.0795 1.34745   4
   7  -4   9 31.7314 1.66879   5
   7   3  -9 27.3437 1.55672   2
   6   3  -9 46.0155 1.85341   2
   5   3  -9 10.1056 0.95857   2
   5   3  -9 10.6195 0.73404   3
  -5  -3   9 9.36928 1.15558   1
   4   3  -9 87.3425 2.03211   3
   4   3  -9 87.4632 2.35172   2
  -4  -3   9 84.0549 2.50649   1
   3   3  -9 71.3943 2.01833   2
   3   3  -9 71.9544 1.80136   3
  -3  -3   9 72.4541 2.08172   1
   2   3  -9 1120.44 17.4612   1
   2   3  -9 1137.13 17.3558   3
  -2  -3   9 1120.20 17.4621   1
  -2  -3   9 1138.20 17.4435   1
   1   3  -9 15.1508 0.85600   3
   1   3  -9 15.0648 0.75804   1
   1   3  -9 14.4780 0.57133   4
   1   3  -9 15.2119 0.73480   1
  -1  -3   9 15.4035 0.77695   1
  -1  -3   9 14.5704 0.71344   1
   0   3  -9 80.7662 1.77481   1
   0   3  -9 81.4888 1.96988   3
   0   3  -9 78.1119 1.77831   1
   0   3  -9 79.1370 1.53459   4
   0  -3   9 79.5467 1.83079   1
   0  -3   9 81.3344 1.77836   1
   0  -3   9 80.0652 2.08017   5
  -1   3  -9 83.5623 1.96838   1
  -1   3  -9 84.0396 2.04318   3
  -1   3  -9 82.7373 1.60684   4
   1  -3   9 85.1413 1.98424   1
   1  -3   9 82.0000 2.12307   5
   1  -3   9 84.7074 2.02529   1
  -2   3  -9 69.9797 1.95545   1
  -2   3  -9 71.5149 1.88633   3
  -2   3  -9 71.4108 1.49437   4
   2  -3   9 73.7981 2.00894   1
   2  -3   9 74.8657 1.99973   5
   2  -3   9 73.9413 2.06269   1
  -3   3  -9 74.9048 2.26271   1
  -3   3  -9 77.2344 1.64813   4
  -3   3  -9 79.4239 2.04656   3
   3  -3   9 75.9427 2.34552   1
   3  -3   9 74.3762 2.07688   5
  -4   3  -9 0.79710 0.42426   4
  -4   3  -9 0.50822 0.49616   3
   4  -3   9 0.70127 0.62072   5
   4  -3   9 2.34317 0.79455   1
  -5   3  -9 1.77344 0.49390   4
  -5   3  -9 1.17633 0.57405   3
   5  -3   9 0.72104 0.56954   5
   5  -3   9 -0.0599 0.80572   1
  -6   3  -9 68.0382 2.01481   3
  -6   3  -9 64.8380 1.80047   4
   6  -3   9 64.3698 2.90520   1
   6  -3   9 63.9229 2.15383   5
  -7   3  -9 21.1444 1.23444   3
  -7   3  -9 21.9029 1.13775   4
   7  -3   9 20.2604 1.38541   5
  -8   3  -9 1.38250 0.64253   3
  -8   3  -9 0.26818 0.58755   4
   8  -3   9 1.45960 0.78170   5
   7   2  -9 6.16508 0.99692   2
   6   2  -9 1.05809 0.78879   2
   5   2  -9 70.8499 2.16195   2
  -5  -2   9 68.3812 2.44464   1
   4   2  -9 53.5672 1.40271   3
   4   2  -9 54.4888 1.78223   2
  -4  -2   9 57.7494 1.95997   1
   3   2  -9 181.040 3.61934   2
   3   2  -9 177.557 3.27200   3
  -3  -2   9 181.630 3.58824   1
  -3  -2   9 175.752 3.54409   1
   2   2  -9 17.1683 0.96325   2
   2   2  -9 16.7222 0.72932   1
   2   2  -9 17.0630 0.75588   1
   2   2  -9 16.8266 0.77575   3
  -2  -2   9 18.5757 0.78167   1
  -2  -2   9 17.5256 0.72875   1
   1   2  -9 9.32731 0.61735   3
   0   2  -9 8.10095 0.62275   3
   0   2  -9 8.73796 0.48780   4
   0  -2   9 8.28318 0.67816   5
  -1   2  -9 67.9149 1.71886   3
  -1   2  -9 66.7971 1.43779   4
   1  -2   9 69.2399 1.82430   5
  -2   2  -9 258.647 4.26065   1
  -2   2  -9 255.938 4.45238   1
  -2   2  -9 254.161 4.11035   4
  -2   2  -9 253.782 4.55408   3
   2  -2   9 258.482 4.40398   1
   2  -2   9 257.489 4.65667   5
   2  -2   9 256.019 4.46136   1
  -3   2  -9 83.9342 1.78724   4
  -3   2  -9 84.2621 2.06679   3
  -3   2  -9 85.0494 2.24433   1
   3  -2   9 83.7162 2.12950   5
   3  -2   9 86.1154 2.28623   1
   3  -2   9 83.3753 2.27488   1
  -4   2  -9 206.648 4.43735   1
  -4   2  -9 210.817 3.69409   4
   4  -2   9 202.741 4.46293   1
   4  -2   9 206.847 4.49401   1
   4  -2   9 204.171 4.06136   5
  -5   2  -9 376.924 5.90093   4
   5  -2   9 366.572 7.36287   1
   5  -2   9 376.188 6.64610   5
  -6   2  -9 65.7312 1.82929   4
   6  -2   9 68.7703 2.85011   1
   6  -2   9 65.2449 2.10912   5
  -7   2  -9 37.4195 1.46795   4
   7  -2   9 37.6931 2.47760   1
   7  -2   9 39.4218 1.72963   5
  -8   2  -9 88.3570 2.40316   4
   8  -2   9 84.8221 2.70612   5
   7   1  -9 65.7883 2.29845   2
   6   1  -9 16.9797 1.22123   2
   5   1  -9 11.3310 0.97547   2
  -5  -1   9 12.5332 1.21929   1
   4   1  -9 0.33268 0.53382   2
   4   1  -9 0.65927 0.30592   3
  -4  -1   9 -0.5617 0.50255   1
   3   1  -9 581.599 9.03874   3
   3   1  -9 582.413 9.51016   2
   3   1  -9 580.900 9.52019   1
  -3  -1   9 575.162 9.49825   1
  -3  -1   9 581.541 9.49445   1
   2   1  -9 162.437 2.90093   3
   2   1  -9 156.936 3.17644   2
   1   1  -9 118.926 2.45505   2
   1   1  -9 118.830 2.31701   3
   0   1  -9 91.1779 1.86236   4
   0   1  -9 93.5961 1.98412   3
   0  -1   9 92.9732 2.12750   5
  -1   1  -9 16.4741 0.67355   4
  -1   1  -9 16.3071 0.78063   3
   1  -1   9 17.7204 0.88798   5
  -2   1  -9 4.40855 0.45143   4
  -2   1  -9 4.21430 0.42894   1
  -2   1  -9 4.98545 0.43380   1
   2  -1   9 4.50614 0.44775   1
   2  -1   9 4.77244 0.45506   1
   2  -1   9 4.37395 0.58394   5
  -3   1  -9 0.94617 0.26119   2
  -3   1  -9 0.61233 0.42576   1
  -3   1  -9 1.03223 0.40075   4
   3  -1   9 1.08002 0.47824   1
   3  -1   9 0.64089 0.45096   1
   3  -1   9 0.61480 0.48787   5
  -4   1  -9 0.87494 0.42935   4
  -4   1  -9 0.82200 0.54896   1
  -4   1  -9 1.68618 0.29591   2
   4  -1   9 0.98023 0.47371   5
   4  -1   9 2.15989 0.70398   1
  -5   1  -9 389.027 7.52625   1
  -5   1  -9 391.619 6.29001   4
   5  -1   9 409.066 6.48082   5
   5  -1   9 404.100 7.65780   1
  -6   1  -9 9.09438 0.82319   4
   6  -1   9 8.11979 0.89005   5
   6  -1   9 9.27601 1.32987   1
  -7   1  -9 30.1348 1.34407   4
   7  -1   9 29.3060 2.11354   1
   7  -1   9 26.8388 1.42685   5
  -8   1  -9 248.798 4.90776   4
   8  -1   9 258.071 5.29554   5
  -9   1  -9 13.5926 1.17045   4
   9  -1   9 9.39697 1.21366   5
   7   0  -9 1.10652 0.88796   2
   6   0  -9 2.25999 0.86701   2
   5   0  -9 87.9715 2.44707   2
  -5   0   9 85.8239 2.78913   1
   4   0  -9 319.978 5.73471   2
  -4   0   9 311.705 5.98068   1
   3   0  -9 81.2169 2.10255   2
   3   0  -9 82.5988 1.58675   3
   3   0  -9 80.8263 2.15136   1
  -3   0   9 84.9531 2.12864   1
  -3   0   9 81.0412 2.14557   1
   2   0  -9 23.1390 1.03065   2
   2   0  -9 22.9971 0.83908   1
   2   0  -9 22.8603 0.74565   3
   2   0  -9 21.7294 0.82555   1
  -2   0   9 22.3394 0.84834   1
  -2   0   9 22.2245 0.82287   1
   1   0  -9 98.6503 2.12520   2
   1   0  -9 95.1367 1.91527   3
   0   0  -9 2.12600 0.41223   2
   0   0  -9 0.58533 0.32381   4
   0   0  -9 0.55827 0.32083   3
   0   0   9 0.54585 0.38422   5
  -1   0  -9 23.3667 0.79242   2
  -1   0  -9 23.3479 0.83398   4
   1   0   9 22.6475 0.91951   5
  -2   0  -9 7.36027 0.47544   1
  -2   0  -9 5.22481 0.46281   4
  -2   0  -9 6.84049 0.43113   2
  -2   0  -9 7.01697 0.46143   1
   2   0   9 6.61298 0.48383   1
   2   0   9 7.70579 0.63061   5
   2   0   9 7.23616 0.48764   1
  -3   0  -9 3.13178 0.27627   2
  -3   0  -9 3.30476 0.54117   1
  -3   0  -9 2.09811 0.46579   4
  -3   0  -9 2.79820 0.52640   1
   3   0   9 1.48969 0.42442   5
   3   0   9 3.33453 0.55346   1
   3   0   9 3.11053 0.56516   1
  -4   0  -9 320.988 5.09177   4
  -4   0  -9 314.215 4.92197   2
  -4   0  -9 310.038 5.90254   1
   4   0   9 315.521 5.97558   1
   4   0   9 328.399 5.19216   5
  -5   0  -9 17.5216 0.91779   4
  -5   0  -9 17.8278 1.31548   1
   5   0   9 16.0574 1.00263   5
   5   0   9 17.0176 1.36056   1
   5   0   9 17.3694 1.31550   1
  -6   0  -9 69.1231 1.87887   4
   6   0   9 66.2565 2.01772   5
   6   0   9 63.4723 2.65703   1
  -7   0  -9 20.8319 1.13652   4
   7   0   9 20.7323 1.27982   5
   7   0   9 20.0778 1.80066   1
  -8   0  -9 1.11479 0.74754   4
   8   0   9 1.63144 0.71160   5
  -9   0  -9 37.7651 1.68758   4
   9   0   9 36.8977 1.83882   5
   6  -1  -9 1.22708 0.75259   2
   5  -1  -9 20.9869 1.30670   2
  -5   1   9 20.0327 1.50127   1
   4  -1  -9 136.544 3.10086   2
  -4   1   9 134.783 3.41248   1
   3  -1  -9 1.86502 0.22886   3
   3  -1  -9 1.45857 0.58225   2
  -3   1   9 1.80259 0.59094   1
  -3   1   9 1.17431 0.60107   1
   2  -1  -9 57.6010 1.61126   1
   2  -1  -9 59.7570 1.66233   2
   2  -1  -9 59.5648 1.23135   3
  -2   1   9 60.6941 1.66150   1
  -2   1   9 57.7368 1.58543   1
   1  -1  -9 3.95534 0.38255   3
   1  -1  -9 4.65594 0.41482   1
   1  -1  -9 4.79845 0.55788   2
   1  -1  -9 4.40644 0.41095   1
  -1   1   9 4.18391 0.40872   1
  -1   1   9 3.74363 0.41695   1
   0  -1  -9 19.5235 0.79813   2
  -1  -1  -9 25.7496 0.93220   4
  -1  -1  -9 26.1767 0.82312   2
   1   1   9 25.8824 0.92362   5
  -2  -1  -9 359.052 5.99153   4
  -2  -1  -9 364.630 5.68331   2
  -2  -1  -9 355.202 5.96866   1
  -2  -1  -9 366.411 6.01659   1
   2   1   9 368.003 6.01403   5
   2   1   9 364.851 6.04585   1
   2   1   9 360.238 6.02333   1
  -3  -1  -9 175.058 3.54848   1
  -3  -1  -9 175.497 3.53046   1
  -3  -1  -9 177.938 2.84103   2
  -3  -1  -9 177.380 3.27876   4
   3   1   9 171.906 3.55772   1
   3   1   9 176.871 3.58320   1
   3   1   9 183.154 3.31920   5
  -4  -1  -9 31.2231 1.12971   4
  -4  -1  -9 29.6862 1.44364   1
   4   1   9 27.6057 1.45005   1
   4   1   9 32.6330 1.16470   5
  -5  -1  -9 0.53808 0.65037   1
  -5  -1  -9 1.76720 0.50508   4
   5   1   9 1.26571 0.69457   1
   5   1   9 2.21370 0.83977   1
   5   1   9 2.33578 0.53430   5
  -6  -1  -9 2.75835 0.65085   4
   6   1   9 3.59402 1.07878   1
   6   1   9 4.01030 0.72617   5
  -7  -1  -9 139.088 3.10086   4
   7   1   9 135.454 4.27681   1
   7   1   9 136.104 3.21957   5
  -8  -1  -9 2.26522 0.69250   4
   8   1   9 3.01908 0.84852   5
  -9  -1  -9 0.29279 0.71399   4
   9   1   9 -0.3549 0.73880   5
   6  -2  -9 -0.6404 0.68740   2
   5  -2  -9 90.8174 2.56252   2
  -5   2   9 86.8378 3.07035   1
   4  -2  -9 18.3241 1.17311   2
  -4   2   9 19.8144 1.41489   1
   3  -2  -9 0.53439 0.64090   2
  -3   2   9 0.72826 0.57537   1
   2  -2  -9 21.7848 1.03935   2
   2  -2  -9 20.9985 0.59290   3
   2  -2  -9 18.5476 1.08224   1
  -2   2   9 21.4161 1.12952   1
  -2   2   9 20.0810 1.12548   1
   1  -2  -9 2.20566 0.32002   3
   1  -2  -9 2.14536 0.48249   1
   1  -2  -9 2.45476 0.48485   2
  -1   2   9 3.02872 0.51412   1
  -1   2   9 2.05195 0.50043   1
   0  -2  -9 14.5063 0.73121   2
   0  -2  -9 15.4033 0.77653   1
   0  -2  -9 14.2688 0.76790   1
   0   2   9 14.2924 0.77436   1
   0   2   9 14.8662 0.78690   1
  -1  -2  -9 9.60992 0.52446   2
  -1  -2  -9 12.5354 0.68411   1
  -1  -2  -9 11.6571 0.70579   4
  -1  -2  -9 12.5548 0.73852   1
   1   2   9 12.2779 0.60290   5
   1   2   9 12.7271 0.72136   1
   1   2   9 10.5190 0.71236   1
  -2  -2  -9 18.8615 0.97387   1
  -2  -2  -9 20.0300 0.86693   4
  -2  -2  -9 19.4489 0.93755   1
  -2  -2  -9 19.8459 0.63354   2
   2   2   9 21.2338 1.04010   1
   2   2   9 20.9187 0.99046   1
   2   2   9 19.6688 0.76138   5
  -3  -2  -9 784.410 12.0896   4
  -3  -2  -9 758.535 12.5240   1
  -3  -2  -9 777.852 11.4704   2
   3   2   9 758.548 12.5396   1
   3   2   9 784.579 12.6269   1
   3   2   9 761.186 11.9424   5
  -4  -2  -9 85.3622 2.56512   1
  -4  -2  -9 85.5552 2.05821   4
   4   2   9 87.7248 2.57306   1
   4   2   9 86.6867 1.98405   5
   4   2   9 90.4520 2.63940   1
  -5  -2  -9 387.092 7.55309   1
  -5  -2  -9 401.759 6.27848   4
   5   2   9 395.366 6.52924   5
   5   2   9 386.851 7.51520   1
   5   2   9 391.793 7.59025   1
  -6  -2  -9 71.5665 1.96939   4
   6   2   9 67.3031 2.75965   1
   6   2   9 70.7798 1.98438   5
  -7  -2  -9 27.3698 1.32569   4
   7   2   9 26.8297 2.08151   1
   7   2   9 27.8979 1.34175   5
  -8  -2  -9 2.11713 0.70950   4
   8   2   9 3.69294 0.77259   5
  -9  -2  -9 76.4306 2.40154   4
   9   2   9 78.2562 2.53788   5
   6  -3  -9 6.06028 1.07170   2
   5  -3  -9 177.635 3.98409   2
   4  -3  -9 6.00798 0.83426   2
  -4   3   9 7.21144 1.14196   1
   3  -3  -9 111.013 2.66689   2
  -3   3   9 105.405 3.09185   1
   2  -3  -9 1.60899 0.56039   2
   2  -3  -9 1.30626 0.21847   3
  -2   3   9 1.22180 0.59059   1
   1  -3  -9 1.36190 0.56205   1
   1  -3  -9 0.23037 0.53149   2
   1  -3  -9 1.09155 0.29824   3
  -1   3   9 0.64948 0.51470   1
  -1   3   9 1.62032 0.59234   1
   0  -3  -9 14.6530 0.58164   5
   0  -3  -9 14.7319 0.96674   1
   0  -3  -9 13.9767 0.77001   2
   0   3   9 13.9864 0.94702   1
   0   3   9 12.7292 0.93543   1
  -1  -3  -9 20.3060 1.10598   1
  -1  -3  -9 19.2650 0.75394   2
  -1  -3  -9 20.0650 0.65909   5
  -1  -3  -9 19.6041 0.89191   4
   1   3   9 18.0246 1.06602   1
   1   3   9 17.3785 1.03106   1
  -2  -3  -9 223.860 3.69739   2
  -2  -3  -9 231.785 4.52615   1
  -2  -3  -9 225.483 4.04672   4
   2   3   9 222.006 3.78409   5
   2   3   9 219.548 4.51851   1
   2   3   9 222.865 4.48146   1
  -3  -3  -9 956.352 14.6464   4
  -3  -3  -9 940.763 15.3520   1
  -3  -3  -9 949.123 14.0204   2
   3   3   9 942.750 15.4127   1
   3   3   9 935.061 14.3762   5
   3   3   9 935.179 15.3846   1
  -4  -3  -9 -0.4778 0.62802   1
  -4  -3  -9 0.11341 0.46844   4
   4   3   9 -0.3792 0.29941   5
   4   3   9 0.03170 0.63508   1
   4   3   9 0.27373 0.65618   1
  -5  -3  -9 548.270 8.89535   4
  -5  -3  -9 526.608 9.80078   1
   5   3   9 538.514 9.95354   1
   5   3   9 540.102 8.73455   5
  -6  -3  -9 224.625 4.27236   4
   6   3   9 216.885 4.17711   5
   6   3   9 220.828 5.48496   1
  -7  -3  -9 191.667 3.88691   4
   7   3   9 179.002 3.80642   5
   7   3   9 185.419 5.21973   1
  -8  -3  -9 50.8047 1.87678   4
   8   3   9 50.1343 1.87250   5
  -9  -3  -9 -0.6920 0.72018   4
   9   3   9 0.87936 0.77558   5
   5  -4  -9 41.4794 1.85215   2
   4  -4  -9 1.43709 0.84072   2
   3  -4  -9 35.8073 1.52214   2
  -3   4   9 32.8025 1.86187   1
   2  -4  -9 10.9844 0.93414   2
  -2   4   9 9.46601 1.10548   1
   1  -4  -9 6.33875 0.69854   2
  -1   4   9 5.81628 0.88010   1
   0  -4  -9 7.19661 0.67383   2
   0  -4  -9 7.40920 0.92300   1
   0   4   9 6.43076 0.87358   1
  -1  -4  -9 75.1556 1.87588   4
  -1  -4  -9 68.3023 2.29384   1
  -1  -4  -9 75.6680 1.67964   2
   1   4   9 67.9803 2.27358   1
   1   4   9 71.4901 2.29979   1
  -2  -4  -9 329.761 6.35935   1
  -2  -4  -9 328.630 5.29912   2
  -2  -4  -9 334.409 5.59374   4
   2   4   9 314.739 5.26052   2
   2   4   9 331.579 5.17050   5
   2   4   9 330.281 6.35894   1
   2   4   9 328.152 6.32196   1
  -3  -4  -9 16.4543 0.54477   2
  -3  -4  -9 16.2657 0.91552   4
  -3  -4  -9 17.6034 1.33216   1
   3   4   9 16.5768 1.32303   1
   3   4   9 17.1521 0.63676   5
   3   4   9 17.6643 1.29943   1
  -4  -4  -9 72.5710 2.62600   1
  -4  -4  -9 70.8882 1.91228   4
   4   4   9 72.5379 2.67852   1
   4   4   9 72.7338 1.61881   5
  -5  -4  -9 134.177 2.94835   4
   5   4   9 136.041 2.70004   5
   5   4   9 134.885 3.94717   1
  -6  -4  -9 2.49545 0.61985   4
   6   4   9 3.77120 1.20133   1
   6   4   9 2.15121 0.52584   5
  -7  -4  -9 33.0501 1.45614   4
   7   4   9 31.4082 2.32679   1
   7   4   9 29.7514 1.31161   5
  -8  -4  -9 12.9568 1.09101   4
   8   4   9 12.4500 1.05276   5
  -9  -4  -9 -0.7384 0.65170   4
   9   4   9 0.13200 0.70318   5
   4  -5  -9 59.0351 2.13447   2
   3  -5  -9 3.86131 0.85361   2
   2  -5  -9 14.5816 1.03182   2
  -2   5   9 17.8796 1.52736   1
   1  -5  -9 104.270 2.47205   2
  -1   5   9 103.422 3.24070   1
   0  -5  -9 9.90755 0.80505   2
   0   5   9 10.0489 1.15049   1
  -1  -5  -9 353.160 6.03180   4
  -1  -5  -9 346.581 5.56871   2
   1   5   9 344.823 6.89932   1
  -2  -5  -9 347.006 5.64938   2
  -2  -5  -9 351.269 5.97126   4
   2   5   9 335.127 6.89686   1
  -3  -5  -9 14.9942 0.89483   4
  -3  -5  -9 13.9948 0.57479   2
   3   5   9 14.0343 1.37420   1
  -4  -5  -9 97.6574 2.35837   4
   4   5   9 93.9262 3.25770   1
   4   5   9 95.2176 1.85710   5
  -5  -5  -9 33.6219 1.36029   4
   5   5   9 31.0914 1.02170   5
   5   5   9 32.8533 2.14104   1
  -6  -5  -9 15.4441 1.04420   4
   6   5   9 14.4578 1.72356   1
   6   5   9 13.3897 0.80917   5
  -7  -5  -9 9.69730 0.94115   4
   7   5   9 9.35424 0.81156   5
  -8  -5  -9 4.70365 0.83565   4
   8   5   9 4.49775 0.75524   5
   4  -6  -9 0.52342 0.94399   2
   3  -6  -9 9.39261 1.09618   2
   2  -6  -9 54.5637 1.89871   2
   1  -6  -9 16.9775 1.10166   2
  -1   6   9 15.5549 1.54271   1
   0  -6  -9 142.987 3.07582   4
   0  -6  -9 140.890 3.01831   2
   0   6   9 138.035 4.07990   1
  -1  -6  -9 103.148 2.50785   4
  -1  -6  -9 106.923 2.35785   2
   1   6   9 106.416 3.48117   1
  -2  -6  -9 0.39886 0.39011   2
  -2  -6  -9 1.15289 0.53855   4
   2   6   9 1.10811 0.87778   1
  -3  -6  -9 20.6752 0.78630   2
  -3  -6  -9 22.5478 1.11747   4
   3   6   9 22.9105 1.78550   1
  -4  -6  -9 1.11817 0.51869   4
   4   6   9 0.65695 0.96314   1
  -5  -6  -9 8.91121 0.85613   4
   5   6   9 13.8815 1.67427   1
  -6  -6  -9 140.960 3.22332   4
  -7  -6  -9 21.6539 1.27197   4
  -8  -6  -9 9.40387 1.05023   4
   2  -7  -9 24.4064 1.42787   2
   1  -7  -9 35.8916 1.54127   2
   0  -7  -9 48.2571 1.66713   4
   0  -7  -9 46.9763 1.64699   2
  -1  -7  -9 575.592 9.39002   2
  -1  -7  -9 573.398 9.19858   4
  -2  -7  -9 100.652 2.22075   2
  -2  -7  -9 95.5228 2.42685   4
   2   7   9 94.8478 3.66749   1
  -3  -7  -9 170.568 3.55534   4
  -4  -7  -9 0.50467 0.55224   4
  -5  -7  -9 2.77757 0.67910   4
  -6  -7  -9 1.20119 0.65813   4
  -7  -7  -9 5.94022 0.85335   4
   1  -8  -9 213.257 4.38506   4
   1  -8  -9 210.914 4.44327   2
   0  -8  -9 154.541 3.45979   2
   0  -8  -9 160.921 3.50227   4
  -1  -8  -9 15.3191 1.01115   2
  -1  -8  -9 15.8590 1.04647   4
  -2  -8  -9 39.2256 1.53848   4
  -3  -8  -9 7.42575 0.81699   4
  -4  -8  -9 27.3446 1.32765   4
  -5  -8  -9 113.756 2.85062   4
   1   8 -10 225.207 4.84443   3
   0   8 -10 178.697 4.15269   3
  -1   8 -10 49.6149 2.03361   3
   1  -8  10 47.8424 1.99534   5
   3   7 -10 32.6384 1.60449   3
   2   7 -10 56.7014 2.02751   3
   1   7 -10 0.48638 0.65707   3
   0   7 -10 134.614 3.33487   3
   0  -7  10 134.149 3.35934   5
  -1   7 -10 46.6241 1.85848   3
   1  -7  10 43.5004 1.82230   5
  -2   7 -10 0.07099 0.73922   3
   2  -7  10 0.33293 0.62791   5
  -3   7 -10 32.1771 1.62599   3
   3  -7  10 31.4258 1.60049   5
  -4   7 -10 10.4037 1.08205   3
   4  -7  10 10.0123 1.09835   5
   4   6 -10 2.86065 0.72200   3
   3   6 -10 0.71901 0.64389   3
   2   6 -10 129.235 3.11581   3
  -2  -6  10 133.787 3.60729   1
   1   6 -10 108.376 2.77971   3
  -1  -6  10 106.018 3.14116   1
   0   6 -10 1.80537 0.66042   3
   0  -6  10 2.30911 0.66822   5
   0  -6  10 2.41432 0.83500   1
  -1   6 -10 10.2055 1.01504   3
   1  -6  10 9.72941 1.18808   1
   1  -6  10 7.35646 0.86793   5
  -2   6 -10 2.45411 0.80163   3
   2  -6  10 3.15890 0.69986   5
   2  -6  10 3.36629 0.96177   1
  -3   6 -10 4.32699 0.85627   3
   3  -6  10 4.69032 0.81070   5
  -4   6 -10 2.41983 0.80736   3
   4  -6  10 2.01642 0.72823   5
  -5   6 -10 15.2476 1.16723   3
   5  -6  10 16.0037 1.24258   5
   5   5 -10 17.1441 1.08928   3
   5   5 -10 17.4963 1.29544   2
   4   5 -10 16.0839 1.07299   3
  -4  -5  10 20.6121 1.50438   1
   3   5 -10 73.1364 2.07382   3
  -3  -5  10 69.3709 2.37034   1
   2   5 -10 0.32136 0.56248   3
  -2  -5  10 1.72302 0.68958   1
   1   5 -10 132.051 3.01964   3
  -1  -5  10 137.092 3.29660   1
   0   5 -10 29.1111 1.33284   3
   0  -5  10 32.1383 1.54230   1
   0  -5  10 29.0917 1.39247   5
  -1   5 -10 231.566 4.57316   3
   1  -5  10 237.782 4.94606   1
   1  -5  10 233.181 4.67127   5
  -2   5 -10 1.53647 0.70147   3
   2  -5  10 1.03090 0.71290   1
   2  -5  10 -0.1466 0.57539   5
  -3   5 -10 3.56563 0.70122   3
   3  -5  10 3.14643 0.68754   5
   3  -5  10 2.32774 0.86994   1
  -4   5 -10 7.08659 0.90681   3
   4  -5  10 7.28696 1.23645   1
   4  -5  10 6.67892 0.88514   5
  -5   5 -10 102.629 2.73840   3
   5  -5  10 104.678 2.90469   5
  -6   5 -10 1.68954 0.70324   3
   6  -5  10 0.66201 0.75686   5
   6   4 -10 59.5453 2.19481   2
   5   4 -10 15.3724 0.96805   3
   5   4 -10 17.6261 1.22215   2
   4   4 -10 11.0056 0.97673   2
   4   4 -10 10.0529 0.82202   3
  -4  -4  10 10.8804 1.10359   1
   3   4 -10 3.86005 0.65382   3
  -3  -4  10 3.92521 0.76435   1
   2   4 -10 243.691 4.11659   4
   2   4 -10 254.860 4.67441   3
  -2  -4  10 254.914 4.73133   1
   1   4 -10 6.70437 0.70798   3
   1   4 -10 9.32377 0.44866   4
  -1  -4  10 8.79186 0.77170   1
   0   4 -10 2.83964 0.30492   4
   0   4 -10 4.09992 0.64525   3
   0  -4  10 4.23136 0.63663   1
   0  -4  10 4.15857 0.69569   5
   0  -4  10 3.39625 0.58471   1
  -1   4 -10 3.90894 0.33894   4
  -1   4 -10 2.76467 0.67286   3
   1  -4  10 3.02129 0.63023   1
   1  -4  10 3.65119 0.71911   5
  -2   4 -10 0.52573 0.29111   4
  -2   4 -10 0.53661 0.58478   3
   2  -4  10 0.62379 0.58060   1
   2  -4  10 0.06526 0.47248   5
  -3   4 -10 12.0255 0.60595   4
  -3   4 -10 12.1180 0.95684   3
   3  -4  10 11.4535 1.13144   1
   3  -4  10 10.2865 0.94700   5
  -4   4 -10 9.54693 0.88136   3
  -4   4 -10 9.32621 0.63889   4
   4  -4  10 10.8456 1.01604   5
   4  -4  10 13.2195 1.31532   1
  -5   4 -10 55.9803 1.89370   3
  -5   4 -10 54.1242 1.51630   4
   5  -4  10 55.8995 2.00449   5
   5  -4  10 57.4487 2.61588   1
  -6   4 -10 153.248 3.15232   4
  -6   4 -10 158.903 3.55592   3
   6  -4  10 155.112 3.74675   5
  -7   4 -10 45.7159 1.59168   4
  -7   4 -10 48.8424 1.86823   3
   7  -4  10 48.7051 2.08493   5
   6   3 -10 50.5338 1.99451   2
   5   3 -10 113.211 2.92695   2
  -5  -3  10 108.459 3.12906   1
   4   3 -10 0.09394 0.58334   2
   4   3 -10 0.86069 0.46699   3
  -4  -3  10 1.01817 0.63866   1
   3   3 -10 0.01054 0.40949   3
   3   3 -10 0.40383 0.55223   2
  -3  -3  10 0.04181 0.47351   1
   2   3 -10 17.4590 0.92124   3
  -2  -3  10 16.8549 0.83062   1
  -2  -3  10 18.6151 0.81037   1
   1   3 -10 154.079 2.71374   4
   1   3 -10 153.910 3.11708   3
   0   3 -10 9.43909 0.77669   3
   0   3 -10 10.3702 0.51744   4
   0  -3  10 9.44939 0.81186   5
  -1   3 -10 48.6302 1.55393   3
  -1   3 -10 47.5731 1.13986   4
  -1   3 -10 48.6021 1.32374   1
   1  -3  10 48.0176 1.37048   1
   1  -3  10 50.0733 1.63770   5
   1  -3  10 46.2219 1.31675   1
  -2   3 -10 112.140 2.56323   3
  -2   3 -10 107.794 2.51644   1
  -2   3 -10 109.588 2.10386   4
   2  -3  10 107.669 2.54708   1
   2  -3  10 114.146 2.67065   5
   2  -3  10 111.679 2.57614   1
  -3   3 -10 16.8799 0.74485   4
  -3   3 -10 17.4214 1.05857   3
   3  -3  10 16.5958 1.07231   5
   3  -3  10 18.0606 1.17359   1
  -4   3 -10 163.508 3.06164   4
  -4   3 -10 167.916 3.49558   3
   4  -3  10 158.563 3.95156   1
   4  -3  10 163.734 3.57821   5
  -5   3 -10 52.9849 1.51000   4
  -5   3 -10 53.5051 1.78233   3
   5  -3  10 50.8847 1.86891   5
   5  -3  10 51.9104 2.35783   1
  -6   3 -10 163.316 3.54059   3
  -6   3 -10 156.076 3.20643   4
   6  -3  10 155.460 4.57855   1
   6  -3  10 156.980 3.71999   5
  -7   3 -10 79.3307 2.35431   3
  -7   3 -10 79.8423 2.16604   4
   7  -3  10 81.6207 2.60718   5
  -8   3 -10 53.3031 1.98297   3
  -8   3 -10 58.7315 1.92943   4
   8  -3  10 57.3732 2.32461   5
   6   2 -10 57.3253 2.11937   2
   5   2 -10 47.3847 1.81422   2
  -5  -2  10 49.7612 2.02135   1
   4   2 -10 22.9509 0.91702   3
   4   2 -10 23.6744 1.25159   2
  -4  -2  10 24.9037 1.30367   1
   3   2 -10 80.6761 2.19199   2
   3   2 -10 81.1065 1.87609   3
  -3  -2  10 83.5404 1.99519   1
   2   2 -10 49.7786 1.40535   3
   2   2 -10 50.1068 1.58744   2
   1   2 -10 127.193 2.60867   3
   0   2 -10 38.8641 1.27136   3
   0   2 -10 36.5913 1.02956   4
   0  -2  10 37.8579 1.37135   5
  -1   2 -10 2.23483 0.35735   4
  -1   2 -10 3.20838 0.58122   3
   1  -2  10 1.15569 0.54433   5
  -2   2 -10 37.1720 1.31349   3
  -2   2 -10 36.4305 1.04712   4
  -2   2 -10 36.1870 1.10692   1
  -2   2 -10 36.0111 1.16323   1
   2  -2  10 37.3310 1.15975   1
   2  -2  10 36.4781 1.13870   1
   2  -2  10 35.8453 1.34666   5
  -3   2 -10 492.300 8.07359   3
  -3   2 -10 477.759 8.06923   1
  -3   2 -10 481.974 7.70539   4
   3  -2  10 481.969 8.16379   5
   3  -2  10 476.241 7.87369   1
   3  -2  10 483.361 7.97191   1
  -4   2 -10 25.5680 1.00758   4
   4  -2  10 25.9215 1.24114   5
   4  -2  10 27.3827 1.48730   1
  -5   2 -10 1.96266 0.52238   4
   5  -2  10 1.65129 0.60726   5
   5  -2  10 2.63478 0.89888   1
   6  -2  10 5.44164 1.19398   1
   6  -2  10 5.77812 0.90289   5
  -7   2 -10 3.17604 0.71198   4
   7  -2  10 3.60100 0.89761   5
  -8   2 -10 117.207 2.91045   4
   8  -2  10 122.188 3.34709   5
   6   1 -10 34.7682 1.68497   2
   5   1 -10 4.52093 0.80497   2
  -5  -1  10 4.89600 0.93883   1
   4   1 -10 95.8996 2.53570   2
  -4  -1  10 98.8282 2.55250   1
   3   1 -10 -1.1252 0.45181   2
   3   1 -10 0.16008 0.30085   3
  -3  -1  10 -0.0326 0.38730   1
  -3  -1  10 0.09428 0.41744   1
   2   1 -10 537.086 8.39204   3
   2   1 -10 519.034 8.67464   2
   1   1 -10 6.87786 0.55865   3
   1   1 -10 6.19467 0.61674   2
   0   1 -10 107.396 2.27869   3
   0   1 -10 109.518 2.29405   2
   0   1 -10 108.728 2.16814   4
   0  -1  10 109.359 2.46864   5
  -1   1 -10 3.30687 0.41890   4
  -1   1 -10 3.14788 0.49408   3
   1  -1  10 3.54988 0.58529   5
  -2   1 -10 5.12584 0.47920   4
   2  -1  10 5.44149 0.62587   5
  -3   1 -10 43.2870 1.26476   4
  -3   1 -10 44.0147 1.41436   1
   3  -1  10 45.5016 1.46949   1
   3  -1  10 42.2613 1.43583   1
   3  -1  10 43.7098 1.47271   5
  -4   1 -10 214.728 3.86819   4
  -4   1 -10 208.469 4.37350   1
   4  -1  10 210.787 4.42336   1
   4  -1  10 217.889 4.15384   5
   4  -1  10 212.690 4.43450   1
  -5   1 -10 414.194 6.55183   4
   5  -1  10 415.571 6.80410   5
   5  -1  10 408.821 7.79422   1
  -6   1 -10 49.9623 1.61296   4
   6  -1  10 49.6048 1.83277   5
   6  -1  10 50.6120 2.40781   1
  -7   1 -10 135.056 3.02718   4
   7  -1  10 132.154 3.30346   5
   7  -1  10 132.803 4.35911   1
  -8   1 -10 16.6114 1.18442   4
   8  -1  10 16.6243 1.29291   5
   6   0 -10 -0.1721 0.78203   2
   5   0 -10 0.20139 0.66301   2
  -5   0  10 -0.2135 0.69219   1
   4   0 -10 9.74523 0.90547   2
  -4   0  10 8.47570 0.91044   1
   3   0 -10 33.0841 1.36676   2
   3   0 -10 31.7361 0.88872   3
  -3   0  10 32.9630 1.24394   1
   2   0 -10 370.694 6.01650   2
   2   0 -10 362.369 5.89961   3
   1   0 -10 22.6312 1.00117   2
   1   0 -10 22.3150 0.83104   3
   0   0 -10 24.6929 0.94333   2
   0   0 -10 23.4454 0.90210   4
   0   0 -10 23.7237 0.90428   3
   0   0  10 27.2923 1.06351   5
  -1   0 -10 35.6110 1.09000   4
  -1   0 -10 35.8571 1.04977   2
   1   0  10 32.6292 1.18011   5
  -2   0 -10 227.175 3.64907   2
  -2   0 -10 226.435 3.99168   4
   2   0  10 230.527 4.14799   5
  -3   0 -10 248.040 4.03278   2
  -3   0 -10 244.707 4.01110   2
  -3   0 -10 253.950 4.35117   4
  -3   0 -10 247.333 4.44627   1
   3   0  10 251.447 4.51088   1
   3   0  10 247.865 4.49697   5
   3   0  10 242.507 4.46958   1
  -4   0 -10 284.393 5.41079   1
  -4   0 -10 291.142 4.97936   4
   4   0  10 284.176 5.44943   1
   4   0  10 283.073 5.45322   1
   4   0  10 285.757 5.13829   5
  -5   0 -10 292.532 5.16167   4
   5   0  10 291.823 5.95782   1
   5   0  10 296.151 5.37420   5
  -6   0 -10 30.5180 1.29399   4
   6   0  10 28.4804 1.35301   5
   6   0  10 28.2294 1.84076   1
  -7   0 -10 493.174 7.83551   4
   7   0  10 482.041 9.73165   1
   7   0  10 495.917 8.13662   5
  -8   0 -10 56.7986 1.93852   4
   8   0  10 57.8994 2.13654   5
  -9   0 -10 -0.4219 0.72909   4
   9   0  10 0.04764 0.81819   5
   6  -1 -10 33.0784 1.70419   2
   5  -1 -10 12.8008 1.08666   2
  -5   1  10 10.6855 1.23606   1
   4  -1 -10 218.800 4.38373   2
  -4   1  10 214.645 4.59504   1
   3  -1 -10 309.417 5.56017   2
  -3   1  10 304.352 5.58689   1
   2  -1 -10 48.6460 1.46720   1
   2  -1 -10 51.6127 1.58643   2
   2  -1 -10 48.3698 1.13842   3
  -2   1  10 50.9976 1.41220   1
  -2   1  10 48.2473 1.43202   1
   1  -1 -10 34.5053 1.21682   2
   1  -1 -10 36.2810 1.01670   3
   0  -1 -10 27.3293 1.02180   4
   0  -1 -10 26.9877 0.98143   2
  -1  -1 -10 73.0202 1.74968   4
  -1  -1 -10 73.3754 1.60367   2
   1   1  10 71.3979 1.72768   5
  -2  -1 -10 68.2500 1.42603   2
  -2  -1 -10 69.4161 1.69784   4
  -2  -1 -10 66.9506 1.50415   1
  -2  -1 -10 67.7397 1.53912   1
   2   1  10 68.8076 1.58321   1
   2   1  10 66.0074 1.67265   5
  -3  -1 -10 356.004 5.54264   2
  -3  -1 -10 356.567 5.73123   1
  -3  -1 -10 365.237 5.64890   4
   3   1  10 359.454 5.96357   5
   3   1  10 355.484 5.88268   1
   3   1  10 350.931 5.81065   1
  -4  -1 -10 1085.13 16.9688   4
  -4  -1 -10 1093.70 17.5462   1
   4   1  10 1134.85 17.0943   5
   4   1  10 1104.02 17.6293   1
   4   1  10 1093.13 17.5676   1
  -5  -1 -10 37.8663 1.35213   4
   5   1  10 36.0455 1.81595   1
   5   1  10 37.7832 1.40374   5
  -6  -1 -10 214.411 4.17846   4
   6   1  10 215.293 4.29279   5
   6   1  10 218.160 5.22168   1
  -7  -1 -10 2.42187 0.72955   4
   7   1  10 1.23249 1.11805   1
   7   1  10 3.06655 0.74649   5
  -8  -1 -10 1.45455 0.67323   4
   8   1  10 1.82028 0.76432   5
  -9  -1 -10 24.3717 1.42846   4
   9   1  10 26.9980 1.60527   5
   6  -2 -10 14.4498 1.28829   2
   5  -2 -10 14.2498 1.22668   2
   4  -2 -10 179.076 3.83939   2
  -4   2  10 175.102 4.19133   1
   3  -2 -10 131.917 2.98280   2
  -3   2  10 126.812 3.16521   1
   2  -2 -10 60.6022 1.77490   2
   2  -2 -10 61.0773 1.25247   3
  -2   2  10 62.9410 1.84969   1
   1  -2 -10 4.65120 0.57320   1
   1  -2 -10 4.67903 0.65635   2
  -1   2  10 4.21068 0.55425   1
  -1   2  10 4.81579 0.58783   1
   0  -2 -10 5.97914 0.57487   2
   0  -2 -10 6.55276 0.56945   1
   0   2  10 8.03239 0.60939   1
   0   2  10 6.44906 0.56699   1
  -1  -2 -10 659.376 10.1283   2
  -1  -2 -10 651.965 10.3753   4
  -1  -2 -10 659.807 10.3395   1
  -1  -2 -10 643.098 10.2850   1
   1   2  10 649.467 10.3166   1
   1   2  10 647.949 10.2106   5
   1   2  10 656.831 10.3365   1
  -2  -2 -10 831.658 12.9139   4
  -2  -2 -10 828.008 13.0609   1
  -2  -2 -10 827.116 12.5172   2
   2   2  10 822.392 13.0591   1
   2   2  10 820.498 12.7650   5
   2   2  10 829.814 13.0908   1
  -3  -2 -10 13.2100 0.45589   2
  -3  -2 -10 13.3145 0.97180   1
  -3  -2 -10 11.0781 0.78394   4
   3   2  10 14.1221 0.73929   5
   3   2  10 11.8779 0.97161   1
   3   2  10 13.9539 0.97014   1
  -4  -2 -10 397.102 6.22495   4
  -4  -2 -10 388.394 7.18838   1
   4   2  10 388.664 7.20094   1
   4   2  10 394.549 6.59449   5
  -5  -2 -10 60.6715 1.77744   4
   5   2  10 59.9214 1.73714   5
   5   2  10 61.9752 2.38634   1
  -6  -2 -10 135.048 2.97145   4
   6   2  10 128.069 3.87696   1
   6   2  10 131.191 2.95615   5
  -7  -2 -10 23.1194 1.27216   4
   7   2  10 25.3019 1.99004   1
   7   2  10 22.7902 1.25298   5
  -8  -2 -10 154.404 3.54748   4
   8   2  10 157.087 3.66231   5
  -9  -2 -10 32.1919 1.62830   4
   9   2  10 31.8487 1.68215   5
   5  -3 -10 51.0192 1.99734   2
   4  -3 -10 49.6165 1.87798   2
  -4   3  10 49.3181 2.25401   1
   3  -3 -10 13.9041 1.09290   2
  -3   3  10 15.6937 1.24148   1
   2  -3 -10 22.5890 1.12552   2
  -2   3  10 20.7798 1.27192   1
   1  -3 -10 8.67375 0.73651   2
  -1   3  10 8.05990 0.82243   1
   0  -3 -10 137.533 3.14046   1
   0  -3 -10 145.759 2.83594   2
   0   3  10 141.556 3.13008   1
   0   3  10 145.969 3.17185   1
  -1  -3 -10 0.54363 0.40513   4
  -1  -3 -10 0.20125 0.47768   1
  -1  -3 -10 0.08105 0.26399   5
  -1  -3 -10 0.26554 0.38725   2
   1   3  10 0.05516 0.42580   1
   1   3  10 -0.3710 0.43772   1
  -2  -3 -10 94.7057 1.86375   2
  -2  -3 -10 95.1439 2.22471   4
  -2  -3 -10 95.3910 2.53062   1
   2   3  10 97.3213 1.95261   5
   2   3  10 102.331 2.59959   1
   2   3  10 96.8207 2.51483   1
  -3  -3 -10 444.941 7.09413   4
  -3  -3 -10 446.981 7.94621   1
  -3  -3 -10 446.713 6.80655   2
   3   3  10 449.008 7.93529   1
   3   3  10 442.188 7.17330   5
  -4  -3 -10 36.8120 1.34663   4
   4   3  10 35.0732 1.78311   1
   4   3  10 35.0696 1.13260   5
  -5  -3 -10 69.5299 1.94005   4
   5   3  10 68.2703 2.62089   1
   5   3  10 66.9522 1.78402   5
  -6  -3 -10 39.4080 1.50972   4
   6   3  10 38.9551 1.41428   5
   6   3  10 36.8836 2.18998   1
  -7  -3 -10 8.32176 0.93603   4
   7   3  10 8.96342 0.86526   5
   7   3  10 11.1307 1.56508   1
  -8  -3 -10 6.23247 0.95125   4
   8   3  10 7.76258 0.94608   5
  -9  -3 -10 6.23123 1.03621   4
   9   3  10 8.38688 1.06113   5
   5  -4 -10 30.1052 1.64859   2
   4  -4 -10 10.7175 1.14784   2
   3  -4 -10 27.4065 1.38304   2
  -3   4  10 25.4897 1.68510   1
   2  -4 -10 0.57741 0.58785   2
  -2   4  10 0.59889 0.65507   1
   1  -4 -10 -0.4778 0.46455   2
  -1   4  10 -0.3502 0.56898   1
   0  -4 -10 14.3763 0.86781   2
   0   4  10 15.2102 1.15280   1
  -1  -4 -10 494.268 7.84968   2
  -1  -4 -10 497.553 7.99740   4
   1   4  10 474.852 8.59867   1
  -2  -4 -10 754.551 11.4870   2
  -2  -4 -10 750.493 11.9295   4
   2   4  10 740.538 12.6827   1
   2   4  10 748.943 11.3926   5
  -3  -4 -10 165.197 2.68875   2
  -3  -4 -10 172.948 3.40759   4
   3   4  10 166.803 2.81658   5
   3   4  10 167.707 4.07403   1
  -4  -4 -10 101.251 2.44844   4
   4   4  10 102.340 3.19779   1
   4   4  10 105.631 2.11754   5
  -5  -4 -10 89.2993 2.28157   4
   5   4  10 85.2866 1.98279   5
   5   4  10 83.3703 3.07475   1
  -6  -4 -10 74.2298 2.12507   4
   6   4  10 71.1741 3.06159   1
   6   4  10 69.0152 1.87598   5
  -7  -4 -10 124.667 3.01656   4
   7   4  10 123.290 2.86408   5
  -8  -4 -10 -0.3240 0.65787   4
   8   4  10 -0.1196 0.57435   5
   4  -5 -10 41.8272 1.83991   2
   3  -5 -10 7.11426 0.95762   2
   2  -5 -10 4.55361 0.77756   2
  -2   5  10 3.65661 0.99321   1
   1  -5 -10 0.98252 0.61788   2
  -1   5  10 1.83839 0.82219   1
   0  -5 -10 94.6846 2.22727   2
   0  -5 -10 94.4149 2.35413   4
   0   5  10 87.2287 2.90987   1
  -1  -5 -10 16.6452 0.87830   2
  -1  -5 -10 17.3625 1.03363   4
   1   5  10 20.4414 1.48024   1
  -2  -5 -10 912.690 13.9765   2
  -2  -5 -10 915.187 14.4059   4
   2   5  10 911.735 15.5121   1
  -3  -5 -10 72.0763 2.02412   4
   3   5  10 83.7768 2.90687   1
  -4  -5 -10 288.339 5.28718   4
   4   5  10 291.435 6.44778   1
  -5  -5 -10 24.6866 1.23875   4
   5   5  10 22.7978 1.88058   1
  -6  -5 -10 3.98150 0.70764   4
  -7  -5 -10 29.3041 1.44785   4
  -8  -5 -10 0.25396 0.69242   4
   3  -6 -10 4.37126 1.00346   2
   2  -6 -10 0.88598 0.73338   2
   1  -6 -10 4.91456 0.77107   2
   0  -6 -10 226.786 4.33511   2
   0  -6 -10 228.761 4.45646   4
   0   6  10 227.806 5.55654   1
  -1  -6 -10 610.757 10.0171   4
  -1  -6 -10 605.119 9.79829   2
   1   6  10 612.454 11.2787   1
  -2  -6 -10 22.3741 0.93676   2
  -2  -6 -10 22.1034 1.15211   4
   2   6  10 22.9813 1.77447   1
  -3  -6 -10 66.1711 1.96170   4
   3   6  10 73.4404 2.98252   1
  -4  -6 -10 25.6403 1.24381   4
   4   6  10 24.7173 1.95104   1
  -5  -6 -10 18.6326 1.14323   4
  -6  -6 -10 55.2321 1.89098   4
  -7  -6 -10 3.23031 0.74383   4
   2  -7 -10 0.11123 0.82385   2
   1  -7 -10 4.92996 0.84138   2
   0  -7 -10 8.55144 0.89877   2
   0  -7 -10 6.25429 0.79171   4
  -1  -7 -10 221.067 4.39856   4
  -1  -7 -10 217.525 4.16913   2
  -2  -7 -10 20.3050 1.16724   4
  -3  -7 -10 44.7627 1.63535   4
  -4  -7 -10 0.06827 0.59480   4
  -5  -7 -10 30.2748 1.41708   4
  -6  -7 -10 3.46782 0.82740   4
   0  -8 -10 438.232 7.71794   4
   0  -8 -10 433.621 7.61814   2
  -1  -8 -10 28.6748 1.39325   4
  -2  -8 -10 44.8060 1.70663   4
  -3  -8 -10 20.6882 1.20521   4
  -4  -8 -10 9.02550 0.92345   4
   2   7 -11 28.4561 1.52321   3
   1   7 -11 13.0137 1.15090   3
   0   7 -11 8.33579 1.07798   3
  -1   7 -11 50.7274 1.99656   3
   1  -7  11 52.3579 2.05744   5
  -2   7 -11 7.88832 1.06109   3
   2  -7  11 7.86725 0.99142   5
  -3   7 -11 -0.3115 0.67665   3
   3  -7  11 0.70666 0.70859   5
   4   6 -11 78.9913 2.37239   3
   3   6 -11 207.251 4.33518   3
   2   6 -11 0.06277 0.58109   3
  -2  -6  11 2.65889 0.89756   1
   1   6 -11 96.4004 2.64070   3
  -1  -6  11 95.2814 2.86464   1
   0   6 -11 12.4482 1.08086   3
   0  -6  11 12.3433 1.20730   1
   0  -6  11 13.4567 1.10339   5
  -1   6 -11 76.6838 2.33414   3
   1  -6  11 74.7607 2.38151   5
   1  -6  11 76.6459 2.67154   1
  -2   6 -11 0.26333 0.62635   3
   2  -6  11 0.32017 0.63022   5
  -3   6 -11 64.9663 2.22147   3
   3  -6  11 67.7208 2.27872   5
  -4   6 -11 33.3815 1.63118   3
   4  -6  11 31.7414 1.64514   5
  -5   6 -11 10.0960 1.13052   3
   5  -6  11 7.11806 1.06383   5
   4   5 -11 10.3430 1.06592   2
   4   5 -11 8.81028 0.91069   3
   3   5 -11 228.961 4.46488   3
  -3  -5  11 219.222 4.66181   1
   2   5 -11 62.0635 1.95070   3
  -2  -5  11 60.1259 2.01146   1
   1   5 -11 52.6190 1.81058   3
  -1  -5  11 49.7075 1.79371   1
   0   5 -11 186.355 3.90642   3
   0  -5  11 179.709 3.92456   1
   0  -5  11 186.564 4.04924   5
  -1   5 -11 0.86070 0.59943   3
   1  -5  11 1.22829 0.66283   1
   1  -5  11 0.69527 0.58249   5
  -2   5 -11 0.53827 0.69009   3
   2  -5  11 -0.3096 0.58464   1
   2  -5  11 -0.0116 0.62654   5
  -3   5 -11 3.47820 0.82771   3
   3  -5  11 2.13574 0.67366   5
   3  -5  11 1.09473 0.78271   1
  -4   5 -11 17.0023 1.22059   3
   4  -5  11 13.6224 1.19566   5
  -5   5 -11 3.71254 0.87343   3
   5  -5  11 3.14717 0.90589   5
  -6   5 -11 76.7397 2.45061   3
   6  -5  11 79.1248 2.63269   5
   5   4 -11 58.6755 2.15688   2
   4   4 -11 6.35047 0.87067   2
   4   4 -11 6.10988 0.73717   3
  -4  -4  11 6.36104 0.91331   1
   3   4 -11 4.41281 0.66081   3
   3   4 -11 3.74684 0.81764   2
  -3  -4  11 4.25191 0.72161   1
   2   4 -11 73.2136 2.03862   3
  -2  -4  11 73.4984 1.89008   1
   1   4 -11 2.49847 0.65048   3
  -1  -4  11 2.36379 0.50605   1
   0   4 -11 494.222 7.86831   3
   0  -4  11 493.933 8.12346   1
   0  -4  11 497.306 7.94750   5
  -1   4 -11 78.3803 2.15192   3
   1  -4  11 71.7249 2.19508   5
   1  -4  11 75.4906 2.03412   1
  -2   4 -11 80.9724 2.23212   3
   2  -4  11 76.7098 2.29315   5
   2  -4  11 78.5455 2.28685   1
  -3   4 -11 4.66802 0.47853   4
  -3   4 -11 4.31443 0.80940   3
   3  -4  11 4.91396 0.80990   5
   3  -4  11 3.61559 0.80893   1
  -4   4 -11 155.593 2.98601   4
  -4   4 -11 160.179 3.56305   3
   4  -4  11 159.658 4.11546   1
   4  -4  11 165.466 3.72103   5
  -5   4 -11 200.721 3.86164   4
  -5   4 -11 221.823 4.45225   3
   5  -4  11 212.999 4.56270   5
  -6   4 -11 0.05592 0.74532   3
   6  -4  11 1.79479 0.85169   5
  -7   4 -11 20.4907 1.33475   3
   7  -4  11 20.7490 1.51237   5
   5   3 -11 0.63142 0.68598   2
   4   3 -11 24.4473 1.07237   3
   4   3 -11 24.2239 1.33594   2
  -4  -3  11 24.5977 1.28415   1
   3   3 -11 42.2969 1.61865   2
   3   3 -11 41.0730 1.39426   3
  -3  -3  11 41.5871 1.34152   1
   2   3 -11 0.66706 0.56543   2
   2   3 -11 1.19358 0.52216   3
   1   3 -11 178.887 3.17412   4
   1   3 -11 184.249 3.60111   3
   0   3 -11 12.5694 0.60558   4
   0   3 -11 13.7345 0.90012   3
   0  -3  11 12.0323 0.93309   5
  -1   3 -11 23.1386 1.14812   3
  -1   3 -11 22.4829 0.79267   4
   1  -3  11 23.5935 1.21271   5
  -2   3 -11 7.77956 0.82406   3
  -2   3 -11 7.56989 0.53369   4
   2  -3  11 7.50252 0.71790   1
   2  -3  11 8.79044 0.73033   1
   2  -3  11 6.67770 0.82149   5
  -3   3 -11 18.0236 1.06167   3
  -3   3 -11 17.1541 0.77940   4
   3  -3  11 18.0760 1.13927   5
   3  -3  11 18.4516 1.13540   1
  -4   3 -11 70.6568 1.75324   4
  -4   3 -11 73.6565 2.14881   3
   4  -3  11 73.8758 2.47475   1
   4  -3  11 75.4653 2.24479   5
  -5   3 -11 8.29344 0.71231   4
  -5   3 -11 7.36430 0.92965   3
   5  -3  11 7.41471 1.15490   1
   5  -3  11 9.75389 0.99062   5
  -6   3 -11 138.365 3.27385   3
  -6   3 -11 133.476 2.92770   4
   6  -3  11 138.407 3.44715   5
  -7   3 -11 59.1434 1.83159   4
  -7   3 -11 58.6380 2.06217   3
   7  -3  11 54.5651 2.21201   5
   6   2 -11 95.7550 2.87517   2
   5   2 -11 17.3937 1.29613   2
  -5  -2  11 18.3395 1.33059   1
   4   2 -11 3.22760 0.78435   2
  -4  -2  11 3.11647 0.66302   1
   3   2 -11 2.27325 0.47057   3
   3   2 -11 -0.3351 0.54760   2
   2   2 -11 0.29706 0.37675   3
   2   2 -11 -0.5816 0.45121   2
   1   2 -11 112.071 2.54860   2
   1   2 -11 112.728 2.44957   3
   1   2 -11 112.155 2.25420   4
   0   2 -11 59.6837 1.68825   3
   0   2 -11 59.6850 1.44152   4
   0  -2  11 61.9514 1.85976   5
  -1   2 -11 45.1456 1.18528   4
  -1   2 -11 41.8070 1.43046   3
   1  -2  11 40.6761 1.49723   5
  -2   2 -11 0.60510 0.54447   3
  -2   2 -11 0.43578 0.32785   4
   2  -2  11 0.45586 0.50942   5
  -3   2 -11 3.12794 0.48118   4
  -3   2 -11 1.80261 0.57114   3
   3  -2  11 3.08153 0.57194   1
   3  -2  11 3.16573 0.60272   1
   3  -2  11 2.72388 0.60035   5
  -4   2 -11 504.873 8.12998   4
  -4   2 -11 509.873 7.98926   3
   4  -2  11 497.641 8.34384   1
   4  -2  11 491.598 7.98069   5
  -5   2 -11 369.772 5.96038   4
   5  -2  11 361.246 7.19856   1
   5  -2  11 375.628 6.70973   5
  -6   2 -11 118.288 2.68879   4
   6  -2  11 117.241 3.71670   1
   6  -2  11 119.496 3.09869   5
  -7   2 -11 -0.3783 0.61504   4
   7  -2  11 0.51086 0.66179   5
  -8   2 -11 35.9174 1.56283   4
   8  -2  11 32.4438 1.82053   5
   6   1 -11 80.8715 2.60499   2
   5   1 -11 60.0183 2.10345   2
  -5  -1  11 59.2760 2.17149   1
   4   1 -11 16.2869 1.17741   2
  -4  -1  11 19.3257 1.09213   1
   3   1 -11 120.181 2.81824   2
   3   1 -11 112.624 2.29760   3
   2   1 -11 23.6488 1.16089   2
   2   1 -11 21.0142 0.88037   3
   1   1 -11 10.9583 0.69818   3
   1   1 -11 11.6703 0.81215   2
   0   1 -11 5.49300 0.58616   2
   0   1 -11 6.82752 0.54940   4
   0   1 -11 5.39022 0.59576   3
   0  -1  11 5.70667 0.65628   5
  -1   1 -11 2.08372 0.43188   4
  -1   1 -11 1.83813 0.46303   2
  -1   1 -11 2.07327 0.54405   3
   1  -1  11 2.27670 0.56526   5
  -2   1 -11 16.9528 0.80124   4
   2  -1  11 18.7052 1.00820   5
  -3   1 -11 16.1857 0.82110   4
  -3   1 -11 16.2669 0.84940   1
   3  -1  11 14.8175 0.97249   5
   3  -1  11 15.9302 0.87240   1
   3  -1  11 15.3099 0.84718   1
  -4   1 -11 60.1361 1.64109   4
   4  -1  11 61.0896 2.01696   1
   4  -1  11 63.2114 1.91077   5
  -5   1 -11 25.1861 1.13575   4
   5  -1  11 27.8271 1.60684   1
   5  -1  11 27.8862 1.33977   5
  -6   1 -11 99.2909 2.42836   4
   6  -1  11 98.5836 3.29799   1
   6  -1  11 99.3796 2.68321   5
  -7   1 -11 2.56882 0.73880   4
   7  -1  11 2.80807 0.76750   5
  -8   1 -11 4.68775 0.83690   4
   8  -1  11 5.42538 1.02165   5
   6   0 -11 3.35169 1.00284   2
   5   0 -11 3.20013 0.79676   2
   4   0 -11 1.47680 0.65439   2
  -4   0  11 3.10662 0.68775   1
   3   0 -11 0.25139 0.55868   2
  -3   0  11 0.24794 0.37446   1
   2   0 -11 7.02562 0.52437   3
   2   0 -11 7.05816 0.73215   2
   1   0 -11 118.013 2.57724   2
   1   0 -11 118.179 2.37354   3
   0   0 -11 8.11311 0.61929   3
   0   0 -11 8.54634 0.64780   4
   0   0 -11 7.38324 0.62061   2
  -1   0 -11 6.10537 0.55150   2
  -1   0 -11 5.34334 0.53034   4
   1   0  11 4.88590 0.61557   5
  -2   0 -11 -0.0676 0.38235   4
  -2   0 -11 0.51421 0.32627   2
   2   0  11 0.32577 0.39610   5
  -3   0 -11 457.616 7.39760   1
  -3   0 -11 448.818 7.03047   2
  -3   0 -11 444.379 7.38851   4
   3   0  11 442.340 7.40360   1
   3   0  11 446.080 7.58105   5
   3   0  11 456.426 7.44623   1
  -4   0 -11 632.866 9.72318   2
  -4   0 -11 651.124 10.2714   4
   4   0  11 625.015 10.4454   5
   4   0  11 652.506 10.7568   1
  -5   0 -11 51.4087 1.58715   4
   5   0  11 51.5027 1.74318   5
   5   0  11 50.4340 2.05615   1
  -6   0 -11 1.02212 0.63829   4
   6   0  11 1.55010 0.92548   1
   6   0  11 3.29200 0.76039   5
  -7   0 -11 13.7265 1.04335   4
   7   0  11 13.3916 1.11693   5
  -8   0 -11 0.89269 0.72070   4
   8   0  11 1.80803 0.80437   5
   5  -1 -11 0.02462 0.68549   2
   4  -1 -11 0.90977 0.66052   2
  -4   1  11 -0.4809 0.55178   1
   3  -1 -11 22.7774 1.23502   2
  -3   1  11 23.4728 1.12488   1
   2  -1 -11 0.34381 0.27676   3
   2  -1 -11 0.44017 0.51055   2
   1  -1 -11 13.2909 0.83795   2
   1  -1 -11 11.1167 0.62543   3
   0  -1 -11 25.5838 1.02388   2
   0  -1 -11 27.6790 1.06523   4
  -1  -1 -11 92.9763 1.96199   2
  -1  -1 -11 90.4932 2.09245   4
   1   1  11 90.7683 2.10162   5
  -2  -1 -11 0.21841 0.38026   4
  -2  -1 -11 0.25775 0.31683   2
   2   1  11 0.42992 0.40315   5
  -3  -1 -11 154.084 3.04514   4
  -3  -1 -11 146.132 3.02836   1
  -3  -1 -11 151.009 2.44770   2
   3   1  11 148.779 3.06087   1
   3   1  11 153.451 3.06076   5
   3   1  11 148.803 3.08366   1
  -4  -1 -11 130.242 2.77755   4
   4   1  11 129.645 2.82630   5
   4   1  11 131.033 3.15396   1
  -5  -1 -11 11.3395 0.86127   4
   5   1  11 12.4799 0.92083   5
   5   1  11 12.8061 1.22773   1
  -6  -1 -11 71.3513 2.02419   4
   6   1  11 68.5253 2.09151   5
   6   1  11 68.5187 2.71485   1
  -7  -1 -11 23.4251 1.24677   4
   7   1  11 20.9805 1.27270   5
  -8  -1 -11 3.49547 0.81501   4
   8   1  11 3.14339 0.78761   5
   5  -2 -11 16.9894 1.30419   2
   4  -2 -11 0.54706 0.66715   2
  -4   2  11 0.51617 0.71200   1
   3  -2 -11 12.0934 1.00824   2
  -3   2  11 10.8006 0.97403   1
   2  -2 -11 27.7080 1.27080   2
  -2   2  11 27.3987 1.19678   1
   1  -2 -11 320.963 5.62194   2
   1  -2 -11 324.704 5.30359   3
  -1   2  11 324.471 5.25564   1
  -1   2  11 323.433 5.34355   1
   0  -2 -11 44.1196 1.34277   2
   0  -2 -11 43.9498 1.42734   4
  -1  -2 -11 680.585 10.8730   4
  -1  -2 -11 688.232 10.6051   2
  -1  -2 -11 685.992 10.6176   1
   1   2  11 668.251 10.6929   5
   1   2  11 678.081 10.6132   1
   1   2  11 679.725 10.6338   1
  -2  -2 -11 126.252 2.64518   1
  -2  -2 -11 131.014 2.73549   4
  -2  -2 -11 128.417 2.36132   2
   2   2  11 127.072 2.63671   1
   2   2  11 129.825 2.70525   1
   2   2  11 127.013 2.58000   5
  -3  -2 -11 2136.90 31.9448   4
  -3  -2 -11 2116.63 31.3270   2
   3   2  11 2124.48 31.8424   5
   3   2  11 2130.28 32.2883   1
   3   2  11 2094.56 32.2485   1
  -4  -2 -11 7.55333 0.75146   4
   4   2  11 8.01196 0.96311   1
   4   2  11 6.72737 0.66742   5
  -5  -2 -11 52.0097 1.68221   4
   5   2  11 52.6643 2.19013   1
   5   2  11 51.1769 1.62137   5
  -6  -2 -11 19.5808 1.13702   4
   6   2  11 17.8565 1.08243   5
   6   2  11 19.8819 1.65603   1
  -7  -2 -11 1.05764 0.61809   4
   7   2  11 1.06163 0.64868   5
  -8  -2 -11 4.91746 0.89599   4
   8   2  11 5.07380 0.89147   5
   5  -3 -11 6.44918 1.08884   2
   4  -3 -11 19.8648 1.32232   2
   3  -3 -11 12.4943 1.08602   2
  -3   3  11 14.5561 1.22033   1
   2  -3 -11 1.20759 0.66389   2
  -2   3  11 1.59914 0.64253   1
   1  -3 -11 0.52877 0.56329   2
  -1   3  11 0.50512 0.50702   1
   0  -3 -11 25.0676 1.14948   4
   0  -3 -11 23.8390 1.03262   2
   0   3  11 24.9816 1.19448   1
  -1  -3 -11 33.1843 1.08080   2
  -1  -3 -11 32.8303 1.29274   4
   1   3  11 34.6787 1.39212   1
  -2  -3 -11 41.5275 1.41365   4
  -2  -3 -11 39.1539 1.07724   2
   2   3  11 40.1122 1.59147   1
   2   3  11 42.5054 1.17699   5
  -3  -3 -11 125.434 2.75949   4
  -3  -3 -11 123.274 2.13323   2
   3   3  11 123.697 2.48693   5
   3   3  11 127.436 3.16156   1
  -4  -3 -11 122.708 2.71166   4
   4   3  11 113.979 3.20643   1
   4   3  11 113.839 2.44342   5
  -5  -3 -11 15.2006 1.00747   4
   5   3  11 14.5989 0.87736   5
   5   3  11 15.9173 1.44092   1
  -6  -3 -11 44.3242 1.64802   4
   6   3  11 48.1040 1.60642   5
   6   3  11 46.2401 2.41430   1
  -7  -3 -11 20.0697 1.24933   4
   7   3  11 22.6324 1.22581   5
  -8  -3 -11 2.95174 0.82066   4
   8   3  11 3.27678 0.80849   5
   4  -4 -11 53.0034 2.03067   2
   3  -4 -11 77.8576 2.34355   2
   2  -4 -11 134.585 3.11340   2
  -2   4  11 138.043 3.60339   1
   1  -4 -11 9.71929 0.88360   2
  -1   4  11 9.88255 1.04853   1
   0  -4 -11 28.1061 1.15413   2
   0  -4 -11 26.9573 1.24688   4
   0   4  11 29.4769 1.49869   1
  -1  -4 -11 6.84668 0.77612   4
  -1  -4 -11 5.92700 0.61577   2
   1   4  11 6.19224 0.88032   1
  -2  -4 -11 330.047 5.74082   4
  -2  -4 -11 317.778 5.29615   2
   2   4  11 319.981 6.23717   1
  -3  -4 -11 52.0194 1.65108   4
   3   4  11 47.9083 2.03412   1
   3   4  11 48.0112 1.23265   5
  -4  -4 -11 37.7464 1.45285   4
   4   4  11 36.1371 1.92909   1
   4   4  11 37.1850 1.13008   5
  -5  -4 -11 4.81045 0.78241   4
   5   4  11 5.20015 0.56606   5
   5   4  11 7.68267 1.23806   1
  -6  -4 -11 4.11436 0.73170   4
   6   4  11 3.13598 0.57883   5
   6   4  11 3.60877 1.17200   1
  -7  -4 -11 21.3288 1.27799   4
   7   4  11 18.7399 1.10138   5
  -8  -4 -11 4.95934 0.90327   4
   8   4  11 4.83581 0.79746   5
   3  -5 -11 0.04492 0.74285   2
   2  -5 -11 -0.4942 0.67129   2
   1  -5 -11 6.57850 0.83657   2
  -1   5  11 6.36216 1.08478   1
   0  -5 -11 8.39144 0.77495   2
   0  -5 -11 6.57337 0.77760   4
   0   5  11 7.58147 1.10101   1
  -1  -5 -11 37.5972 1.27720   2
  -1  -5 -11 38.7133 1.50125   4
   1   5  11 39.1393 1.93969   1
  -2  -5 -11 0.82448 0.40889   2
  -2  -5 -11 -0.5678 0.46544   4
   2   5  11 0.14312 0.75859   1
  -3  -5 -11 76.1754 2.14508   4
   3   5  11 82.0126 2.89635   1
  -4  -5 -11 1.17375 0.55475   4
   4   5  11 1.24834 0.97061   1
  -5  -5 -11 91.6386 2.43401   4
   5   5  11 89.3688 3.40345   1
  -6  -5 -11 13.7733 1.07462   4
  -7  -5 -11 81.0866 2.41621   4
   2  -6 -11 77.3949 2.37000   2
   1  -6 -11 10.4188 0.96312   2
   0  -6 -11 49.9346 1.68413   2
   0  -6 -11 56.2163 1.84912   4
  -1  -6 -11 167.124 3.33349   2
  -1  -6 -11 168.935 3.61671   4
  -2  -6 -11 105.529 2.60949   4
   2   6  11 99.5574 3.51953   1
  -3  -6 -11 6.13635 0.81482   4
  -4  -6 -11 3.71854 0.70246   4
  -5  -6 -11 1.13202 0.65864   4
  -6  -6 -11 17.2551 1.17673   4
  -7  -6 -11 40.9506 1.73631   4
   1  -7 -11 2.87255 0.76415   4
   1  -7 -11 2.23541 0.77694   2
   0  -7 -11 14.9472 1.05437   2
   0  -7 -11 16.5495 1.12823   4
  -1  -7 -11 0.75248 0.67410   4
  -2  -7 -11 28.3079 1.36890   4
  -3  -7 -11 1.65724 0.69829   4
  -4  -7 -11 0.67452 0.62030   4
  -5  -7 -11 0.90226 0.66175   4
   0   7 -12 28.1700 1.55702   3
  -1   7 -12 3.02528 0.89748   3
   1  -7  12 2.63092 0.90451   5
   3   6 -12 45.0234 1.80612   3
   2   6 -12 77.6334 2.38090   3
   1   6 -12 21.7322 1.33699   3
  -1  -6  12 19.0216 1.36718   1
   0   6 -12 8.89737 0.97467   3
   0  -6  12 7.30352 1.01596   1
   0  -6  12 5.55826 0.90410   5
  -1   6 -12 0.70052 0.69725   3
   1  -6  12 -1.3257 0.60071   5
  -2   6 -12 52.6074 2.01936   3
   2  -6  12 56.9083 2.15489   5
  -3   6 -12 0.96773 0.83528   3
   3  -6  12 0.12607 0.77506   5
  -4   6 -12 15.2614 1.26975   3
   4  -6  12 15.1881 1.29008   5
   4   5 -12 39.3831 1.60968   3
   4   5 -12 42.1010 1.87599   2
   3   5 -12 -0.0644 0.61419   3
  -3  -5  12 0.66216 0.66310   1
   2   5 -12 18.9186 1.18028   3
  -2  -5  12 17.9208 1.06108   1
   1   5 -12 -0.0885 0.64017   3
  -1  -5  12 0.61764 0.54424   1
   0   5 -12 9.88544 0.99478   3
   0  -5  12 10.5470 1.08488   5
   0  -5  12 10.8798 0.90659   1
  -1   5 -12 1.92990 0.76690   3
   1  -5  12 2.93274 0.71952   1
   1  -5  12 2.61684 0.70107   5
  -2   5 -12 8.92718 0.93541   3
   2  -5  12 8.32792 0.94810   5
   2  -5  12 9.13182 1.01170   1
  -3   5 -12 -0.7603 0.57970   3
   3  -5  12 -0.1990 0.69448   1
   3  -5  12 -0.3663 0.66661   5
  -4   5 -12 62.8280 2.20193   3
   4  -5  12 68.6330 2.32945   5
  -5   5 -12 154.676 3.71452   3
   5  -5  12 156.767 3.88315   5
   4   4 -12 44.7070 1.89429   2
  -4  -4  12 46.5043 1.68317   1
   3   4 -12 65.5818 1.94607   3
   3   4 -12 67.7476 2.19362   2
   2   4 -12 81.6179 2.22915   3
   1   4 -12 0.66967 0.53258   3
   0   4 -12 71.1420 2.09480   3
   0  -4  12 71.6152 2.25345   5
  -1   4 -12 132.814 3.11414   3
   1  -4  12 135.265 3.26228   5
  -2   4 -12 5.16718 0.84705   3
   2  -4  12 4.90253 0.70805   1
   2  -4  12 4.60636 0.80847   5
  -3   4 -12 9.87753 0.99001   3
   3  -4  12 11.7434 1.09335   1
   3  -4  12 10.6591 1.01436   5
  -4   4 -12 67.3115 2.16791   3
   4  -4  12 65.1257 2.45036   1
   4  -4  12 65.2500 2.23828   5
  -5   4 -12 213.910 4.53033   3
   5  -4  12 213.485 4.67257   5
  -6   4 -12 312.664 6.08341   3
   6  -4  12 315.327 6.31858   5
   5   3 -12 5.34740 0.97246   2
   4   3 -12 29.7653 1.51136   2
  -4  -3  12 27.2441 1.18644   1
   3   3 -12 4.24045 0.84021   2
   3   3 -12 4.65151 0.64346   3
   2   3 -12 7.79287 0.74505   3
   2   3 -12 8.75938 0.60285   4
   2   3 -12 8.91721 0.93195   2
   1   3 -12 22.1488 1.09892   3
   1   3 -12 20.3813 0.81260   4
   0   3 -12 19.3938 0.76873   4
   0   3 -12 19.5496 1.09376   3
   0  -3  12 18.5578 1.17430   5
  -1   3 -12 43.6864 1.19491   4
  -1   3 -12 47.2008 1.61961   3
   1  -3  12 46.4241 1.71192   5
  -2   3 -12 11.9640 0.66323   4
  -2   3 -12 13.1810 0.96388   3
   2  -3  12 12.9356 1.02790   5
  -3   3 -12 11.7623 0.95367   3
  -3   3 -12 11.3457 0.68413   4
   3  -3  12 12.0061 1.03682   5
   3  -3  12 10.7495 0.89791   1
  -4   3 -12 197.127 3.62517   4
  -4   3 -12 200.943 4.15929   3
   4  -3  12 192.039 4.35644   1
   4  -3  12 199.147 4.25096   5
  -5   3 -12 13.4341 0.85382   4
  -5   3 -12 13.6787 1.14509   3
   5  -3  12 13.5124 1.16073   5
   5  -3  12 14.7300 1.39997   1
  -6   3 -12 2.00834 0.83561   3
  -6   3 -12 2.93956 0.65069   4
   6  -3  12 1.68203 0.83239   5
  -7   3 -12 5.73469 0.82687   4
  -7   3 -12 6.51300 0.94377   3
   7  -3  12 7.00394 1.08698   5
   5   2 -12 -0.2850 0.77047   2
   4   2 -12 104.271 2.83694   2
   3   2 -12 4.97190 0.81389   2
   3   2 -12 4.27206 0.55324   3
   2   2 -12 3.60058 0.69991   2
   2   2 -12 4.97716 0.59894   3
   1   2 -12 3.47809 0.57849   3
   1   2 -12 3.10812 0.47734   4
   1   2 -12 2.46299 0.62056   2
   0   2 -12 126.872 2.51127   4
   0   2 -12 130.701 2.80958   3
   0  -2  12 126.734 2.99983   5
  -1   2 -12 119.157 2.69785   3
  -1   2 -12 116.495 2.36535   4
   1  -2  12 118.598 2.83305   5
  -2   2 -12 49.6218 1.36685   4
  -2   2 -12 52.3238 1.69985   3
   2  -2  12 51.2580 1.76151   5
  -3   2 -12 307.729 5.55545   3
  -3   2 -12 297.845 5.03479   4
   3  -2  12 300.074 5.62337   5
   3  -2  12 302.225 4.93308   1
  -4   2 -12 22.4095 1.24700   3
  -4   2 -12 23.0326 1.00581   4
   4  -2  12 22.3100 1.30006   1
   4  -2  12 21.7637 1.26871   5
  -5   2 -12 554.858 9.19236   4
  -5   2 -12 574.531 8.96140   3
   5  -2  12 578.295 9.08004   5
   5  -2  12 550.153 9.97722   1
  -6   2 -12 2.24698 0.65635   4
   6  -2  12 3.45814 0.78321   5
  -7   2 -12 10.3129 0.93197   4
   7  -2  12 10.4819 1.17068   5
   5   1 -12 9.96480 1.13264   2
   4   1 -12 73.4271 2.30654   2
  -4  -1  12 71.6982 1.86179   1
   3   1 -12 0.03611 0.68156   2
   2   1 -12 1.24477 0.42044   3
   2   1 -12 0.25516 0.61162   2
   1   1 -12 120.730 2.69292   2
   1   1 -12 119.423 2.50469   4
   1   1 -12 118.497 2.53102   3
   0   1 -12 0.27533 0.37532   4
   0   1 -12 -0.0143 0.48909   2
   0   1 -12 -0.0689 0.40694   3
   0  -1  12 -0.1463 0.43609   5
  -1   1 -12 40.0986 1.25596   4
  -1   1 -12 43.8322 1.44605   3
  -1   1 -12 41.6534 1.30201   2
   1  -1  12 43.4030 1.52705   5
  -2   1 -12 103.626 2.22189   4
  -2   1 -12 102.527 2.43484   3
   2  -1  12 99.1245 2.50636   5
  -3   1 -12 296.163 5.09813   4
   3  -1  12 293.776 5.43717   5
  -4   1 -12 375.911 5.99855   4
   4  -1  12 367.518 6.61195   1
   4  -1  12 371.055 6.63484   5
  -5   1 -12 17.8684 1.00962   4
   5  -1  12 17.7619 1.34358   1
   5  -1  12 16.2868 1.15400   5
  -6   1 -12 3.06867 0.63818   4
   6  -1  12 2.82051 1.00902   1
   6  -1  12 4.55636 0.79659   5
  -7   1 -12 1.20581 0.66324   4
   7  -1  12 2.70919 0.76754   5
  -8   1 -12 -0.0011 0.73396   4
   8  -1  12 0.59953 0.72982   5
   5   0 -12 16.9721 1.28573   2
   4   0 -12 3.70049 0.79666   2
  -4   0  12 3.31686 0.64647   1
   3   0 -12 22.9863 1.28949   2
   2   0 -12 55.2077 1.42057   3
   2   0 -12 57.9063 1.80719   2
   1   0 -12 120.315 2.48165   3
   1   0 -12 122.956 2.71304   2
   0   0 -12 289.092 5.06545   4
   0   0 -12 294.542 4.98388   3
   0   0 -12 292.519 5.10156   2
  -1   0 -12 75.8063 1.78221   2
  -1   0 -12 74.7972 1.83307   4
  -1   0 -12 71.1678 1.91046   3
   1   0  12 73.2819 1.97687   5
  -2   0 -12 239.615 4.28077   4
  -2   0 -12 231.604 3.99566   2
   2   0  12 242.048 4.48452   5
  -3   0 -12 0.85350 0.45181   4
  -3   0 -12 0.34575 0.31787   2
   3   0  12 1.14163 0.53954   5
  -4   0 -12 193.355 3.72397   4
   4   0  12 194.160 3.95068   5
   4   0  12 197.125 4.00723   1
  -5   0 -12 95.6036 2.33530   4
   5   0  12 92.6241 2.47973   5
   5   0  12 93.6987 2.81372   1
  -6   0 -12 117.601 2.75739   4
   6   0  12 110.348 3.46825   1
   6   0  12 116.081 2.95492   5
  -7   0 -12 38.8399 1.58666   4
   7   0  12 37.7287 1.72691   5
  -8   0 -12 18.1903 1.22164   4
   8   0  12 16.2461 1.35029   5
   5  -1 -12 52.7080 2.08180   2
   4  -1 -12 0.67255 0.78887   2
  -4   1  12 0.93494 0.62554   1
   3  -1 -12 36.4517 1.53290   2
  -3   1  12 36.8184 1.26916   1
   2  -1 -12 268.924 5.01943   2
   1  -1 -12 119.822 2.39900   3
   1  -1 -12 119.638 2.66787   2
   0  -1 -12 85.3358 1.99296   3
   0  -1 -12 90.4088 2.09190   2
   0  -1 -12 89.2451 2.14432   4
  -1  -1 -12 15.4016 0.79561   2
  -1  -1 -12 15.6900 0.89714   4
   1   1  12 15.0785 0.88511   5
  -2  -1 -12 117.288 2.58267   4
  -2  -1 -12 117.724 2.29949   2
   2   1  12 120.495 2.61321   5
  -3  -1 -12 58.5853 1.28732   2
  -3  -1 -12 59.8960 1.70669   4
   3   1  12 58.3848 1.70910   5
   3   1  12 58.4877 1.57934   1
   3   1  12 61.0733 1.59498   1
  -4  -1 -12 48.2021 1.55624   4
   4   1  12 48.6719 1.76623   1
   4   1  12 46.5640 1.57185   5
  -5  -1 -12 31.2272 1.32982   4
   5   1  12 29.0587 1.63950   1
   5   1  12 31.3948 1.35082   5
  -6  -1 -12 86.3127 2.30655   4
   6   1  12 81.6826 2.97769   1
   6   1  12 85.5523 2.40245   5
  -7  -1 -12 2.77229 0.71050   4
   7   1  12 3.31606 0.80640   5
  -8  -1 -12 22.7171 1.35231   4
   8   1  12 26.8002 1.54362   5
   4  -2 -12 6.25407 0.97426   2
   3  -2 -12 50.9279 1.82876   2
  -3   2  12 48.5084 1.73941   1
   2  -2 -12 74.0293 2.11468   2
  -2   2  12 71.6495 1.86239   1
   1  -2 -12 38.3381 1.10909   3
   1  -2 -12 38.6350 1.40429   2
   0  -2 -12 136.692 2.89086   4
   0  -2 -12 127.084 2.72558   2
  -1  -2 -12 10.7994 0.69867   2
  -1  -2 -12 11.5482 0.84141   4
  -2  -2 -12 66.3039 1.50987   2
  -2  -2 -12 65.8181 1.83092   4
   2   2  12 68.7336 1.66119   1
   2   2  12 65.4806 1.72147   5
   2   2  12 68.3295 1.61237   1
  -3  -2 -12 -0.2814 0.47941   4
  -3  -2 -12 0.47144 0.29315   2
   3   2  12 0.81076 0.53623   1
   3   2  12 0.29352 0.42464   5
  -4  -2 -12 199.567 3.89058   4
   4   2  12 188.864 3.73498   5
   4   2  12 198.015 4.20771   1
  -5  -2 -12 115.144 2.75095   4
   5   2  12 119.170 2.72235   5
   5   2  12 120.259 3.36324   1
  -6  -2 -12 4.89551 0.77730   4
   6   2  12 5.26744 0.75016   5
   6   2  12 3.53157 1.04727   1
  -7  -2 -12 0.04170 0.59231   4
   7   2  12 -0.7679 0.53237   5
  -8  -2 -12 158.161 3.69504   4
   8   2  12 160.328 3.77617   5
   4  -3 -12 3.36662 0.96320   2
   3  -3 -12 53.1503 1.93430   2
  -3   3  12 50.8041 2.02936   1
   2  -3 -12 16.2041 1.08232   2
  -2   3  12 16.0161 1.11710   1
   1  -3 -12 1.13890 0.62111   2
  -1   3  12 0.60903 0.52012   1
   0  -3 -12 197.910 3.75810   2
   0  -3 -12 203.245 3.95788   4
   0   3  12 192.978 3.86494   1
  -1  -3 -12 19.0472 0.88186   2
  -1  -3 -12 20.8742 1.06722   4
   1   3  12 19.6698 1.05009   1
  -2  -3 -12 299.112 5.28288   4
  -2  -3 -12 282.183 4.74270   2
   2   3  12 288.576 4.68020   5
   2   3  12 292.443 5.38560   1
  -3  -3 -12 33.1410 1.33195   4
   3   3  12 35.0702 1.57273   1
   3   3  12 32.2103 1.12722   5
  -4  -3 -12 22.7233 1.15897   4
   4   3  12 24.1042 1.49333   1
   4   3  12 23.4961 1.00374   5
  -5  -3 -12 25.9055 1.29299   4
   5   3  12 26.5630 1.71098   1
   5   3  12 25.9454 1.12288   5
  -6  -3 -12 23.0588 1.29449   4
   6   3  12 24.6866 1.20274   5
   6   3  12 26.6791 2.04766   1
  -7  -3 -12 3.71819 0.80784   4
   7   3  12 2.73346 0.70880   5
  -8  -3 -12 42.2465 1.80576   4
   8   3  12 45.7117 1.81814   5
   3  -4 -12 -0.4087 0.70386   2
   2  -4 -12 122.202 2.96239   2
  -2   4  12 120.475 3.33945   1
   1  -4 -12 136.067 3.04112   2
  -1   4  12 136.017 3.41359   1
   0  -4 -12 35.9888 1.32282   2
   0  -4 -12 34.1747 1.41113   4
   0   4  12 35.8013 1.61956   1
  -1  -4 -12 27.6240 1.06651   2
  -1  -4 -12 27.7760 1.28858   4
   1   4  12 27.6524 1.47176   1
  -2  -4 -12 25.2768 0.91594   2
  -2  -4 -12 25.3101 1.20508   4
   2   4  12 26.3949 1.46560   1
  -3  -4 -12 77.1031 2.12963   4
   3   4  12 73.7509 2.51440   1
  -4  -4 -12 58.0121 1.84780   4
   4   4  12 57.8206 2.36768   1
  -5  -4 -12 43.4797 1.63469   4
   5   4  12 43.8851 1.45986   5
   5   4  12 45.1264 2.30294   1
  -6  -4 -12 0.05132 0.63736   4
   6   4  12 2.56489 0.57370   5
  -7  -4 -12 3.26952 0.79111   4
   7   4  12 2.52064 0.68811   5
   2  -5 -12 20.2239 1.27036   2
   1  -5 -12 54.1248 1.81617   2
   0  -5 -12 42.3222 1.49203   2
   0  -5 -12 41.9558 1.61928   4
   0   5  12 41.5226 1.99944   1
  -1  -5 -12 6.03423 0.67332   2
  -1  -5 -12 5.15303 0.72814   4
   1   5  12 6.32140 1.03146   1
  -2  -5 -12 6.76351 0.76581   4
   2   5  12 7.36611 1.10537   1
  -3  -5 -12 122.835 2.90878   4
   3   5  12 118.213 3.53560   1
  -4  -5 -12 9.83363 0.94926   4
   4   5  12 9.07652 1.33814   1
  -5  -5 -12 3.11906 0.70095   4
  -6  -5 -12 40.2118 1.69390   4
  -7  -5 -12 2.28116 0.74784   4
   1  -6 -12 2.39676 0.71053   4
   1  -6 -12 2.79241 0.80335   2
   0  -6 -12 3.94034 0.74540   4
   0  -6 -12 3.60638 0.74248   2
  -1  -6 -12 0.46501 0.55837   4
  -2  -6 -12 2.42010 0.69657   4
  -3  -6 -12 82.6616 2.34782   4
  -4  -6 -12 1.23737 0.69857   4
  -5  -6 -12 44.8634 1.77359   4
  -6  -6 -12 26.6192 1.45024   4
  -1  -7 -12 -0.2017 0.63164   4
  -2  -7 -12 115.822 2.95526   4
  -3  -7 -12 2.28098 0.77118   4
  -4  -7 -12 44.1385 1.76488   4
   1   6 -13 0.08559 0.66310   3
   0   6 -13 92.2639 2.72657   3
  -1   6 -13 0.42446 0.71935   3
   1  -6  13 0.82894 0.71791   5
  -2   6 -13 187.260 4.27110   3
   2  -6  13 181.086 4.31854   5
   2   5 -13 206.289 4.32509   3
   1   5 -13 7.83936 0.92692   3
   0   5 -13 1.92390 0.74652   3
  -1   5 -13 71.5777 2.29139   3
   1  -5  13 73.7052 1.97697   1
   1  -5  13 68.6176 2.36289   5
  -2   5 -13 3.18358 0.78369   3
   2  -5  13 1.36519 0.73733   5
   2  -5  13 1.58727 0.70508   1
  -3   5 -13 17.6100 1.27297   3
   3  -5  13 18.1986 1.38424   5
  -4   5 -13 9.12203 1.05938   3
   4  -5  13 8.02131 1.11669   5
   3   4 -13 11.6890 1.13841   2
   3   4 -13 13.0711 0.97518   3
   2   4 -13 28.8170 1.44850   2
   2   4 -13 28.6865 1.35511   3
   1   4 -13 55.2151 1.86165   3
   0   4 -13 5.50720 0.77695   3
   0  -4  13 4.84320 0.82619   5
  -1   4 -13 23.0389 1.27766   3
   1  -4  13 24.8479 1.40735   5
  -2   4 -13 58.3505 1.99350   3
   2  -4  13 54.1872 2.04561   5
  -3   4 -13 84.3828 2.48140   3
   3  -4  13 78.7682 2.50050   5
   3  -4  13 83.7693 2.39722   1
  -4   4 -13 71.7711 2.33412   3
   4  -4  13 69.7133 2.37375   5
  -5   4 -13 4.53842 0.87324   3
   5  -4  13 3.81908 0.87457   5
   4   3 -13 7.51413 0.99601   2
   3   3 -13 83.3807 2.47154   2
   3   3 -13 77.7783 2.11039   3
   2   3 -13 1.34901 0.62967   2
   2   3 -13 0.98131 0.53333   3
   1   3 -13 1.18151 0.58726   3
   1   3 -13 0.00493 0.52498   2
   0   3 -13 90.5869 2.00795   4
   0   3 -13 91.2430 2.38994   3
   0  -3  13 92.7732 2.61656   5
  -1   3 -13 40.7604 1.19673   4
  -1   3 -13 43.0776 1.60634   3
   1  -3  13 40.3897 1.67715   5
  -2   3 -13 3.71995 0.48751   4
  -2   3 -13 4.09097 0.75279   3
   2  -3  13 3.37107 0.73416   5
  -3   3 -13 34.1657 1.13706   4
  -3   3 -13 33.7723 1.53219   3
   3  -3  13 34.9451 1.29173   1
   3  -3  13 32.7153 1.54417   5
  -4   3 -13 24.1273 1.34569   3
  -4   3 -13 21.0681 0.96430   4
   4  -3  13 19.5535 1.27636   1
   4  -3  13 19.6366 1.32476   5
  -5   3 -13 109.785 2.50384   4
  -5   3 -13 117.869 3.04743   3
   5  -3  13 112.157 3.08243   5
  -6   3 -13 168.912 3.51088   4
  -6   3 -13 170.208 3.98005   3
   6  -3  13 175.988 4.16141   5
   4   2 -13 9.86396 1.04882   2
   3   2 -13 0.69075 0.65943   2
   2   2 -13 66.6881 2.05630   2
   2   2 -13 62.1768 1.77385   3
   1   2 -13 -0.3319 0.49527   2
   1   2 -13 0.32538 0.39652   4
   1   2 -13 0.09812 0.48829   3
   0   2 -13 99.9826 2.38387   2
   0   2 -13 97.0619 2.12358   4
   0   2 -13 94.6177 2.38156   3
  -1   2 -13 19.4810 1.08426   3
  -1   2 -13 22.6353 0.92613   4
   1  -2  13 21.7426 1.21668   5
  -2   2 -13 1.57827 0.66317   3
  -2   2 -13 1.30920 0.42104   4
   2  -2  13 1.16109 0.55857   5
  -3   2 -13 0.84474 0.47467   4
  -3   2 -13 1.38633 0.61379   3
   3  -2  13 1.20709 0.57136   5
  -4   2 -13 38.8141 1.33035   4
  -4   2 -13 38.9433 1.62635   3
   4  -2  13 40.2897 1.70482   5
   4  -2  13 41.0685 1.56929   1
  -5   2 -13 2.97423 0.60243   4
  -5   2 -13 4.46167 0.80516   3
   5  -2  13 3.15355 0.87197   1
   5  -2  13 4.55151 0.80235   5
  -6   2 -13 50.3154 1.95072   3
  -6   2 -13 46.6725 1.62446   4
   6  -2  13 48.6039 2.00548   5
  -7   2 -13 5.32632 0.98562   3
  -7   2 -13 4.02567 0.75894   4
   7  -2  13 4.93326 1.02729   5
   4   1 -13 74.0264 2.41040   2
   3   1 -13 4.26034 0.79871   2
   2   1 -13 -0.3040 0.37675   3
   2   1 -13 0.06942 0.64527   2
   1   1 -13 28.2828 1.11443   4
   1   1 -13 28.4990 1.12771   3
   1   1 -13 27.0914 1.25515   2
   0   1 -13 43.2155 1.34895   4
   0   1 -13 40.3647 1.41956   2
   0   1 -13 42.1104 1.42272   3
  -1   1 -13 27.0023 1.10285   2
  -1   1 -13 26.4662 1.19178   3
  -1   1 -13 25.4975 1.04898   4
   1  -1  13 28.6663 1.30971   5
  -2   1 -13 34.1722 1.38138   3
  -2   1 -13 35.6238 1.16889   2
  -2   1 -13 35.2172 1.21576   4
   2  -1  13 32.5348 1.42521   5
  -3   1 -13 0.04165 0.40263   4
  -3   1 -13 0.16862 0.35920   2
   3  -1  13 -0.3048 0.49639   5
  -4   1 -13 35.3686 1.31068   4
   4  -1  13 33.2418 1.35269   1
   4  -1  13 34.4589 1.51079   5
  -5   1 -13 115.961 2.64119   4
   5  -1  13 115.786 2.97365   5
   5  -1  13 109.519 3.06499   1
  -6   1 -13 33.6381 1.40548   4
   6  -1  13 32.3968 1.60099   5
  -7   1 -13 3.10134 0.74570   4
   7  -1  13 2.77981 0.80176   5
   4   0 -13 14.5217 1.24996   2
   3   0 -13 3.68498 0.77933   2
   2   0 -13 11.2738 0.94578   2
   1   0 -13 3.39933 0.55228   4
   1   0 -13 4.10342 0.70172   2
   1   0 -13 3.67138 0.52066   3
   0   0 -13 19.1943 0.98750   2
   0   0 -13 16.9349 0.90492   3
   0   0 -13 17.2063 0.93652   4
  -1   0 -13 58.6611 1.65223   4
  -1   0 -13 59.1213 1.72237   3
  -1   0 -13 60.1153 1.61068   2
   1   0  13 56.8999 1.80568   5
  -2   0 -13 32.9574 1.09697   2
  -2   0 -13 34.1796 1.24925   4
   2   0  13 34.2259 1.38313   5
  -3   0 -13 15.1563 0.70231   2
  -3   0 -13 14.6662 0.91466   4
   3   0  13 16.6409 1.02223   5
  -4   0 -13 15.4226 0.96391   4
   4   0  13 15.3139 1.04764   5
   4   0  13 16.4187 0.98676   1
  -5   0 -13 4.26377 0.68034   4
   5   0  13 6.95982 0.82323   5
   5   0  13 5.60849 0.91751   1
  -6   0 -13 2.55414 0.65999   4
   6   0  13 2.46320 0.68576   5
   6   0  13 1.29217 0.93185   1
  -7   0 -13 17.8438 1.18775   4
   7   0  13 17.0364 1.27855   5
   4  -1 -13 57.7546 2.12658   2
   3  -1 -13 29.1828 1.45069   2
   2  -1 -13 23.7228 1.24826   2
   1  -1 -13 343.026 6.02769   2
   1  -1 -13 339.317 5.51054   3
   0  -1 -13 85.1657 2.09828   2
   0  -1 -13 86.1034 2.17327   4
   0  -1 -13 87.4969 2.04833   3
  -1  -1 -13 290.943 4.98305   2
  -1  -1 -13 306.121 5.33237   4
   1   1  13 297.971 5.33379   5
  -2  -1 -13 11.5395 0.67027   2
  -2  -1 -13 11.0037 0.81473   4
   2   1  13 11.9194 0.86338   5
  -3  -1 -13 21.1373 1.06319   4
   3   1  13 19.0374 1.02555   5
  -4  -1 -13 41.8584 1.49240   4
   4   1  13 39.7884 1.50927   5
   4   1  13 42.2061 1.54393   1
  -5  -1 -13 98.9625 2.51187   4
   5   1  13 99.8054 2.57506   5
   5   1  13 99.7641 2.85211   1
  -6  -1 -13 48.1120 1.71648   4
   6   1  13 43.1716 2.24526   1
   6   1  13 46.1632 1.75624   5
  -7  -1 -13 14.5625 1.15039   4
   7   1  13 14.9327 1.20290   5
   4  -2 -13 3.67903 0.87729   2
   3  -2 -13 0.95790 0.71383   2
  -3   2  13 0.82682 0.53865   1
   2  -2 -13 32.3835 1.43601   2
   1  -2 -13 81.1519 2.16731   2
   0  -2 -13 13.5946 0.88617   2
   0  -2 -13 15.0577 0.98881   4
  -1  -2 -13 80.0169 2.11849   4
  -1  -2 -13 77.3243 1.87440   2
  -2  -2 -13 181.712 3.59520   4
  -2  -2 -13 171.134 3.14679   2
   2   2  13 171.918 3.41979   5
  -3  -2 -13 5.47198 0.71183   4
   3   2  13 4.72153 0.62039   5
   3   2  13 6.05413 0.67801   1
  -4  -2 -13 4.96047 0.71467   4
   4   2  13 5.21496 0.65680   5
   4   2  13 5.44042 0.83772   1
  -5  -2 -13 13.8066 1.00572   4
   5   2  13 13.9965 0.97274   5
   5   2  13 14.0241 1.27143   1
  -6  -2 -13 102.598 2.66413   4
   6   2  13 99.8303 2.60367   5
  -7  -2 -13 24.2064 1.34908   4
   7   2  13 20.6569 1.29158   5
   3  -3 -13 0.43338 0.80974   2
   2  -3 -13 0.54432 0.71979   2
  -2   3  13 0.42024 0.56606   1
   1  -3 -13 18.3844 1.08667   2
  -1   3  13 20.0421 1.03160   1
   0  -3 -13 3.29354 0.63749   4
   0  -3 -13 2.73672 0.58497   2
   0   3  13 2.90122 0.54830   1
  -1  -3 -13 18.5078 1.09857   4
  -1  -3 -13 20.3923 0.94137   2
   1   3  13 20.3858 0.98962   1
  -2  -3 -13 59.9886 1.86628   4
   2   3  13 59.3929 1.59702   5
   2   3  13 62.7646 1.82380   1
  -3  -3 -13 4.63169 0.75125   4
   3   3  13 5.74417 0.59552   5
   3   3  13 5.73488 0.82403   1
  -4  -3 -13 75.3174 2.17249   4
   4   3  13 77.6607 2.49558   1
   4   3  13 75.5312 1.93662   5
  -5  -3 -13 16.7908 1.13044   4
   5   3  13 15.4786 0.93811   5
   5   3  13 13.5376 1.34801   1
  -6  -3 -13 0.06805 0.60365   4
   6   3  13 0.09944 0.52211   5
  -7  -3 -13 5.90412 0.93094   4
   7   3  13 4.68912 0.77972   5
   2  -4 -13 0.23539 0.65603   2
   1  -4 -13 9.72350 0.92749   2
  -1   4  13 8.88882 1.00061   1
   0  -4 -13 12.9368 0.90484   2
   0  -4 -13 12.3752 1.02261   4
   0   4  13 13.8175 1.08556   1
  -1  -4 -13 27.0229 1.08313   2
  -1  -4 -13 26.9603 1.32933   4
   1   4  13 26.3359 1.40332   1
  -2  -4 -13 21.7263 1.21353   4
   2   4  13 22.2360 1.36266   1
  -3  -4 -13 20.5294 1.20249   4
   3   4  13 23.1686 1.46327   1
  -4  -4 -13 0.06870 0.55897   4
   4   4  13 -0.4358 0.76155   1
  -5  -4 -13 2.10894 0.66240   4
  -6  -4 -13 47.4111 1.83225   4
  -7  -4 -13 11.5290 1.10669   4
   1  -5 -13 9.82391 0.98864   4
   1  -5 -13 7.36517 0.88907   2
   0  -5 -13 0.64540 0.58511   4
   0  -5 -13 -0.4353 0.58454   2
  -1  -5 -13 1.90205 0.70028   4
  -2  -5 -13 7.24811 0.89180   4
   2   5  13 7.27235 1.17872   1
  -3  -5 -13 2.45527 0.67360   4
  -4  -5 -13 56.8015 1.95260   4
  -5  -5 -13 2.54629 0.79830   4
  -6  -5 -13 24.8370 1.40930   4
   0  -6 -13 -0.4109 0.57814   4
  -1  -6 -13 22.5508 1.33783   4
  -2  -6 -13 9.97722 0.96275   4
  -3  -6 -13 0.44991 0.69027   4
  -4  -6 -13 93.0162 2.63135   4
  -5  -6 -13 12.6238 1.14495   4
   1   5 -14 2.54518 0.75009   3
   0   5 -14 1.54516 0.79295   3
  -1   5 -14 29.9203 1.58958   3
   1  -5  14 31.3715 1.68720   5
  -2   5 -14 114.324 3.11932   3
   2  -5  14 119.407 3.28786   5
  -3   5 -14 3.22739 0.87601   3
   3  -5  14 4.98964 1.00370   5
   2   4 -14 27.2268 1.35574   3
   2   4 -14 25.8203 1.45363   2
   1   4 -14 27.5321 1.39074   3
   0   4 -14 0.84413 0.70256   3
  -1   4 -14 6.38978 0.91050   3
   1  -4  14 6.58946 0.94312   5
  -2   4 -14 67.8283 2.24775   3
   2  -4  14 67.7187 2.34819   5
  -3   4 -14 5.17969 0.90375   3
   3  -4  14 3.99338 0.89729   5
   3  -4  14 5.65723 0.72977   1
  -4   4 -14 18.5810 1.34219   3
   4  -4  14 20.0154 1.38868   5
   3   3 -14 8.58290 1.08304   2
   2   3 -14 46.3984 1.64770   3
   2   3 -14 49.2121 1.86425   2
   1   3 -14 5.56364 0.76896   3
   1   3 -14 5.98818 0.80991   2
   0   3 -14 42.6327 1.62803   3
  -1   3 -14 98.5063 2.61204   3
   1  -3  14 93.8738 2.73453   5
  -2   3 -14 62.8878 2.08491   3
   2  -3  14 65.7411 2.22425   5
  -3   3 -14 27.1993 1.41163   3
   3  -3  14 24.9476 1.45979   5
  -4   3 -14 10.2595 1.06452   3
   4  -3  14 10.2033 0.93653   1
   4  -3  14 10.8263 1.09283   5
  -5   3 -14 4.62130 0.87560   3
   5  -3  14 4.46338 0.93699   5
   3   2 -14 35.4296 1.66086   2
   2   2 -14 7.83603 0.95486   2
   2   2 -14 6.91241 0.68307   4
   2   2 -14 8.60757 0.77427   3
   1   2 -14 0.36669 0.64117   2
   1   2 -14 0.73025 0.43263   4
   1   2 -14 0.57867 0.49107   3
   0   2 -14 37.7339 1.25116   4
   0   2 -14 37.2394 1.46826   3
   0   2 -14 36.6207 1.42364   2
  -1   2 -14 99.2689 2.39066   2
  -1   2 -14 99.2532 2.55864   3
  -1   2 -14 99.6477 2.24199   4
   1  -2  14 100.931 2.73364   5
  -2   2 -14 57.0659 1.58937   4
  -2   2 -14 55.7925 1.88654   3
   2  -2  14 58.6880 2.02613   5
  -3   2 -14 34.2789 1.56346   3
  -3   2 -14 36.0536 1.27405   4
   3  -2  14 37.9505 1.66423   5
  -4   2 -14 0.63588 0.48661   4
  -4   2 -14 1.69260 0.68456   3
   4  -2  14 0.82695 0.71607   5
   4  -2  14 0.44040 0.48793   1
  -5   2 -14 29.8740 1.26995   4
  -5   2 -14 28.5250 1.54796   3
   5  -2  14 27.1765 1.55223   1
   5  -2  14 29.5159 1.56001   5
  -6   2 -14 1.82569 0.66471   4
  -6   2 -14 4.09939 0.90176   3
   6  -2  14 3.32878 0.93565   5
   3   1 -14 11.3478 1.12729   2
   2   1 -14 72.0784 2.20118   2
   1   1 -14 21.5132 1.16602   2
   1   1 -14 21.4215 1.04523   3
   1   1 -14 22.2359 1.04172   4
   0   1 -14 2.83154 0.57559   3
   0   1 -14 2.86238 0.55353   4
   0   1 -14 1.31686 0.57779   2
  -1   1 -14 18.5207 0.94522   4
  -1   1 -14 19.3799 1.00498   2
  -1   1 -14 17.7055 1.05248   3
   1  -1  14 20.2213 1.20135   5
  -2   1 -14 1.83401 0.48751   4
  -2   1 -14 2.63180 0.68814   3
  -2   1 -14 2.18811 0.50758   2
   2  -1  14 1.65971 0.66093   5
  -3   1 -14 25.3884 1.30781   3
  -3   1 -14 22.9512 1.07177   4
   3  -1  14 23.1619 1.29697   5
  -4   1 -14 19.1093 1.03607   4
   4  -1  14 21.6742 1.28652   5
  -5   1 -14 25.8919 1.22015   4
   5  -1  14 26.0063 1.42864   5
   5  -1  14 24.5358 1.39408   1
  -6   1 -14 -0.1509 0.56544   4
   6  -1  14 0.40698 0.63710   5
   3   0 -14 211.236 4.47188   2
   2   0 -14 1.86389 0.73649   2
   1   0 -14 47.4016 1.45339   3
   1   0 -14 45.5995 1.63231   2
   1   0 -14 46.8755 1.55569   4
   0   0 -14 31.3661 1.23984   4
   0   0 -14 28.6033 1.23132   2
   0   0 -14 29.8919 1.20117   3
  -1   0 -14 2.01362 0.51727   2
  -1   0 -14 1.08455 0.48963   4
  -1   0 -14 0.35370 0.45747   3
   1   0  14 0.61503 0.51522   5
  -2   0 -14 1.30295 0.52479   4
  -2   0 -14 2.13514 0.47631   2
  -2   0 -14 1.10007 0.57130   3
   2   0  14 0.95243 0.55964   5
  -3   0 -14 4.93957 0.67187   4
   3   0  14 5.98760 0.81054   5
  -4   0 -14 5.20870 0.73738   4
   4   0  14 6.77444 0.85560   5
  -5   0 -14 7.00066 0.81226   4
   5   0  14 7.15008 0.89666   5
   5   0  14 6.89040 0.92067   1
  -6   0 -14 2.46221 0.67960   4
   6   0  14 3.96484 0.81275   5
  -7   0 -14 6.37792 0.93446   4
   7   0  14 4.62564 0.93811   5
   3  -1 -14 290.269 5.69103   2
   2  -1 -14 22.6959 1.28137   2
   1  -1 -14 94.0812 2.42076   2
   1  -1 -14 94.9191 2.40322   4
   0  -1 -14 40.5089 1.43490   2
   0  -1 -14 40.6562 1.49784   4
   0  -1 -14 41.2492 1.36897   3
  -1  -1 -14 18.1127 1.01103   4
  -1  -1 -14 18.0739 0.92395   2
  -2  -1 -14 4.69480 0.53833   2
  -2  -1 -14 5.36190 0.67292   4
   2   1  14 4.47173 0.65776   5
  -3  -1 -14 -0.0899 0.53583   4
   3   1  14 -0.1082 0.46914   5
  -4  -1 -14 0.87344 0.55929   4
   4   1  14 0.29117 0.48356   1
   4   1  14 0.39409 0.50473   5
  -5  -1 -14 50.4564 1.77467   4
   5   1  14 55.2923 2.02827   1
   5   1  14 53.6410 1.85932   5
  -6  -1 -14 -0.3984 0.54393   4
   6   1  14 0.38111 0.60197   5
  -7  -1 -14 2.63639 0.80352   4
   7   1  14 3.76952 0.81042   5
   3  -2 -14 13.8788 1.15844   2
   2  -2 -14 24.7046 1.35032   2
   1  -2 -14 0.13238 0.63423   2
   1  -2 -14 0.36519 0.55221   4
   0  -2 -14 219.360 4.30982   4
   0  -2 -14 215.287 4.13212   2
   0  -2 -14 215.063 3.99182   3
  -1  -2 -14 3.40646 0.66310   4
  -1  -2 -14 2.74959 0.53738   2
  -2  -2 -14 32.3088 1.38721   4
   2   2  14 32.9532 1.29462   5
  -3  -2 -14 21.8342 1.17123   4
   3   2  14 20.4236 1.06657   5
  -4  -2 -14 15.7085 1.05372   4
   4   2  14 15.9982 0.99080   5
   4   2  14 16.9285 1.08125   1
  -5  -2 -14 29.4363 1.41654   4
   5   2  14 30.1483 1.63831   1
   5   2  14 28.6959 1.32695   5
  -6  -2 -14 -1.0282 0.64034   4
   6   2  14 1.38738 0.61589   5
  -7  -2 -14 8.29889 0.96719   4
   7   2  14 6.06354 0.88924   5
   2  -3 -14 -0.4231 0.65114   2
   1  -3 -14 1.44266 0.61561   4
   1  -3 -14 1.88216 0.67846   2
   0  -3 -14 4.48214 0.69042   2
   0  -3 -14 2.51968 0.69533   4
  -1  -3 -14 0.04958 0.54945   4
  -1  -3 -14 -0.0407 0.43070   2
  -2  -3 -14 -0.0827 0.52008   4
  -3  -3 -14 56.3776 1.86062   4
   3   3  14 55.7718 1.81357   1
  -4  -3 -14 32.8937 1.48072   4
   4   3  14 35.2808 1.31897   5
   4   3  14 34.4904 1.62865   1
  -5  -3 -14 101.786 2.72379   4
   5   3  14 107.839 2.56597   5
  -6  -3 -14 8.74704 1.02333   4
   6   3  14 9.83234 0.90626   5
   1  -4 -14 11.4298 1.01608   2
   1  -4 -14 11.2414 1.02380   4
   0  -4 -14 3.96031 0.71132   2
   0  -4 -14 2.82342 0.69574   4
   0   4  14 2.77490 0.70713   1
  -1  -4 -14 1.61228 0.66984   4
   1   4  14 1.92681 0.67635   1
  -2  -4 -14 9.25900 0.95768   4
   2   4  14 8.34547 0.97042   1
  -3  -4 -14 67.1346 2.13709   4
   3   4  14 69.3098 2.34604   1
  -4  -4 -14 15.3846 1.10458   4
  -5  -4 -14 61.3111 2.08129   4
  -6  -4 -14 0.85253 0.69950   4
   0  -5 -14 4.70344 0.88627   4
  -1  -5 -14 26.5433 1.40304   4
  -2  -5 -14 1.50512 0.73829   4
  -3  -5 -14 0.48730 0.59786   4
  -4  -5 -14 1.45712 0.67477   4
  -5  -5 -14 77.4143 2.41472   4
   0   4 -15 54.8102 2.01276   3
  -1   4 -15 2.35604 0.74440   3
   1  -4  15 1.60338 0.83692   5
  -2   4 -15 0.60551 0.71866   3
   2  -4  15 0.17477 0.72018   5
  -3   4 -15 0.74990 0.80112   3
   3  -4  15 -0.2887 0.75590   5
   1   3 -15 123.935 3.11337   2
   1   3 -15 129.967 3.05745   3
   0   3 -15 3.68972 0.74956   2
   0   3 -15 2.99148 0.73134   3
  -1   3 -15 5.08261 0.84406   3
   1  -3  15 5.50767 0.89535   5
  -2   3 -15 0.33110 0.72923   3
   2  -3  15 0.28998 0.72655   5
  -3   3 -15 1.18404 0.74421   3
   3  -3  15 0.99096 0.76391   5
  -4   3 -15 0.56061 0.81601   3
   4  -3  15 0.21610 0.64812   5
   2   2 -15 63.4864 2.14262   2
   1   2 -15 85.8814 2.28245   3
   1   2 -15 83.2884 2.39543   2
   0   2 -15 16.4096 1.06315   3
   0   2 -15 17.6709 0.95050   4
   0   2 -15 15.3235 1.05291   2
  -1   2 -15 4.72363 0.81141   3
  -1   2 -15 4.92060 0.68591   2
  -1   2 -15 5.62151 0.65479   4
   1  -2  15 5.71969 0.86444   5
  -2   2 -15 3.79480 0.75436   3
  -2   2 -15 3.10097 0.57355   4
  -2   2 -15 5.34832 0.68007   2
   2  -2  15 4.85413 0.87031   5
  -3   2 -15 0.20820 0.60039   3
  -3   2 -15 1.28775 0.54756   4
   3  -2  15 -0.1445 0.65917   5
  -4   2 -15 1.09887 0.80321   3
  -4   2 -15 2.01325 0.57103   4
   4  -2  15 -0.1608 0.59243   5
  -5   2 -15 134.758 3.43543   3
  -5   2 -15 135.054 3.00539   4
   5  -2  15 131.418 3.48177   5
   2   1 -15 40.1308 1.47447   4
   2   1 -15 40.1878 1.69798   2
   1   1 -15 11.7513 0.98942   2
   1   1 -15 11.7683 0.88129   4
   1   1 -15 12.9393 0.89430   3
   0   1 -15 17.5513 0.97787   4
   0   1 -15 16.9252 1.04491   2
   0   1 -15 16.9832 1.03347   3
  -1   1 -15 2.17138 0.57115   2
  -1   1 -15 2.82633 0.69016   3
  -1   1 -15 1.70708 0.52378   4
   1  -1  15 1.62493 0.68023   5
  -2   1 -15 14.3163 0.87914   2
  -2   1 -15 16.0235 0.93651   4
  -2   1 -15 14.7378 1.09154   3
   2  -1  15 16.3354 1.16314   5
  -3   1 -15 1.48496 0.54002   4
  -3   1 -15 0.67503 0.60272   3
   3  -1  15 1.51389 0.64098   5
  -4   1 -15 23.3392 1.38954   3
  -4   1 -15 24.4709 1.19255   4
   4  -1  15 24.2601 1.41006   5
  -5   1 -15 24.3513 1.23064   4
   5  -1  15 23.7533 1.25718   1
   5  -1  15 25.0611 1.47938   5
  -6   1 -15 32.1758 1.46595   4
   6  -1  15 32.4340 1.70701   5
   2   0 -15 40.1321 1.67834   2
   2   0 -15 41.7177 1.57394   4
   1   0 -15 0.16521 0.58572   2
   1   0 -15 0.67441 0.52429   4
   0   0 -15 4.86730 0.67440   3
   0   0 -15 5.22297 0.67676   4
   0   0 -15 4.48010 0.72416   2
  -1   0 -15 1.19193 0.51793   4
  -1   0 -15 1.05472 0.52983   2
  -1   0 -15 2.85411 0.60559   3
  -2   0 -15 0.32052 0.53633   4
  -2   0 -15 0.40208 0.53202   3
   2   0  15 0.87872 0.63254   5
  -3   0 -15 13.8737 0.96429   4
   3   0  15 11.8935 1.02412   5
  -4   0 -15 10.8428 0.92965   4
   4   0  15 11.5641 1.00569   5
  -5   0 -15 55.5762 1.85340   4
   5   0  15 53.7565 2.00781   5
   5   0  15 54.5943 1.81215   1
  -6   0 -15 0.87276 0.64136   4
   6   0  15 2.08334 0.76093   5
   2  -1 -15 36.9794 1.63896   2
   1  -1 -15 50.4538 1.75811   2
   1  -1 -15 46.2869 1.69425   4
   0  -1 -15 50.0932 1.71697   4
   0  -1 -15 48.5798 1.55751   3
   0  -1 -15 50.8709 1.65111   2
  -1  -1 -15 4.29219 0.65300   3
  -1  -1 -15 5.48676 0.67417   2
  -1  -1 -15 5.05451 0.73696   4
  -2  -1 -15 -0.3742 0.47771   4
   2   1  15 0.08633 0.55541   5
  -3  -1 -15 16.5300 1.07148   4
   3   1  15 15.5817 1.05763   5
  -4  -1 -15 144.961 3.28200   4
   4   1  15 146.749 3.33785   5
  -5  -1 -15 4.84832 0.80119   4
   5   1  15 6.86660 0.88601   1
   5   1  15 5.85929 0.84612   5
  -6  -1 -15 119.755 2.98878   4
   6   1  15 115.409 3.03341   5
   1  -2 -15 25.1802 1.31643   4
   1  -2 -15 25.2860 1.30044   2
   0  -2 -15 40.3165 1.61096   4
   0  -2 -15 38.3689 1.45656   2
  -1  -2 -15 0.98243 0.57396   4
  -2  -2 -15 35.2491 1.48316   4
   2   2  15 34.7144 1.38359   5
  -3  -2 -15 6.82747 0.88561   4
   3   2  15 7.09457 0.76908   5
  -4  -2 -15 121.284 2.94977   4
   4   2  15 115.949 2.82631   5
  -5  -2 -15 1.02991 0.67762   4
   5   2  15 2.53896 0.66014   5
  -6  -2 -15 15.7958 1.18890   4
   6   2  15 17.0238 1.16584   5
   1  -3 -15 0.69905 0.67252   4
   1  -3 -15 -0.4500 0.60259   2
   0  -3 -15 7.20785 0.81815   2
   0  -3 -15 6.81604 0.90017   4
  -1  -3 -15 0.78772 0.58764   4
  -2  -3 -15 6.14109 0.83183   4
  -3  -3 -15 4.60349 0.78436   4
  -4  -3 -15 9.35639 1.00075   4
   4   3  15 8.99282 0.97654   1
  -5  -3 -15 0.10720 0.63758   4
   0  -4 -15 15.1198 1.18062   4
  -1  -4 -15 18.1552 1.24405   4
  -2  -4 -15 11.7649 1.06431   4
   2   4  15 13.7878 1.01909   1
  -3  -4 -15 56.2526 1.98338   4
  -4  -4 -15 53.2157 1.95769   4
  -5  -4 -15 0.38784 0.69486   4
  -1   3 -16 16.8120 1.11680   2
  -1   3 -16 16.8604 1.21494   3
   1  -3  16 14.1522 1.25361   5
  -2   3 -16 8.23610 1.03632   3
   2  -3  16 7.01480 0.99754   5
   0   2 -16 1.01438 0.66924   2
   0   2 -16 2.43045 0.71580   3
  -1   2 -16 18.4603 1.19077   3
  -1   2 -16 17.2310 1.09339   2
   1  -2  16 17.9579 1.31833   5
  -2   2 -16 9.21511 0.98865   3
   2  -2  16 10.7064 1.07822   5
  -3   2 -16 47.9325 1.93033   3
   3  -2  16 51.3703 2.06776   5
   1   1 -16 44.9572 1.75824   2
   1   1 -16 40.8947 1.53692   4
   0   1 -16 1.98170 0.61510   3
   0   1 -16 2.00918 0.69425   2
   0   1 -16 2.17866 0.57745   4
  -1   1 -16 3.88688 0.68916   2
  -1   1 -16 5.96621 0.82366   3
  -1   1 -16 4.59536 0.66520   4
  -2   1 -16 81.3498 2.39208   3
  -2   1 -16 82.1260 2.17250   4
   2  -1  16 84.2949 2.55313   5
  -3   1 -16 5.39557 0.89382   3
  -3   1 -16 5.46368 0.73142   4
   3  -1  16 5.73836 0.93241   5
  -4   1 -16 1.61294 0.75379   3
  -4   1 -16 1.52015 0.65390   4
   4  -1  16 1.89801 0.79357   5
   1   0 -16 2.17846 0.66785   4
   1   0 -16 0.59487 0.65737   2
   0   0 -16 8.79012 0.83974   4
   0   0 -16 6.31579 0.82247   2
  -1   0 -16 10.5762 0.88920   4
  -1   0 -16 10.7213 0.92242   3
  -2   0 -16 1.62730 0.64861   3
  -2   0 -16 1.14966 0.57650   4
   2   0  16 1.00243 0.67360   5
  -3   0 -16 2.55540 0.76795   3
  -3   0 -16 4.30831 0.71084   4
   3   0  16 3.56295 0.77817   5
  -4   0 -16 68.4078 2.08905   4
   4   0  16 70.5786 2.31810   5
  -5   0 -16 15.8545 1.11686   4
   5   0  16 16.3312 1.23381   5
   0  -1 -16 57.4710 1.91433   4
   0  -1 -16 56.5680 1.82809   2
  -1  -1 -16 27.8799 1.28953   3
  -1  -1 -16 29.0927 1.35719   4
  -2  -1 -16 22.5916 1.24249   4
  -2  -1 -16 23.7571 1.26231   3
   2   1  16 23.2474 1.27793   5
  -3  -1 -16 15.9396 1.08487   4
   3   1  16 13.9948 1.07141   5
  -4  -1 -16 34.8991 1.53460   4
   4   1  16 36.4590 1.59841   5
  -5  -1 -16 19.6255 1.26923   4
   5   1  16 18.1220 1.25908   5
   0  -2 -16 2.31483 0.69868   4
  -1  -2 -16 3.98425 0.74929   4
  -2  -2 -16 46.9080 1.78130   4
  -3  -2 -16 20.0353 1.25171   4
  -4  -2 -16 -0.1193 0.63295   4
   4   2  16 -0.0943 0.54135   5
  -1  -3 -16 12.3848 1.07257   4
  -2  -3 -16 56.0296 2.00620   4
  -3  -3 -16 0.77864 0.66505   4
  -4  -3 -16 30.0170 1.54535   4
   0   0   0    0.00    0.00   0

 _exptl_absorpt_process_details 'SADABS 2014/4'
 _exptl_absorpt_correction_type   multiscan
 _exptl_absorpt_correction_T_max  0.7456
 _exptl_absorpt_correction_T_min  0.7188
 _exptl_special_details
)
 The following wavelength and cell were deduced by SADABS from the
 direction cosines etc. They are given here for emergency use only:
 CELL 0.71088    7.762    7.928   12.996   88.671   77.817   80.918
)

;
_shelx_hkl_checksum              19118
loop_
_space_group_symop_operation_xyz
'x, y, z'
'-x, -y, -z'
loop_
_atom_site_label
_atom_site_type_symbol
_atom_site_fract_x
_atom_site_fract_y
_atom_site_fract_z
_atom_site_U_iso_or_equiv
_atom_site_adp_type
_atom_site_occupancy
_atom_site_site_symmetry_order
_atom_site_calc_flag
_atom_site_refinement_flags_posn
_atom_site_refinement_flags_adp
_atom_site_refinement_flags_occupancy
O1 O 0.41620(9) 0.45555(9) 0.62729(5) 0.02021(16) Uani 1 1 d . . .
O2 O 0.18580(10) 0.27235(9) 0.16876(5) 0.02237(17) Uani 1 1 d . . .
N1 N 0.04104(10) 0.27897(10) 0.48805(6) 0.01711(17) Uani 1 1 d . . .
N2 N 0.24301(10) 0.33671(10) 0.32921(6) 0.01711(17) Uani 1 1 d . . .
N3 N 0.30275(11) 0.39226(11) 0.48842(6) 0.01758(17) Uani 1 1 d . . .
H3N H 0.3935(19) 0.4356(17) 0.4478(11) 0.031(3) Uiso 1 1 d . . .
N4 N 0.16709(11) 0.33058(11) 0.66060(6) 0.01853(18) Uani 1 1 d . . .
H4N H 0.0846(19) 0.2930(17) 0.6320(11) 0.029(3) Uiso 1 1 d . . .
C1 C 0.18830(12) 0.33298(11) 0.43469(7) 0.01601(19) Uani 1 1 d . . .
C2 C 0.13884(13) 0.27833(12) 0.27473(8) 0.0181(2) Uani 1 1 d . . .
C3 C -0.01985(13) 0.21800(12) 0.32141(8) 0.0210(2) Uani 1 1 d . . .
H3 H -0.0927 0.1769 0.2805 0.025 Uiso 1 1 calc R U .
C4 C -0.06415(13) 0.22162(12) 0.42982(8) 0.0186(2) Uani 1 1 d . . .
C5 C 0.29869(12) 0.39517(12) 0.59573(7) 0.01638(19) Uani 1 1 d . . .
C6 C 0.16411(14) 0.31808(14) 0.77189(8) 0.0246(2) Uani 1 1 d . . .
H6A H 0.0387 0.3253 0.8106 0.029 Uiso 1 1 calc R U .
H6B H 0.2118 0.4168 0.7941 0.029 Uiso 1 1 calc R U .
C7 C 0.26975(16) 0.15672(17) 0.80234(10) 0.0340(3) Uani 1 1 d . . .
H7 H 0.2641 0.1382 0.8754 0.041 Uiso 1 1 calc R U .
C8 C 0.36943(18) 0.03874(16) 0.73706(13) 0.0431(3) Uani 1 1 d . . .
H8A H 0.3791 0.0519 0.6633 0.052 Uiso 1 1 calc R U .
H8B H 0.4319 -0.0598 0.7636 0.052 Uiso 1 1 calc R U .
C9 C 0.34642(14) 0.34179(13) 0.11848(8) 0.0213(2) Uani 1 1 d . . .
H9A H 0.4017 0.2800 0.0514 0.026 Uiso 1 1 calc R U .
H9B H 0.4338 0.3248 0.1648 0.026 Uiso 1 1 calc R U .
C10 C 0.30146(12) 0.52918(12) 0.09739(7) 0.01807(19) Uani 1 1 d . . .
C11 C 0.33513(13) 0.65257(13) 0.16214(8) 0.0207(2) Uani 1 1 d . . .
H11 H 0.3914 0.6190 0.2192 0.025 Uiso 1 1 calc R U .
C12 C 0.28599(14) 0.82514(13) 0.14295(9) 0.0245(2) Uani 1 1 d . . .
H12 H 0.3079 0.9091 0.1875 0.029 Uiso 1 1 calc R U .
C13 C 0.20526(14) 0.87534(14) 0.05924(9) 0.0255(2) Uani 1 1 d . . .
H13 H 0.1715 0.9933 0.0469 0.031 Uiso 1 1 calc R U .
C14 C 0.17377(14) 0.75305(15) -0.00652(8) 0.0253(2) Uani 1 1 d . . .
H14 H 0.1199 0.7871 -0.0645 0.030 Uiso 1 1 calc R U .
C15 C 0.22138(13) 0.58099(14) 0.01290(8) 0.0218(2) Uani 1 1 d . . .
H15 H 0.1992 0.4975 -0.0319 0.026 Uiso 1 1 calc R U .
C16 C -0.22991(13) 0.16204(13) 0.49100(9) 0.0236(2) Uani 1 1 d . . .
H16A H -0.3226 0.1795 0.4493 0.035 Uiso 0.743(14) 1 calc R U P
H16B H -0.2721 0.2274 0.5570 0.035 Uiso 0.743(14) 1 calc R U P
H16C H -0.2032 0.0404 0.5066 0.035 Uiso 0.743(14) 1 calc R U P
H16D H -0.2093 0.1187 0.5593 0.035 Uiso 0.257(14) 1 calc R U P
H16E H -0.2598 0.0707 0.4516 0.035 Uiso 0.257(14) 1 calc R U P
H16F H -0.3288 0.2578 0.5020 0.035 Uiso 0.257(14) 1 calc R U P
loop_
_atom_site_aniso_label
_atom_site_aniso_U_11
_atom_site_aniso_U_22
_atom_site_aniso_U_33
_atom_site_aniso_U_23
_atom_site_aniso_U_13
_atom_site_aniso_U_12
O1 0.0166(3) 0.0279(4) 0.0177(3) 0.0019(3) -0.0037(3) -0.0082(3)
O2 0.0285(4) 0.0224(4) 0.0185(3) 0.0000(3) -0.0055(3) -0.0098(3)
N1 0.0146(4) 0.0161(4) 0.0208(4) 0.0013(3) -0.0038(3) -0.0031(3)
N2 0.0167(4) 0.0163(4) 0.0182(4) 0.0011(3) -0.0037(3) -0.0023(3)
N3 0.0141(4) 0.0233(4) 0.0163(4) 0.0032(3) -0.0030(3) -0.0065(3)
N4 0.0159(4) 0.0239(4) 0.0164(4) 0.0024(3) -0.0025(3) -0.0063(3)
C1 0.0146(4) 0.0132(4) 0.0200(4) 0.0014(3) -0.0045(3) -0.0005(3)
C2 0.0216(5) 0.0139(4) 0.0194(5) 0.0004(3) -0.0060(4) -0.0019(3)
C3 0.0216(5) 0.0193(5) 0.0250(5) 0.0000(4) -0.0087(4) -0.0066(4)
C4 0.0164(4) 0.0135(4) 0.0262(5) 0.0009(4) -0.0056(4) -0.0023(3)
C5 0.0141(4) 0.0169(4) 0.0174(4) 0.0015(3) -0.0027(3) -0.0012(3)
C6 0.0241(5) 0.0349(6) 0.0154(5) 0.0010(4) -0.0003(4) -0.0118(4)
C7 0.0355(6) 0.0442(7) 0.0319(6) 0.0194(5) -0.0192(5) -0.0213(5)
C8 0.0415(7) 0.0288(6) 0.0692(9) 0.0148(6) -0.0338(7) -0.0089(5)
C9 0.0234(5) 0.0214(5) 0.0176(4) -0.0007(4) -0.0010(4) -0.0035(4)
C10 0.0157(4) 0.0217(5) 0.0159(4) 0.0006(3) -0.0009(3) -0.0033(3)
C11 0.0191(5) 0.0239(5) 0.0204(5) 0.0013(4) -0.0067(4) -0.0046(4)
C12 0.0233(5) 0.0223(5) 0.0292(5) -0.0010(4) -0.0057(4) -0.0068(4)
C13 0.0220(5) 0.0231(5) 0.0288(5) 0.0078(4) -0.0014(4) -0.0025(4)
C14 0.0212(5) 0.0353(6) 0.0176(5) 0.0070(4) -0.0035(4) -0.0013(4)
C15 0.0205(5) 0.0299(5) 0.0146(4) -0.0020(4) -0.0022(4) -0.0045(4)
C16 0.0184(5) 0.0226(5) 0.0304(5) 0.0005(4) -0.0034(4) -0.0077(4)
loop_
_atom_type_symbol
_atom_type_description
_atom_type_scat_dispersion_real
_atom_type_scat_dispersion_imag
_atom_type_scat_source
C C 0.0033 0.0016 'International Tables Vol C Tables 4.2.6.8 and 6.1.1.4'
H H 0.0000 0.0000 'International Tables Vol C Tables 4.2.6.8 and 6.1.1.4'
N N 0.0061 0.0033 'International Tables Vol C Tables 4.2.6.8 and 6.1.1.4'
O O 0.0106 0.0060 'International Tables Vol C Tables 4.2.6.8 and 6.1.1.4'
loop_
_geom_angle_atom_site_label_1
_geom_angle_atom_site_label_2
_geom_angle_atom_site_label_3
_geom_angle
C2 O2 C9 117.85(7)
C1 N1 C4 116.39(8)
C2 N2 C1 115.40(8)
C1 N3 C5 129.89(8)
C1 N3 H3N 115.0(9)
C5 N3 H3N 115.1(9)
C5 N4 C6 120.32(8)
C5 N4 H4N 117.7(9)
C6 N4 H4N 122.0(9)
N1 C1 N2 126.78(8)
N1 C1 N3 119.81(8)
N2 C1 N3 113.41(8)
N2 C2 O2 119.54(9)
N2 C2 C3 123.40(9)
O2 C2 C3 117.06(8)
C4 C3 C2 116.38(9)
C4 C3 H3 121.8
C2 C3 H3 121.8
N1 C4 C3 121.65(9)
N1 C4 C16 115.77(9)
C3 C4 C16 122.58(9)
O1 C5 N4 122.96(9)
O1 C5 N3 119.10(8)
N4 C5 N3 117.94(8)
N4 C6 C7 113.91(9)
N4 C6 H6A 108.8
C7 C6 H6A 108.8
N4 C6 H6B 108.8
C7 C6 H6B 108.8
H6A C6 H6B 107.7
C8 C7 C6 125.82(11)
C8 C7 H7 117.1
C6 C7 H7 117.1
C7 C8 H8A 120.0
C7 C8 H8B 120.0
H8A C8 H8B 120.0
O2 C9 C10 110.59(8)
O2 C9 H9A 109.5
C10 C9 H9A 109.5
O2 C9 H9B 109.5
C10 C9 H9B 109.5
H9A C9 H9B 108.1
C11 C10 C15 119.27(9)
C11 C10 C9 121.13(9)
C15 C10 C9 119.59(9)
C12 C11 C10 119.82(9)
C12 C11 H11 120.1
C10 C11 H11 120.1
C13 C12 C11 120.47(10)
C13 C12 H12 119.8
C11 C12 H12 119.8
C12 C13 C14 119.98(10)
C12 C13 H13 120.0
C14 C13 H13 120.0
C15 C14 C13 119.66(9)
C15 C14 H14 120.2
C13 C14 H14 120.2
C14 C15 C10 120.79(9)
C14 C15 H15 119.6
C10 C15 H15 119.6
C4 C16 H16A 109.5
C4 C16 H16B 109.5
H16A C16 H16B 109.5
C4 C16 H16C 109.5
H16A C16 H16C 109.5
H16B C16 H16C 109.5
C4 C16 H16D 109.5
H16A C16 H16D 141.1
H16B C16 H16D 56.3
H16C C16 H16D 56.3
C4 C16 H16E 109.5
H16A C16 H16E 56.3
H16B C16 H16E 141.1
H16C C16 H16E 56.3
H16D C16 H16E 109.5
C4 C16 H16F 109.5
H16A C16 H16F 56.3
H16B C16 H16F 56.3
H16C C16 H16F 141.1
H16D C16 H16F 109.5
H16E C16 H16F 109.5
loop_
_geom_bond_atom_site_label_1
_geom_bond_atom_site_label_2
_geom_bond_distance
O1 C5 1.2385(12)
O2 C2 1.3481(12)
O2 C9 1.4630(12)
N1 C1 1.3329(12)
N1 C4 1.3563(12)
N2 C2 1.3206(12)
N2 C1 1.3479(12)
N3 C1 1.3806(12)
N3 C5 1.3889(12)
N3 H3N 0.896(15)
N4 C5 1.3408(12)
N4 C6 1.4429(12)
N4 H4N 0.895(14)
C2 C3 1.4038(14)
C3 C4 1.3778(14)
C3 H3 0.9500
C4 C16 1.5010(13)
C6 C7 1.4992(16)
C6 H6A 0.9900
C6 H6B 0.9900
C7 C8 1.313(2)
C7 H7 0.9500
C8 H8A 0.9500
C8 H8B 0.9500
C9 C10 1.5039(14)
C9 H9A 0.9900
C9 H9B 0.9900
C10 C11 1.3945(14)
C10 C15 1.3953(13)
C11 C12 1.3925(14)
C11 H11 0.9500
C12 C13 1.3869(15)
C12 H12 0.9500
C13 C14 1.3896(16)
C13 H13 0.9500
C14 C15 1.3875(15)
C14 H14 0.9500
C15 H15 0.9500
C16 H16A 0.9800
C16 H16B 0.9800
C16 H16C 0.9800
C16 H16D 0.9800
C16 H16E 0.9800
C16 H16F 0.9800
loop_
_geom_hbond_atom_site_label_D
_geom_hbond_atom_site_label_H
_geom_hbond_atom_site_label_A
_geom_hbond_distance_DH
_geom_hbond_distance_HA
_geom_hbond_distance_DA
_geom_hbond_angle_DHA
_geom_hbond_site_symmetry_A
N3 H3N O1 0.896(15) 1.906(15) 2.7995(11) 174.1(13) 2_666
N4 H4N N1 0.895(14) 1.979(14) 2.6921(12) 135.5(12) .
loop_
_geom_torsion_atom_site_label_1
_geom_torsion_atom_site_label_2
_geom_torsion_atom_site_label_3
_geom_torsion_atom_site_label_4
_geom_torsion
C4 N1 C1 N2 0.12(14)
C4 N1 C1 N3 -179.59(8)
C2 N2 C1 N1 -0.84(14)
C2 N2 C1 N3 178.90(8)
C5 N3 C1 N1 5.41(15)
C5 N3 C1 N2 -174.34(9)
C1 N2 C2 O2 -178.01(8)
C1 N2 C2 C3 0.84(13)
C9 O2 C2 N2 -3.80(13)
C9 O2 C2 C3 177.29(8)
N2 C2 C3 C4 -0.18(14)
O2 C2 C3 C4 178.69(8)
C1 N1 C4 C3 0.62(13)
C1 N1 C4 C16 -179.71(8)
C2 C3 C4 N1 -0.59(14)
C2 C3 C4 C16 179.76(9)
C6 N4 C5 O1 -4.32(14)
C6 N4 C5 N3 175.16(9)
C1 N3 C5 O1 -179.79(9)
C1 N3 C5 N4 0.71(15)
C5 N4 C6 C7 -86.77(11)
N4 C6 C7 C8 4.98(16)
C2 O2 C9 C10 -88.92(10)
O2 C9 C10 C11 102.00(10)
O2 C9 C10 C15 -76.70(11)
C15 C10 C11 C12 1.08(15)
C9 C10 C11 C12 -177.62(9)
C10 C11 C12 C13 -0.62(15)
C11 C12 C13 C14 -0.35(16)
C12 C13 C14 C15 0.83(16)
C13 C14 C15 C10 -0.35(15)
C11 C10 C15 C14 -0.60(15)
C9 C10 C15 C14 178.12(9)
