#------------------------------------------------------------------------------
#$Date: 2016-11-06 03:32:21 +0200 (Sun, 06 Nov 2016) $
#$Revision: 187893 $
#$URL: file:///home/coder/svn-repositories/cod/cif/4/12/52/4125244.cif $
#------------------------------------------------------------------------------
#
# This file is available in the Crystallography Open Database (COD),
# http://www.crystallography.net/
#
# All data on this site have been placed in the public domain by the
# contributors.
#
data_4125244
loop_
_publ_author_name
'Wu, Jie'
'Cheng, Yangyang'
'Lan, Jingbo'
'Wu, Di'
'Qian, Shengyou'
'Yan, Lipeng'
'He, Zhen'
'Li, Xiaoyu'
'Wang, Kai'
'Zou, Bo'
'You, Jingsong'
_publ_section_title
;
 Molecular Engineering of Mechanochromic Materials by Programmed C-H
 Arylation: Making a Counterpoint in the Chromism Trend.
;
_journal_issue                   39
_journal_name_full               'Journal of the American Chemical Society'
_journal_page_first              12803
_journal_page_last               12812
_journal_paper_doi               10.1021/jacs.6b03890
_journal_volume                  138
_journal_year                    2016
_chemical_formula_moiety         'C19 H10 F6 N4'
_chemical_formula_sum            'C19 H10 F6 N4'
_chemical_formula_weight         408.31
_chemical_name_systematic
;
 ?
;
_space_group_crystal_system      triclinic
_space_group_IT_number           2
_space_group_name_Hall           '-P 1'
_space_group_name_H-M_alt        'P -1'
_symmetry_space_group_name_Hall  '-P 1'
_symmetry_space_group_name_H-M   'P -1'
_atom_sites_solution_hydrogens   geom
_atom_sites_solution_primary     iterative
_audit_creation_date             2013-12-30
_audit_creation_method
;
Olex2 1.2
(compiled 2013.12.10 svn.r2850 for OlexSys, GUI svn.r4736)
;
_cell_angle_alpha                94.912(7)
_cell_angle_beta                 103.007(6)
_cell_angle_gamma                111.772(7)
_cell_formula_units_Z            2
_cell_length_a                   7.0493(4)
_cell_length_b                   9.2417(8)
_cell_length_c                   15.1514(11)
_cell_measurement_reflns_used    1730
_cell_measurement_temperature    293(2)
_cell_measurement_theta_max      24.4000
_cell_measurement_theta_min      3.6330
_cell_volume                     877.41(13)
_computing_cell_refinement
;
CrysAlisPro, Agilent Technologies,
Version 1.171.36.28 (release 01-02-2013 CrysAlis171 .NET)
(compiled Feb  1 2013,16:14:44)
;
_computing_data_collection
;
CrysAlisPro, Agilent Technologies,
Version 1.171.36.28 (release 01-02-2013 CrysAlis171 .NET)
(compiled Feb  1 2013,16:14:44)
;
_computing_data_reduction
;
CrysAlisPro, Agilent Technologies,
Version 1.171.36.28 (release 01-02-2013 CrysAlis171 .NET)
(compiled Feb  1 2013,16:14:44)
;
_computing_molecular_graphics    'Olex2 (Dolomanov et al., 2009)'
_computing_publication_material  'Olex2 (Dolomanov et al., 2009)'
_computing_structure_refinement  'ShelXL-2012 (Sheldrick, 2008)'
_computing_structure_solution
;
Superflip (Palatinus & Chapuis, 2007;Palatinus & van der Lee, 2008;
Palatinus et al., 2012)
;
_diffrn_ambient_temperature      293.15
_diffrn_detector_area_resol_mean 16.0874
_diffrn_measured_fraction_theta_full 0.998
_diffrn_measured_fraction_theta_max 0.999
_diffrn_measurement_device_type  'Xcalibur, Eos'
_diffrn_measurement_method       '\w scans'
_diffrn_orient_matrix_UB_11      -0.0184551000
_diffrn_orient_matrix_UB_12      -0.0814557000
_diffrn_orient_matrix_UB_13      -0.0041971000
_diffrn_orient_matrix_UB_21      0.0325397000
_diffrn_orient_matrix_UB_22      0.0092462000
_diffrn_orient_matrix_UB_23      0.0487128000
_diffrn_orient_matrix_UB_31      -0.1063965000
_diffrn_orient_matrix_UB_32      -0.0188856000
_diffrn_orient_matrix_UB_33      0.0012358000
_diffrn_radiation_monochromator  graphite
_diffrn_radiation_type           MoK\a
_diffrn_radiation_wavelength     0.71073
_diffrn_reflns_av_R_equivalents  0.0226
_diffrn_reflns_av_unetI/netI     0.0498
_diffrn_reflns_Laue_measured_fraction_full 0.998
_diffrn_reflns_Laue_measured_fraction_max 0.999
_diffrn_reflns_limit_h_max       8
_diffrn_reflns_limit_h_min       -8
_diffrn_reflns_limit_k_max       11
_diffrn_reflns_limit_k_min       -11
_diffrn_reflns_limit_l_max       18
_diffrn_reflns_limit_l_min       -18
_diffrn_reflns_number            7272
_diffrn_reflns_point_group_measured_fraction_full 0.998
_diffrn_reflns_point_group_measured_fraction_max 0.999
_diffrn_reflns_theta_full        25.242
_diffrn_reflns_theta_max         26.369
_diffrn_reflns_theta_min         3.013
_diffrn_source                   'Enhance (Mo) X-ray Source'
_exptl_absorpt_coefficient_mu    0.140
_exptl_absorpt_correction_T_max  1.00000
_exptl_absorpt_correction_T_min  0.85069
_exptl_absorpt_correction_type   multi-scan
_exptl_absorpt_process_details
;
CrysAlisPro, Agilent Technologies,
Version 1.171.36.28 (release 01-02-2013 CrysAlis171 .NET)
(compiled Feb  1 2013,16:14:44)
Empirical absorption correction using spherical harmonics,
 implemented in SCALE3 ABSPACK scaling algorithm.
;
_exptl_crystal_colour
;
;
_exptl_crystal_density_diffrn    1.545
_exptl_crystal_description
;
;
_exptl_crystal_F_000             412
_exptl_crystal_size_max          0.3
_exptl_crystal_size_mid          0.3
_exptl_crystal_size_min          0.2
_refine_diff_density_max         0.251
_refine_diff_density_min         -0.444
_refine_diff_density_rms         0.083
_refine_ls_extinction_method     none
_refine_ls_goodness_of_fit_ref   1.036
_refine_ls_hydrogen_treatment    constr
_refine_ls_matrix_type           full
_refine_ls_number_parameters     281
_refine_ls_number_reflns         3579
_refine_ls_number_restraints     0
_refine_ls_restrained_S_all      1.036
_refine_ls_R_factor_all          0.1084
_refine_ls_R_factor_gt           0.0703
_refine_ls_shift/su_max          0.000
_refine_ls_shift/su_mean         0.000
_refine_ls_structure_factor_coef Fsqd
_refine_ls_weighting_details
;
 w=1/[\s^2^(Fo^2^)+(0.0995P)^2^+0.2118P]
 where P=(Fo^2^+2Fc^2^)/3
;
_refine_ls_weighting_scheme      calc
_refine_ls_wR_factor_gt          0.1716
_refine_ls_wR_factor_ref         0.2125
_reflns_Friedel_coverage         0.000
_reflns_number_gt                2219
_reflns_number_total             3579
_reflns_threshold_expression     'I > 2\s(I)'
_cod_data_source_file            ja6b03890_si_010.cif
_cod_data_source_block           131229_s1_wj
_cod_depositor_comments
'Adding full bibliography for 4125235--4125245.cif.'
_cod_original_cell_volume        877.41(12)
_cod_database_code               4125244
_shelxl_version_number           2013-2
_chemical_oxdiff_formula         c12h12n2o3f6
_shelx_space_group_comment
;
The symmetry employed for this shelxl refinement is uniquely defined
by the following loop, which should always be used as a source of
symmetry information in preference to the above space-group names.
They are only intended as comments.
;
_shelx_estimated_absorpt_t_max   0.973
_shelx_estimated_absorpt_t_min   0.959
_reflns_odcompleteness_completeness 99.83
_reflns_odcompleteness_iscentric 1
_reflns_odcompleteness_theta     26.32
_olex2_refinement_description
;
1. Fixed Uiso
 At 1.2 times of:
  All C(H) groups
2. Uiso/Uaniso restraints and constraints
Uanis(F4A) = Uanis(F4B)
Uanis(F6A) = Uanis(F6B)
Uanis(F5A) = Uanis(F5B)
Uanis(F2A) = Uanis(F2B)
Uanis(F3A) = Uanis(F3B)
Uanis(F1A) = Uanis(F1B)
3. Others
 Sof(F1B)=Sof(F2B)=Sof(F3B)=Sof(F4B)=Sof(F5B)=Sof(F6B)=1-FVAR(1)
 Sof(F1A)=Sof(F2A)=Sof(F3A)=Sof(F4A)=Sof(F5A)=Sof(F6A)=FVAR(1)
4.a Aromatic/amide H refined with riding coordinates:
 C4(H4), C5(H5), C7(H7), C8(H8), C9(H9), C10(H10), C11(H11), C13(H13),
 C15(H15), C17(H17)
;
_shelx_res_file
;
TITL CF solution in P-1
CELL 0.71073 7.04926 9.24174 15.1514 94.9117 103.0071 111.7719
ZERR 2 0.00043 0.0008 0.00112 0.0065 0.0061 0.007
LATT 1

SFAC C H F N
UNIT 38 20 12 8
EADP F4A F4B
EADP F6A F6B
EADP F5A F5B
EADP F2A F2B
EADP F3A F3B
EADP F1A F1B

L.S. 4
PLAN  9
SIZE 0.2 0.3 0.3
TEMP 20
BOND $H
htab
fmap 2
acta
MORE -1
CONF
SHEL 999 0.8
REM <HKL>E:/CCD%20data/1312/olex2_131229_s1_wj/131229_s1_wj.hkl</HKL>

WGHT    0.099500    0.211800
FVAR       8.34631   0.83377
C1    1    0.717585    0.429598    0.554616    11.00000    0.03823    0.05290 =
         0.04548    0.00140    0.01155    0.02119
C2    1    0.861445    0.643924    0.510402    11.00000    0.04149    0.04912 =
         0.05199   -0.00321    0.01103    0.01649
C3    1    0.727816    0.548248    0.345882    11.00000    0.04323    0.05173 =
         0.04517    0.00750    0.01837    0.01993
C4    1    0.839316    0.699899    0.338174    11.00000    0.05365    0.04949 =
         0.06089    0.01098    0.02543    0.01816
AFIX  43
H4    2    0.838646    0.725741    0.280149    11.00000   -1.20000
AFIX   0
C5    1    0.955020    0.817190    0.417176    11.00000    0.05570    0.04842 =
         0.07308    0.01016    0.02481    0.01420
AFIX  43
H5    2    1.027418    0.919770    0.408928    11.00000   -1.20000
AFIX   0
C6    1    0.656545    0.319500    0.617021    11.00000    0.04156    0.05807 =
         0.04198    0.00510    0.01434    0.02288
C7    1    0.736616    0.372701    0.711510    11.00000    0.05264    0.06905 =
         0.04710    0.00595    0.01124    0.02722
AFIX  43
H7    2    0.829882    0.477917    0.734812    11.00000   -1.20000
AFIX   0
C8    1    0.678899    0.270665    0.771158    11.00000    0.07705    0.09215 =
         0.04409    0.01421    0.01701    0.03980
AFIX  43
H8    2    0.734130    0.307441    0.834459    11.00000   -1.20000
AFIX   0
C9    1    0.540361    0.114949    0.737908    11.00000    0.07809    0.09349 =
         0.06557    0.03096    0.02813    0.04050
AFIX  43
H9    2    0.501064    0.046602    0.778388    11.00000   -1.20000
AFIX   0
C10   1    0.460238    0.061100    0.643932    11.00000    0.06907    0.06863 =
         0.07119    0.01943    0.02046    0.02556
AFIX  43
H10   2    0.366552   -0.044124    0.621023    11.00000   -1.20000
AFIX   0
C11   1    0.517755    0.161691    0.583921    11.00000    0.05651    0.06455 =
         0.04936    0.00604    0.01560    0.02192
AFIX  43
H11   2    0.463430    0.123922    0.520684    11.00000   -1.20000
AFIX   0
C12   1    0.595836    0.418641    0.266056    11.00000    0.05022    0.04930 =
         0.04201    0.00545    0.01434    0.02073
C13   1    0.664260    0.417961    0.186958    11.00000    0.06028    0.05842 =
         0.04864    0.00983    0.02163    0.02004
AFIX  43
H13   2    0.795323    0.493778    0.186886    11.00000   -1.20000
AFIX   0
C14   1    0.539073    0.305450    0.108296    11.00000    0.08039    0.06907 =
         0.04345    0.00956    0.02174    0.02998
C15   1    0.343660    0.193064    0.106975    11.00000    0.08030    0.06266 =
         0.03965    0.00086    0.00935    0.01766
AFIX  43
H15   2    0.258899    0.117996    0.053941    11.00000   -1.20000
AFIX   0
C16   1    0.275740    0.193614    0.185467    11.00000    0.06150    0.05693 =
         0.04145    0.00746    0.00752    0.01666
C17   1    0.399359    0.303513    0.264623    11.00000    0.05369    0.05439 =
         0.03951    0.00894    0.01604    0.01942
AFIX  43
H17   2    0.351712    0.300916    0.317169    11.00000   -1.20000
AFIX   0
C18   1    0.611460    0.307018    0.023441    11.00000    0.11805    0.10185 =
         0.05055    0.00838    0.03661    0.03058
C19   1    0.061343    0.076640    0.183751    11.00000    0.06823    0.07471 =
         0.05920    0.00718    0.00733    0.00349
PART 1
F1A   3    0.606933    0.168810   -0.010261    21.00000    0.22342    0.12726 =
         0.09035    0.02344    0.09423    0.09824
PART 0
PART 2
F1B   3    0.794472    0.301254    0.038667   -21.00000    0.22342    0.12726 =
         0.09035    0.02344    0.09423    0.09824
PART 0
PART 1
F2A   3    0.795899    0.415863    0.030713    21.00000    0.17470    0.22257 =
         0.12766   -0.05230    0.12100   -0.06877
PART 0
PART 2
F2B   3    0.682014    0.433439    0.008709   -21.00000    0.17470    0.22257 =
         0.12766   -0.05230    0.12100   -0.06877
PART 0
PART 1
F3A   3    0.481093    0.331650   -0.046816    21.00000    0.21138    0.19211 =
         0.06467    0.06299    0.06699    0.12100
PART 0
PART 2
F3B   3    0.487519    0.213307   -0.046558   -21.00000    0.21138    0.19211 =
         0.06467    0.06299    0.06699    0.12100
PART 0
PART 1
F4A   3   -0.086523    0.132068    0.162633    21.00000    0.05906    0.17660 =
         0.31206    0.13935    0.05027    0.04452
PART 0
PART 2
F4B   3   -0.066069    0.070397    0.112231   -21.00000    0.05906    0.17660 =
         0.31206    0.13935    0.05027    0.04452
PART 0
PART 1
F5A   3   -0.001283   -0.057177    0.123066    21.00000    0.12994    0.11556 =
         0.09716   -0.04240    0.02571   -0.04332
PART 0
PART 2
F5B   3    0.034080   -0.062885    0.175103   -21.00000    0.12994    0.11556 =
         0.09716   -0.04240    0.02571   -0.04332
PART 0
PART 1
F6A   3    0.052611    0.029320    0.262463    21.00000    0.09345    0.11530 =
         0.07988    0.04200    0.01868   -0.01694
PART 0
PART 2
F6B   3   -0.014160    0.099688    0.240889   -21.00000    0.09345    0.11530 =
         0.07988    0.04200    0.01868   -0.01694
PART 0
N1    4    0.739250    0.522419    0.434299    11.00000    0.04176    0.04454 =
         0.04423    0.00279    0.01512    0.01553
N2    4    0.646710    0.384185    0.462962    11.00000    0.04649    0.04592 =
         0.04321    0.00470    0.01493    0.01753
N3    4    0.848895    0.585039    0.586642    11.00000    0.04650    0.05424 =
         0.04565   -0.00294    0.00919    0.01593
N4    4    0.968973    0.793240    0.501980    11.00000    0.05644    0.04863 =
         0.06395   -0.00059    0.01457    0.01166
HKLF 4

REM  CF solution in P-1
REM R1 =  0.0703 for    2219 Fo > 4sig(Fo)  and  0.1084 for all    3579 data
REM    281 parameters refined using      0 restraints

END

WGHT      0.0995      0.2118

REM Instructions for potential hydrogen bonds
EQIV $1 x+1, y+1, z
HTAB C5 F6A_$1

REM Highest difference peak  0.251,  deepest hole -0.444,  1-sigma level  0.083
Q1    1   1.1697  0.6677  0.6409  11.00000  0.05    0.25
Q2    1   0.7887  0.2108  0.0356  11.00000  0.05    0.21
Q3    1  -0.0471  0.1566  0.2082  11.00000  0.05    0.21
Q4    1   0.5819  0.7114  0.2531  11.00000  0.05    0.20
Q5    1   0.7636  0.5142  0.0396  11.00000  0.05    0.20
Q6    1   0.1872 -0.0443  0.1319  11.00000  0.05    0.20
Q7    1   0.9992  0.6161  0.6520  11.00000  0.05    0.20
Q8    1   1.1172  0.6588  0.7076  11.00000  0.05    0.20
Q9    1   0.5579  0.6368  0.1876  11.00000  0.05    0.20
;
_shelx_res_checksum              52492
_shelx_hkl_file
;
   0   1   1 82181.1 836.179   2
   0   1   1 82848.3 1123.40   7
   0   1   1 83387.8 1103.83   5
   0  -1  -1 82784.8 1119.37   7
   0  -1  -1 81145.2 1099.05   5
   0  -2  -2 72037.5 1472.51   7
   0   2   2 73366.1 1463.69   5
   0  -2  -2 72943.2 1143.52   2
   0   2   2 69487.9 1497.32   7
   0  -2  -2 69375.6 1422.92   4
   0   2   2 71984.1 1111.92   2
   0  -2  -2 69130.2 1451.10   5
   0   3   3 44226.9 870.694   1
   0  -3  -3 44355.4 1100.58   2
   0   3   3 41880.2 1427.02   7
   0  -3  -3 43773.6 1426.30   5
   0  -4  -4 2310.79 382.690   5
   0   4   4 1761.72 327.397   7
   0   4   4 1925.27 210.098   1
   0  -4  -4 2029.16 271.685   2
   0   5   5 2133.75 246.120   1
   0   5   5 2157.34 430.833   7
   0  -5  -5 2184.87 431.590   6
   0  -6  -6 91.2817 94.2955   6
   0   6   6 50.5234 117.639   7
   0   7   7 2444.28 556.216   7
   0  -7  -7 1795.99 465.395   6
   0   8   8 557.869 311.769   7
   0  -8  -8 786.940 356.126   6
  -1  -8  -8 126.010 148.743   6
   1   8   8 1.35177 45.4754   7
  -1  -7  -7 192.794 187.366   6
   1   7   7 360.306 240.334   7
  -1  -6  -6 21.7032 119.180   6
   1   6   6 192.280 196.965   7
  -1  -5  -5 251.896 98.2982   6
   1   5   5 276.354 149.253   7
   1   4   4 1375.15 259.999   2
   1   4   4 1299.42 320.612   7
  -1  -4  -4 770.388 234.965   6
  -1  -3  -3 9.06706 37.1305   6
   1   3   3 137.208 81.2720   2
  -1  -2  -2 1365.52 211.786   2
  -1  -2  -2 1391.70 224.174   4
   1   2   2 1265.30 204.057   2
   1   2   2 1424.68 220.272   5
  -1  -2  -2 1255.68 218.910   6
   1   2   2 1572.14 260.788   7
   1   2   2 1086.12 205.337   4
   1   1   1 27543.8 887.463   7
   1   1   1 27619.1 807.298   2
   1   1   1 27616.1 758.770   4
  -1  -1  -1 27554.7 817.153   2
  -1  -1  -1 27930.1 803.297   6
   1   1   1 27950.1 721.871   5
  -1  -1  -1 26195.3 745.423   4
   1   0   0 45201.1 838.980   2
  -1   0   0 46346.1 615.438   6
   1   0   0 46618.5 614.303   6
  -1   0   0 45379.7 690.588   4
   1   0   0 45425.0 682.497   4
   1  -1  -1 14514.7 433.976   5
  -1   1   1 15082.0 440.672   3
  -1   1   1 14237.1 423.512   5
   1  -1  -1 14467.2 437.282   3
   1  -2  -2 11246.4 465.416   7
  -1   2   2 12211.2 485.998   7
   1  -2  -2 11829.4 573.825   5
   1  -2  -2 11958.8 447.643   1
  -1   2   2 11522.3 555.920   5
  -1   3   3 33.8028 44.9889   5
   1  -3  -3-35.6299 27.6161   5
   1  -3  -3 66.1635 32.5425   2
   1  -3  -3 84.5233 27.5053   7
   1  -3  -3 103.546 62.1110   1
  -1   3   3 5.10969 30.4058   7
   1  -4  -4 73559.1 2101.04   5
   1  -4  -4 74079.4 1306.73   2
  -1   4   4 70833.9 1931.85   7
   1  -5  -5 323.978 100.250   2
   1  -5  -5 702.292 234.450   5
  -1   5   5 436.020 196.751   7
   1  -6  -6 89.0386 58.0550   6
  -1   6   6 134.814 153.375   7
   1  -6  -6 226.294 167.402   5
   1  -7  -7 3165.45 626.687   6
  -1   7   7 2456.66 516.286   7
   1  -8  -8 136.956 134.100   6
  -1   8   8 324.793 207.325   7
  -1   9   9 871.836 472.313   7
   2   7   7 2061.77 598.881   7
  -2  -7  -7 1262.96 441.242   6
   2   6   6 97.0091 127.284   7
  -2  -6  -6-18.2323 120.003   6
   2   5   5 7820.23 781.705   2
   2   5   5 8330.22 1000.93   7
  -2  -5  -5 8127.18 928.812   6
  -2  -4  -4 2233.71 422.876   6
   2   4   4 2509.58 515.572   7
   2   4   4 2989.64 443.052   2
   2   3   3 2114.92 358.684   2
  -2  -3  -3 2008.39 370.758   6
   2   3   3 1760.59 361.613   7
  -2  -2  -2 48352.1 1529.42   6
   2   2   2 49612.5 1552.52   2
   2   2   2 47303.9 1348.90   5
   2   2   2 45987.4 1394.78   4
   2   2   2 50810.8 1743.57   7
   2   1   1 3553.89 325.984   4
   2   1   1 3827.66 297.940   5
  -2  -1  -1 4269.87 365.646   6
  -2  -1  -1 3667.17 335.699   4
   2   1   1 3920.54 392.495   2
   2   1   1 3753.78 397.840   7
   2   0   0 20076.3 573.667   6
  -2   0   0 19118.4 560.263   6
   2   0   0 19280.6 783.387   2
   2   0   0 18842.3 624.721   4
   2  -1  -1 349862. 2928.67   3
   2  -1  -1 348244. 2133.97   5
  -2   1   1 347371. 2960.33   3
   2  -1  -1 347229. 1920.61   6
  -2   1   1 347570. 2158.21   5
   2  -2  -2 540554. 2417.29   7
  -2   2   2 538241. 3755.33   5
   2  -2  -2 538830. 3775.89   3
   2  -2  -2 546585. 3744.12   5
  -2   2   2 536626. 3770.76   3
   2  -3  -3 489.645 144.365   5
  -2   3   3 556.230 156.742   5
   2  -3  -3 413.877 101.938   7
  -2   3   3 538.576 114.800   7
   2  -4  -4 5209.97 418.821   1
  -2   4   4 4516.74 419.004   7
   2  -4  -4 5008.79 528.290   5
   2  -4  -4 4886.86 436.121   7
   2  -5  -5 1538.11 356.899   5
  -2   5   5 1952.70 336.355   7
   2  -5  -5 2059.12 209.245   2
   2  -6  -6 1793.03 222.515   2
   2  -6  -6 1949.12 436.154   5
  -2   6   6 1921.77 376.471   7
   2  -7  -7-57.7284 77.9638   5
  -2   7   7 23.2812 101.732   7
   2  -7  -7-110.738 65.1383   6
  -2   8   8 1379.32 396.551   7
   2  -8  -8 1916.21 514.146   6
  -2   9   9 181.839 182.419   7
   2  -9  -9 148.422 162.773   6
  -2  10  10-313.160 227.618   7
   3   6   6 170.511 85.8700   7
  -3  -6  -6-56.6297 97.0130   6
  -3  -5  -5 965.370 320.910   6
   3   5   5 839.454 351.957   7
   3   5   5 1353.01 386.507   2
  -3  -4  -4 564.679 228.630   6
   3   4   4 286.446 214.568   7
   3   4   4 255.744 113.477   2
  -3  -3  -3 24232.5 1342.89   6
   3   3   3 24359.9 1379.03   2
   3   3   3 25720.5 1567.03   7
   3   2   2 438.526 143.238   4
   3   2   2 292.378 133.813   2
   3   2   2 355.280 167.209   7
  -3  -2  -2 447.810 136.842   6
   3   1   1 14101.6 904.851   7
   3   1   1 14052.7 897.097   2
  -3  -1  -1 14601.8 759.221   6
  -3  -1  -1 14452.5 785.830   4
   3   1   1 14483.0 640.659   5
   3   1   1 13903.9 732.254   4
   3   0   0 38547.1 958.003   6
   3   0   0 36519.3 1323.83   2
  -3   0   0 39478.7 991.603   6
   3   0   0 37247.4 1075.77   4
   3   0   0 38975.2 1247.07   7
   3  -1  -1 4556.42 264.004   5
  -3   1   1 5067.51 275.401   6
   3  -1  -1 4275.53 423.267   2
   3  -1  -1 4263.93 250.500   6
  -3   2   2 15477.0 640.543   5
   3  -2  -2 16641.7 583.644   6
   3  -2  -2 15369.8 625.060   5
  -3   2   2 15815.8 786.340   3
  -3   3   3 2141.40 286.093   5
  -3   3   3 1956.64 280.962   3
   3  -3  -3 2123.35 177.953   7
   3  -3  -3 1941.52 279.766   5
   3  -4  -4 340.736 137.284   5
   3  -4  -4 477.873 116.593   7
  -3   4   4 593.778 158.930   3
   3  -5  -5 1790.67 295.831   1
  -3   5   5 1382.15 283.041   3
   3  -5  -5 1682.26 353.813   5
   3  -5  -5 1477.49 251.013   7
   3  -6  -6 4176.65 284.305   2
  -3   6   6 4665.25 531.480   7
   3  -6  -6 4604.01 482.568   1
   3  -6  -6 4645.45 655.416   5
  -3   7   7 1314.61 327.330   7
   3  -7  -7 1006.35 314.596   5
   3  -8  -8 1498.15 467.771   5
   3  -8  -8 1293.64 403.846   6
  -3   8   8 1123.64 323.127   7
   3  -9  -9 447.716 247.861   6
  -3   9   9 58.4546 178.178   7
  -4  -6  -6 1205.08 413.260   6
   4   5   5 978.295 337.798   2
  -4  -5  -5 95.8495 117.737   6
   4   5   5 738.197 342.900   7
   4   4   4 900.264 317.259   7
  -4  -4  -4 790.822 296.030   6
   4   4   4 1113.78 335.396   2
   4   3   3 4.43892 91.3259   2
  -4  -3  -3-32.0537 48.8220   6
   4   3   3 3.46720 113.549   7
   4   2   2 904.953 238.694   4
   4   2   2 1294.22 332.534   2
  -4  -2  -2 1218.30 287.999   6
   4   2   2 1434.43 339.546   7
   4   1   1 331.413 103.857   5
  -4  -1  -1 301.870 115.619   6
   4   1   1 287.502 126.232   2
   4   1   1 291.913 127.305   4
   4   1   1 443.895 178.911   7
  -4   0   0 1510.56 226.175   6
   4   0   0 1760.55 311.671   7
   4   0   0 1183.16 265.934   2
   4   0   0 1470.73 248.029   4
   4  -1  -1 13982.2 905.486   2
   4  -1  -1 14463.3 755.123   4
   4  -1  -1 14705.0 531.570   6
  -4   1   1 14515.3 546.737   6
   4  -1  -1 14011.2 486.390   5
   4  -2  -2 897.571 196.544   2
  -4   2   2 1145.45 232.277   3
   4  -2  -2 885.408 126.099   6
   4  -2  -2 1027.36 149.416   5
  -4   3   3 65312.5 1604.57   5
  -4   3   3 68750.3 1908.36   3
   4  -3  -3 71487.8 1663.81   5
   4  -4  -4 3660.52 441.321   5
   4  -4  -4 3009.05 228.388   7
  -4   4   4 3247.62 433.288   3
   4  -5  -5 4295.20 550.717   5
  -4   5   5 3591.23 469.762   3
   4  -5  -5 3588.10 467.207   1
   4  -5  -5 3846.48 343.220   7
   4  -6  -6 5037.98 568.202   1
  -4   6   6 5769.95 623.244   3
   4  -6  -6 5044.42 683.885   5
  -4   7   7 429.862 188.260   3
   4  -7  -7 564.182 249.819   5
   4  -7  -7 410.788 147.094   1
  -4   8   8 7800.01 843.114   3
   4  -8  -8 6631.76 938.966   5
   4  -8  -8 7496.88 943.179   6
   4  -9  -9 356.402 227.513   6
  -4   9   9 519.888 261.808   3
   5   5   5 381.899 277.702   2
   5   4   4-179.435 134.715   2
   5   4   4-273.899 209.162   7
  -5  -4  -4 200.092 154.500   6
   5   3   3 249.220 182.905   7
  -5  -3  -3-35.7969 66.1375   6
   5   3   3-90.7825 140.737   2
  -5  -2  -2 1829.34 370.133   6
   5   2   2 2160.42 465.948   2
   5   2   2 1268.53 301.178   4
   5   2   2 1425.51 396.917   7
   5   1   1 2555.13 480.857   7
   5   1   1 2433.77 478.312   2
   5   1   1 2803.35 414.045   4
  -5  -1  -1 1788.72 312.951   6
   5   0   0 2360.73 445.891   2
  -5   0   0 2454.21 317.788   6
   5   0   0 2291.82 400.114   7
   5   0   0 2657.43 377.556   4
   5   0   0 2804.40 245.882   5
   5  -1  -1 3661.15 246.287   5
   5  -1  -1 3691.88 437.864   7
   5  -1  -1 3539.84 409.640   4
  -5   1   1 4134.63 327.359   6
   5  -1  -1 3959.96 540.089   2
   5  -2  -2 6028.12 460.798   7
   5  -2  -2 6214.35 648.066   2
   5  -2  -2 5540.25 309.689   6
   5  -2  -2 6071.64 380.207   5
   5  -3  -3-20.9265 43.0565   5
  -5   3   3 104.691 130.140   3
  -5   3   3-17.3693 37.2043   5
   5  -3  -3 87.3923 96.2898   2
   5  -3  -3 11.7385 23.9380   6
   5  -4  -4 977.631 201.372   6
   5  -4  -4 1078.52 245.083   2
  -5   4   4 1177.88 275.472   3
   5  -4  -4 1216.26 252.933   5
  -5   5   5 697.580 223.464   3
   5  -5  -5 720.945 228.735   5
   5  -6  -6 5848.33 721.024   5
  -5   6   6 4860.72 608.660   3
   5  -6  -6 5124.34 634.265   1
  -5   7   7 2925.68 512.087   3
   5  -7  -7 3355.86 602.060   5
   5  -7  -7 3261.01 513.226   1
   5  -8  -8 288.446 162.084   1
   5  -8  -8 282.265 154.979   6
   5  -8  -8 297.251 181.920   5
  -5   8   8 226.058 104.060   3
  -5   9   9 2074.03 466.689   3
   5  -9  -9 2569.56 636.880   5
   5  -9  -9 2355.77 568.940   6
  -5  10  10-410.619 223.261   3
   6   3   3 336.632 305.634   2
   6   3   3-92.5688 263.391   7
   6   2   2 434.473 229.181   7
   6   2   2 316.376 187.818   2
   6   1   1 33.4311 64.7369   7
   6   1   1 123.840 47.5102   4
   6   0   0 137.648 112.063   2
   6   0   0-10.4807 34.7523   4
   6   0   0-21.0775 66.5998   7
   6  -1  -1 1166.56 325.780   2
   6  -1  -1 1011.40 245.065   4
   6  -1  -1 927.867 244.100   7
   6  -2  -2 299.217 175.481   2
   6  -2  -2 206.171 109.666   7
   6  -2  -2 334.251 156.398   4
   6  -3  -3 496.445 200.815   2
   6  -3  -3 660.120 140.150   7
   6  -3  -3 642.288 148.306   5
   6  -4  -4 6.33012 25.7084   5
   6  -4  -4-106.258 158.797   2
  -6   4   4 57.2732 59.7054   3
  -6   5   5 42.5582 133.057   3
   6  -5  -5-111.195 172.459   2
   6  -5  -5-109.513 90.2093   5
  -6   6   6 25.3062 67.4447   3
   6  -6  -6 53.3657 67.8623   2
   6  -6  -6 19.7979 126.395   5
  -6   7   7 1415.81 370.422   3
   6  -7  -7 899.794 310.630   5
   6  -7  -7 826.915 301.386   1
  -6   8   8 321.346 204.148   3
   6  -8  -8 69.6913 153.622   5
   6  -8  -8 118.407 114.882   1
   6  -8  -8 28.4617 99.5481   6
   6  -9  -9 2610.75 587.226   6
  -6   9   9 2786.10 571.247   3
   6  -9  -9 2755.40 654.279   5
   6  -9  -9 3743.34 633.472   1
  -6  10  10 632.837 287.435   3
   7   2   2 730.211 323.740   7
   7   1   1 686.157 286.034   7
   7   1   1 904.197 362.288   2
   7   0   0 112.414 56.5732   7
   7   0   0 432.298 229.444   2
   7  -1  -1 690.293 303.613   2
   7  -2  -2 1865.34 454.707   2
   7  -3  -3 141.063 125.933   4
   7  -3  -3 245.773 132.701   2
   7  -4  -4 1907.97 405.666   2
  -7   5   5 66.4875 111.620   3
   7  -5  -5 88.9582 101.292   2
  -7   6   6-23.4137 102.478   3
   7  -6  -6 422.680 203.044   5
   7  -7  -7 97.6777 72.8898   1
  -7   7   7-14.3254 80.1299   3
   7  -7  -7 124.714 102.948   5
  -7   8   8 169.398 127.820   3
   7  -8  -8 39.0311 79.4249   5
  -7   9   9 191.585 211.174   3
   7  -9  -9 21.4743 143.530   1
   7  -9  -9 141.375 131.516   5
   8  -1  -1 24.3021 138.246   2
   8  -2  -2 100.385 126.164   2
   8  -3  -3 200.722 132.827   2
   8  -4  -4 39.8918 98.8867   2
   8  -5  -5-51.4461 70.8602   2
  -8   6   6 511.562 287.560   3
   8  -7  -7-257.951 214.387   1
  -8   7   7 152.242 110.455   3
   8  -8  -8 502.367 273.421   1
  -8   8   8 362.366 234.505   3
   9  -3  -3-13.8610 170.468   2
   9  -4  -4 11.7088 68.4394   2
   9  -4  -5 181.690 137.709   2
   9  -3  -4 161.547 170.261   2
  -8   8   9 181.795 157.206   3
  -8   7   8 7.09356 66.1935   3
   8  -7  -8 701.827 306.683   1
  -8   6   7 451.177 251.733   3
   8  -6  -7 221.447 204.722   1
   8  -5  -6 557.590 250.969   2
   8  -4  -5 330.536 241.865   2
   8  -3  -4 182.463 174.938   2
   8  -2  -3 448.254 242.409   2
   8  -1  -2 82.2300 158.003   2
   8   0  -1 504.904 261.812   2
   7  -9 -10 390.935 217.990   1
   7  -9 -10 30.2013 40.8488   5
   7  -8  -9-108.967 128.523   1
   7  -8  -9 281.044 193.601   5
  -7   8   9 87.7955 119.632   3
   7  -7  -8-99.0788 190.517   1
  -7   7   8 43.6870 159.102   3
   7  -7  -8-3.01772 75.3579   5
   7  -6  -7 245.442 121.456   5
   7  -6  -7 589.673 246.417   1
  -7   6   7 362.225 160.729   3
   7  -5  -6 287.271 121.737   2
  -7   5   6 363.877 188.307   3
   7  -4  -5 2656.96 488.204   2
   7  -3  -4 1162.23 365.412   2
   7  -2  -3 283.852 177.891   2
   7  -1  -2 3816.53 675.955   2
   7   0  -1 603.967 237.568   7
   7   0  -1 865.103 352.951   2
   7   1   0 1098.43 380.038   2
   7   1   0 1682.80 441.826   7
   7   2   1 1136.47 391.466   7
   7   2   1 1054.07 394.809   2
   7   3   2-79.5989 119.491   7
   6  -9 -10 843.952 361.069   5
   6  -9 -10 844.855 337.340   6
  -6   9  10 1088.57 348.765   3
  -6   8   9 14.6854 102.717   3
   6  -8  -9 217.769 120.197   1
   6  -7  -8 1294.97 394.179   5
   6  -7  -8 1331.58 351.934   1
  -6   7   8 1517.34 372.846   3
   6  -6  -7 369.394 137.783   1
   6  -6  -7 518.267 223.951   5
  -6   6   7 565.255 244.075   3
  -6   5   6 236.364 173.499   3
   6  -5  -6 79.7276 42.1304   5
   6  -5  -6-7.42315 103.692   2
  -6   4   5 52.5555 73.6805   3
   6  -4  -5-1.56627 79.2295   5
   6  -4  -5-17.7577 130.941   2
   6  -3  -4 23.8507 65.8807   5
   6  -3  -4 21.9252 55.1144   2
   6  -2  -3 44.8214 51.5599   7
   6  -2  -3-21.5367 48.6744   5
   6  -2  -3 115.065 99.5223   4
   6  -2  -3-7.71127 44.5092   2
   6  -1  -2 312.037 143.572   7
   6  -1  -2 441.518 159.309   2
   6  -1  -2 487.650 163.887   4
   6   0  -1 1095.90 336.499   2
   6   0  -1 1436.52 335.121   7
   6   0  -1 1053.59 228.923   4
   6   1   0 50.4605 101.266   7
   6   1   0-60.6333 165.786   2
   6   2   1 3344.61 659.765   2
   6   2   1 4302.69 714.937   7
   6   3   2 2562.34 597.217   2
   6   3   2 2398.20 576.014   7
   6   4   3 403.926 310.030   7
  -5   9  10 75.6992 107.917   3
   5  -9 -10 159.314 158.235   6
   5  -9 -10 121.943 95.0424   5
   5  -8  -9 174.704 155.717   5
  -5   8   9 293.203 181.757   3
   5  -8  -9 337.599 160.681   1
   5  -7  -8 142.808 159.010   1
   5  -7  -8 133.809 115.619   5
  -5   7   8 37.1081 138.997   3
  -5   6   7 1131.07 289.877   3
   5  -6  -7 617.631 225.315   1
   5  -6  -7 1036.08 306.566   5
   5  -5  -6 195.673 127.930   5
   5  -5  -6 316.828 143.193   1
  -5   5   6 204.621 88.8960   3
  -5   4   5 618.802 210.261   3
   5  -4  -5 766.963 224.091   5
   5  -3  -4 10965.9 648.535   6
   5  -3  -4 10567.4 698.148   5
  -5   3   4 10433.4 837.541   3
   5  -2  -3 2100.19 263.380   5
   5  -2  -3 1910.39 222.500   7
   5  -2  -3 1883.06 227.311   6
   5  -2  -3 1741.99 327.459   2
   5  -1  -2 10063.2 661.449   4
   5  -1  -2 9725.07 506.530   5
   5  -1  -2 10591.8 898.038   2
   5  -1  -2 10726.4 692.171   7
   5  -1  -2 10148.9 538.624   6
  -5   1   2 10569.3 569.106   6
   5   0  -1 1394.89 298.830   7
  -5   0   1 952.210 198.613   6
   5   0  -1 832.115 150.312   5
   5   0  -1 1293.37 241.961   4
   5   0  -1 1119.45 302.375   2
  -5  -1   0 41.8154 53.4199   6
   5   1   0-59.8409 91.7302   7
   5   1   0 28.7819 51.7371   4
   5   1   0 103.839 77.9813   2
   5   2   1 7031.68 846.893   7
   5   2   1 7650.56 701.483   4
  -5  -2  -1 7597.52 752.007   6
   5   2   1 7967.85 916.108   2
  -5  -3  -2 3629.19 581.500   6
   5   3   2 3634.95 643.185   2
   5   3   2 2589.49 571.994   7
   5   4   3 189.398 168.986   2
  -5  -4  -3 554.360 248.085   6
   5   4   3 185.110 190.855   7
   5   5   4 45.2241 104.980   2
   5   5   4 175.445 132.209   7
   4  -9 -10 1881.82 556.062   5
  -4   9  10 1164.54 344.110   3
   4  -9 -10 1535.54 482.388   6
  -4   8   9 3626.35 577.343   3
   4  -8  -9 3549.55 718.070   5
  -4   7   8 1737.76 366.121   3
   4  -7  -8 1835.05 486.853   5
   4  -7  -8 1680.70 354.247   1
   4  -6  -7-95.7066 58.5909   5
  -4   6   7 95.6429 105.367   3
   4  -6  -7 243.300 151.651   1
   4  -5  -6 1161.13 292.877   5
  -4   5   6 1227.90 278.001   3
   4  -5  -6 1058.65 261.877   1
   4  -4  -5 3353.78 443.612   5
  -4   4   5 3202.03 424.673   3
  -4   3   4 158.619 99.0309   3
   4  -3  -4-12.4998 73.0545   5
  -4   2   3 593.480 142.503   3
   4  -2  -3 582.086 134.834   5
   4  -2  -3 580.708 127.213   6
   4  -2  -3 490.990 82.6325   7
   4  -1  -2 1244.03 257.753   2
   4  -1  -2 1086.67 175.793   7
   4  -1  -2 1116.99 167.496   5
   4  -1  -2 1094.52 161.600   6
  -4   1   2 966.213 156.092   6
   4   0  -1 2229.63 277.521   4
  -4   0   1 2616.33 296.244   6
   4   0  -1 1939.71 305.913   7
   4   0  -1 2374.16 285.229   6
   4   0  -1 2224.32 378.374   2
  -4  -1   0 7718.16 609.030   6
   4   1   0 7230.46 688.472   7
   4   1   0 6572.15 691.148   2
   4   1   0 7427.75 558.325   4
   4   2   1 1939.26 408.828   7
   4   2   1 1743.92 378.680   2
  -4  -2  -1 1741.44 337.905   6
   4   2   1 1936.59 324.024   4
   4   3   2 312.677 145.919   7
  -4  -3  -2 343.642 209.097   6
   4   3   2 512.330 241.979   2
   4   4   3 2164.71 528.427   7
   4   4   3 1872.08 446.495   2
  -4  -4  -3 1202.66 326.601   6
   4   5   4 424.160 255.111   7
  -4  -5  -4 702.714 271.262   6
   4   5   4 534.611 245.333   2
   4   6   5 330.515 208.768   2
  -4  -6  -5 575.576 299.164   6
   3  -9 -10 425.952 321.441   6
   3  -8  -9 502.909 282.292   5
  -3   8   9 911.419 302.918   7
   3  -8  -9 391.344 296.552   6
   3  -7  -8 202.512 126.924   5
  -3   7   8 511.199 223.933   7
  -3   6   7 220.504 123.875   7
   3  -6  -7 482.558 189.643   5
   3  -5  -6 13918.0 842.742   1
  -3   5   6 14560.8 881.465   3
   3  -5  -6 14111.8 1047.41   5
  -3   5   6 14565.7 828.435   7
  -3   4   5 752.418 186.178   3
   3  -4  -5 1026.95 261.894   5
   3  -4  -5 804.934 189.178   1
   3  -3  -4 3799.03 413.865   5
  -3   3   4 3833.75 396.467   3
  -3   2   3-5.51238 44.1702   3
   3  -2  -3 63.5613 58.0586   5
  -3   2   3 25.3394 35.9760   5
   3  -1  -2 8273.38 431.377   5
   3  -1  -2 7807.18 374.912   7
   3  -1  -2 8018.15 409.984   6
   3   0  -1 2008.40 220.081   4
  -3   0   1 1917.94 226.362   6
   3   0  -1 1894.79 253.552   7
   3   0  -1 1950.78 223.951   6
   3   0  -1 2109.38 329.073   2
   3   1   0 1835.74 237.626   4
   3   1   0 1924.40 326.677   2
   3   1   0 1720.90 253.563   6
  -3  -1   0 1607.03 246.053   6
  -3  -1   0 2205.29 281.528   4
   3   1   0 2119.60 323.153   7
   3   2   1 2351.86 401.359   7
  -3  -2  -1 2389.74 359.785   6
   3   2   1 2220.29 311.652   4
   3   2   1 2142.19 304.444   5
   3   2   1 2421.70 394.198   2
   3   3   2 8061.14 855.669   7
  -3  -3  -2 7228.56 719.241   6
   3   3   2 6961.68 724.757   2
  -3  -4  -3 243.648 201.721   6
   3   4   3-6.44908 49.5209   2
   3   4   3 138.913 177.943   7
   3   5   4 1867.79 417.339   2
   3   5   4 1644.89 454.725   7
  -3  -5  -4 1844.32 447.486   6
   3   6   5 250.493 191.328   2
  -3  -6  -5 21.2537 112.630   6
   3   6   5 251.364 202.638   7
  -3  -7  -6-295.286 217.489   6
  -2   9  10 374.717 238.242   7
   2  -8  -9 957.987 415.568   6
  -2   8   9 859.908 342.440   7
  -2   7   8 4057.38 644.840   7
   2  -7  -8 4127.59 710.414   5
   2  -6  -7 4580.91 683.455   5
  -2   6   7 3669.71 539.851   7
   2  -5  -6 8471.53 837.582   5
   2  -5  -6 8212.96 480.592   2
  -2   5   6 8485.22 706.716   7
   2  -4  -5 43487.8 1645.03   5
  -2   4   5 39119.4 1286.08   7
   2  -4  -5 40561.7 1209.66   1
   2  -3  -4 793.655 172.240   1
   2  -3  -4 691.670 167.346   5
  -2   3   4 591.038 123.790   7
  -2   2   3 33156.6 929.052   3
  -2   2   3 32244.5 1027.16   5
   2  -2  -3 31380.9 999.135   5
   2  -1  -2 21045.4 655.233   5
  -2   1   2 21666.9 720.679   3
   2  -1  -2 23588.8 665.078   6
   2  -1  -2 21567.6 720.598   3
  -2   1   2 21825.4 667.922   5
   2   0  -1 2053.84 208.731   7
  -2   0   1 1998.42 190.399   6
   2   0  -1 2127.75 196.084   6
   2   0  -1 2072.04 174.431   4
  -2  -1   0 112368. 1830.95   6
  -2  -1   0 112239. 1630.08   4
   2   1   0 117753. 2085.62   7
   2   1   0 114292. 2081.68   2
   2   1   0 115951. 1863.64   6
   2   1   0 113812. 1607.26   4
   2   2   1 4073.19 433.016   2
  -2  -2  -1 4028.16 387.933   4
   2   2   1 4172.35 477.222   7
  -2  -2  -1 4168.30 425.843   6
   2   2   1 4343.71 398.465   4
   2   2   1 4189.60 394.226   5
   2   3   2 1084.98 236.579   2
   2   3   2 1531.29 333.605   7
  -2  -3  -2 1101.21 264.681   6
  -2  -4  -3 566.206 209.187   6
   2   4   3 838.104 227.808   2
   2   4   3 618.070 222.598   7
   2   5   4 3543.91 509.538   2
  -2  -5  -4 3291.48 569.992   6
   2   5   4 3452.92 620.714   7
   2   6   5 367.770 219.625   7
  -2  -6  -5-136.376 151.821   6
   2   7   6 1149.73 442.739   7
  -2  -7  -6 1854.18 512.867   6
  -1   9  10 262.617 207.892   7
  -1   8   9-85.1167 160.371   7
   1  -8  -9 166.773 111.733   6
  -1   7   8 1175.67 369.618   7
   1  -7  -8 1912.14 480.825   6
  -1   6   7 4099.19 618.918   7
   1  -6  -7 4259.87 665.801   5
  -1   5   6 9644.19 858.505   7
   1  -5  -6 10078.3 922.174   5
  -1   4   5 7160.98 482.902   1
   1  -4  -5 7466.09 701.965   5
  -1   4   5 7278.42 635.198   7
   1  -4  -5 6944.81 450.126   2
  -1   3   4 35594.4 965.629   1
   1  -3  -4 35387.7 1313.40   5
  -1   3   4 35977.5 1185.41   7
   1  -2  -3 48021.4 971.901   1
  -1   2   3 51044.5 1261.45   5
   1  -2  -3 49075.0 1282.13   5
  -1   2   3 49531.7 1013.20   1
  -1   2   3 48802.8 1050.84   7
  -1   1   2 6844.06 289.678   3
   1  -1  -2 6424.41 348.986   5
  -1   1   2 6180.42 343.734   5
   1  -1  -2 6544.98 319.651   1
   1   0  -1 8285.76 302.933   6
  -1   0   1 8393.71 308.162   6
   1   0  -1 8219.32 259.265   7
  -1   0   1 8052.39 254.595   7
  -1  -1   0 208669. 2092.01   6
  -1  -1   0 209559. 2204.22   7
  -1  -1   0 210139. 1728.52   4
   1   1   0 205414. 2130.37   2
   1   1   0 211156. 1727.51   4
   1   1   0 207174. 2089.71   6
   1   1   0 210943. 2254.32   7
  -1  -2  -1 18790.8 736.353   4
   1   2   1 19030.1 875.602   7
   1   2   1 18909.3 743.983   2
  -1  -2  -1 18885.0 857.280   7
   1   2   1 18557.5 769.756   5
  -1  -2  -1 18802.6 825.144   6
  -1  -3  -2 20247.3 1051.98   6
   1   3   2 20164.8 873.623   2
   1   3   2 19925.0 1085.57   7
   1   4   3 16917.4 894.292   2
  -1  -4  -3 17623.0 1133.43   6
   1   4   3 17618.6 1161.13   7
   1   5   4 5594.16 350.911   1
   1   5   4 5434.49 555.022   2
  -1  -5  -4 6411.63 764.274   6
   1   5   4 5365.71 718.291   7
   1   6   5 335.254 233.690   7
  -1  -6  -5 817.302 316.166   6
   1   7   6 336.499 217.458   7
  -1  -7  -6 140.843 169.468   6
  -1  -8  -7 425.075 261.897   6
   1   8   7 297.119 244.146   7
   0   8   9 264.254 182.560   7
   0  -8  -9-73.1585 120.697   6
   0   7   8-7.78425 122.111   7
   0  -7  -8 794.027 331.639   6
   0   6   7 2284.52 508.159   7
   0  -6  -7 2205.98 501.875   6
   0  -5  -6 2445.50 458.283   5
   0   5   6 1975.82 422.009   7
   0   4   5 20479.4 1205.28   7
   0   4   5 20650.6 773.062   1
   0  -4  -5 20093.0 1168.51   5
   0  -3  -4 21747.0 1058.61   5
   0  -3  -4 22237.4 843.976   2
   0   3   4 23780.4 1115.85   7
   0  -2  -3 15395.5 732.496   5
   0  -2  -3 15129.9 585.285   2
   0   2   3 15889.4 758.140   7
   0   2   3 15185.4 724.841   5
   0  -2  -3 15328.8 725.057   4
   0   1   2 477829. 3073.35   5
   0   1   2 497562. 3149.60   4
   0  -1  -2 475476. 3055.65   5
   0  -1  -2 492998. 3133.82   4
   0  -2  -1 19578.7 739.909   6
   0  -2  -1 18782.5 718.373   7
   0   2   1 19259.2 339.467   1
   0   2   1 19468.6 517.813   2
   0  -2  -1 19820.6 526.460   2
   0   2   1 18882.5 736.635   7
   0   2   1 20303.6 737.217   5
   0  -3  -2 23360.4 734.528   2
   0   3   2 22648.2 1007.72   7
   0  -3  -2 23002.3 992.672   7
   0  -3  -2 23714.0 1032.65   6
   0   3   2 22743.3 984.076   5
   0   3   2 23552.0 717.863   2
   0   3   2 23447.0 515.806   1
   0  -4  -3 217.781 69.3435   2
   0   4   3 287.688 101.667   7
   0  -4  -3 272.746 116.182   6
   0   4   3 206.680 59.4958   1
   0   5   4 2305.94 451.724   7
   0  -5  -4 2494.93 446.387   6
   0   5   4 2075.12 213.157   1
   0   6   5 934.066 312.092   7
   0  -6  -5 741.956 282.078   6
   0  -7  -6 1574.81 458.302   6
   0   7   6 1538.31 427.168   7
   0   8   7-63.7227 109.753   7
   0  -8  -7 143.934 149.719   6
   0   9   8 1438.23 494.976   7
   1   7   8 77.6627 102.113   7
  -1  -7  -8 248.744 203.077   6
  -1  -6  -7 17.0809 69.4993   6
   1   6   7 239.519 124.701   7
   1   5   6 413.792 255.962   7
  -1  -5  -6 186.333 59.4951   6
  -1  -4  -5 339.903 177.559   6
   1   4   5 430.970 204.753   7
   1   3   4 11202.6 876.236   7
  -1  -3  -4 10364.8 757.291   5
   1   3   4 11417.7 717.344   2
  -1  -2  -3 68842.5 1583.95   2
   1   2   3 67151.3 1567.85   2
   1   2   3 68201.2 1604.36   5
   1   2   3 68269.2 1864.36   7
   1   2   3 63929.7 1632.92   4
  -1  -2  -3 66377.8 1587.41   5
  -1  -2  -3 67366.4 1640.12   4
   1   1   2 19678.6 743.635   4
  -1  -1  -2 18587.4 714.273   4
   1   1   2 19688.5 728.507   2
  -1  -1  -2 19421.2 654.333   5
  -1  -1  -2 19212.0 727.984   2
   1   1   2 19998.8 661.021   5
  -1   0  -1 86912.7 1264.63   2
  -1   0  -1 88300.0 1229.16   4
   1   0   1 87917.6 1272.91   2
   1   0   1 90259.4 1222.98   4
  -1   1   0 55848.9 872.093   3
  -1   1   0 54332.5 651.030   5
   1  -1   0 55292.1 658.741   5
   1  -1   0 55339.1 867.228   3
  -1   1   0 55297.0 738.504   2
   1  -2  -1 528.230 114.080   5
   1  -2  -1 489.213 94.2317   7
  -1   2   1 294.718 86.4559   5
   1  -3  -2 14190.8 742.840   5
   1  -3  -2 14230.7 496.930   1
   1  -3  -2 13837.7 665.183   7
   1  -3  -2 14468.5 354.725   2
  -1   3   2 13619.3 722.318   5
  -1   3   2 13334.2 656.685   7
   1  -4  -3 9766.69 734.251   5
   1  -4  -3 9796.88 405.416   2
  -1   4   3 9930.41 682.792   7
   1  -5  -4 323.027 176.688   5
   1  -5  -4 230.641 86.6591   2
  -1   5   4 492.051 191.894   7
   1  -5  -4 507.188 206.496   6
  -1   6   5 1398.94 346.050   7
   1  -6  -5 1414.73 225.096   2
   1  -6  -5 1153.26 323.061   6
  -1   7   6 1206.22 364.442   7
   1  -7  -6 1118.05 343.929   6
   1  -8  -7 99.0757 129.483   6
  -1   8   7 230.184 194.638   7
  -1   9   8-104.258 131.306   7
   1  -9  -8-49.2076 156.822   6
   2   7   8 412.730 270.727   7
  -2  -7  -8 381.359 261.423   6
   2   6   7-101.782 140.150   7
  -2  -6  -7 276.457 194.535   6
  -2  -5  -6 445.614 211.718   6
   2   5   6 364.623 214.845   7
   2   4   5 1985.35 366.869   2
  -2  -4  -5 2025.32 409.521   6
   2   4   5 2200.29 492.558   7
  -2  -3  -4 748.657 229.187   6
   2   3   4 830.173 249.363   7
   2   3   4 743.483 203.596   2
   2   2   3 56.5726 63.3246   2
   2   2   3 124.495 40.7619   7
  -2  -2  -3 93.7073 48.3273   6
   2   2   3 134.887 92.2215   4
   2   2   3-40.0360 64.4739   5
   2   1   2 5048.76 433.571   4
  -2  -1  -2 5125.09 440.382   4
   2   1   2 4261.21 426.459   2
  -2  -1  -2 4951.05 412.680   6
   2   1   2 5118.09 356.179   5
   2   0   1 38152.1 1020.03   4
  -2   0  -1 38322.0 1160.51   2
  -2   0  -1 36369.7 1038.86   4
   2   0   1 37117.9 1128.02   2
  -2   0  -1 38096.8 819.401   6
   2   0   1 37760.1 626.023   5
   2  -1   0 999999. 4955.49   2
  -2   1   0 989244. 5051.64   3
   2  -1   0 989539. 4998.72   3
   2  -2  -1 789912. 4690.66   3
  -2   2   1 811456. 3971.62   5
  -2   2   1 791791. 4684.29   3
   2  -2  -1 819945. 4133.99   5
   2  -3  -2 23097.2 730.656   7
  -2   3   2 23153.9 909.680   5
   2  -3  -2 22929.0 908.831   5
  -2   4   3 114.641 48.8292   7
   2  -4  -3 59.0152 68.6315   5
   2  -4  -3 36.2076 32.1454   1
   2  -4  -3 103.806 80.5449   7
   2  -5  -4 1459.83 226.731   1
   2  -5  -4 1505.36 142.876   2
  -2   5   4 1836.00 311.417   7
   2  -5  -4 1960.01 361.524   5
   2  -6  -5 263.153 158.745   5
   2  -6  -5 596.538 224.471   6
   2  -6  -5 486.294 93.4863   2
  -2   6   5 541.095 199.377   7
  -2   7   6-39.4942 90.7114   7
   2  -7  -6-61.3664 93.4463   6
  -2   8   7 362.656 203.616   7
   2  -8  -7 70.7654 112.590   6
   2  -9  -8 45.5327 90.8917   6
  -2   9   8-205.896 171.385   7
  -2  10   9 166.908 217.522   7
   3   6   7 348.174 244.770   7
  -3  -6  -7 408.311 240.386   6
   3   5   6-22.7438 81.5653   7
  -3  -5  -6 272.439 183.227   6
   3   4   5 4000.03 700.081   7
   3   4   5 2856.82 503.680   2
  -3  -4  -5 3230.98 557.320   6
   3   3   4 4451.84 590.326   2
   3   3   4 3990.05 635.401   7
   3   3   4 4243.08 575.586   4
  -3  -3  -4 4709.21 606.398   6
  -3  -2  -3 5458.58 566.308   6
   3   2   3 4884.56 631.633   7
   3   2   3 4256.21 503.174   4
   3   2   3 4916.65 585.812   2
   3   1   2 2374.54 386.705   7
   3   1   2 2560.79 344.044   4
   3   1   2 2497.53 386.898   2
   3   1   2 2650.14 274.591   5
  -3  -1  -2 2372.45 314.994   6
  -3   0  -1 1102.64 169.018   6
   3   0   1 993.057 197.174   4
   3   0   1 1052.89 123.115   5
   3   0   1 1056.26 224.370   2
  -3   1   0 741.385 91.1073   6
   3  -1   0 856.277 192.640   2
   3  -2  -1 2217.25 276.806   2
   3  -2  -1 2243.46 200.426   5
  -3   2   1 2055.99 285.396   3
   3  -2  -1 2127.74 154.349   6
  -3   2   1 2035.87 198.278   5
   3  -3  -2 3790.01 322.023   2
  -3   3   2 3703.20 350.921   5
   3  -3  -2 3504.89 341.550   5
  -3   3   2 3934.11 396.691   3
   3  -4  -3 2813.90 369.322   5
   3  -4  -3 3819.35 329.864   7
  -3   4   3 3124.85 369.943   3
   3  -5  -4 11729.2 880.290   5
   3  -5  -4 11548.0 729.424   1
  -3   5   4 11163.9 766.868   3
   3  -5  -4 10081.5 654.070   7
   3  -6  -5 2954.64 174.591   2
   3  -6  -5 3490.08 548.198   5
   3  -6  -5 3361.08 406.744   1
   3  -7  -6-162.334 145.717   6
   3  -7  -6-134.699 199.742   5
   3  -8  -7 27.5981 92.5074   6
   3  -9  -8 125.837 123.368   6
  -4  -6  -7 372.598 240.478   6
  -4  -5  -6 574.954 230.181   6
   4   5   6 464.472 290.250   7
   4   4   5 1651.10 425.969   2
  -4  -4  -5 1546.98 414.113   6
   4   4   5 1492.37 457.791   7
   4   3   4 7799.63 824.640   4
   4   3   4 8142.03 897.140   2
  -4  -3  -4 7442.76 813.147   6
   4   3   4 7109.94 920.210   7
   4   2   3 18429.2 1132.71   4
  -4  -2  -3 17791.1 1106.35   6
   4   2   3 17924.3 1261.26   2
   4   2   3 18110.6 1332.93   7
  -4  -1  -2 3225.16 407.456   6
   4   1   2 3874.68 477.152   4
   4   1   2 3656.96 531.145   7
   4   1   2 3402.96 329.258   5
   4   1   2 3417.07 509.247   2
   4   0   1 6727.89 568.531   4
  -4   0  -1 6943.35 487.753   6
   4   0   1 6878.70 685.589   2
   4   0   1 6660.21 636.947   7
   4   0   1 6308.35 322.089   5
  -4   1   0 2644.39 216.525   6
   4  -1   0 2304.85 372.938   2
   4  -1   0 2689.06 346.449   4
   4  -2  -1 50348.0 898.634   5
   4  -2  -1 49789.7 1580.27   2
  -4   2   1 51147.5 1644.30   3
  -4   3   2 135307. 2666.56   3
   4  -3  -2 127835. 2370.78   2
   4  -3  -2 130223. 1670.89   6
   4  -3  -2 130029. 2005.44   5
  -4   3   2 127124. 2030.09   5
   4  -4  -3 78140.7 1346.36   7
   4  -4  -3 79976.9 1691.41   2
   4  -4  -3 78403.8 1949.32   5
  -4   4   3 77939.7 2103.10   3
  -4   5   4 2154.30 357.611   3
   4  -5  -4 1705.47 235.895   7
   4  -5  -4 1752.00 225.766   2
   4  -5  -4 2255.62 386.915   5
  -4   6   5 119.017 98.3129   3
   4  -6  -5-111.553 99.8546   1
   4  -6  -5 197.831 160.732   5
   4  -6  -5 49.0448 27.6257   2
   4  -7  -6 610.781 212.133   1
   4  -7  -6 556.409 238.053   6
   4  -7  -6 621.712 261.256   5
  -4   7   6 643.159 244.850   3
  -4   8   7 675.318 254.328   3
   4  -8  -7 542.491 259.151   6
   4  -8  -7 1020.17 270.132   1
   4  -8  -7 195.555 127.749   5
  -4   9   8 449.651 231.706   3
   4  -9  -8 517.841 276.732   6
   4 -10  -9 449.456 266.547   6
  -4  10   9 9.49655 54.5250   3
   5   4   5 182.274 172.837   7
   5   4   5 403.594 279.559   2
  -5  -3  -4-138.936 119.957   6
   5   3   4-94.5134 162.859   2
   5   3   4-131.255 165.189   7
   5   2   3-0.31922 39.0922   4
  -5  -2  -3 106.078 102.259   6
   5   2   3-80.2635 108.665   2
   5   2   3-97.5712 151.992   7
  -5  -1  -2 5830.18 587.894   6
   5   1   2 6453.69 782.456   7
   5   1   2 5464.26 744.822   2
   5   1   2 5211.96 606.540   4
  -5   0  -1 486.108 143.485   6
   5   0   1 683.264 207.496   4
   5   0   1 563.774 207.761   7
   5   0   1 1064.01 312.088   2
   5  -1   0-54.6305 59.6976   4
   5  -1   0-93.6828 91.4230   2
   5  -1   0 152.026 110.791   7
  -5   1   0-23.5695 39.1008   6
   5  -2  -1 5627.26 251.154   5
   5  -2  -1 6302.05 664.975   2
   5  -3  -2 57.5744 48.3835   5
  -5   3   2 40.3879 67.8590   3
   5  -4  -3 3954.47 350.615   6
   5  -4  -3 3560.69 429.033   2
   5  -4  -3 3402.51 399.203   5
  -5   4   3 4497.61 559.849   3
   5  -5  -4 36.5452 56.1397   5
  -5   5   4 6.84272 102.278   3
   5  -5  -4 30.0437 36.6679   7
   5  -5  -4 36.5401 37.6929   2
   5  -6  -5 495.815 222.245   5
  -5   6   5 293.511 157.841   3
   5  -6  -5 242.304 88.8950   2
   5  -7  -6 1303.67 312.281   1
  -5   7   6 930.876 265.433   3
   5  -7  -6 814.547 306.887   5
   5  -8  -7 2091.22 497.684   5
   5  -8  -7 2091.63 461.128   6
   5  -8  -7 2314.28 441.473   1
  -5   8   7 1765.67 403.994   3
  -5   9   8 21.4497 68.3739   3
   5  -9  -8 106.286 141.954   6
   5 -10  -9 373.715 288.979   6
  -5  10   9 741.088 318.412   3
   6   3   4-165.434 164.343   7
   6   3   4-92.6420 126.528   2
   6   2   3 795.148 328.173   2
   6   2   3 309.300 145.854   7
   6   1   2-80.4801 85.5600   4
   6   1   2-113.802 161.006   2
   6   1   2-203.867 152.925   7
   6   0   1 910.686 290.246   7
   6   0   1 1008.88 271.408   4
   6   0   1 721.417 281.461   2
   6  -1   0 5.30069 139.647   2
   6  -1   0 94.1442 114.673   7
   6  -1   0 11.6691 71.3201   4
   6  -2  -1 1849.03 399.940   2
   6  -2  -1 1864.70 325.509   7
   6  -2  -1 2281.04 400.907   4
   6  -3  -2 3376.32 514.766   2
  -6   4   3 7000.19 773.754   3
   6  -4  -3 6869.55 690.984   2
   6  -4  -3 6712.92 522.693   5
   6  -5  -4 15520.8 964.871   5
   6  -5  -4 16041.3 989.212   2
  -6   5   4 15011.3 1137.11   3
   6  -6  -5 60.3549 97.5568   5
  -6   6   5-5.09107 60.9160   3
   6  -6  -5 42.5202 52.8238   2
   6  -7  -6 919.637 293.271   5
  -6   7   6 464.791 249.812   3
   6  -7  -6 948.578 273.776   6
   6  -7  -6 540.501 243.740   1
   6  -8  -7 3.65642 82.2848   5
  -6   8   7-65.1155 119.672   3
   6  -8  -7-212.778 146.374   6
   6  -8  -7 83.6229 47.7663   1
  -6   9   8-211.849 158.374   3
   6  -9  -8 141.518 173.390   1
   6  -9  -8 128.143 128.568   6
  -6  10   9 1695.65 473.777   3
   7   2   3 111.006 129.484   7
   7   1   2 939.115 399.759   2
   7   1   2 585.578 282.048   7
   7   0   1 1086.89 338.208   7
   7   0   1 1672.68 490.930   2
   7  -1   0 2133.65 529.597   2
   7  -1   0 1755.94 399.218   7
   7  -2  -1 8.99524 120.406   2
   7  -2  -1 351.685 167.145   4
   7  -3  -2 469.743 193.089   2
   7  -3  -2 249.638 165.939   4
   7  -4  -3 14.0971 51.5207   2
  -7   5   4 111.643 120.794   3
   7  -5  -4 225.163 181.910   2
  -7   6   5 1197.88 351.636   3
  -7   7   6 46.8849 147.716   3
   7  -7  -6-97.2259 99.6743   5
   7  -8  -7 1141.79 364.700   5
   7  -8  -7 1698.01 446.052   1
  -7   8   7 817.324 299.329   3
   7  -9  -8 125.384 148.266   1
  -7   9   8 115.501 191.244   3
   8  -1   0 272.962 238.343   2
   8  -2  -1 586.553 308.662   2
   8  -3  -2-48.5766 133.178   2
   8  -4  -3 355.594 238.981   2
   8  -5  -4 1966.64 454.051   2
  -8   6   5 138.386 149.211   3
  -8   7   6-47.9990 139.956   3
   8  -8  -7-127.552 144.638   1
  -8   8   7 3.49064 77.5879   3
   9  -3  -2-4.65716 62.7462   2
   9  -4  -3 439.362 228.134   2
   9  -5  -4 230.994 213.585   2
   9  -4  -6 482.740 234.805   2
   9  -3  -5 359.139 204.434   2
  -8   8  10-169.753 152.403   3
   8  -7  -9 428.296 276.576   1
  -8   7   9 598.603 281.584   3
  -8   6   8 174.949 161.210   3
   8  -6  -8 1.02350 122.812   1
   8  -5  -7 586.729 243.875   2
   8  -4  -6 315.254 221.638   2
   8  -3  -5 488.708 238.119   2
   8  -2  -4 124.023 98.5611   2
   8  -1  -3-96.0268 171.882   2
   8   0  -2 1358.95 474.123   2
   7  -9 -11 288.464 223.948   1
  -7   8  10 72.8669 108.256   3
   7  -8 -10 63.5462 119.278   1
  -7   7   9 777.979 297.925   3
   7  -7  -9 1965.96 486.061   5
   7  -7  -9 1322.45 401.803   1
   7  -6  -8 367.935 209.384   1
   7  -6  -8 278.888 196.839   5
  -7   6   8-14.9453 99.7411   3
  -7   5   7 54.5630 133.011   3
   7  -5  -7 198.672 134.098   2
   7  -5  -7 52.7905 97.5723   1
   7  -5  -7 195.020 125.918   5
   7  -4  -6 3235.70 556.110   2
   7  -3  -5 1184.27 331.296   2
   7  -2  -4 1027.69 336.568   2
   7  -1  -3 923.246 360.083   2
   7   0  -2 80.6193 114.150   2
   7   1  -1 556.447 240.357   7
   7   1  -1 666.201 317.778   2
   7   2   0-23.4745 91.7776   7
   7   2   0 278.885 194.828   2
   7   3   1 282.470 210.558   7
   6  -9 -11-10.9395 61.5854   6
  -6   8  10 142.647 166.104   3
   6  -8 -10-46.8070 95.4267   1
   6  -8 -10 235.799 225.035   5
   6  -7  -9 23.8368 89.8633   5
   6  -7  -9 387.130 205.985   1
  -6   7   9 209.797 151.725   3
   6  -6  -8 347.406 149.133   5
   6  -6  -8 506.916 244.291   1
  -6   6   8 407.066 195.671   3
  -6   5   7 63.6430 131.486   3
   6  -5  -7-97.9255 133.084   1
   6  -5  -7-114.495 100.186   5
  -6   4   6 420.485 185.209   3
   6  -4  -6 181.092 117.747   5
   6  -3  -5 1172.50 306.408   2
   6  -3  -5 1089.43 248.923   5
   6  -2  -4 2476.03 321.418   5
   6  -2  -4 2306.83 449.561   2
   6  -2  -4 2417.53 258.759   7
   6  -1  -3-6.17740 32.9381   5
   6  -1  -3 120.432 141.929   2
   6  -1  -3-23.0399 46.7086   4
   6  -1  -3 45.4112 32.0936   7
  -6   0   2 3215.04 401.049   6
   6   0  -2 3061.14 370.376   4
   6   0  -2 3253.07 487.322   7
   6   0  -2 3100.86 569.775   2
   6   1  -1 728.626 272.384   2
   6   1  -1 558.088 225.262   7
   6   2   0 5581.62 802.804   7
   6   2   0 5357.36 824.621   2
   6   3   1 4801.85 826.540   2
   6   3   1 4462.30 788.347   7
   6   4   2 295.626 236.060   7
   6   4   2 608.733 317.309   2
   5  -9 -11 1016.54 406.091   6
   5  -8 -10 80.0779 130.681   5
  -5   8  10 129.713 134.110   3
   5  -7  -9 2725.33 480.554   1
  -5   7   9 2872.51 491.274   3
   5  -7  -9 2948.35 597.803   5
   5  -6  -8 202.009 175.249   5
  -5   6   8 232.678 157.964   3
   5  -6  -8 189.840 129.573   1
   5  -5  -7 586.176 227.168   1
  -5   5   7 499.594 169.596   3
   5  -5  -7 555.197 195.208   5
  -5   4   6 7290.72 695.953   3
   5  -4  -6 6848.55 678.063   5
  -5   3   5 348.493 155.536   3
   5  -3  -5 171.706 104.316   5
   5  -2  -4 204.383 89.6197   6
   5  -2  -4 197.165 65.2132   5
   5  -2  -4 347.317 75.0093   7
   5  -1  -3-9.10114 41.7263   4
   5  -1  -3 12.2673 22.3593   6
   5  -1  -3-6.47657 34.7172   5
   5  -1  -3-23.4169 35.9021   7
   5   0  -2 2288.84 315.963   6
   5   0  -2 1920.24 329.423   7
   5   0  -2 2484.14 453.048   2
   5   0  -2 2548.65 307.858   4
  -5   0   2 2209.39 319.552   6
   5   0  -2 2589.05 298.331   5
   5   1  -1 1694.99 357.504   7
   5   1  -1 1290.45 355.198   2
  -5  -1   1 1336.87 271.443   6
   5   1  -1 1978.56 293.918   4
   5   2   0 1855.20 437.369   2
   5   2   0 1186.80 254.141   4
   5   2   0 1324.32 352.996   7
  -5  -2   0 1358.50 316.273   6
   5   3   1 1129.66 352.012   2
  -5  -3  -1 1233.70 338.078   6
   5   3   1 1115.42 377.249   7
   5   4   2-186.335 178.766   2
  -5  -4  -2-19.6165 64.0082   6
   5   5   3-190.737 168.139   2
   5   5   3 323.552 270.223   7
  -5  -5  -3 201.820 165.768   6
   4  -9 -11 884.002 387.534   6
   4  -8 -10 249.650 199.503   5
  -4   8  10 117.452 103.191   3
  -4   7   9 5234.30 635.722   3
   4  -7  -9 5742.93 853.886   5
   4  -6  -8 10608.4 852.861   1
   4  -6  -8 11638.8 1092.65   5
  -4   6   8 10714.7 840.014   3
  -4   5   7 8479.24 711.503   3
   4  -5  -7 9053.50 866.400   5
   4  -5  -7 7944.45 719.270   1
   4  -4  -6 5987.95 637.289   5
  -4   4   6 6032.05 579.840   3
   4  -4  -6 6311.67 632.052   1
  -4   3   5 1095.66 238.758   3
   4  -3  -5 1061.42 236.780   5
   4  -2  -4 922.400 200.226   5
  -4   2   4 868.266 211.065   3
   4  -2  -4 806.325 171.873   6
  -4   2   4 935.775 190.437   5
   4  -1  -3 1302.75 203.335   6
   4  -1  -3 1560.22 226.308   5
   4  -1  -3 1603.05 193.525   7
   4   0  -2 1999.03 268.974   6
  -4   0   2 1795.21 263.325   6
   4   0  -2 1883.25 283.381   7
   4   0  -2 2643.13 411.570   2
   4   0  -2 1734.92 221.333   4
   4   1  -1 11543.4 627.525   4
   4   1  -1 11336.8 829.590   7
  -4  -1   1 11664.6 747.640   6
   4   1  -1 11291.8 894.728   2
   4   2   0 1248.55 308.102   7
   4   2   0 822.906 193.816   4
  -4  -2   0 1017.03 249.173   6
   4   2   0 718.649 217.786   2
   4   3   1 6008.55 742.139   2
  -4  -3  -1 6628.78 722.235   6
   4   3   1 5901.82 776.041   7
   4   4   2 11245.4 1176.17   7
  -4  -4  -2 9571.30 971.389   6
   4   4   2 9696.34 990.687   2
   4   5   3 3938.36 758.624   7
  -4  -5  -3 3260.94 627.804   6
   4   5   3 3085.51 592.992   2
   4   6   4-8.62685 70.3165   2
  -4  -6  -4-215.880 176.675   6
   3  -8 -10 500.896 296.974   5
  -3   8  10 320.808 187.815   7
   3  -7  -9 645.572 287.373   5
  -3   7   9 309.471 184.003   7
   3  -6  -8 9672.61 1003.44   5
  -3   6   8 8924.51 779.449   7
   3  -5  -7 137.262 112.587   5
   3  -5  -7 567.834 180.652   1
  -3   5   7 588.173 194.053   3
  -3   5   7 390.711 137.561   7
  -3   4   6 12399.4 630.166   7
   3  -4  -6 12002.7 773.390   1
   3  -4  -6 13683.3 958.246   5
  -3   4   6 12937.5 749.305   3
   3  -3  -5 7361.70 625.616   5
   3  -3  -5 7567.24 593.855   1
  -3   3   5 7726.36 554.192   3
   3  -2  -4 40379.2 1256.27   5
  -3   2   4 41795.8 1281.65   5
  -3   2   4 40213.6 1224.16   3
   3  -1  -3 22994.7 813.258   6
   3  -1  -3 20716.0 483.977   7
   3  -1  -3 21082.9 800.096   5
   3   0  -2 40974.5 1079.06   6
   3   0  -2 40301.3 1075.76   7
   3   0  -2 40437.8 856.395   4
  -3   0   2 39484.5 1088.71   6
   3   1  -1 88590.0 1832.65   6
   3   1  -1 86760.7 2005.24   7
  -3  -1   1 87397.6 1846.78   6
  -3  -1   1 90910.9 1547.81   4
   3   1  -1 88504.5 2215.84   2
   3   1  -1 86061.0 1473.81   4
   3   2   0 4193.10 528.498   7
   3   2   0 4238.32 400.886   4
  -3  -2   0 4308.03 475.782   6
   3   2   0 4442.06 522.168   2
  -3  -2   0 4583.30 425.284   4
  -3  -3  -1 1833.02 351.545   6
   3   3   1 2489.02 422.713   2
   3   3   1 1956.51 394.111   7
  -3  -4  -2 46619.2 2030.41   6
   3   4   2 49154.1 1993.48   2
   3   4   2 47159.5 2231.59   7
   3   5   3-181.841 140.216   2
   3   5   3 62.7662 104.803   7
  -3  -5  -3 30.5121 89.4345   6
  -3  -6  -4-354.648 214.372   6
   3   6   4-211.921 179.795   7
   3   6   4 54.0636 145.330   2
   3   7   5 1445.56 523.318   7
  -3  -7  -5 391.520 230.535   6
  -2   9  11 34.4860 85.6396   7
  -2   8  10 274.731 172.158   7
   2  -8 -10-3.56077 63.1524   5
  -2   7   9 4001.51 634.449   7
   2  -7  -9 3214.46 650.026   5
   2  -6  -8 10507.9 1069.24   5
  -2   6   8 10665.3 937.232   7
  -2   5   7 4176.15 514.352   7
   2  -5  -7 4809.75 658.350   5
   2  -5  -7 3920.73 371.057   2
  -2   4   6 7238.44 582.769   7
   2  -4  -6 7923.34 731.749   5
  -2   3   5 933.598 169.198   7
   2  -3  -5 857.033 177.627   1
   2  -3  -5 1106.04 256.355   5
  -2   2   4 34.0519 40.1045   3
  -2   2   4 41.8941 50.7105   5
  -2   2   4 25.3447 20.6295   7
   2  -2  -4 66.3257 56.1317   1
   2  -2  -4 29.6346 54.4650   5
  -2   1   3 22537.8 726.043   3
   2  -1  -3 22134.1 779.887   5
  -2   1   3 23419.7 804.598   5
   2  -1  -3 23168.4 729.513   3
   2   0  -2 13566.0 545.066   6
   2   0  -2 13637.5 467.034   7
  -2   0   2 13430.2 464.152   7
  -2   0   2 13899.6 567.469   6
   2   1  -1 50.3025 44.4254   7
  -2  -1   1 0.18836 21.5281   4
   2   1  -1-12.0100 16.0385   4
  -2  -1   1-13.8351 41.0346   7
  -2  -2   0 37679.2 1056.95   4
   2   2   0 38052.9 1277.93   6
   2   2   0 37059.1 1286.70   2
   2   2   0 36881.6 1354.28   7
  -2  -2   0 38107.3 1286.99   6
  -2  -3  -1 20179.8 1100.20   6
   2   3   1 21162.7 1056.36   2
   2   3   1 20345.9 1184.60   7
   2   4   2 404.864 173.777   7
   2   4   2 425.288 194.866   2
  -2  -4  -2 289.413 160.617   6
   2   5   3 2713.25 537.121   7
   2   5   3 3299.27 491.535   2
  -2  -5  -3 3990.87 612.464   6
  -2  -6  -4 5487.10 808.835   6
   2   6   4 6645.67 938.308   7
   2   6   4 7031.64 751.735   2
  -2  -7  -5 13.0977 141.285   6
   2   7   5 423.287 256.761   7
  -2  -8  -6 2071.94 583.547   6
  -1   8  10 153.318 149.190   7
   1  -8 -10 162.393 166.019   6
  -1   7   9 924.692 322.589   7
   1  -7  -9 738.189 329.323   5
   1  -7  -9 1137.09 382.884   6
  -1   6   8 577.368 219.471   7
   1  -6  -8 524.220 246.220   5
  -1   5   7 673.189 225.002   7
   1  -5  -7 860.892 275.957   5
   1  -4  -6 314.941 160.163   5
   1  -4  -6 134.101 63.5697   2
  -1   4   6 172.830 102.474   7
  -1   3   5 7248.08 564.282   7
  -1   3   5 7531.19 482.080   1
   1  -3  -5 7212.27 624.708   5
  -1   2   4 35035.8 928.820   1
  -1   2   4 35292.8 1158.10   5
   1  -2  -4 34030.2 1105.83   4
   1  -2  -4 33872.9 1152.57   5
  -1   2   4 35081.1 986.782   7
  -1   1   3 140099. 1885.01   5
   1  -1  -3 137808. 1895.02   5
  -1   1   3 138551. 1640.65   1
  -1   1   3 135709. 1269.61   3
   1  -1  -3 140085. 1635.22   1
   1   0  -2 3289.19 237.936   6
  -1   0   2 3165.01 239.768   6
   1   0  -2 3202.17 215.144   1
   1   0  -2 3501.87 246.328   5
  -1  -1   1 248426. 1422.51   4
  -1  -1   1 250891. 2284.68   7
   1   1  -1 252538. 2273.73   7
  -1  -1   1 243014. 2303.34   6
   1   1  -1 245978. 2280.99   6
   1   2   0 892.185 162.980   2
   1   2   0 779.571 171.983   7
   1   2   0 745.676 155.054   6
  -1  -2   0 814.466 170.639   6
  -1  -2   0 791.188 163.528   7
  -1  -2   0 591.108 118.064   4
  -1  -3  -1 7235.48 600.152   6
   1   3   1 7957.24 658.851   7
   1   3   1 8415.67 545.170   2
  -1  -3  -1 7430.19 546.844   4
   1   4   2 1534.78 324.767   7
  -1  -4  -2 1621.56 347.362   6
   1   4   2 1497.61 256.241   2
  -1  -5  -3 4719.19 642.260   6
   1   5   3 5341.45 281.269   1
   1   5   3 4922.68 673.909   7
   1   5   3 5406.37 534.033   2
   1   6   4 1082.26 253.070   2
   1   6   4 466.736 203.579   7
  -1  -6  -4 1321.92 385.359   6
   1   7   5-71.4809 92.0631   7
  -1  -7  -5-30.3410 91.2279   6
  -1  -8  -6 415.037 230.624   6
   1   8   6 515.092 281.425   7
   0   8  10 250.638 206.202   7
   0   7   9 687.475 325.592   7
   0  -7  -9 420.714 235.871   6
   0   6   8 5132.44 775.765   7
   0  -6  -8 5844.83 818.357   5
   0  -6  -8 5682.69 839.291   6
   0   5   7 3053.84 548.968   7
   0  -5  -7 2941.96 522.482   5
   0   4   6 1929.28 390.263   7
   0  -4  -6 1762.12 376.349   5
   0   3   5 82348.2 2213.15   7
   0  -3  -5 84635.8 2176.33   5
   0  -2  -4 22795.0 969.534   4
   0  -2  -4 23149.3 959.108   5
   0   2   4 22113.9 922.872   5
   0  -2  -4 24053.6 811.556   2
   0   1   3 15610.5 635.007   4
   0   1   3 16678.1 649.242   5
   0  -1  -3 15769.2 642.507   4
   0  -1  -3 16371.3 653.550   5
   0  -2   0 4395.18 337.580   6
   0  -2   0 4118.30 325.597   7
   0   2   0 4695.83 344.628   6
   0   2   0 4227.15 333.163   7
   0   3   1-17.3787 67.5085   7
   0   3   1 50.8624 30.7440   2
   0  -3  -1-48.3867 42.1854   7
   0   3   1 16.2566 55.8389   5
   0  -3  -1-20.9807 30.4970   6
   0   4   2 80.9430 54.8766   2
   0   4   2 132.072 120.230   7
   0  -4  -2 343.519 135.836   6
   0  -5  -3 1732.92 368.557   6
   0   5   3 1758.23 369.552   7
   0   5   3 1513.55 230.981   2
   0   6   4 2612.87 507.928   7
   0  -6  -4 2697.18 516.150   6
   0   7   5 1447.62 414.789   7
   0  -7  -5 2037.53 495.597   6
   0   8   6 346.551 228.101   7
   0  -8  -6-217.156 176.768   6
   0  -9  -7 1723.86 595.979   6
   0   9   7 1416.06 498.410   7
   1   7   9-273.876 214.254   7
  -1  -7  -9-62.5109 109.718   6
   1   6   8 9.02542 56.7169   7
  -1  -6  -8 394.254 246.586   6
   1   5   7 2224.11 492.308   7
  -1  -5  -7 1989.66 463.784   6
  -1  -4  -6 13576.2 1028.38   5
   1   4   6 12724.9 1078.54   7
  -1  -3  -5 11957.1 838.524   5
   1   3   5 11635.0 931.746   7
   1   2   4 20490.2 1003.30   4
   1   2   4 21231.7 950.603   5
  -1  -2  -4 21074.7 944.999   5
   1   2   4 21295.9 1097.91   7
   1   1   3 19446.6 840.799   4
  -1  -1  -3 19933.9 829.064   4
  -1  -1  -3 20926.0 817.419   2
  -1  -1  -3 19526.4 720.683   5
   1   1   3 19195.0 708.531   5
   1   1   3 20690.7 800.585   2
  -1   0  -2 6177.36 383.379   4
   1   0   2 6535.64 282.416   5
   1   0   2 6324.23 380.545   4
   1   0   2 6115.35 368.538   2
  -1   0  -2 6363.74 277.413   5
  -1   0  -2 6225.85 372.969   2
  -1   1  -1 10438.5 377.728   2
   1  -1   1 10240.2 365.734   2
   1  -1   1 9927.56 377.243   3
  -1   1  -1 10577.6 390.594   3
  -1   2   0 277524. 2402.12   5
  -1   2   0 280541. 2223.64   6
   1  -2   0 281632. 2203.52   6
  -1   3   1 15139.7 732.482   5
  -1   3   1 14278.8 680.673   7
   1  -3  -1 14151.1 687.324   6
   1  -3  -1 14152.3 665.372   7
   1  -4  -2 22691.7 1062.50   6
   1  -4  -2 22089.7 623.596   1
  -1   4   2 22562.7 1018.68   7
  -1   5   3 53572.5 1826.93   7
   1  -5  -3 55792.0 1951.83   6
   1  -6  -4 1631.96 381.561   6
  -1   6   4 1435.33 354.542   7
   1  -7  -5 1711.76 432.411   6
  -1   7   5 1533.04 389.230   7
   1  -8  -6 312.454 185.272   6
  -1   8   6-71.3797 61.0094   7
   1  -9  -7 95.9068 117.836   6
  -1   9   7 80.3813 153.878   7
   2   6   8 103.677 233.460   7
  -2  -6  -8 261.158 194.890   6
  -2  -5  -7 972.741 341.764   6
   2   5   7 771.521 321.046   7
   2   4   6 7502.52 925.390   7
  -2  -4  -6 6201.33 767.519   6
   2   3   5 7182.59 736.828   4
   2   3   5 7497.89 833.142   7
   2   3   5 8124.90 736.381   2
  -2  -3  -5 8582.09 806.997   6
   2   2   4 2108.73 349.262   2
   2   2   4 2523.94 426.019   7
   2   2   4 2214.89 357.614   4
  -2  -2  -4 2427.11 365.486   6
   2   1   3 30747.6 946.766   5
   2   1   3 29084.9 1130.92   4
  -2   0  -2 1465.34 228.535   2
  -2   0  -2 1449.52 226.164   4
   2   0   2 1023.72 184.018   4
   2   0   2 1298.41 220.293   2
   2   0   2 1065.32 119.249   5
  -2   1  -1 104835. 1723.15   2
   2  -1   1 102325. 1716.06   2
  -2   1  -1 107455. 1703.51   3
   2  -1   1 105678. 1667.13   3
   2  -2   0 205978. 1373.10   6
   2  -2   0 203305. 1983.34   2
  -2   2   0 206859. 2405.24   3
  -2   2   0 202811. 2042.88   2
  -2   2   0 209245. 1827.60   5
   2  -2   0 207854. 2380.68   3
   2  -3  -1 13065.9 661.521   5
  -2   3   1 14474.9 679.536   3
   2  -3  -1 14146.3 387.503   2
   2  -3  -1 14030.7 601.107   6
  -2   3   1 13852.1 659.477   5
   2  -4  -2 4452.04 400.061   7
   2  -4  -2 4138.96 439.526   5
   2  -4  -2 4177.01 420.531   6
  -2   5   3 22752.8 1094.40   7
   2  -5  -3 22007.5 1151.01   6
   2  -5  -3 21385.7 1182.60   5
   2  -5  -3 22213.6 843.901   1
  -2   6   4 8698.04 784.477   7
   2  -6  -4 8608.15 544.191   1
   2  -6  -4 9147.48 852.091   6
  -2   7   5 12.8309 118.194   7
   2  -7  -5 222.006 133.909   6
   2  -8  -6 406.962 231.834   6
  -2   8   6 289.855 204.123   7
  -2   9   7 633.567 250.081   7
   2  -9  -7 537.646 331.820   6
  -2  10   8 950.587 386.234   7
  -3  -6  -8 554.549 310.053   6
   3   5   7 165.507 188.688   7
  -3  -5  -7 87.7277 113.497   6
   3   4   6 165.314 146.301   7
  -3  -4  -6 17.2741 95.7772   6
   3   3   5-13.9940 85.4389   7
  -3  -3  -5 103.256 76.6100   6
   3   3   5 23.0658 63.9206   4
   3   3   5-58.1221 154.624   2
   3   2   4 3164.51 459.317   4
  -3  -2  -4 3394.31 470.788   6
   3   2   4 2982.16 509.101   7
   3   2   4 3185.19 485.173   2
  -3  -1  -3 11691.7 743.911   6
   3   1   3 11909.5 798.021   4
   3   1   3 11985.8 869.586   2
   3   1   3 11561.7 608.152   5
   3   0   2 816.736 195.309   4
   3   0   2 752.631 104.041   5
   3   0   2 624.683 186.065   2
  -3   0  -2 750.108 145.639   6
   3  -1   1 40.8505 40.5587   2
  -3   1  -1 53.9507 28.5106   6
   3  -1   1 57.6524 46.2088   4
  -3   2   0 13492.4 403.854   5
   3  -2   0 14079.1 703.309   2
  -3   2   0 14547.0 760.013   3
   3  -3  -1 5377.09 314.325   6
   3  -3  -1 5298.00 386.751   5
   3  -3  -1 5063.78 369.125   2
  -3   3   1 5412.01 381.957   5
  -3   3   1 6053.26 498.442   3
   3  -4  -2 109.703 44.0706   2
   3  -4  -2 129.304 69.9469   7
   3  -4  -2 215.320 102.386   5
  -3   4   2-5.99380 41.7517   3
   3  -5  -3 1544.88 311.906   5
   3  -5  -3 1434.25 248.577   7
   3  -5  -3 1163.05 103.362   2
  -3   5   3 1835.31 304.289   3
   3  -6  -4 396.637 139.846   1
   3  -6  -4 726.657 236.348   6
   3  -6  -4 593.216 224.450   5
   3  -7  -5 1872.96 420.772   6
   3  -7  -5 1960.39 309.245   1
   3  -8  -6 360.235 224.466   6
   3  -9  -7 296.510 215.102   6
   3 -10  -8-77.9602 112.634   6
  -4  -5  -7 74.3212 129.722   6
   4   5   7 364.957 282.412   7
   4   4   6 263.283 197.327   7
  -4  -4  -6 147.961 131.561   6
  -4  -3  -5 675.100 249.914   6
   4   3   5 927.976 354.803   7
   4   3   5 286.183 183.705   2
  -4  -2  -4-25.0802 39.1002   6
   4   2   4 238.711 190.010   7
   4   2   4 281.782 177.278   4
   4   2   4 39.0296 77.7045   2
   4   1   3 763.828 223.960   4
   4   1   3 980.988 289.290   7
   4   1   3 890.669 277.250   2
  -4  -1  -3 891.506 214.450   6
   4   1   3 721.914 151.766   5
   4   0   2 608.845 101.367   5
  -4   0  -2 460.043 126.581   6
   4   0   2 485.233 172.606   4
   4  -1   1 11227.0 828.635   2
  -4   1  -1 11043.7 437.230   6
   4  -1   1 11245.8 754.317   4
  -4   2   0 61873.8 1817.28   3
   4  -2   0 60387.4 1777.55   2
   4  -3  -1 281792. 1609.75   6
  -4   3   1 290432. 2709.34   5
   4  -3  -1 287703. 2648.94   5
   4  -3  -1 283560. 1681.18   6
   4  -3  -1 290724. 3532.45   2
  -4   3   1 287739. 3975.92   3
   4  -4  -2 65532.0 1502.73   2
  -4   4   2 66748.4 1663.82   5
  -4   4   2 70158.7 1999.36   3
   4  -4  -2 68878.9 1682.82   5
  -4   5   3 829.407 230.760   3
   4  -5  -3 896.913 177.992   7
   4  -5  -3 1167.15 267.010   5
   4  -5  -3 880.077 151.654   2
   4  -6  -4 1352.35 296.994   6
   4  -6  -4 1753.51 365.200   5
  -4   6   4 1618.70 327.013   3
   4  -6  -4 1335.85 141.464   2
  -4   7   5 1011.49 297.157   3
   4  -7  -5 750.761 284.584   5
   4  -7  -5 685.898 254.415   6
   4  -7  -5 751.423 215.556   1
  -4   8   6 895.967 310.410   3
   4  -8  -6 574.556 200.897   1
   4  -8  -6 592.984 240.737   6
   4  -9  -7 184.252 152.723   6
  -4   9   7 144.471 126.138   3
   4 -10  -8-342.815 233.503   6
  -4  10   8 678.493 290.467   3
   5   4   6 64.7664 113.193   7
   5   3   5-19.7677 68.8084   7
   5   3   5 122.741 202.414   2
   5   2   4 453.904 202.528   4
   5   2   4 113.545 52.2705   7
  -5  -2  -4 350.887 177.667   6
   5   2   4 334.632 225.216   2
   5   1   3 198.643 111.707   4
  -5  -1  -3 343.592 138.146   6
   5   1   3 83.9777 89.3644   2
   5   1   3 219.074 165.295   7
   5   0   2 1443.32 359.811   7
  -5   0  -2 1039.71 212.966   6
   5   0   2 1434.75 362.506   2
   5   0   2 952.177 250.707   4
   5  -1   1 3625.10 472.219   4
  -5   1  -1 4462.16 315.182   6
   5  -1   1 3942.28 560.426   2
   5  -2   0 204.232 105.155   2
   5  -2   0 138.634 121.856   4
   5  -3  -1 849.872 225.615   2
  -5   3   1 1075.51 270.395   3
   5  -4  -2 646.440 112.907   6
  -5   4   2 743.620 166.437   5
  -5   4   2 823.348 238.656   3
   5  -4  -2 751.039 205.620   2
   5  -4  -2 555.664 153.512   5
   5  -4  -2 665.581 108.892   6
   5  -5  -3 17.7186 48.0683   2
   5  -5  -3 58.0117 57.3028   6
  -5   5   3 90.8606 86.8018   3
   5  -5  -3-69.3369 57.0282   5
   5  -5  -3 58.0502 52.7485   7
  -5   6   4 1908.21 400.698   3
   5  -6  -4 2256.36 360.349   6
   5  -6  -4 1856.48 376.738   5
   5  -6  -4 1768.73 236.728   2
  -5   7   5 978.522 288.796   3
   5  -7  -5 766.655 276.953   5
   5  -7  -5 736.531 230.657   6
   5  -7  -5 659.950 199.213   1
  -5   8   6 857.501 295.836   3
   5  -8  -6 1040.98 312.144   6
   5  -8  -6 644.821 231.839   1
   5  -9  -7 68.3314 68.6369   1
  -5   9   7 35.8784 115.323   3
   5  -9  -7-39.0954 125.770   6
  -5  10   8-553.176 259.630   3
   5 -10  -8 287.144 157.983   6
   6   3   5 21.3871 72.2181   7
   6   2   4 686.737 306.900   2
   6   2   4 368.772 226.997   7
   6   1   3 99.6608 99.1677   4
   6   1   3-234.003 164.882   2
   6   1   3-166.391 144.831   7
   6   0   2 375.107 211.990   2
   6   0   2 413.744 161.830   4
   6   0   2 728.111 247.426   7
   6  -1   1 4469.45 571.688   4
   6  -1   1 3822.72 636.253   2
   6  -1   1 3905.26 557.847   7
   6  -2   0-197.525 137.433   2
   6  -2   0 24.3106 42.1628   4
   6  -3  -1 195.486 153.951   2
  -6   4   2 45373.3 1968.11   3
   6  -4  -2 41437.9 1755.89   2
   6  -5  -3 41555.3 1459.92   5
  -6   5   3 41173.7 1892.03   3
   6  -5  -3 40677.9 1585.01   2
  -6   6   4 3082.02 520.334   3
   6  -6  -4 2782.01 445.806   5
   6  -6  -4 2139.76 334.180   2
   6  -7  -5 25.0371 56.4876   6
   6  -7  -5 187.219 103.555   5
  -6   7   5-4.01728 96.0492   3
  -6   8   6 196.263 157.157   3
   6  -8  -6-103.104 100.473   6
   6  -8  -6 152.436 152.071   1
  -6   9   7-3.57679 65.6434   3
   6  -9  -7 121.378 123.635   1
  -6  10   8 122.693 133.351   3
   7   2   4 45.3995 203.263   7
   7   1   3 174.734 157.861   7
   7   1   3-92.0607 140.502   2
   7   0   2 231.669 189.578   7
   7   0   2 97.9568 55.0716   2
   7  -1   1-20.9188 36.3941   7
   7  -1   1 87.8100 106.718   2
   7  -2   0 912.702 332.342   2
   7  -2   0 813.175 248.726   7
   7  -2   0 1316.43 326.910   4
   7  -3  -1 58.0473 45.6507   4
   7  -3  -1 152.007 106.136   2
   7  -4  -2 177.838 177.698   2
  -7   5   3 346.725 200.320   3
   7  -5  -3 120.704 100.858   2
  -7   6   4-22.1189 89.0146   3
   7  -6  -4 354.227 174.700   2
  -7   7   5 85.1346 161.225   3
   7  -8  -6 259.882 76.7524   1
  -7   8   6 31.9382 61.0556   3
   7  -9  -7 325.011 238.126   1
  -7   9   7 454.222 241.815   3
   8  -1   1-126.615 144.567   2
   8  -2   0 257.217 191.570   2
   8  -3  -1 839.302 313.278   2
   8  -4  -2 164.601 169.139   2
   8  -5  -3 1404.60 377.364   2
  -8   6   4 6479.14 887.399   3
  -8   7   5 1401.89 428.357   3
  -8   8   6 165.753 183.529   3
   9  -4  -2-126.066 137.448   2
   9  -5  -3-139.037 152.267   2
   9  -4  -7-49.7705 94.2398   2
   9  -3  -6 97.4251 123.502   2
  -8   8  11-436.986 235.933   3
  -8   7  10 69.0171 71.9554   3
   8  -6  -9 192.562 179.710   1
   8  -5  -8 590.144 261.405   1
   8  -5  -8 410.933 222.431   2
   8  -4  -7 214.370 164.505   2
   8  -3  -6-90.5228 113.518   2
   8  -2  -5 76.0206 188.793   2
   8  -1  -4 105.210 101.074   2
   8   0  -3-13.1378 75.8411   2
   7  -8 -11 197.610 211.340   1
   7  -8 -11 142.540 148.917   5
  -7   8  11 5.18205 79.5660   3
  -7   7  10-82.9761 101.486   3
   7  -7 -10-17.0186 62.1133   5
   7  -7 -10 90.5980 115.564   1
   7  -6  -9 88.2769 71.6758   1
  -7   6   9 222.004 132.729   3
   7  -6  -9 36.4873 59.6829   5
  -7   5   8 20.6343 123.682   3
   7  -5  -8-52.7584 73.7435   5
   7  -4  -7-78.9000 125.574   2
   7  -4  -7 184.115 132.621   5
   7  -3  -6-373.379 197.767   2
   7  -2  -5 807.628 312.415   2
   7  -1  -4 323.752 221.251   2
   7   0  -3 375.588 236.272   2
   7   1  -2-227.702 184.859   2
   7   2  -1 50.5803 87.5222   7
   7   2  -1-91.0065 129.767   2
   7   3   0 200.587 208.028   7
  -6   8  11 602.509 270.603   3
   6  -8 -11 1172.72 432.957   5
  -6   7  10 112.451 60.1813   3
   6  -7 -10-103.115 118.925   5
  -6   6   9 1019.49 284.806   3
   6  -6  -9 1318.84 371.681   5
   6  -6  -9 966.284 323.150   1
  -6   5   8 686.839 235.371   3
   6  -5  -8 308.743 123.214   1
   6  -5  -8 488.442 225.042   5
   6  -4  -7 370.353 204.966   1
  -6   4   7 247.147 166.726   3
   6  -4  -7 326.718 170.740   5
   6  -3  -6 527.072 183.740   5
   6  -2  -5 8.94544 77.1768   5
   6  -1  -4 7.65133 43.9141   5
   6  -1  -4 5.83050 64.9581   7
   6  -1  -4 24.9289 29.6829   4
   6  -1  -4-6.73498 114.421   2
  -6   0   3 920.709 226.189   6
   6   0  -3 851.752 309.604   2
   6   0  -3 588.100 196.769   7
   6   1  -2-66.4031 129.604   7
  -6  -1   2-51.2532 45.4850   6
   6   2  -1 2555.45 520.369   7
   6   2  -1 2388.90 549.433   2
   6   3   0 1503.86 449.806   7
   6   3   0 2292.30 601.852   2
   6   4   1 127.638 178.204   7
   6   4   1 81.4435 131.448   2
   5  -8 -11 1976.38 562.604   5
  -5   8  11 1501.50 378.979   3
   5  -7 -10-42.8889 201.029   5
  -5   7  10 124.122 65.1085   3
   5  -6  -9 3682.58 634.410   5
   5  -6  -9 3862.84 577.739   1
  -5   6   9 3848.42 542.073   3
   5  -5  -8 2675.25 462.495   1
   5  -5  -8 2517.62 478.689   5
  -5   5   8 2411.90 418.823   3
   5  -4  -7 210.632 141.367   5
  -5   4   7 63.0899 31.0565   3
   5  -4  -7 169.166 107.120   1
  -5   3   6 498.246 188.128   3
   5  -3  -6 716.166 207.801   5
   5  -2  -5 1624.23 282.668   5
   5  -1  -4 1536.94 264.361   6
   5  -1  -4 2038.67 263.540   4
   5  -1  -4 1971.29 291.420   5
   5  -1  -4 2130.47 255.717   7
   5   0  -3 4973.31 381.520   4
  -5   0   3 5326.10 511.788   6
   5   0  -3 5422.98 468.987   5
   5   0  -3 5277.77 517.668   7
   5   0  -3 5634.60 688.416   2
   5   1  -2 4527.02 567.578   7
  -5  -1   2 4159.41 495.517   6
   5   1  -2 3963.63 369.081   4
   5   1  -2 4635.06 660.170   2
   5   2  -1 932.365 300.499   7
   5   2  -1 684.789 270.445   2
  -5  -2   1 605.998 203.363   6
   5   3   0 1049.27 355.395   2
   5   3   0 634.221 302.161   7
  -5  -3   0 600.944 224.013   6
   5   4   1-33.3126 112.558   7
   5   4   1-14.7148 140.726   2
  -5  -4  -1 63.1140 65.2327   6
   5   5   2 1373.17 448.724   2
  -5  -5  -2 764.266 312.318   6
   5   5   2 1781.96 530.466   7
   4  -8 -11-63.5149 193.180   5
   4  -7 -10 4895.57 808.496   5
  -4   7  10 4781.30 605.237   3
   4  -6  -9 508.920 220.033   5
  -4   6   9 1072.72 240.187   7
  -4   6   9 955.181 254.522   3
  -4   5   8 635.893 202.972   3
   4  -5  -8 426.212 163.642   1
   4  -5  -8 549.211 223.165   5
   4  -4  -7 5589.10 594.776   1
   4  -4  -7 5922.45 661.157   5
  -4   4   7 5609.94 561.484   3
  -4   3   6 1038.42 224.448   3
   4  -3  -6 1177.32 258.796   1
   4  -3  -6 966.134 243.665   5
  -4   2   5 1517.71 275.170   3
   4  -2  -5 1787.91 287.082   6
   4  -2  -5 1505.00 268.841   5
   4  -1  -4 655.684 176.319   5
   4  -1  -4 985.252 194.117   6
   4  -1  -4 686.866 108.893   7
   4   0  -3 1418.69 172.706   4
   4   0  -3 1061.62 196.138   7
  -4   0   3 1185.53 221.951   6
   4   0  -3 1478.74 239.225   6
   4   0  -3 1440.62 232.543   5
   4   1  -2 5745.28 391.243   4
  -4  -1   2 6200.63 556.603   6
   4   1  -2 5951.44 585.581   7
   4   1  -2 6346.88 678.399   2
   4   2  -1 9113.78 858.061   2
  -4  -2   1 9177.29 759.939   6
   4   2  -1 9054.26 824.079   7
  -4  -2   1 8795.30 603.556   4
   4   3   0 5965.88 750.731   7
  -4  -3   0 6090.87 703.182   6
   4   3   0 5292.87 683.034   2
   4   4   1 12820.2 1216.91   7
  -4  -4  -1 13197.9 1129.11   6
   4   4   1 12022.3 1096.68   2
  -4  -5  -2 197.999 156.822   6
   4   5   2 277.029 225.649   7
   4   5   2 161.599 177.610   2
  -4  -6  -3 10.7784 51.3344   6
   4   6   3 69.9651 88.9146   2
   4   6   3 166.540 119.290   7
   4   7   4-102.651 192.419   2
  -4  -7  -4-358.933 241.887   6
   3  -8 -11 220.778 198.567   5
   3  -7 -10 5454.30 864.482   5
  -3   7  10 5873.91 735.433   7
  -3   6   9 401.092 168.457   7
   3  -6  -9 393.597 197.116   5
  -3   6   9 396.396 153.074   3
  -3   5   8 574.457 183.577   3
  -3   5   8 507.166 175.295   7
   3  -5  -8 655.663 241.064   5
   3  -4  -7 8082.34 654.230   1
   3  -4  -7 9838.40 857.915   5
  -3   4   7 9037.32 628.978   3
  -3   4   7 8934.12 565.866   7
  -3   3   6 6457.01 347.420   7
   3  -3  -6 6990.60 647.659   5
   3  -3  -6 6482.07 567.231   1
  -3   3   6 6194.79 493.751   3
   3  -2  -5 20800.4 969.391   1
   3  -2  -5 19847.3 966.004   5
   3  -2  -5 21402.8 867.636   3
  -3   2   5 21475.1 874.456   3
   3  -1  -4 492.826 132.853   5
   3  -1  -4 585.839 136.856   6
   3   0  -3 67760.3 1509.11   6
   3   0  -3 67047.1 961.750   4
  -3   0   3 70034.9 1555.62   6
   3   0  -3 71652.8 1533.51   5
   3   0  -3 68095.4 1287.42   7
  -3  -1   2 6026.89 492.377   6
   3   1  -2 5918.52 488.529   6
   3   1  -2 5943.88 317.100   4
   3   1  -2 6110.04 507.203   7
  -3  -2   1 58667.3 1354.34   4
   3   2  -1 57316.1 1853.23   7
   3   2  -1 57018.0 1881.49   2
  -3  -2   1 57064.1 1757.23   6
   3   3   0 53.1780 113.515   2
   3   3   0 156.324 149.804   7
  -3  -3   0 61.3251 29.1171   6
   3   4   1 1981.90 397.014   2
  -3  -4  -1 1709.99 397.168   6
   3   5   2 25.3675 73.5927   2
  -3  -5  -2 204.435 192.699   6
   3   5   2 188.796 167.558   7
  -3  -6  -3 141.032 136.486   6
   3   6   3 106.694 128.746   7
   3   7   4 716.817 283.519   2
   3   7   4 710.134 438.852   7
  -3  -7  -4 517.729 283.872   6
  -2   8  11 544.662 279.107   7
   2  -8 -11-66.8169 116.971   6
   2  -8 -11 454.797 257.190   5
  -2   7  10 1627.23 418.765   7
   2  -7 -10 1322.23 426.268   5
  -2   6   9 227.019 110.583   7
   2  -6  -9 323.600 231.788   5
   2  -5  -8 540.572 256.924   5
  -2   5   8 988.330 264.726   7
   2  -4  -7 13299.9 1005.82   5
  -2   4   7 12473.3 804.179   7
   2  -3  -6 9662.64 760.755   5
  -2   3   6 9624.90 542.807   3
  -2   3   6 9193.93 563.127   7
  -2   2   5 77.7030 39.6059   7
  -2   2   5 151.704 63.3204   3
   2  -2  -5 119.313 95.8194   5
   2  -2  -5 197.426 103.363   1
  -2   1   4 66158.7 1217.89   3
   2  -1  -4 65710.5 1511.44   5
   2  -1  -4 67168.8 1237.01   3
  -2   1   4 66303.0 1506.98   5
   2  -1  -4 65580.1 1427.76   1
   2   0  -3 13170.6 566.743   3
  -2   0   3 13020.4 612.570   6
   2   0  -3 13634.4 622.143   6
  -2   0   3 13238.9 434.348   7
   2   0  -3 12719.0 602.892   5
  -2  -1   2 57031.7 1271.87   7
   2   1  -2 55336.1 1264.53   7
  -2  -1   2 52270.0 692.618   4
  -2  -1   2 57582.1 1361.74   6
   2   1  -2 57153.7 1325.84   6
  -2  -2   1 11746.0 707.994   6
   2   2  -1 11323.0 718.292   7
  -2  -2   1 10940.4 502.634   4
   2   2  -1 12154.1 713.098   6
   2   3   0 3669.11 484.346   7
  -2  -3   0 3793.13 377.712   4
   2   3   0 3810.78 439.601   2
  -2  -3   0 3636.87 454.046   6
  -2  -4  -1 5233.39 622.048   6
   2   4   1 5997.87 699.896   7
   2   4   1 5017.77 546.313   2
   2   5   2 46016.2 2187.59   7
  -2  -5  -2 44070.3 2031.87   6
   2   5   2 45013.3 1787.80   2
   2   6   3 12402.4 1245.27   7
  -2  -6  -3 12246.2 1186.98   6
   2   6   3 11353.9 946.218   2
   2   7   4 202.381 133.901   2
  -2  -7  -4 88.3781 97.3187   6
   2   7   4 452.473 291.088   7
  -2  -8  -5 435.002 238.359   6
   2   8   5 591.410 317.167   7
  -1   8  11-68.9783 107.719   7
  -1   7  10 186.955 159.789   7
   1  -7 -10-307.589 215.977   6
   1  -7 -10 226.907 211.063   5
   1  -6  -9 111.823 57.4703   5
  -1   6   9 118.216 171.092   7
   1  -5  -8 5752.64 750.166   5
  -1   5   8 6639.92 753.948   7
   1  -4  -7 2780.75 458.201   5
  -1   4   7 2504.21 406.710   7
   1  -3  -6 9623.21 764.581   5
  -1   3   6 8908.37 667.319   7
   1  -2  -5 443.241 141.061   4
   1  -2  -5 540.342 142.392   5
  -1   2   5 492.968 123.231   1
  -1   1   4 7286.53 286.906   3
   1  -1  -4 6882.18 425.026   4
  -1   1   4 7000.94 411.618   1
   1  -1  -4 6946.30 479.408   5
  -1   1   4 7658.09 492.383   5
   1   0  -3 388377. 2055.39   3
  -1   0   3 386082. 2116.25   4
   1   0  -3 385713. 3030.18   5
   1   0  -3 391519. 2099.32   4
  -1   0   3 389977. 2705.50   1
   1   0  -3 381820. 3074.09   6
   1   0  -3 391255. 2637.37   1
   1   1  -2 288.262 59.6724   1
  -1  -1   2 320.310 90.4941   6
  -1  -1   2 174.307 67.6286   7
   1   1  -2 323.759 88.1150   6
   1   2  -1 88072.9 1705.99   6
  -1  -2   1 87831.1 1732.45   6
   1   2  -1 85698.8 1729.34   7
  -1  -2   1 86601.5 1708.58   7
   1   3   0 9407.60 573.306   2
   1   3   0 10138.1 709.607   7
  -1  -3   0 10063.6 689.028   6
  -1  -3   0 9754.89 579.105   4
   1   4   1 8191.60 747.225   7
  -1  -4  -1 9414.62 773.322   6
   1   4   1 8974.68 617.078   2
   1   5   2 11530.0 1000.38   7
   1   5   2 12129.0 784.280   2
  -1  -5  -2 12637.3 1016.02   6
  -1  -6  -3 15569.7 1269.24   6
   1   6   3 17666.5 1012.52   2
   1   6   3 17022.3 1347.04   7
   1   7   4 101.222 177.374   7
  -1  -7  -4 230.956 175.820   6
   1   8   5 156.543 190.128   7
  -1  -8  -5-262.004 196.821   6
   0   7  10 478.874 265.265   7
   0  -7 -10 110.784 137.895   6
   0   6   9 8.19728 73.5752   7
   0  -6  -9 53.4113 64.0386   5
   0  -5  -8 18979.1 1374.77   5
   0   5   8 20341.3 1454.28   7
   0   4   7 3586.07 536.957   7
   0  -4  -7 3301.12 516.069   5
   0   3   6 15901.8 1013.16   7
   0  -3  -6 16393.0 1009.84   5
   0   2   5 57529.3 1653.22   4
   0  -2  -5 58781.4 1661.31   5
   0  -2  -5 57682.7 1385.64   2
   0   1   4 6755.17 470.847   4
   0   1   4 7032.79 470.476   5
   0  -1  -4 7729.18 492.234   4
   0  -1  -4 7187.26 472.573   5
   0   0   3 1833.48 192.345   4
   0   0  -3 2005.42 197.682   4
   0   0  -3 1832.53 194.379   5
   0   0   3 2210.99 210.797   5
   0   1  -2 33252.2 767.831   6
   0  -1   2 32352.2 764.756   6
   0  -2   1 25679.0 809.554   6
   0   2  -1 26084.6 808.550   6
   0  -2   1 26491.5 834.014   7
   0   3   0 3637.44 379.184   7
   0  -3   0 3778.54 383.873   6
   0   3   0 3894.84 391.555   6
   0  -3   0 3964.75 391.877   7
   0   4   1 15662.4 932.506   7
   0  -4  -1 14847.4 901.212   6
   0   4   1 15295.9 621.635   2
   0  -5  -2 16042.7 1076.76   6
   0   5   2 15599.9 709.926   2
   0   5   2 14903.4 1042.54   7
   0   6   3-84.1281 170.734   7
   0  -6  -3-97.4092 91.7682   6
   0   7   4 2223.83 506.814   7
   0  -7  -4 2627.65 538.150   6
   0  -8  -5 1768.83 492.549   6
   0   8   5 1616.91 469.876   7
   0   9   6 264.694 250.689   7
   0  -9  -6 9.50221 69.1117   6
   1   7  10 75.6846 143.781   7
  -1  -7 -10-338.017 241.295   6
   1   6   9 218.553 167.524   7
  -1  -6  -9 379.250 210.636   6
   1   5   8 3779.88 684.195   7
  -1  -5  -8 3237.56 626.713   6
   1   4   7 49.3176 137.800   7
  -1  -4  -7 212.912 169.771   5
   1   3   6-49.4830 67.0949   7
  -1  -3  -6-2.22718 35.5896   5
   1   2   5 3573.20 438.815   4
  -1  -2  -5 3473.29 404.336   5
   1   1   4 36556.8 1242.98   4
  -1  -1  -4 34398.6 1195.54   4
   1   1   4 35644.0 1072.93   5
  -1  -1  -4 35136.5 1130.80   2
  -1  -1  -4 34701.1 1053.13   5
  -1   0  -3 48207.2 1144.81   2
  -1   0  -3 50090.7 1221.76   4
   1   0   3 47799.4 1198.22   4
   1   0   3 48259.4 946.089   5
  -1   0  -3 47571.7 936.049   5
  -1   1  -2 147529. 1640.55   2
  -1   1  -2 149732. 1502.94   3
  -1   1  -2 151922. 1407.20   6
   1  -1   2 147826. 1488.15   3
   1  -2   1 759160. 3615.95   6
  -1   2  -1 765965. 3582.98   6
   1  -3   0 58279.6 1376.56   7
   1  -3   0 58120.2 1329.77   6
  -1   3   0 59670.7 1409.10   5
  -1   3   0 57603.5 1327.90   6
  -1   4   1 7997.01 608.786   7
   1  -4  -1 7848.98 606.607   6
   1  -5  -2 7266.15 689.479   6
  -1   5   2 7384.82 673.586   7
  -1   6   3 9363.63 861.435   7
   1  -6  -3 10234.7 925.683   6
  -1   7   4 4913.95 695.398   7
   1  -7  -4 5742.47 779.492   6
   1  -8  -5 706.435 298.811   6
  -1   8   5 1050.64 380.448   7
  -1   9   6 193.351 85.5596   7
   1  -9  -6 160.383 120.472   6
  -1  10   7 208.916 135.701   7
  -2  -6  -9 169.873 128.694   6
   2   6   9 120.725 81.3351   7
  -2  -5  -8 1138.81 358.743   6
   2   5   8 982.095 397.557   7
   2   4   7 4785.99 752.931   7
  -2  -4  -7 4336.03 653.104   6
   2   3   6 5418.33 737.590   7
   2   3   6 5275.82 653.892   4
  -2  -3  -6 5937.24 697.268   6
   2   2   5 2967.88 447.536   4
  -2  -2  -5 3311.48 409.752   5
   2   1   4 48417.6 1554.33   2
   2   1   4 48141.5 1270.85   5
   2   1   4 48926.5 1577.35   4
  -2  -1  -4 46553.1 1251.40   5
   2   0   3 9938.94 544.378   3
  -2   0  -3 9714.82 635.683   4
   2   0   3 9581.61 623.758   4
   2   0   3 9499.22 419.211   5
   2   0   3 9230.89 619.485   2
  -2   0  -3 9720.17 416.923   5
  -2   1  -2 22731.5 791.061   3
   2  -1   2 22931.3 896.187   4
  -2   1  -2 23076.1 867.073   2
   2  -1   2 23321.7 860.152   2
   2  -1   2 22577.8 780.374   3
  -2   2  -1 73026.1 1309.04   2
   2  -2   1 73521.6 784.677   6
  -2   2  -1 75158.7 1004.84   5
   2  -2   1 72094.5 1283.89   2
  -2   2  -1 73877.1 1457.42   3
   2  -2   1 77933.9 1470.24   3
  -2   3   0 42974.5 783.910   2
  -2   3   0 43116.7 1113.76   5
   2  -3   0 43607.9 750.088   2
   2  -3   0 41647.1 967.247   6
  -2   3   0 43125.3 1189.85   3
   2  -4  -1 2225.29 300.887   6
   2  -4  -1 2306.66 295.980   7
   2  -5  -2 9126.53 717.579   6
   2  -6  -3 378.488 106.412   1
   2  -6  -3 270.463 171.447   6
  -2   7   4 553.034 224.102   7
   2  -7  -4 116.464 100.821   6
   2  -8  -5 3727.86 674.855   6
  -2   8   5 3785.12 639.632   7
   2  -9  -6 110.393 135.750   6
  -2   9   6 134.395 191.739   7
   2 -10  -7-295.343 222.745   6
  -3  -6  -9 632.836 346.315   6
   3   5   8-19.6192 95.5743   7
  -3  -5  -8 98.9199 122.669   6
   3   4   7 393.365 246.920   7
  -3  -4  -7 369.972 188.393   6
  -3  -3  -6 10465.6 967.401   6
   3   3   6 9057.12 909.673   4
   3   3   6 10840.1 1129.03   7
   3   2   5 2914.36 479.866   4
   3   2   5 2892.99 505.758   7
  -3  -2  -5 2798.34 434.667   6
   3   2   5 3165.95 485.443   2
   3   1   4 13431.7 920.670   4
  -3  -1  -4 15322.8 884.950   6
   3   1   4 13134.9 682.951   5
   3   1   4 14349.2 974.823   2
   3   0   3 12583.4 489.674   5
   3   0   3 13752.8 843.965   4
  -3   0  -3 14379.5 691.076   6
   3   0   3 13566.3 877.217   2
   3  -1   2 1572.24 274.700   2
  -3   1  -2 1590.53 154.579   6
   3  -1   2 1275.73 243.360   4
  -3   2  -1 1472.44 248.669   3
   3  -2   1 1957.52 282.973   2
  -3   2  -1 1503.76 246.325   2
  -3   3   0 19724.0 914.850   3
  -3   3   0 18270.6 657.979   5
   3  -3   0 19886.6 759.228   2
   3  -3   0 19018.7 498.658   6
  -3   4   1 7930.54 563.075   5
   3  -4  -1 8604.75 516.198   6
   3  -4  -1 7955.90 393.164   2
  -3   4   1 8511.10 622.888   3
   3  -5  -2 13551.4 774.207   7
  -3   5   2 13711.6 852.972   3
   3  -5  -2 12758.3 789.721   6
   3  -6  -3 1952.78 359.496   6
   3  -7  -4 6731.36 758.537   6
   3  -7  -4 6323.09 544.538   1
   3  -8  -5 1264.25 376.898   6
   3  -9  -6 1143.97 407.716   6
   3 -10  -7-198.049 180.219   6
  -4  -5  -8 85.6082 226.847   6
   4   4   7 296.187 195.170   7
  -4  -4  -7 192.406 169.478   6
  -4  -3  -6 2492.08 498.541   6
   4   3   6 1926.37 462.583   4
   4   3   6 2977.51 639.807   7
   4   2   5 12438.7 1192.97   7
  -4  -2  -5 12479.4 977.075   6
   4   2   5 12819.0 1106.60   2
   4   2   5 13441.8 1087.98   4
   4   1   4 966.797 294.516   7
   4   1   4 1050.91 283.904   4
   4   1   4 981.741 297.033   2
  -4  -1  -4 935.260 225.665   6
  -4   0  -3 943.986 191.074   6
   4   0   3 938.684 259.792   4
   4   0   3 974.418 268.967   2
   4   0   3 959.376 129.484   5
  -4   1  -2 5581.52 333.360   6
   4  -1   2 6486.41 643.504   2
   4  -1   2 5502.55 560.128   4
  -4   2  -1 3746.11 453.286   3
   4  -2   1 3240.33 415.502   2
   4  -3   0 43397.9 1404.07   2
  -4   3   0 41190.3 870.072   5
  -4   3   0 42060.8 1535.67   3
   4  -4  -1 6.95628 32.0205   6
  -4   4   1-66.5816 84.5269   3
   4  -4  -1 11.3222 65.5078   2
  -4   4   1-1.09703 59.5721   5
   4  -5  -2 4537.74 430.343   7
   4  -5  -2 4508.50 344.637   2
  -4   5   2 5326.98 574.196   3
   4  -5  -2 4932.19 448.138   6
   4  -6  -3 462.041 156.086   6
   4  -6  -3 408.311 71.9752   2
  -4   6   3 290.341 133.610   3
  -4   7   4 278.338 171.113   3
   4  -7  -4 69.9777 73.1407   1
   4  -7  -4 276.712 174.852   6
   4  -8  -5 299.241 177.549   6
  -4   8   5 560.993 239.763   3
   4  -8  -5 514.257 181.445   1
   4  -9  -6 100.658 76.1912   6
   4 -10  -7 317.798 205.355   6
   5   3   6 333.660 227.367   7
   5   2   5-48.1865 55.6974   7
   5   2   5 3.14266 94.8454   4
   5   2   5 10.7100 127.590   2
   5   1   4 185.184 161.551   4
   5   1   4 95.1532 145.251   7
  -5  -1  -4 376.432 159.016   6
   5   1   4 139.067 146.401   2
  -5   0  -3 19477.8 938.210   6
   5   0   3 17854.2 1303.75   2
   5   0   3 17506.9 1167.99   4
  -5   1  -2 1225.07 168.550   6
   5  -1   2 1096.40 305.692   2
   5  -1   2 1256.45 295.044   4
   5  -2   1 7576.48 714.225   4
   5  -2   1 7088.09 730.346   2
   5  -3   0 1294.68 303.730   2
  -5   3   0 1421.91 315.212   3
  -5   4   1 1183.83 290.655   3
   5  -4  -1 1714.48 307.038   2
  -5   4   1 1559.56 216.669   5
   5  -5  -2 109.628 78.5882   2
   5  -5  -2 5.71762 40.7600   6
  -5   5   2 45.2267 87.2368   3
   5  -6  -3 2799.77 374.593   6
   5  -6  -3 2880.26 309.601   2
  -5   6   3 2845.03 465.829   3
   5  -7  -4 8.51178 88.2582   6
  -5   7   4 75.0358 110.312   3
   5  -8  -5 361.477 176.232   6
   5  -8  -5 141.706 112.047   1
  -5   8   5 390.829 207.161   3
  -5   9   6 2778.95 545.323   3
   5  -9  -6 2629.60 450.947   1
   5  -9  -6 2525.43 553.873   6
  -5  10   7-7.05548 93.7826   3
   5 -10  -7-422.567 240.763   6
   6   2   5 230.586 177.225   2
   6   2   5 326.828 221.859   7
   6   1   4 296.553 174.682   4
   6   1   4 221.198 177.512   7
   6   1   4 66.2559 130.424   2
   6   0   3 36.3801 48.4471   4
   6   0   3 89.0146 148.468   2
   6   0   3 189.608 176.390   7
   6  -1   2-105.134 65.4283   2
   6  -1   2 235.231 147.303   4
   6  -1   2 105.460 115.564   7
   6  -2   1 2410.85 441.245   4
   6  -2   1 2957.15 513.432   2
   6  -3   0-31.0477 107.546   2
   6  -3   0 202.996 162.559   4
  -6   4   1 32790.0 1693.60   3
   6  -4  -1 34503.7 1588.64   2
   6  -5  -2 21039.8 1168.08   2
  -6   5   2 22874.4 1406.53   3
   6  -6  -3 4772.35 498.235   2
  -6   6   3 4269.98 618.905   3
  -6   7   4 167.988 158.961   3
  -6   8   5 319.555 183.971   3
  -6   9   6 334.673 224.433   3
   6  -9  -6 105.777 115.168   1
  -6  10   7 662.261 300.098   3
   7   1   4 198.662 160.589   7
   7   0   3-68.1496 153.212   7
   7   0   3 233.003 220.459   2
   7  -1   2 976.309 340.096   2
   7  -1   2 617.906 257.797   7
   7  -1   2 622.853 236.579   4
   7  -2   1 2676.85 502.733   4
   7  -2   1 2325.06 451.023   7
   7  -2   1 2391.68 526.453   2
   7  -3   0-77.7713 107.374   2
   7  -3   0-224.199 143.712   4
   7  -4  -1 508.527 246.703   2
   7  -5  -2 372.589 183.518   2
  -7   5   2 536.098 280.841   3
   7  -6  -3-14.1965 38.0280   2
  -7   6   3-200.198 169.187   3
  -7   7   4 1089.85 338.762   3
  -7   8   5 145.124 123.051   3
  -7   9   6-104.665 123.955   3
   7  -9  -6 205.285 157.832   1
   8  -2   1 230.609 180.930   2
   8  -3   0-133.662 178.950   2
   8  -4  -1-19.8048 72.3226   2
   8  -5  -2 2499.56 512.314   2
  -8   6   3 13856.1 1314.26   3
  -8   7   4 4003.56 721.882   3
  -8   8   5 211.849 162.730   3
   8  -9  -6-338.064 216.708   1
   9  -4  -1 164.637 113.836   2
   9  -5  -2 103.651 117.714   2
   9  -4  -8 272.752 176.247   2
   9  -3  -7-32.0083 81.7963   2
  -8   7  11 104.704 116.579   3
   8  -6 -10-283.106 199.439   1
   8  -5  -9 59.2804 91.1782   1
   8  -4  -8 1029.41 374.777   1
   8  -4  -8 1127.48 358.311   2
   8  -3  -7 81.9449 112.444   2
   8  -2  -6 362.295 218.566   2
   8  -1  -5 772.169 347.941   2
   8   0  -4 183.104 72.5555   2
   7  -8 -12 327.820 228.243   5
   7  -8 -12-140.452 253.751   1
   7  -7 -11 523.042 253.325   1
   7  -7 -11 168.982 137.550   5
  -7   7  11 465.179 215.774   3
   7  -6 -10 241.022 169.253   1
  -7   6  10 189.750 154.656   3
   7  -6 -10 234.738 168.548   5
   7  -5  -9 1343.66 392.276   1
  -7   5   9 914.983 314.072   3
   7  -5  -9 605.076 233.014   5
   7  -4  -8 2116.90 496.254   1
   7  -4  -8 2354.37 443.820   5
   7  -2  -6 585.711 264.204   2
   7  -1  -5 341.218 168.733   2
   7   0  -4 2.94364 67.0679   2
   7   1  -3 380.056 248.312   2
   7   2  -2 663.582 331.025   2
   7   3  -1 644.001 299.763   7
   6  -8 -12 298.855 225.108   5
   6  -7 -11 108.785 89.6969   1
   6  -7 -11 75.5181 158.602   5
  -6   6  10 377.580 184.433   3
   6  -6 -10 400.895 192.837   1
   6  -6 -10 554.002 252.198   5
   6  -5  -9 2750.25 514.586   1
  -6   5   9 2943.84 492.828   3
   6  -5  -9 2977.02 537.623   5
   6  -4  -8 70.6258 55.5246   5
  -6   4   8 135.227 100.267   3
   6  -4  -8-16.7433 102.400   1
   6  -3  -7 5532.54 700.217   1
   6  -3  -7 5687.62 627.107   5
   6  -2  -6 170.393 85.4614   5
   6  -1  -5 1952.10 317.402   5
   6   0  -4 1124.23 337.170   2
   6   0  -4 889.422 205.943   5
   6   0  -4 1008.84 233.872   7
  -6   0   4 683.254 189.688   6
  -6  -1   3 3186.60 481.679   6
   6   1  -3 3543.39 639.010   2
   6   1  -3 3477.40 527.119   7
   6   2  -2 1683.31 409.314   7
   6   2  -2 2657.96 557.783   2
  -6  -2   2 2181.81 432.400   6
   6   3  -1-96.1165 118.607   7
   6   3  -1 19.2708 123.186   2
   6   4   0 644.384 351.026   2
   6   4   0 296.122 205.109   7
   5  -8 -12 780.062 343.606   5
  -5   7  11 108.203 101.275   3
   5  -7 -11 133.984 62.4329   5
  -5   6  10 331.890 167.870   3
   5  -6 -10-22.7879 65.9036   5
   5  -6 -10 282.907 175.441   1
  -5   5   9 82.5043 87.6377   3
   5  -5  -9 402.834 206.372   5
   5  -5  -9 470.839 215.035   1
  -5   4   8 195.052 119.398   3
   5  -4  -8 278.247 197.570   5
   5  -4  -8 172.424 118.013   1
  -5   3   7 519.755 210.547   3
   5  -3  -7 408.166 181.418   1
   5  -3  -7 379.118 181.889   5
   5  -2  -6 530.967 165.704   5
   5  -1  -5 24.2827 41.5825   5
  -5   0   4 5817.82 554.454   6
   5   0  -4 5691.49 348.869   4
   5   0  -4 5562.51 516.527   5
   5   0  -4 5209.03 484.336   7
   5   1  -3-102.379 83.9135   7
   5   1  -3-37.5488 154.124   2
   5   1  -3 25.5099 39.3510   4
  -5  -1   3 85.0651 35.1615   6
   5   2  -2 24.2736 92.8082   2
   5   2  -2 55.1536 84.5981   7
  -5  -2   2 48.9222 83.0044   6
   5   3  -1 377.133 205.585   2
  -5  -3   1 521.689 215.188   6
   5   3  -1 307.760 159.521   7
  -5  -4   0 126.141 122.759   6
   5   4   0 174.808 69.7996   2
   5   4   0 275.356 188.347   7
  -5  -5  -1 239.178 164.766   6
   5   5   1 140.828 154.034   7
   5   5   1 483.291 266.571   2
   5   6   2 536.800 301.069   2
  -5  -6  -2 226.904 191.312   6
   4  -8 -12 588.092 317.302   5
  -4   7  11 2577.31 440.977   3
   4  -7 -11 2749.02 634.284   5
  -4   6  10 445.033 178.943   3
   4  -6 -10 352.463 214.392   5
  -4   5   9 3190.69 355.578   7
   4  -5  -9 3412.37 592.543   5
   4  -5  -9 3150.38 483.442   1
  -4   5   9 2930.12 406.030   3
   4  -4  -8 2819.75 434.619   1
  -4   4   8 1864.71 312.931   3
   4  -4  -8 2169.74 433.163   5
   4  -3  -7 301.936 140.467   1
  -4   3   7 170.661 97.7046   3
   4  -3  -7 245.332 123.177   5
   4  -2  -6 355.764 140.778   5
   4  -2  -6 453.595 156.475   1
  -4   2   6 230.065 103.880   3
   4  -1  -5 1056.70 231.736   5
   4   0  -4 4532.19 384.158   7
  -4   0   4 4400.62 450.510   6
   4   0  -4 4539.46 261.049   4
   4   0  -4 4653.31 453.580   5
   4   1  -3 12089.1 787.512   7
  -4  -1   3 13400.2 849.320   6
   4   1  -3 12159.5 449.966   4
   4   2  -2 5756.01 626.422   7
  -4  -2   2 6302.70 631.840   6
   4   2  -2 6323.91 713.919   2
   4   3  -1 2126.55 436.726   2
   4   3  -1 2186.55 450.660   7
  -4  -3   1 2190.35 408.530   6
   4   4   0 7279.70 902.812   7
  -4  -4   0 8730.15 924.522   6
   4   4   0 8781.10 927.668   2
   4   5   1 605.397 301.487   7
   4   5   1 752.802 274.779   2
  -4  -5  -1 447.107 249.258   6
  -4  -6  -2 228.201 177.758   6
   4   6   2-37.4653 117.192   2
  -4  -7  -3 399.078 290.888   6
   4   7   3 43.1002 167.458   2
   3  -8 -12 79.0620 89.1902   5
  -3   7  11 1142.14 299.719   3
  -3   7  11 834.219 289.353   7
   3  -7 -11 882.578 407.102   5
  -3   6  10 1473.29 311.923   3
  -3   6  10 1192.03 310.755   7
   3  -6 -10 1489.65 423.388   5
  -3   5   9 7807.06 678.572   7
   3  -5  -9 7892.41 883.126   5
  -3   5   9 7922.11 632.684   3
  -3   4   8 190.627 87.5403   7
   3  -4  -8 204.661 138.742   5
  -3   4   8 96.1859 76.0184   3
  -3   3   7 4823.86 343.537   7
   3  -3  -7 4907.33 507.920   1
   3  -3  -7 4892.03 567.753   5
  -3   3   7 4565.13 417.531   3
   3  -2  -6 240.261 119.276   5
   3  -2  -6 188.142 76.7026   3
  -3   2   6 217.621 45.9122   7
  -3   2   6 287.787 99.7758   3
   3  -2  -6 160.144 86.1044   1
   3  -1  -5 1211.26 233.058   6
   3  -1  -5 1076.57 197.647   1
   3  -1  -5 1130.21 224.995   5
   3  -1  -5 1124.82 199.157   3
  -3   0   4 6212.62 363.808   7
  -3   0   4 7243.28 540.756   6
   3   0  -4 7027.64 529.978   6
   3   0  -4 6400.86 513.057   5
   3   1  -3 71550.8 1637.44   7
  -3  -1   3 67260.4 1586.40   7
  -3  -1   3 69413.4 1762.80   6
   3   1  -3 71944.8 1733.12   6
   3   2  -2 8148.30 667.328   7
  -3  -2   2 8476.33 442.712   4
  -3  -2   2 8261.50 666.981   6
  -3  -3   1 374.492 160.241   6
  -3  -3   1 231.851 94.6487   4
   3   3  -1 216.761 143.109   7
   3   3  -1 200.232 126.014   2
   3   4   0 249.452 138.738   2
  -3  -4   0 246.886 117.780   6
   3   4   0 628.065 276.353   7
   3   5   1 41.1060 67.4140   7
  -3  -5  -1 246.579 142.365   6
   3   5   1 282.303 166.984   2
   3   6   2 515.114 286.641   7
  -3  -6  -2 302.305 204.086   6
   3   6   2 464.178 203.768   2
   3   7   3 467.509 332.020   7
  -3  -7  -3 831.615 363.203   6
   3   7   3 880.356 296.271   2
  -2   8  12 21.6962 64.9371   7
  -2   7  11 164.996 123.901   7
   2  -7 -11 85.0784 119.938   5
   2  -6 -10 2717.11 573.281   5
  -2   6  10 2941.16 530.170   7
  -2   5   9 368.408 169.734   7
   2  -5  -9 536.632 217.294   5
  -2   4   8 1745.21 326.498   7
   2  -4  -8 2527.46 454.453   5
   2  -3  -7 7274.21 698.211   5
  -2   3   7 6968.66 534.527   7
  -2   3   7 7633.92 481.847   3
   2  -2  -6 14282.1 742.040   1
   2  -2  -6 14158.0 863.463   5
  -2   2   6 16213.4 633.301   3
  -2   1   5 69522.4 1226.49   3
   2  -1  -5 69833.0 1545.16   1
  -2   1   5 73004.1 1731.55   5
   2  -1  -5 71733.7 1719.54   5
   2  -1  -5 67326.1 1363.29   4
  -2   1   5 69225.8 1556.54   1
   2  -1  -5 70310.7 1225.38   3
   2   0  -4 18525.1 659.072   3
   2   0  -4 17969.3 453.907   4
   2   0  -4 17674.7 726.253   1
  -2   0   4 18514.4 810.472   6
  -2   0   4 18932.4 553.345   7
   2   0  -4 17754.0 791.642   5
   2   0  -4 19667.4 833.861   6
  -2  -1   3 123751. 1857.13   7
   2   1  -3 123869. 1793.27   1
   2   1  -3 125930. 2089.86   6
  -2  -1   3 124405. 2139.28   6
  -2  -2   2 47464.0 1453.95   6
  -2  -2   2 45970.3 1394.64   7
   2   2  -2 47825.3 1429.76   7
   2   2  -2 47805.3 1433.00   6
  -2  -2   2 46746.7 878.039   4
  -2  -3   1 53808.9 1748.31   6
   2   3  -1 53426.1 1661.92   2
   2   3  -1 51662.3 1752.22   7
  -2  -3   1 50971.4 1298.50   4
   2   4   0 187.872 108.459   2
  -2  -4   0 330.021 159.124   6
   2   4   0 0.88928 89.9916   7
   2   5   1 36178.5 1878.12   7
  -2  -5  -1 33975.5 1759.72   6
   2   5   1 37721.4 1598.60   2
   2   6   2-21.7873 73.8333   7
   2   6   2-17.6172 99.0047   2
  -2  -6  -2 27.0044 93.0268   6
  -2  -7  -3 75.9371 123.891   6
   2   7   3 47.1362 101.813   2
   2   7   3 353.321 303.895   7
  -2  -8  -4 77.9959 120.043   6
   2   8   4 4.02472 53.1182   7
  -1   8  12-465.746 270.871   7
  -1   7  11 13.8019 120.488   7
   1  -7 -11-10.4478 186.216   5
  -1   6  10 560.356 290.556   7
   1  -6 -10 440.265 232.999   5
   1  -5  -9 4358.22 680.836   5
  -1   5   9 4304.73 631.369   7
   1  -4  -8-13.7552 47.4692   5
  -1   4   8-50.8126 102.453   7
  -1   3   7 1965.84 323.507   7
   1  -3  -7 1952.09 363.964   5
   1  -2  -6 26634.5 1167.92   5
  -1   1   5 85988.1 1691.38   4
   1  -1  -5 88136.9 1686.64   4
  -1   1   5 94625.1 1655.32   1
   1  -1  -5 92149.2 1915.39   5
  -1   1   5 93470.7 1907.39   5
  -1   1   5 91508.1 992.538   3
  -1   0   4 84336.1 1393.53   1
   1   0  -4 83121.9 1217.19   4
   1   0  -4 85434.4 1649.19   6
   1   0  -4 80993.7 1584.54   5
  -1   0   4 80521.5 1568.13   5
  -1   0   4 80525.4 1216.50   4
   1   0  -4 83304.3 901.821   3
  -1  -1   3 21088.1 610.658   1
  -1  -1   3 22642.8 440.799   4
   1   1  -3 22720.5 806.209   6
  -1  -1   3 21391.4 803.161   6
   1   2  -2 6184.97 455.884   6
   1   2  -2 5554.18 438.546   7
  -1  -2   2 5791.51 453.332   6
   1   2  -2 5911.03 263.045   1
  -1  -2   2 5601.62 427.683   7
  -1  -3   1 92999.8 2109.29   6
   1   3  -1 89077.5 767.534   1
   1   3  -1 91199.9 2098.50   7
   1   4   0 6993.14 673.932   7
  -1  -4   0 5869.61 603.378   6
   1   4   0 6305.57 507.463   2
   1   5   1 1298.31 332.020   7
   1   5   1 1061.43 234.876   2
  -1  -5  -1 1387.04 319.232   6
  -1  -6  -2 3249.35 568.983   6
   1   6   2 2676.17 387.184   2
   1   6   2 2269.60 510.519   7
  -1  -7  -3 1240.24 380.265   6
   1   7   3 1501.00 453.427   7
   1   7   3 1609.17 330.804   2
   1   8   4 136.202 139.200   7
  -1  -8  -4-17.7565 130.925   6
   1   9   5 1148.61 428.241   7
   0   7  11-346.921 236.072   7
   0  -7 -11 28.4363 80.3612   6
   0   6  10 2033.64 508.467   7
   0  -6 -10 1701.11 474.525   5
   0   5   9 990.279 337.421   7
   0  -5  -9 721.856 310.850   5
   0   4   8 122.909 93.2790   7
   0  -4  -8 60.9373 46.4391   5
   0   3   7 14127.7 992.414   7
   0  -3  -7 13716.2 964.683   5
   0  -2  -6 14909.8 877.925   5
   0   2   6 13847.0 881.877   4
   0   1   5 3575.28 383.928   4
   0   1   5 3036.49 341.349   5
   0  -1  -5 3646.47 378.671   4
   0  -1  -5 3787.16 375.407   5
   0   0   4 72651.0 1418.10   4
   0   0  -4 72527.5 1386.69   4
   0   0  -4 72245.0 1415.83   5
   0   0   4 73786.8 1414.51   5
   0   1  -3 71323.8 1298.35   6
   0  -1   3 70217.6 1165.46   4
   0  -2   2 2209.98 245.465   6
   0   2  -2 1740.88 216.923   6
   0   3  -1 20510.2 879.348   6
   0  -3   1 20519.2 896.192   7
   0  -3   1 19525.7 868.155   6
   0  -4   0 29405.8 1255.15   6
   0   4   0 29195.5 1264.67   7
   0   4   0 28347.7 841.674   2
   0  -5  -1 6776.01 685.628   6
   0   5   1 6703.77 698.033   7
   0   5   1 7274.06 473.689   2
   0  -6  -2 16536.7 1216.14   6
   0   6   2 16969.4 796.238   2
   0   6   2 15136.3 1170.60   7
   0  -7  -3 26809.0 1700.34   6
   0   7   3 25259.6 1677.45   7
   0   8   4 2996.38 625.992   7
   0  -8  -4 2342.31 550.648   6
   0   9   5-262.305 203.552   7
   0  -9  -5 426.668 268.035   6
   1   6  10 70.7822 110.658   7
  -1  -6 -10-95.7217 158.779   6
  -1  -5  -9 396.171 262.205   6
   1   5   9 267.281 174.009   7
  -1  -5  -9 259.616 162.619   5
  -1  -4  -8 4072.71 604.410   5
   1   4   8 4405.88 698.054   7
   1   3   7 16148.6 1175.35   7
  -1  -3  -7 14675.9 1013.54   5
   1   3   7 15684.3 1124.83   4
  -1  -2  -6 3360.56 425.107   5
   1   2   6 2319.92 391.787   4
   1   1   5 4559.78 479.735   4
  -1  -1  -5 4011.78 388.651   5
   1   1   5 3913.93 394.589   5
  -1   0  -4 40.0222 40.9198   5
  -1   0  -4 66.8027 63.1357   2
   1   0   4 35.1460 18.1205   5
  -1   0  -4 17.9131 42.1185   4
   1   0   4 81.3631 70.4742   4
   1   0   4 71.8440 41.3680   3
   1  -1   3 101099. 1739.42   4
  -1   1  -3 96836.7 1432.13   6
  -1   1  -3 100570. 1339.47   5
   1  -1   3 101807. 1241.20   3
  -1   1  -3 100387. 1245.04   3
   1  -2   2 377.822 102.433   6
  -1   2  -2 310.096 80.2141   6
   1  -3   1 2009.23 247.551   6
  -1   3  -1 1996.90 242.865   6
   1  -4   0 4740.52 454.795   6
  -1   4   0 4608.76 447.136   6
  -1   4   0 4695.52 202.303   2
   1  -5  -1 4974.22 276.844   1
   1  -5  -1 5512.20 574.281   6
  -1   5   1 5181.97 243.873   2
   1  -6  -2 199.926 101.938   6
  -1   6   2 257.433 109.039   7
  -1   7   3 5749.76 742.389   7
   1  -7  -3 6156.27 784.900   6
  -1   8   4 1256.63 382.012   7
   1  -8  -4 1059.21 366.044   6
  -1   9   5 29.5278 72.4403   7
   1  -9  -5 31.3827 174.201   6
  -1  10   6 958.413 391.832   7
   2   6  10 357.918 251.315   7
  -2  -6 -10 230.845 204.578   6
   2   5   9 330.353 266.547   7
  -2  -5  -9 149.424 177.845   6
   2   4   8 3454.86 679.684   7
  -2  -4  -8 3296.30 596.954   6
   2   3   7 9411.88 994.441   7
   2   3   7 8744.86 888.933   4
  -2  -3  -7 8995.52 810.713   5
   2   2   6 2585.80 421.358   4
  -2  -2  -6 2660.73 380.951   5
   2   1   5 3297.77 438.819   4
  -2  -1  -5 3334.48 359.168   5
   2   1   5 3163.04 351.113   5
   2   0   4 8443.12 513.323   3
   2   0   4 8099.80 447.998   5
   2   0   4 7965.74 615.067   4
  -2   0  -4 8715.25 450.953   5
   2   0   4 8361.69 620.914   2
  -2   1  -3 3796.00 326.787   3
   2  -1   3 3602.28 380.569   4
  -2   1  -3 3662.56 216.984   5
  -2   1  -3 3614.70 362.944   2
   2  -1   3 3985.41 384.472   2
   2  -1   3 4246.41 341.700   3
  -2   2  -2 1930.50 151.405   6
  -2   2  -2 1799.62 220.217   2
   2  -2   2 2105.74 247.895   3
  -2   2  -2 1755.34 229.114   3
   2  -3   1 1809.53 199.235   6
  -2   3  -1 1795.80 192.293   6
  -2   3  -1 1863.09 224.881   5
  -2   3  -1 1774.97 183.521   2
  -2   3  -1 1712.55 240.768   3
   2  -4   0 15718.4 748.036   6
  -2   4   0 17308.5 846.481   5
   2  -5  -1 90.6298 74.4943   6
   2  -6  -2 15432.1 1036.51   6
   2  -6  -2 14834.3 675.384   1
   2  -7  -3 2758.30 496.030   6
   2  -7  -3 2928.17 298.083   1
   2  -8  -4 4202.20 684.792   6
   2  -9  -5 2907.69 619.344   6
   2 -10  -6 193.253 248.768   6
   3   5   9 90.2274 134.335   7
  -3  -5  -9-344.017 221.543   6
   3   4   8 295.912 209.500   7
  -3  -4  -8 34.8077 68.2408   6
   3   3   7 1381.02 368.977   4
   3   3   7 1319.60 411.249   7
  -3  -3  -7 1241.71 345.132   6
   3   2   6 1434.59 374.493   7
   3   2   6 1994.42 411.284   4
  -3  -2  -6 1838.94 371.777   6
  -3  -1  -5 3359.09 436.155   6
   3   1   5 3722.04 513.691   4
   3   1   5 3074.35 356.333   5
   3   1   5 3252.02 489.160   2
   3   0   4 1314.59 173.928   5
   3   0   4 1184.96 274.186   4
   3   0   4 1577.56 316.142   2
   3  -1   3 7670.46 628.988   4
   3  -1   3 7389.78 617.751   2
  -3   2  -2 7835.45 579.094   3
   3  -2   2 7970.41 568.362   2
   3  -3   1 102.312 30.2186   6
  -3   3  -1 27.2351 61.2962   3
   3  -3   1 19.7232 57.2950   2
  -3   3  -1 24.0735 15.2469   5
  -3   3  -1 154.253 89.4724   2
   3  -4   0 37155.1 994.721   6
  -3   4   0 36139.7 1149.12   5
   3  -4   0 38280.3 918.601   2
  -3   4   0 38203.0 1324.18   3
  -3   5   1 295.758 124.769   3
   3  -5  -1 297.567 112.741   6
   3  -6  -2 1756.02 338.267   6
   3  -7  -3 148.484 77.2461   1
   3  -7  -3 410.782 168.251   6
   3  -8  -4 5095.08 483.265   1
   3  -8  -4 4478.43 684.905   6
   3  -9  -5 1310.91 390.446   6
   3 -10  -6-141.657 114.240   6
   4   4   8 951.124 399.634   7
  -4  -4  -8 1275.03 416.548   6
   4   3   7 908.136 321.843   4
   4   3   7 990.051 367.441   7
  -4  -3  -7 725.452 263.461   6
   4   2   6 2660.48 522.157   2
   4   2   6 2269.08 478.400   4
  -4  -2  -6 2249.40 435.334   6
   4   2   6 2363.64 555.185   7
  -4  -1  -5 9359.27 767.876   6
   4   1   5 9018.71 866.962   4
   4   1   5 8185.79 854.408   2
   4   0   4 7046.52 387.456   5
  -4   0  -4 8257.17 605.389   6
   4   0   4 7831.68 747.083   4
   4   0   4 7492.36 761.821   2
  -4   1  -3 5634.74 371.703   6
   4  -1   3 5894.92 607.302   4
   4  -1   3 5724.99 618.868   2
   4  -2   2-42.4506 92.0015   2
   4  -2   2 50.1873 52.6532   4
   4  -3   1 1206.95 242.043   2
  -4   3  -1 1074.75 248.122   3
  -4   3  -1 1087.63 111.620   5
   4  -4   0 795.738 172.965   2
  -4   4   0 610.084 150.846   3
   4  -4   0 578.913 93.8871   6
  -4   4   0 631.044 139.444   5
   4  -5  -1 185.971 69.5404   6
  -4   5   1 71.2897 78.4292   3
   4  -5  -1 184.683 69.6687   2
  -4   6   2 11.2872 43.2285   3
   4  -6  -2 10.7825 26.4099   6
  -4   7   3 1736.11 372.788   3
   4  -7  -3 1688.73 354.500   6
   4  -8  -4 463.660 198.592   6
   4  -8  -4 381.007 150.587   1
  -4   8   4 280.718 201.847   3
   4  -9  -5 455.284 202.959   6
   4 -10  -6 1528.11 461.601   6
   5   3   7 356.328 241.000   7
   5   2   6 1174.96 389.637   2
   5   2   6 667.733 300.095   7
   5   2   6 705.613 252.885   4
   5   1   5 9003.48 1017.62   7
   5   1   5 9649.88 987.715   4
   5   1   5 8928.74 993.621   2
  -5   0  -4 2013.48 316.736   6
   5   0   4 2893.38 500.685   4
   5   0   4 2427.04 499.006   2
  -5   1  -3 2404.56 257.648   6
   5  -1   3 2184.22 426.099   4
   5  -1   3 2496.80 466.544   2
   5  -2   2 8740.52 805.685   4
   5  -2   2 10313.0 897.638   2
   5  -3   1 102.864 101.285   2
  -5   3  -1-95.4765 111.402   3
   5  -4   0 104.493 92.3152   2
  -5   4   0-5.15892 38.4753   5
  -5   4   0-1.08594 80.4681   3
  -5   5   1 374.508 152.655   3
   5  -5  -1 454.802 144.980   2
   5  -5  -1 371.910 87.2903   6
  -5   6   2 379.512 190.264   3
   5  -6  -2 277.796 120.589   6
   5  -6  -2 133.860 70.2122   2
   5  -7  -3 4355.50 521.791   6
  -5   7   3 4729.76 630.324   3
   5  -8  -4 373.596 162.441   6
  -5   8   4 827.558 283.069   3
   5  -9  -5 765.811 242.997   1
  -5   9   5 616.207 271.615   3
   5  -9  -5 1167.81 347.622   6
  -5  10   6 1179.87 403.672   3
   5 -10  -6 1089.14 382.849   6
   5 -11  -7-24.8022 110.435   6
   6   2   6 149.854 146.026   4
   6   2   6 678.701 300.937   7
   6   1   5 1167.65 390.186   2
   6   1   5 853.427 327.121   7
   6   1   5 880.249 333.837   4
   6   0   4 4123.39 688.204   7
   6   0   4 5392.07 723.010   4
   6   0   4 4455.71 716.779   2
   6  -1   3 1393.39 362.430   4
   6  -1   3 1339.49 380.035   2
   6  -2   2 526.260 250.463   2
   6  -2   2 818.490 258.392   4
   6  -3   1 44.0702 81.8925   2
   6  -3   1 117.120 152.420   4
   6  -4   0 734.260 259.325   2
  -6   4   0 926.489 338.546   3
   6  -5  -1 4647.52 545.982   2
  -6   5   1 4050.31 605.000   3
  -6   6   2-53.2103 160.341   3
   6  -6  -2-40.6445 95.0546   2
  -6   7   3 1245.48 355.892   3
  -6   8   4 87.9752 172.307   3
   6  -9  -5-2.26618 164.610   1
  -6   9   5 51.6224 110.151   3
  -6  10   6 137.153 163.784   3
   7   1   5-338.608 227.692   7
   7   0   4 641.283 312.848   7
   7   0   4 350.036 284.298   2
   7  -1   3 548.469 236.828   7
   7  -1   3 464.148 218.228   4
   7  -1   3 796.753 321.696   2
   7  -2   2 366.559 159.530   7
   7  -2   2 317.081 188.579   4
   7  -2   2 334.201 242.370   2
   7  -3   1 179.682 142.194   2
   7  -3   1 244.647 168.767   4
   7  -4   0-169.973 132.088   2
   7  -4   0 119.212 114.372   4
   7  -5  -1 37.3031 60.5772   2
  -7   5   1-136.075 183.298   3
  -7   6   2 659.293 295.068   3
   7  -6  -2 199.302 119.992   2
  -7   7   3-3.35309 74.4366   3
  -7   8   4 361.739 186.307   3
   7  -9  -5-3.14986 82.9751   1
  -7   9   5 210.105 176.958   3
   7 -10  -6 445.286 259.652   1
   8  -2   2-51.5076 156.697   2
   8  -3   1 393.763 224.760   2
   8  -4   0-0.91335 75.6975   2
   8  -4   0 17.3717 58.6750   4
   8  -5  -1 666.531 286.722   2
   8  -5  -1 979.483 351.467   4
  -8   6   2 6617.19 912.441   3
  -8   7   3 3431.48 652.829   3
  -8   8   4 174.790 187.043   3
   9  -4   0 165.544 88.3642   2
   9  -5  -1-38.3191 80.1851   2
   9  -4  -9-134.984 142.738   2
   9  -3  -8 366.217 281.400   2
   8  -5 -10-164.383 188.597   1
   8  -4  -9 43.6364 51.7391   2
   8  -4  -9 277.088 204.515   1
   8  -3  -8-75.0436 166.463   1
   8  -3  -8 39.7775 140.407   2
   8  -2  -7 1521.75 438.340   1
   8  -2  -7 2154.61 530.144   2
   8  -1  -6 851.125 353.118   2
   8   0  -5 66.5835 213.407   2
   7  -7 -12-67.4879 104.802   5
   7  -7 -12 166.123 206.106   1
   7  -6 -11 1361.12 412.030   5
   7  -6 -11 1835.76 497.156   1
  -7   6  11 1709.09 401.870   3
   7  -5 -10 302.591 266.990   1
   7  -5 -10 571.532 244.721   5
   7  -4  -9 308.936 196.546   5
   7  -4  -9 503.836 226.674   1
   7  -3  -8 375.099 190.437   1
   7  -3  -8 134.810 107.133   5
   7  -2  -7 2807.77 543.134   1
   7  -1  -6 31.8834 195.023   2
   7   0  -5 167.872 56.3716   2
   7   1  -4 50.6700 87.6612   2
   7   2  -3 232.550 144.004   2
   7   4  -1 373.592 244.593   7
   6  -7 -12 646.989 305.974   5
   6  -6 -11 2823.09 577.196   1
   6  -6 -11 2545.25 574.666   5
  -6   6  11 2799.35 481.679   3
   6  -5 -10-109.510 146.710   1
   6  -5 -10 43.2605 99.7213   5
   6  -4  -9 487.455 198.159   1
   6  -4  -9 536.351 219.277   5
  -6   4   9 449.196 193.959   3
   6  -3  -8-25.4863 55.0859   1
   6  -3  -8 168.086 142.347   5
   6  -2  -7 7845.19 832.109   1
   6  -2  -7 7080.45 694.650   5
   6  -1  -6 5040.13 564.789   5
  -6   0   5 4298.37 534.350   6
   6   0  -5 4113.55 466.366   7
   6   0  -5 4164.74 490.790   5
   6   1  -4 207.985 131.949   7
  -6  -1   4-60.7045 72.1026   6
   6   1  -4 98.3386 79.9902   5
   6   1  -4 66.3331 144.473   2
   6   2  -3 1095.48 349.997   2
   6   2  -3 1233.96 340.962   7
  -6  -2   3 702.036 237.815   6
   6   3  -2-33.2560 101.726   2
   6   3  -2 58.8700 75.1257   7
  -6  -3   2-146.939 127.351   6
   6   4  -1 342.390 189.582   7
   6   4  -1 451.691 271.210   2
   6   5   0-365.294 248.009   7
   5  -7 -12 665.094 315.709   5
  -5   6  11 63.3671 47.5362   3
   5  -6 -11 74.0385 157.392   5
   5  -5 -10 1495.76 364.391   1
  -5   5  10 1504.42 319.765   3
   5  -5 -10 1268.48 356.171   5
  -5   4   9 5555.74 600.843   3
   5  -4  -9 5316.01 659.951   1
   5  -4  -9 4937.24 676.270   5
  -5   3   8 3846.54 490.586   3
   5  -3  -8 3859.07 538.553   1
   5  -3  -8 4125.91 560.988   5
   5  -2  -7 315.356 143.166   5
   5  -2  -7 164.094 149.764   1
   5  -1  -6 2762.28 444.790   1
   5  -1  -6 2592.13 383.803   5
   5   0  -5 218.812 110.858   5
  -5   0   5 173.842 89.8800   6
   5   0  -5 104.320 40.8394   4
   5   1  -4 909.910 236.412   7
  -5  -1   4 690.374 213.541   6
   5   2  -3 1829.84 383.444   7
  -5  -2   3 2462.76 434.899   6
   5   2  -3 2771.10 529.921   2
   5   3  -2 3091.14 575.735   2
  -5  -3   2 2572.18 488.040   6
   5   3  -2 2598.85 513.227   7
   5   4  -1 1641.70 456.782   7
   5   4  -1 1768.93 456.572   2
  -5  -4   1 1152.71 368.759   6
   5   5   0 1855.71 536.262   7
   5   5   0 1164.14 384.977   2
  -5  -5   0 1321.42 393.800   6
   5   6   1 469.236 305.272   7
  -5  -6  -1 800.183 336.539   6
   5   6   1 1093.71 420.638   2
   4  -7 -12 44.1855 128.254   5
  -4   6  11 1305.88 294.655   3
   4  -6 -11 1120.17 383.162   5
  -4   5  10 106.915 76.4253   7
  -4   5  10 98.1195 116.441   3
   4  -5 -10 71.6242 120.880   5
  -4   4   9 12791.4 583.245   7
   4  -4  -9 13151.7 1096.91   5
   4  -4  -9 13297.4 962.191   1
  -4   4   9 13124.7 828.141   3
   4  -3  -8 6660.25 698.014   5
   4  -3  -8 5532.17 609.346   1
  -4   3   8 6263.51 547.429   3
   4  -2  -7 3472.82 451.686   1
   4  -2  -7 3803.32 499.443   5
   4  -1  -6 13404.5 878.771   1
   4  -1  -6 13694.0 870.137   5
   4   0  -5 115.948 82.7766   5
  -4   0   5-33.4527 72.8073   6
   4   0  -5 44.2558 24.1390   4
   4   1  -4-93.4220 81.8684   7
  -4  -1   4-83.5511 88.6628   6
   4   2  -3 83.7661 82.5319   7
  -4  -2   3 5.85278 60.5369   6
   4   3  -2 365.378 185.638   7
  -4  -3   2 164.507 108.859   6
   4   3  -2 120.043 56.8526   2
   4   4  -1-55.3373 140.116   7
  -4  -4   1 71.0941 93.4788   6
   4   4  -1 35.5623 86.3213   2
   4   5   0 19.8510 81.5016   2
   4   5   0-147.222 142.740   7
  -4  -5   0-22.3459 172.366   6
   4   6   1 22.2633 124.314   2
  -4  -6  -1 324.898 210.287   6
   4   6   1 68.9759 139.429   7
  -4  -7  -2-75.3048 111.718   6
   4   7   2 104.666 143.756   2
   3  -7 -12 479.043 261.343   5
  -3   6  11 3020.23 496.390   7
   3  -6 -11 2786.39 588.189   5
  -3   6  11 2867.59 414.343   3
  -3   5  10 16232.1 1020.69   7
   3  -5 -10 17856.2 1378.05   5
  -3   5  10 16384.6 918.306   3
   3  -4  -9 8403.57 861.646   5
  -3   4   9 8282.07 625.610   7
  -3   4   9 8091.58 590.554   3
   3  -3  -8 562.998 175.914   1
  -3   3   8 742.200 148.073   7
  -3   3   8 1010.41 197.507   3
   3  -3  -8 818.071 246.666   5
   3  -2  -7 20493.7 1021.52   1
   3  -2  -7 20029.8 1116.42   5
   3  -2  -7 20607.4 835.112   3
  -3   2   7 20582.0 842.004   3
  -3   1   6 23972.9 526.844   7
   3  -1  -6 25907.1 1094.08   1
   3  -1  -6 25230.6 844.302   4
   3  -1  -6 25138.8 1137.82   5
   3  -1  -6 25572.8 932.702   3
   3   0  -5 10731.4 674.271   1
  -3   0   5 10792.0 474.506   7
  -3   0   5 10455.1 700.032   6
   3   0  -5 10278.6 687.910   5
   3   0  -5 10918.2 351.724   4
   3   1  -4 58.3929 66.2295   1
  -3  -1   4 26.3066 46.2144   6
  -3  -1   4-39.2670 69.1147   7
   3   2  -3 3774.39 443.041   7
  -3  -2   3 3864.04 234.861   4
  -3  -2   3 3480.08 442.342   6
  -3  -3   2 2313.97 271.446   4
  -3  -3   2 2064.51 379.743   6
   3   3  -2 2422.26 417.326   7
   3   4  -1 1279.82 314.708   2
   3   4  -1 1259.54 342.487   7
  -3  -4   1 1587.55 360.746   6
   3   5   0 1445.29 401.457   7
   3   5   0 1504.24 350.410   2
  -3  -5   0 1702.33 405.209   6
  -3  -6  -1-159.872 142.380   6
   3   6   1 65.0916 153.608   7
   3   6   1 54.0573 138.878   2
   3   7   2 56.2091 99.1484   7
   3   7   2-35.9837 86.2520   2
  -3  -8  -3-175.582 174.331   6
  -2   7  12-232.951 172.422   7
   2  -7 -12 209.575 181.830   5
  -2   6  11 1889.70 432.801   7
   2  -6 -11 1572.37 475.756   5
   2  -5 -10 11332.5 1106.94   5
  -2   5  10 10475.3 928.376   7
  -2   4   9 2907.34 435.422   7
   2  -4  -9 3773.69 589.171   5
  -2   3   8 6631.67 559.720   7
   2  -3  -8 7580.65 753.354   5
  -2   3   8 7910.47 481.728   3
   2  -2  -7 54057.2 1797.81   5
  -2   2   7 53421.3 1118.87   3
  -2   1   6 92286.1 1371.07   3
   2  -1  -6 89867.3 1726.01   4
   2  -1  -6 95270.6 1895.66   1
   2  -1  -6 93087.1 2145.83   5
   2  -1  -6 94614.4 1378.98   3
   2   0  -5 4901.81 336.350   3
  -2   0   5 4400.27 387.503   1
   2   0  -5 4703.77 279.127   4
   2   0  -5 4693.00 396.247   1
   2   0  -5 4591.28 446.497   5
   2   0  -5 5178.69 467.065   6
   2   1  -4 543.554 125.945   1
   2   1  -4 851.369 182.559   6
  -2  -1   4 561.296 143.847   6
  -2  -1   4 596.764 128.933   7
   2   2  -3 107073. 2147.45   7
  -2  -2   3 108037. 2118.51   7
  -2  -2   3 108611. 1085.85   4
   2   2  -3 109177. 1620.84   1
  -2  -2   3 109691. 2270.62   6
   2   3  -2 1365.51 271.186   7
  -2  -3   2 1386.87 188.676   4
  -2  -3   2 1722.42 311.862   6
   2   3  -2 1610.26 178.552   1
   2   4  -1 92.1720 86.2057   7
  -2  -4   1 121.024 53.4928   6
   2   4  -1 118.468 43.2700   1
   2   4  -1 159.339 101.952   2
   2   5   0 864.370 292.635   7
   2   5   0 737.566 222.652   2
  -2  -5   0 930.661 289.154   6
   2   6   1 15591.1 1355.75   7
  -2  -6  -1 18343.4 1404.54   6
   2   6   1 15567.4 1072.55   2
  -2  -7  -2 386.405 211.166   6
   2   7   2 304.021 213.941   7
   2   7   2 206.460 141.498   2
   2   8   3 91.0612 130.467   7
  -2  -8  -3 59.3499 114.047   6
  -1   7  12 94.6088 88.5449   7
   1  -7 -12 35.8110 86.8121   5
  -1   6  11 1338.67 403.993   7
   1  -6 -11 1861.97 507.443   5
   1  -5 -10 5075.31 758.056   5
  -1   5  10 4657.08 689.262   7
  -1   4   9 1043.49 292.212   7
   1  -4  -9 1295.96 362.751   5
  -1   3   8 5969.58 614.344   7
   1  -3  -8 5914.59 654.426   5
   1  -2  -7 20462.7 1078.75   5
  -1   1   6 23732.6 973.306   4
   1  -1  -6 25246.5 964.985   4
   1  -1  -6 26271.1 1108.92   5
  -1   1   6 26413.9 516.758   3
   1   0  -5 2951.61 340.460   6
  -1   0   5 2615.79 262.618   4
  -1   0   5 2899.06 288.812   1
   1   0  -5 2459.41 306.046   5
  -1   0   5 2748.56 317.782   5
   1   0  -5 2786.78 262.530   4
   1   0  -5 3048.54 162.069   3
   1   1  -4 48769.6 1308.09   6
  -1  -1   4 48062.7 834.434   4
  -1  -1   4 47266.9 1028.85   1
  -1  -1   4 48858.9 1297.41   6
  -1  -2   3 27645.9 690.068   1
  -1  -2   3 28841.2 996.079   7
   1   2  -3 28117.1 1031.00   6
  -1  -2   3 27756.1 1033.00   6
   1   3  -2 84144.5 2026.49   7
  -1  -3   2 84206.7 2041.46   6
   1   4  -1 1245.25 271.053   7
  -1  -4   1 1300.28 282.023   6
   1   5   0 206.662 79.7791   2
   1   5   0 256.014 103.891   7
  -1  -5   0 160.353 131.010   6
  -1  -6  -1 14526.3 1174.97   6
   1   6   1 12890.4 838.090   2
   1   6   1 12587.0 1124.08   7
  -1  -7  -2 3984.98 681.238   6
   1   7   2 4167.41 714.871   7
   1   7   2 4141.76 503.853   2
   1   8   3 115.630 137.324   7
  -1  -8  -3 418.210 264.166   6
   1   9   4-18.9858 72.4022   7
  -1  -9  -4 361.211 229.939   6
   0   7  12-385.598 251.918   7
   0   6  11-12.5309 134.027   7
   0  -6 -11 42.1828 107.792   5
   0   5  10 3905.12 694.030   7
   0  -5 -10 4341.33 703.948   5
   0   4   9 3643.09 592.267   7
   0  -4  -9 3876.76 607.666   5
   0  -3  -8 2017.31 386.724   5
   0   2   7 3397.01 463.910   4
   0  -2  -7 4059.78 486.550   5
   0   1   6 17834.3 921.280   4
   0  -1  -6 17170.8 886.680   5
   0   0   5 27197.4 964.670   4
   0   0  -5 26503.3 933.380   4
   0   0  -5 25730.4 948.359   5
   0   0   5 26630.4 950.429   5
   0   1  -4 85366.5 1623.13   6
   0  -1   4 86921.8 1640.09   6
   0   1  -4 84966.4 1486.46   4
   0  -1   4 85690.2 1474.89   4
   0   2  -3 30693.6 963.484   6
   0  -2   3 30384.9 967.929   6
   0  -3   2 12120.3 696.585   6
   0  -3   2 11366.8 682.516   7
   0   3  -2 11193.7 651.429   6
   0  -4   1 6768.88 592.618   6
   0   5   0 2991.24 444.530   7
   0  -5   0 2738.94 425.665   6
   0   5   0 2950.08 298.367   2
   0  -6  -1 1965.26 406.978   6
   0   6   1 2118.26 271.569   2
   0   6   1 1688.14 376.220   7
   0   7   2 17207.9 1371.48   7
   0  -7  -2 18359.2 1379.09   6
   0   7   2 17797.1 857.730   2
   0   8   3 53.4528 216.192   7
   0  -8  -3 147.290 179.819   6
   0   9   4-7.80317 98.3418   7
   0  -9  -4-21.1229 73.9166   6
   1   6  11-27.7345 149.323   7
  -1  -6 -11 99.5577 132.494   6
   1   5  10-50.2942 109.910   7
  -1  -5 -10 113.222 173.208   5
  -1  -4  -9 118.811 93.2683   5
   1   4   9 515.850 265.894   7
   1   3   8 4936.98 689.879   7
   1   3   8 4773.17 646.850   4
  -1  -3  -8 5061.54 621.335   5
   1   2   7 1466.39 303.510   4
  -1  -2  -7 1652.48 316.477   5
   1   1   6 75059.8 2074.70   4
  -1  -1  -6 71923.6 1800.61   5
   1   0   5 23464.1 647.865   3
   1   0   5 23611.9 1029.66   4
  -1   0  -5 24411.4 894.879   5
   1   0   5 23809.3 868.922   5
   1  -1   4 36789.9 1157.07   4
  -1   1  -4 39154.0 1185.37   4
  -1   1  -4 37009.0 945.212   5
   1  -1   4 38169.7 776.669   3
  -1   1  -4 37742.1 776.376   3
  -1   2  -3 96270.7 1534.24   6
   1  -2   3 97248.1 1566.37   6
   1  -3   2 6650.10 450.793   6
  -1   3  -2 5947.34 421.704   6
  -1   4  -1 3023.19 362.207   6
   1  -4   1 2836.32 348.393   6
   1  -5   0 20478.4 1086.00   6
  -1   5   0 18118.0 474.921   2
   1  -6  -1 397.116 186.393   6
  -1   6   1 294.942 72.8156   2
   1  -7  -2 2791.16 518.681   6
  -1   8   3-6.18676 97.0923   7
   1  -8  -3 58.5785 87.2602   6
   1  -9  -4 150.289 74.0823   6
   1 -10  -5-191.320 184.413   6
  -2  -6 -11 587.267 307.345   6
   2   5  10 190.975 166.844   7
  -2  -5 -10-376.649 229.471   6
   2   4   9 23.2310 113.686   7
  -2  -4  -9 62.3463 54.4977   6
   2   3   8 241.954 211.640   7
   2   3   8 285.237 181.307   4
  -2  -3  -8 85.6306 105.089   5
   2   2   7 2711.35 468.386   4
  -2  -2  -7 2449.24 385.340   5
   2   1   6 1943.48 380.329   4
  -2  -1  -6 1668.77 275.509   5
   2   0   5 31097.1 1006.80   3
   2   0   5 31584.9 1320.46   4
  -2   0  -5 31605.4 979.628   5
   2   0   5 31879.0 991.380   5
   2  -1   4 2046.91 311.472   4
  -2   1  -4 2625.05 229.040   5
   2  -1   4 2486.77 268.840   3
  -2   2  -3 38628.6 846.866   6
  -2   2  -3 38530.6 1131.52   2
   2  -2   3 39529.7 1069.37   3
  -2   2  -3 39749.5 1083.97   3
   2  -3   2 59071.7 1157.84   6
  -2   3  -2 61367.4 1150.27   6
  -2   3  -2 60627.4 1209.27   2
  -2   3  -2 59958.1 1409.50   3
   2  -4   1 17287.7 768.683   6
  -2   4  -1 17381.7 775.756   6
  -2   4  -1 17603.8 838.303   5
  -2   4  -1 16673.7 494.299   2
   2  -5   0 4830.43 481.413   6
   2  -6  -1 14261.8 961.767   6
   2  -7  -2 4292.90 607.138   6
   2  -7  -2 5020.55 377.272   1
   2  -8  -3 9377.11 993.977   6
   2  -9  -4 6855.08 941.240   6
   2 -10  -5 142.528 153.787   6
  -3  -5 -10 152.920 152.839   6
   3   4   9 434.144 258.871   7
  -3  -4  -9 80.1188 122.618   6
   3   3   8 1205.47 375.731   4
   3   3   8 1057.34 389.935   7
  -3  -3  -8 1203.21 353.716   6
   3   2   7 3711.68 586.950   4
  -3  -2  -7 2920.59 484.589   6
   3   1   6 3786.07 557.440   4
  -3  -1  -6 3739.63 408.646   5
   3   0   5 377.425 103.740   5
   3   0   5 346.367 174.797   4
  -3   0  -5 310.198 102.336   5
   3  -1   4 2657.85 393.229   4
  -3   1  -4 2842.63 202.191   5
   3  -1   4 3404.55 447.144   2
  -3   2  -3 3022.13 364.086   3
   3  -2   3 2985.06 401.826   4
  -3   2  -3 3072.32 210.155   6
   3  -2   3 2891.00 361.876   2
  -3   3  -2 8594.20 311.853   6
  -3   3  -2 8469.96 404.629   5
  -3   3  -2 8337.71 561.795   2
   3  -3   2 8871.30 567.498   2
  -3   3  -2 8768.58 631.028   3
   3  -4   1 12341.1 556.731   6
  -3   4  -1 11613.0 633.974   5
  -3   4  -1 11988.3 593.456   2
  -3   4  -1 12098.8 760.848   3
   3  -5   0 22137.6 948.627   6
  -3   5   0 21444.7 1072.47   3
   3  -6  -1 3310.46 434.906   6
   3  -7  -2 7652.33 757.564   6
   3  -8  -3 2608.05 336.635   1
   3  -8  -3 3002.74 534.202   6
   3  -9  -4 168.252 159.857   6
   3 -10  -5 197.066 121.557   6
  -4  -4  -9-312.959 203.328   6
   4   3   8 664.454 342.343   7
   4   3   8 2.93309 46.6008   4
  -4  -3  -8 340.535 197.222   6
   4   2   7 1811.97 444.597   4
   4   2   7 1891.96 495.049   7
  -4  -2  -7 1636.76 376.943   6
   4   1   6 4192.03 633.211   4
  -4  -1  -6 4886.76 574.431   6
   4   0   5 409.121 183.826   2
   4   0   5 232.024 124.911   4
  -4   0  -5 121.401 71.9027   6
   4  -1   4 7643.08 726.629   4
  -4   1  -4 6959.58 469.554   6
   4  -1   4 7104.96 719.810   2
   4  -2   3 722.036 199.598   4
   4  -2   3 1029.50 242.039   2
   4  -3   2 2386.15 351.902   2
  -4   3  -2 2547.57 388.511   3
  -4   4  -1 117.093 53.9340   3
   4  -4   1 135.499 35.5882   6
   4  -4   1 209.624 87.4010   2
  -4   4  -1 199.355 66.8123   5
   4  -5   0 687.992 145.613   2
  -4   5   0 726.397 226.012   3
   4  -5   0 532.116 125.336   6
  -4   6   1 1120.41 297.783   3
   4  -6  -1 1144.17 237.305   6
   4  -7  -2 2530.10 413.325   6
  -4   7   2 3105.93 492.002   3
   4  -8  -3 1395.36 349.032   6
  -4   8   3 1758.04 407.864   3
   4  -9  -4 336.737 172.071   6
   4 -10  -5 3619.44 690.919   6
   4 -11  -6 396.327 218.163   6
   5   2   7 71.2403 100.338   4
   5   2   7 158.016 132.834   7
   5   1   6 260.826 168.255   7
   5   1   6 140.079 103.124   4
   5   0   5 2287.04 493.882   2
   5   0   5 3020.17 530.457   4
  -5   1  -4 1134.89 194.074   6
   5  -1   4 1048.76 283.862   4
   5  -1   4 1131.17 326.667   2
   5  -2   3 161.649 148.552   4
   5  -2   3 70.4271 140.931   2
  -5   3  -2 5307.42 632.559   3
   5  -3   2 5919.67 638.455   2
   5  -3   2 5764.72 671.802   4
  -5   4  -1 1875.47 166.180   5
   5  -4   1 2116.14 354.823   2
  -5   4  -1 1681.24 349.356   3
   5  -5   0 3602.48 202.960   6
  -5   5   0 3374.41 353.657   5
   5  -5   0 3713.35 428.464   2
  -5   5   0 4217.41 567.598   3
   5  -6  -1 54.5887 28.1685   2
  -5   6   1-26.5891 119.915   3
   5  -6  -1 127.525 64.9334   6
  -5   7   2 593.174 255.811   3
   5  -7  -2 769.808 215.595   6
  -5   8   3-47.1153 102.747   3
   5  -8  -3-21.6408 100.106   6
  -5   9   4 432.617 196.089   3
   5  -9  -4 682.805 245.820   6
   5  -9  -4 272.528 134.965   1
  -5  10   5 2217.90 526.664   3
   5 -10  -5 2548.48 559.889   6
   5 -11  -6-271.393 204.189   6
   6   2   7-60.3206 98.8909   4
   6   1   6 1244.96 420.002   7
   6   1   6 648.675 290.639   4
   6   0   5 2444.74 561.121   2
   6   0   5 2578.29 583.477   7
   6   0   5 1936.65 450.934   4
   6  -1   4 817.709 279.279   4
   6  -1   4 1138.13 363.551   2
   6  -2   3 1741.66 406.811   4
   6  -2   3 1704.47 418.397   2
   6  -3   2 2449.35 463.174   2
   6  -3   2 2125.89 428.488   4
  -6   4  -1 35.3548 155.784   3
   6  -4   1-130.746 120.151   2
   6  -5   0 122.771 69.2315   2
  -6   5   0 87.3677 91.4881   3
  -6   6   1 1190.90 323.621   3
   6  -6  -1 622.446 183.076   2
  -6   7   2 22.6635 89.4049   3
  -6   8   3 172.439 110.966   3
  -6   9   4 502.137 257.402   3
  -6  10   5 140.964 201.425   3
   7   0   5 187.082 187.167   7
   7  -1   4 8.94243 53.5452   7
   7  -1   4-89.1410 114.714   2
   7  -2   3-19.9769 61.1080   4
   7  -2   3 302.792 223.381   2
   7  -3   2 1187.05 368.285   2
   7  -3   2 1265.12 353.648   4
   7  -4   1 7.15620 49.7432   2
   7  -4   1-46.8907 103.635   4
  -7   5   0 72.4065 105.876   3
   7  -5   0 134.317 110.247   2
   7  -6  -1 300.582 148.078   2
  -7   6   1 456.641 251.901   3
  -7   7   2 105.770 97.4179   3
  -7   8   3-86.3235 163.359   3
  -7   9   4 233.827 187.079   3
   7 -10  -5 160.199 106.593   1
   8  -2   3 727.558 351.795   2
   8  -3   2 490.619 254.172   2
   8  -4   1 689.347 290.176   4
   8  -4   1 890.874 339.228   2
   8  -5   0-33.9214 151.518   2
   8  -5   0 122.708 167.648   4
  -8   6   1 610.857 322.065   3
   8  -6  -1-11.4790 157.551   2
  -8   7   2 512.270 265.099   3
  -8   8   3-129.233 170.748   3
   9  -5   0-153.649 144.997   2
   9  -4 -10-359.036 227.117   2
   9  -3  -9-170.261 166.947   2
   8  -5 -11 139.480 151.923   1
   8  -4 -10 1012.77 375.694   1
   8  -3  -9 939.263 359.182   1
   8  -2  -8 863.306 339.495   1
   8  -2  -8 292.942 264.598   2
   8  -1  -7 492.002 210.227   1
   8  -1  -7 496.915 266.103   2
   8   0  -6 479.654 289.722   2
   8   0  -6 726.198 292.753   1
   8   1  -5 575.997 237.073   1
   7  -7 -13-285.616 210.600   5
   7  -6 -12 230.511 203.787   1
   7  -6 -12 23.7368 72.9311   5
   7  -5 -11 665.325 289.386   5
   7  -5 -11 521.911 283.049   1
   7  -4 -10 117.146 162.910   1
   7  -4 -10 149.988 128.445   5
   7  -3  -9 33.6314 62.3537   5
   7  -3  -9 14.2477 52.9124   1
   7  -2  -8 1625.39 358.809   5
   7  -2  -8 1559.33 416.672   1
   7  -1  -7 538.359 223.562   1
   7   0  -6-35.7306 113.420   1
   7   0  -6-300.546 203.373   2
   7   1  -5 199.659 196.500   2
   7   2  -4 36.7971 67.4498   2
   7   3  -3 576.244 347.511   2
   6  -7 -13-9.08784 61.6529   5
   6  -6 -12 918.256 350.610   5
   6  -5 -11 1672.45 417.811   1
  -6   5  11 1310.86 333.094   3
   6  -5 -11 1428.86 409.063   5
   6  -4 -10 215.960 119.665   1
   6  -4 -10 217.107 133.619   5
   6  -3  -9-66.2397 126.173   1
   6  -3  -9-123.034 159.053   5
   6  -2  -8 292.039 184.189   5
   6  -2  -8 199.115 143.581   1
   6  -1  -7 4884.88 658.963   1
   6  -1  -7 5689.28 632.735   5
   6   0  -6 637.482 192.639   5
   6   0  -6 765.867 259.148   1
   6   1  -5 1394.02 300.158   7
   6   1  -5 937.515 244.808   5
  -6  -1   5 1654.81 360.259   6
   6   1  -5 750.766 252.313   2
   6   2  -4 575.421 237.195   7
  -6  -2   4 526.139 208.878   6
   6   2  -4 223.691 177.820   2
   6   3  -3 235.966 119.147   2
   6   3  -3 27.3538 90.4878   7
  -6  -3   3 132.848 121.212   6
   6   4  -2-107.467 195.876   2
   6   4  -2-182.661 162.960   7
   6   5  -1 630.550 317.152   7
   5  -7 -13 433.381 246.880   5
   5  -6 -12 80.5372 76.3092   5
  -5   5  11 640.583 201.509   3
   5  -5 -11 723.820 260.604   1
   5  -5 -11 1093.51 360.347   5
  -5   4  10 802.899 215.980   3
   5  -4 -10 539.302 204.581   1
   5  -4 -10 656.322 238.807   5
   5  -3  -9 2391.49 438.102   1
   5  -3  -9 2019.66 413.207   5
   5  -2  -8 2102.55 399.190   1
   5  -2  -8 2999.19 472.125   5
   5  -1  -7 6237.91 407.727   4
   5  -1  -7 6414.96 679.594   1
   5  -1  -7 7034.84 679.053   5
  -5   0   6 1293.95 294.967   6
   5   0  -6 1520.82 307.633   5
   5   0  -6 1459.40 313.591   1
  -5  -1   5 1241.92 297.685   6
   5   1  -5 1274.73 274.780   5
  -5  -2   4 1602.33 359.825   6
   5   2  -4 893.812 308.852   2
   5   2  -4 1525.14 332.128   7
  -5  -3   3 34.6794 66.3189   6
   5   3  -3 180.074 160.952   7
   5   3  -3-129.091 168.659   2
   5   4  -2 935.012 328.158   7
  -5  -4   2 572.131 202.788   6
   5   4  -2 479.311 215.345   2
   5   5  -1 305.339 236.759   7
  -5  -5   1-7.85462 130.511   6
   5   5  -1 200.816 165.912   2
   5   6   0 439.826 231.456   2
  -5  -6   0 338.051 224.769   6
   5   6   0 590.083 315.383   7
   4  -7 -13 105.174 142.650   5
   4  -6 -12 115.945 130.037   5
   4  -5 -11 3785.06 655.806   5
  -4   5  11 3958.98 473.790   3
  -4   4  10 71.5703 60.8267   7
  -4   4  10-51.8920 56.0113   3
   4  -4 -10 6.81161 108.503   5
  -4   3   9 54.9713 31.3699   7
  -4   3   9 165.002 93.4320   3
   4  -3  -9 1.30153 151.350   1
   4  -3  -9 163.325 116.520   5
   4  -2  -8 3063.27 446.224   1
   4  -2  -8 3447.83 496.806   5
   4  -1  -7 1989.38 343.964   1
   4  -1  -7 2458.71 398.840   5
   4  -1  -7 2045.56 243.115   4
   4   0  -6 310.127 138.030   5
  -4   0   6 83.8447 53.4951   6
  -4   0   6 226.451 72.3149   7
   4   0  -6 202.700 44.4754   4
   4   0  -6 190.693 131.149   1
  -4  -1   5 11150.9 693.745   7
   4   1  -5 11757.2 782.816   1
  -4  -1   5 12367.1 873.010   6
   4   2  -4 9390.74 769.750   7
  -4  -2   4 7761.84 738.082   6
   4   3  -3 6850.17 764.876   7
  -4  -3   3 8110.69 804.180   6
   4   3  -3 7746.11 838.084   2
   4   4  -2-4.10515 79.4112   1
  -4  -4   2 169.233 107.688   6
   4   4  -2-78.4435 140.231   7
   4   4  -2 143.234 168.145   2
   4   5  -1 792.479 297.882   2
   4   5  -1 466.588 237.675   7
  -4  -5   1 361.004 182.304   6
   4   6   0 387.632 244.654   7
   4   6   0 511.273 269.619   2
  -4  -6   0-75.1439 113.437   6
   4   7   1-25.5300 87.5988   7
  -4  -7  -1-115.356 140.673   6
   4   7   1-64.5416 157.975   2
   3  -7 -13 65.7270 60.0241   5
  -3   6  12 694.847 269.695   7
   3  -6 -12 357.693 230.992   5
  -3   5  11 6963.10 705.043   7
   3  -5 -11 7094.41 914.673   5
  -3   5  11 8280.83 640.190   3
  -3   4  10 8117.14 659.588   7
   3  -4 -10 9367.42 958.114   5
  -3   4  10 7681.00 573.332   3
  -3   3   9 5276.72 444.106   7
   3  -3  -9 5618.18 660.138   5
  -3   3   9 4938.80 422.576   3
  -3   2   8 6970.04 482.009   3
   3  -2  -8 6890.09 618.717   1
   3  -2  -8 7168.10 710.435   5
   3  -1  -7 31923.3 1029.80   4
   3  -1  -7 32258.0 1275.34   1
   3  -1  -7 32507.6 1391.20   5
   3  -1  -7 32392.0 1042.83   3
  -3   0   6 7811.92 420.735   7
   3   0  -6 7249.88 336.733   4
   3   0  -6 7330.13 577.727   1
   3   0  -6 8333.67 664.992   5
  -3  -1   5 27013.1 971.457   7
   3   1  -5 28087.4 1072.55   1
  -3  -1   5 29222.4 1252.67   6
   3   2  -4 1773.51 253.260   1
  -3  -2   4 1849.80 327.507   6
   3   3  -3 33860.9 1502.38   7
  -3  -3   3 33003.5 1517.99   6
  -3  -3   3 33957.8 897.499   4
   3   3  -3 31310.7 1026.62   1
   3   4  -2-67.5244 116.244   7
  -3  -4   2-47.2063 106.257   6
  -3  -4   2 39.4783 50.1572   4
   3   4  -2 23.2795 21.6867   1
   3   4  -2-85.3783 92.6594   2
   3   5  -1 7091.64 875.854   7
  -3  -5   1 8099.97 913.622   6
   3   5  -1 7489.44 785.997   2
   3   6   0 3707.39 711.462   7
   3   6   0 4129.46 634.212   2
  -3  -6   0 3672.85 657.908   6
   3   7   1-54.4858 137.418   7
   3   7   1-121.977 177.071   2
  -3  -7  -1 283.606 200.120   6
  -3  -8  -2 308.810 226.297   6
  -2   7  13 532.945 262.937   7
   2  -7 -13 425.372 252.407   5
  -2   6  12 156.543 134.022   7
   2  -6 -12 263.420 158.984   5
  -2   5  11 927.037 285.587   7
   2  -5 -11 716.548 269.987   5
  -2   4  10 5159.65 595.315   7
  -2   4  10 5984.86 475.231   3
   2  -3  -9 8515.20 839.390   5
  -2   3   9 8912.39 503.841   3
   2  -2  -8 6803.93 686.038   5
  -2   2   8 7022.04 397.323   3
   2  -1  -7 60849.0 1512.14   4
   2  -1  -7 62264.6 1889.32   5
   2  -1  -7 63988.3 1105.29   3
   2   0  -6 39564.8 961.555   4
   2   0  -6 39228.0 1209.55   1
   2   0  -6 43041.9 1450.23   5
   2   0  -6 39925.0 938.216   3
  -2  -1   5 32931.9 1244.21   6
  -2  -1   5 34419.1 1068.45   1
  -2  -1   5 32349.1 536.242   4
   2   1  -5 33654.7 1029.06   1
  -2  -2   4 29278.7 1095.34   7
  -2  -2   4 27454.6 1186.97   6
   2   2  -4 27559.2 859.852   1
   2   3  -3 10581.8 773.425   7
  -2  -3   3 10373.4 469.876   4
  -2  -3   3 11141.9 818.841   6
   2   3  -3 10495.7 479.013   1
   2   4  -2 10694.6 886.139   7
  -2  -4   2 11456.1 920.511   6
  -2  -4   2 10722.0 630.463   4
   2   4  -2 10465.3 400.775   1
   2   5  -1 673.014 245.446   7
  -2  -5   1 678.500 239.055   6
   2   5  -1 703.561 209.523   2
   2   6   0-37.3428 227.035   7
   2   6   0 59.2691 46.7387   2
  -2  -6   0 40.0334 115.022   6
   2   7   1 323.376 225.083   7
   2   7   1 40.2123 99.6256   2
  -2  -7  -1 115.003 141.302   6
   2   8   2 883.293 376.008   7
  -2  -8  -2-64.0582 104.159   6
  -1   7  13 28.6401 136.322   7
   1  -7 -13 207.955 121.224   5
  -1   6  12 103.210 113.097   7
   1  -6 -12 18.3150 64.0401   5
  -1   5  11 333.622 225.892   7
   1  -5 -11 354.823 146.296   5
  -1   4  10 105.986 109.014   7
   1  -4 -10 218.459 140.262   5
   1  -3  -9 4635.60 618.522   5
   1  -2  -8 1811.33 340.764   5
  -1   1   7 2074.62 310.218   4
   1  -1  -7 2292.31 360.133   5
  -1   1   7 2230.92 140.002   3
   1   0  -6 791.150 194.479   5
  -1   0   6 635.904 177.587   5
  -1   0   6 684.087 152.222   4
   1   0  -6 713.478 151.468   4
   1   0  -6 589.354 63.3323   3
  -1  -1   5 59751.4 1590.91   6
   1   1  -5 62011.1 1610.99   6
   1   1  -5 62857.5 1168.20   4
  -1  -1   5 61035.2 1134.57   4
  -1  -1   5 59740.3 1296.32   1
   1   2  -4 4357.16 420.836   6
  -1  -2   4 4103.60 303.142   1
  -1  -2   4 3969.59 413.936   6
  -1  -3   3 4488.83 271.536   1
  -1  -3   3 4698.87 481.743   6
  -1  -4   2 9572.86 776.909   6
   1   5  -1 47.3771 71.7315   7
  -1  -5   1 128.345 134.854   6
   1   5  -1 113.275 72.3268   2
   1   6   0 340.923 119.195   2
  -1  -6   0 203.368 129.967   6
   1   6   0-60.3239 179.134   7
  -1  -7  -1 3981.12 678.340   6
   1   7   1 3314.46 634.607   7
   1   7   1 3563.49 473.591   2
   1   8   2 108.666 140.537   7
  -1  -8  -2 213.452 137.829   6
   1   9   3 244.855 250.633   7
  -1  -9  -3 99.1580 131.986   6
   0   6  12 174.280 85.3349   7
   0  -6 -12 533.906 279.166   5
   0   5  11 39.4702 91.9829   7
   0  -5 -11 290.100 167.043   5
   0   4  10 2041.10 446.869   7
   0  -4 -10 2481.62 508.746   5
   0  -3  -9 1760.18 383.486   5
   0   2   8 135.082 126.774   4
   0  -2  -8 22.5943 40.7557   5
   0   1   7 7434.05 642.571   4
   0  -1  -7 8337.27 660.944   5
   0   0   6 3228.44 375.294   4
   0   0  -6 3107.81 357.655   4
   0   0  -6 3092.53 365.582   5
   0   0   6 3515.80 386.058   5
   0  -1   5 2546.64 286.460   4
   0   1  -5 2682.48 321.009   6
   0   1  -5 2476.65 299.683   5
   0   1  -5 2978.58 305.395   4
   0   2  -4 397.248 121.013   6
   0  -2   4 504.349 135.372   6
   0   3  -3 10436.8 648.222   6
   0  -3   3 9591.88 632.986   6
   0  -4   2 33285.7 1329.61   6
   0  -5   1 9703.65 796.532   6
   0   6   0 0.65588 109.587   7
   0   6   0 53.2920 35.6318   2
   0  -6   0-42.5897 44.2360   6
   0   7   1 969.028 305.509   7
   0   7   1 926.965 188.392   2
   0   8   2 1229.93 412.316   7
   0  -8  -2 512.079 238.949   6
   0  -9  -3 23.3047 67.1795   6
   0   9   3-337.162 226.883   7
   1   6  12 397.744 260.695   7
  -1  -6 -12-244.835 203.895   6
   1   5  11 66.9087 100.365   7
  -1  -5 -11 282.630 157.676   5
   1   4  10 9552.20 1082.74   7
  -1  -4 -10 9873.33 1011.38   5
   1   3   9 1295.61 362.449   7
   1   3   9 1377.82 370.254   4
  -1  -3  -9 1441.69 355.930   5
   1   2   8 2085.20 398.389   4
  -1  -2  -8 2833.87 434.716   5
   1   1   7 1577.55 314.306   4
  -1  -1  -7 1507.39 287.080   5
   1   0   6 28242.8 1222.67   4
  -1   0  -6 27723.9 1058.68   5
   1   0   6 27218.9 1031.17   5
   1   0   6 28200.3 718.583   3
  -1   1  -5 29085.4 697.371   3
  -1   1  -5 30373.7 1149.74   4
  -1   1  -5 29676.5 962.074   5
   1  -1   5 29937.0 696.399   3
   1  -1   5 28535.9 1107.23   4
   1  -2   4 2956.86 304.650   6
  -1   2  -4 2740.25 287.717   6
  -1   2  -4 3199.56 257.381   3
   1  -3   3 41045.3 1178.49   6
  -1   3  -3 42888.6 1191.40   6
  -1   4  -2 29822.6 1130.57   6
   1  -4   2 30604.9 1152.95   6
   1  -5   1 27963.3 1266.03   6
   1  -6   0 1571.94 147.169   1
   1  -6   0 1675.87 358.369   6
  -1   6   0 1890.57 178.564   2
   1  -7  -1 1772.03 397.067   6
   1  -8  -2 1015.04 336.738   6
   1  -9  -3-99.1759 115.816   6
   1 -10  -4 147.357 82.4242   6
   2   5  11-76.9628 125.191   7
  -2  -5 -11-262.760 202.406   6
   2   4  10-122.490 135.740   7
  -2  -4 -10 101.481 146.400   5
   2   3   9 8794.93 1037.37   7
   2   3   9 9638.82 1031.02   4
  -2  -3  -9 9894.07 915.730   5
   2   2   8 3064.77 525.912   4
  -2  -2  -8 3003.46 452.014   5
   2   1   7 13694.6 1028.15   4
  -2  -1  -7 12493.4 801.430   5
   2   0   6 2529.22 295.124   3
   2   0   6 2573.72 413.346   4
  -2   0  -6 2799.03 323.888   5
   2   0   6 2257.11 296.296   5
   2  -1   5 20043.5 1043.40   4
  -2   1  -5 20682.5 748.492   5
   2  -1   5 20867.0 790.143   3
  -2   2  -4 16099.4 648.243   6
   2  -2   4 17775.7 930.954   4
   2  -2   4 18012.6 736.845   3
  -2   2  -4 17216.5 728.838   3
  -2   3  -3 47093.5 1091.06   6
   2  -3   3 47380.3 1117.44   6
  -2   3  -3 49469.3 1202.82   2
  -2   3  -3 49194.5 1280.13   3
   2  -4   2 58.7356 61.7441   6
  -2   4  -2 87.8288 51.6243   6
  -2   4  -2 41.7439 32.8667   2
  -2   5  -1 19334.8 466.462   2
   2  -5   1 21279.6 1005.32   6
   2  -6   0 2565.79 403.248   6
   2  -7  -1 920.055 159.940   1
   2  -7  -1 959.558 296.877   6
   2  -8  -2 8288.24 917.516   6
   2  -9  -3 3355.40 640.788   6
   2 -10  -4 146.438 191.920   6
  -3  -5 -11 20.7367 66.0609   6
   3   4  10 609.606 309.204   7
  -3  -4 -10 680.722 301.115   6
   3   3   9 385.707 217.364   7
   3   3   9 297.131 207.220   4
  -3  -3  -9 706.223 315.906   6
   3   2   8 3863.65 632.451   4
  -3  -2  -8 4543.23 550.746   5
   3   1   7 519.019 228.329   4
  -3  -1  -7 806.380 210.989   5
   3   0   6 102.339 64.9284   5
   3   0   6 28.3568 51.9701   4
  -3   0  -6 120.165 73.8194   5
   3  -1   5 32654.3 1461.15   4
  -3   1  -5 32479.5 833.495   5
  -3   2  -4 2235.65 315.899   3
  -3   2  -4 1988.00 210.043   6
  -3   2  -4 2022.37 173.138   5
   3  -2   4 1939.93 343.388   4
  -3   3  -3 157.883 93.7209   3
  -3   3  -3 58.5092 22.8886   6
   3  -4   2 62449.2 1256.26   6
  -3   4  -2 61135.8 1220.66   6
  -3   4  -2 61199.5 1436.02   5
  -3   4  -2 61075.7 1447.50   2
  -3   4  -2 63481.2 1739.19   3
   3  -5   1 20426.1 887.408   6
  -3   5  -1 19191.7 667.302   2
  -3   5  -1 21955.0 1091.40   3
   3  -6   0 4668.40 501.892   6
   3  -7  -1 170.595 85.5813   6
   3  -8  -2 13.2098 38.5015   1
   3  -8  -2 142.221 135.334   6
   3  -9  -3 492.652 260.284   6
   3 -10  -4 92.9432 115.194   6
   3 -11  -5 332.353 231.014   6
   4   3   9 866.722 377.544   7
   4   3   9 529.498 264.439   4
  -4  -3  -9 444.308 230.161   6
   4   2   8 196.033 190.409   7
   4   2   8-130.879 127.050   4
  -4  -2  -8-122.560 136.368   6
   4   1   7 2419.89 511.895   4
  -4  -1  -7 2682.73 449.032   6
  -4   0  -6 1184.68 249.521   6
   4   0   6 1326.31 365.827   4
  -4   1  -5 3906.33 383.548   6
   4  -1   5 4104.62 570.494   4
   4  -1   5 4029.51 550.184   2
   4  -2   4 480.512 158.109   2
  -4   2  -4 697.357 114.772   6
   4  -2   4 815.339 243.877   4
  -4   2  -4 760.610 123.552   6
   4  -3   3 829.611 209.594   2
  -4   3  -3 898.188 234.870   3
  -4   4  -2 973.718 247.934   3
  -4   4  -2 879.597 144.215   5
  -4   5  -1 458.942 166.773   3
   4  -5   1 674.629 139.656   6
  -4   5  -1 453.225 142.689   5
   4  -6   0 2731.83 355.829   6
  -4   6   0 3239.68 478.853   3
  -4   7   1 2451.59 434.147   3
   4  -7  -1 2304.63 381.237   6
   4  -8  -2 1184.71 321.905   6
  -4   8   2 1279.30 345.902   3
   4  -9  -3 3881.46 486.817   1
   4  -9  -3 3685.05 626.501   6
   4 -10  -4 4175.87 728.189   6
   4 -11  -5 921.474 371.844   6
   5   2   8 110.799 207.067   7
   5   2   8 159.761 180.543   4
   5   1   7 2757.19 615.980   7
   5   1   7 2572.46 547.815   4
   5   0   6 323.662 148.573   4
   5  -1   5 6723.81 783.647   4
   5  -1   5 7647.78 848.024   2
   5  -2   4 300.262 179.755   2
   5  -2   4 230.699 154.877   4
   5  -3   3 204.784 167.054   4
   5  -3   3 523.890 219.911   2
  -5   4  -2 844.703 248.906   3
   5  -4   2 730.164 209.114   2
   5  -5   1 205.531 95.4503   2
  -5   5  -1 63.0188 92.1937   3
  -5   5  -1 111.205 57.4526   5
  -5   6   0 415.309 179.745   3
   5  -6   0 294.426 96.6299   6
  -5   7   1 241.705 166.532   3
   5  -7  -1 530.236 167.675   6
  -5   8   2 881.425 275.339   3
   5  -8  -2 564.666 212.368   6
  -5   9   3 59.7094 79.7605   3
   5  -9  -3 529.087 238.818   6
  -5  10   4 400.660 229.038   3
   5 -10  -4 67.1720 96.3586   6
  -5  11   5 9.76284 175.635   3
   5 -11  -5 612.133 303.983   6
   6   2   8-60.3732 102.279   4
   6   1   7-42.2690 94.9103   7
   6   1   7 233.728 207.553   4
   6   0   6-40.3810 123.531   7
   6   0   6 250.152 157.994   4
   6  -1   5 1862.04 470.217   2
   6  -1   5 1602.24 410.002   4
   6  -2   4 8076.71 898.809   4
   6  -2   4 7979.11 901.718   2
   6  -3   3-60.6611 120.022   4
   6  -3   3 7.99864 57.0127   2
  -6   4  -2 2238.12 448.426   3
   6  -4   2 2417.77 486.369   4
   6  -4   2 2028.44 400.176   2
  -6   5  -1 2310.67 465.540   3
   6  -5   1 1738.90 347.394   2
   6  -6   0 64.5829 75.7559   2
  -6   6   0 215.385 106.046   3
  -6   7   1 246.167 127.283   3
  -6   8   2 53.0025 114.496   3
  -6   9   3 1562.11 427.311   3
  -6  10   4 184.447 240.496   3
   7   0   6 76.0480 111.232   7
   7  -1   5 47.4123 80.0452   2
   7  -1   5-177.339 155.450   7
   7  -1   5 186.659 153.658   4
   7  -2   4 1311.14 411.897   2
   7  -2   4 1230.21 420.924   4
   7  -3   3 125.146 168.321   4
   7  -3   3-70.5950 84.3785   2
   7  -4   2-313.712 187.521   4
   7  -4   2-189.721 142.052   2
  -7   5  -1 397.516 176.207   3
   7  -5   1 514.165 211.511   2
  -7   6   0 549.518 245.523   3
   7  -6   0 544.467 201.485   2
  -7   7   1 367.382 232.427   3
  -7   8   2 279.249 150.027   3
  -7   9   3 114.612 112.347   3
   8  -3   3 129.556 103.515   2
   8  -4   2 929.932 343.506   4
   8  -4   2 776.442 320.047   2
   8  -5   1 93.6971 100.529   4
   8  -5   1-18.7841 70.5410   2
  -8   6   0 528.764 279.545   3
   8  -6   0-170.998 202.240   2
  -8   7   1 125.495 80.5822   3
  -8   8   2-39.4928 83.4438   3
   9  -5   1-300.056 202.824   2
   8  -4 -11 1096.30 370.256   1
   8  -3 -10 1086.10 396.152   1
   8  -2  -9-236.306 175.228   1
   8  -1  -8 34.1851 133.602   1
   8  -1  -8 45.7048 89.0780   2
   8   0  -7 1430.68 415.850   1
   8   0  -7 1844.11 536.362   2
   8   1  -6 55.5435 157.383   1
   7  -6 -13 1357.01 409.685   1
   7  -6 -13 1241.98 407.164   5
   7  -5 -12 98.8616 114.822   1
   7  -5 -12 160.765 104.823   5
   7  -4 -11 349.953 201.334   1
   7  -4 -11 272.687 154.643   5
   7  -3 -10-304.181 184.829   1
   7  -3 -10 260.949 160.323   5
   7  -2  -9 235.653 121.862   5
   7  -2  -9 378.109 170.255   1
   7  -1  -8 286.679 175.200   1
   7   0  -7 556.256 244.792   1
   7   1  -6 71.1145 140.802   1
   7   1  -6-187.650 171.867   2
   7   2  -5 969.081 389.774   2
   7   2  -5 905.779 283.099   1
   7   3  -4-39.8057 195.024   2
   6  -6 -13 699.082 327.745   5
  -6   5  12 1284.38 329.070   3
   6  -5 -12 1205.20 363.264   1
   6  -5 -12 972.155 347.607   5
   6  -4 -11 596.826 263.938   1
   6  -4 -11 471.762 229.860   5
   6  -3 -10 2395.91 485.096   1
   6  -3 -10 1925.26 434.998   5
   6  -2  -9 15033.1 1171.56   1
   6  -2  -9 12431.0 1040.86   5
   6  -1  -8 1143.02 302.436   5
   6  -1  -8 1134.32 317.623   1
   6   0  -7 6998.19 775.405   1
   6   0  -7 7258.67 727.209   5
   6   1  -6 918.738 256.279   5
  -6  -1   6 876.554 278.227   6
   6   1  -6 1191.30 305.524   1
   6   2  -5 80.3349 62.7438   1
  -6  -2   5 126.532 111.636   6
   6   2  -5 31.3916 130.348   2
   6   3  -4 1890.06 437.546   7
  -6  -3   4 2580.17 520.832   6
   6   3  -4 1645.80 362.426   1
   6   3  -4 1918.11 520.845   2
   6   4  -3 109.216 149.790   7
   6   4  -3 43.9768 208.907   2
  -6  -4   3 145.682 99.8199   6
   6   5  -2 28.4485 80.4288   7
   6   5  -2 165.118 192.042   2
   5  -7 -14 573.052 307.806   5
   5  -6 -13 870.871 364.405   5
  -5   5  12 205.076 99.3462   3
   5  -5 -12 96.6220 58.7368   5
  -5   4  11 1603.71 313.221   3
   5  -4 -11 1251.13 337.993   1
   5  -4 -11 1519.72 416.786   5
   5  -3 -10 1034.02 281.325   1
   5  -3 -10 770.798 269.489   5
   5  -2  -9-53.2340 132.230   5
   5  -2  -9-82.2192 67.6668   1
   5  -1  -8 590.826 227.227   5
   5  -1  -8 626.251 221.987   1
   5   0  -7 14204.6 1008.51   1
   5   0  -7 14267.1 998.388   5
   5   1  -6 278.478 134.262   5
  -5  -1   6 136.247 51.0478   6
   5   1  -6 122.543 85.3952   1
  -5  -2   5 1667.55 386.618   6
   5   2  -5 1877.37 355.784   1
   5   3  -4 230.365 153.004   7
  -5  -3   4 594.596 240.748   6
   5   3  -4 161.898 98.0380   1
   5   3  -4 380.259 259.976   2
   5   4  -3 5336.11 789.201   7
  -5  -4   3 5856.19 801.430   6
   5   4  -3 5177.68 782.252   2
   5   5  -2 359.939 124.165   2
  -5  -5   2 183.559 134.805   6
   5   5  -2 1.61840 52.4339   7
   5   6  -1 391.327 252.562   7
   5   6  -1 288.401 172.577   2
  -5  -6   1 552.206 273.059   6
  -5  -7   0 621.882 319.665   6
   4  -7 -14 562.524 262.387   5
   4  -6 -13 286.304 199.015   5
   4  -5 -12 3163.42 646.656   5
   4  -4 -11 7223.62 873.289   5
  -4   4  11 7375.94 602.333   3
  -4   3  10 4.21551 22.1443   7
  -4   3  10 0.53364 56.2022   3
   4  -3 -10 78.2390 71.6192   1
   4  -3 -10 117.788 139.078   5
  -4   2   9 2541.38 182.246   7
   4  -2  -9 3242.49 467.642   1
   4  -2  -9 3588.15 541.828   5
  -4   1   8 7874.88 324.350   7
   4  -1  -8 9094.31 558.288   4
   4  -1  -8 9016.56 750.134   1
   4  -1  -8 8050.24 767.949   5
  -4   0   7 1456.67 192.899   7
   4   0  -7 1689.59 329.274   5
   4   0  -7 970.905 240.509   1
   4   0  -7 1245.83 121.114   4
  -4  -1   6 6840.72 534.920   7
   4   1  -6 7199.65 626.526   1
  -4  -1   6 7431.39 712.041   6
   4   2  -5 13702.5 835.848   1
  -4  -2   5 14554.8 1035.68   6
   4   3  -4 286.720 159.616   7
  -4  -3   4 170.205 121.473   6
   4   3  -4 405.963 118.598   1
   4   4  -3 1080.46 331.551   7
  -4  -4   3 777.017 269.800   6
   4   4  -3 695.613 165.985   1
   4   4  -3 518.458 219.187   2
   4   5  -2 692.922 259.216   2
   4   5  -2 492.082 235.034   7
  -4  -5   2 664.662 280.527   6
   4   6  -1 170.539 162.370   7
  -4  -6   1 355.552 188.170   6
   4   6  -1 543.652 277.482   2
   4   7   0 1656.47 510.840   7
   4   7   0 2210.12 525.578   2
  -4  -7   0 1945.79 544.502   6
   3  -6 -13 543.520 288.455   5
  -3   5  12 1290.21 316.214   7
   3  -5 -12 1352.36 411.730   5
  -3   4  11 2106.63 355.992   7
   3  -4 -11 2374.63 500.597   5
  -3   4  11 2372.70 311.176   3
  -3   3  10 797.564 167.480   3
  -3   3  10 801.566 181.539   7
   3  -3 -10 942.248 298.811   5
  -3   2   9 1423.54 212.218   3
   3  -2  -9 1599.95 356.598   5
   3  -1  -8 10211.2 622.921   4
   3  -1  -8 10694.3 755.256   1
   3  -1  -8 11284.4 869.230   5
   3  -1  -8 10268.0 570.839   3
   3   0  -7 21.2640 38.4781   5
   3   0  -7 64.3992 49.4747   3
   3   0  -7 61.0304 41.9004   4
   3   0  -7 74.3785 67.6765   1
  -3  -1   6 8609.45 559.185   7
  -3  -1   6 8850.05 724.748   6
   3   1  -6 9417.74 640.127   1
  -3  -2   5 955.191 246.896   6
   3   2  -5 944.757 192.333   1
  -3  -3   4 7178.51 722.699   6
   3   3  -4 7289.87 501.926   1
  -3  -3   4 6997.20 330.043   4
   3   4  -3 1625.24 379.113   7
  -3  -4   3 1759.83 245.207   4
   3   4  -3 1957.31 239.872   1
  -3  -4   3 1533.76 351.220   6
  -3  -5   2 805.794 272.960   6
   3   5  -2 402.542 144.767   2
   3   6  -1 808.045 331.839   7
   3   6  -1 573.876 212.583   2
  -3  -6   1 649.920 264.104   6
   3   7   0 468.147 266.041   7
   3   7   0 347.261 190.139   2
  -3  -7   0 313.102 266.445   6
  -3  -8  -1 302.078 277.022   6
   3   8   1-34.9338 95.7253   7
  -2   6  13 697.926 266.288   7
   2  -6 -13 436.385 297.001   5
  -2   5  12-53.4647 94.8792   7
   2  -5 -12 143.708 130.966   5
  -2   4  11 3880.56 555.825   7
   2  -4 -11 5101.34 744.262   5
  -2   4  11 6089.43 472.159   3
  -2   3  10 335.580 93.9971   3
   2  -3 -10 227.066 101.656   5
   2  -2  -9 6835.24 719.133   5
  -2   2   9 6162.37 355.091   3
   2  -1  -8 41151.5 1640.59   5
   2   0  -7 7637.08 474.410   4
  -2   0   7 7106.06 469.221   4
   2   0  -7 7327.84 645.600   5
   2   0  -7 7516.66 390.726   3
  -2  -1   6 13517.7 861.766   6
  -2  -1   6 13568.9 471.639   4
  -2  -2   5 493.405 142.701   7
  -2  -2   5 499.603 69.8104   4
  -2  -2   5 500.178 151.315   6
  -2  -3   4 61236.8 1965.08   6
  -2  -4   3 2456.55 432.156   6
   2   5  -2 576.602 235.020   7
  -2  -5   2 540.662 228.605   6
   2   5  -2 500.228 177.100   2
   2   6  -1 4881.99 730.357   7
  -2  -6   1 4947.29 710.627   6
   2   6  -1 5013.47 595.312   2
   2   7   0 43.0701 71.2315   2
  -2  -7   0-105.905 52.1316   6
   2   7   0-60.5844 146.730   7
   2   8   1-4.31641 93.2700   7
  -2  -8  -1-17.4526 102.416   6
  -2  -9  -2-242.308 203.013   6
  -1   7  14-389.722 250.206   7
  -1   6  13 118.708 129.551   7
   1  -6 -13 275.893 195.220   5
  -1   5  12 933.636 328.326   7
   1  -5 -12 1161.23 399.128   5
  -1   4  11 7313.24 843.887   7
   1  -4 -11 8066.86 941.998   5
   1  -3 -10 63.0353 108.169   5
   1  -2  -9 4267.30 555.443   5
  -1   1   8 21662.1 1081.46   4
   1  -1  -8 22198.1 1181.80   5
  -1   0   7 77902.0 1770.88   4
   1   0  -7 79203.3 1725.37   4
   1   0  -7 78670.9 2038.97   5
  -1  -1   6 68331.4 1394.68   4
   1   1  -6 67984.3 1405.99   4
   1   1  -6 68117.1 1796.71   5
  -1  -2   5 3460.17 402.656   6
  -1  -2   5 3108.35 263.577   4
  -1  -2   5 3411.12 310.105   1
  -1  -3   4 9901.04 460.277   1
  -1  -3   4 9082.57 702.019   6
  -1  -4   3 20473.4 1145.27   6
  -1  -5   2 151.854 105.588   6
   1   6  -1 4451.85 637.462   7
  -1  -6   1 4080.50 611.145   6
   1   6  -1 4654.95 500.947   2
   1   7   0 20250.1 1534.47   7
  -1  -7   0 18640.3 1441.99   6
   1   7   0 20009.5 1109.45   2
   1   8   1 433.916 232.669   7
  -1  -8  -1 739.016 343.135   6
  -1  -9  -2-223.129 191.204   6
   1   9   2 145.536 209.995   7
   0   6  13 198.967 158.649   7
   0  -6 -13 178.266 202.543   5
   0   5  12 247.616 264.139   7
   0  -5 -12 173.914 148.980   5
   0   4  11 516.471 213.679   7
   0  -4 -11 637.971 229.174   5
   0  -3 -10-136.211 170.759   5
   0   2   9 13079.6 1020.87   4
   0  -2  -9 14030.9 1023.80   5
   0   1   8 39380.2 1585.43   4
   0  -1  -8 38630.4 1530.15   5
   0   0   7 30708.3 1220.59   4
   0   0  -7 29609.0 1220.94   5
   0  -1   6 18518.1 839.816   4
   0   1  -6 19015.4 858.743   4
   0   1  -6 18433.8 925.625   6
   0   1  -6 18181.4 881.354   5
   0   1  -6 18067.6 361.564   3
   0  -2   5 45826.3 1390.45   6
   0   2  -5 47153.6 1406.88   6
   0  -2   5 45567.7 1237.12   4
   0   3  -4 9168.98 629.493   6
   0  -3   4 9277.92 651.049   6
   0  -4   3 5960.21 563.833   6
   0  -5   2 9414.72 795.537   6
   0  -5   2 7530.68 229.230   1
   0  -6   1 2417.36 440.298   6
   0   6  -1 2440.34 299.484   2
   0   7   0 220.394 76.9984   2
   0  -7   0 165.651 133.017   6
   0  -8  -1 1260.80 394.984   6
   0  -9  -2 639.772 315.258   6
   0 -10  -3-80.8741 129.937   6
   1   5  12-176.602 171.009   7
  -1  -5 -12 672.321 286.695   5
   1   4  11 13.7782 58.7833   7
  -1  -4 -11 284.477 180.470   5
   1   3  10-13.6791 61.3460   4
  -1  -3 -10-56.2730 104.186   5
   1   2   9-64.0041 133.469   4
  -1  -2  -9-58.1109 58.8786   5
   1   1   8 638.080 213.887   4
  -1  -1  -8 448.929 169.347   5
   1   0   7 27229.1 1286.84   4
  -1   0  -7 27181.8 1141.41   5
   1   0   7 27278.7 711.910   3
   1  -1   6 12896.4 796.351   4
  -1   1  -6 13249.7 712.788   5
   1  -1   6 13239.1 470.572   3
  -1   2  -5 2855.53 323.848   6
   1  -2   5 2839.42 353.488   4
  -1   2  -5 2876.60 246.603   3
   1  -3   4 1867.51 261.217   6
  -1   3  -4 1939.74 270.164   6
  -1   4  -3 9366.21 636.712   6
   1  -4   3 8928.80 638.916   6
   1  -5   2 20.0291 58.6193   6
   1  -6   1 286.551 142.086   6
  -1   7   0 42.3153 34.5604   2
   1  -7   0 79.7478 134.053   6
   1  -8  -1 3507.50 621.791   6
   1  -9  -2 273.285 182.084   6
   1 -10  -3 221.521 238.036   6
  -2  -5 -12 296.663 228.053   6
   2   4  11 207.038 191.154   7
  -2  -4 -11-235.700 163.733   5
   2   3  10 298.622 233.678   7
   2   3  10 245.240 218.866   4
  -2  -3 -10 468.222 264.228   5
   2   2   9-35.5620 124.660   4
  -2  -2  -9-48.2751 104.879   5
   2   1   8 68.8587 61.8548   4
  -2  -1  -8-2.89353 76.9143   5
   2   0   7 7018.40 712.415   4
  -2   0  -7 7024.56 563.456   5
   2  -1   6 22155.6 1159.14   4
  -2   1  -6 20295.4 841.079   5
   2  -1   6 20393.0 784.667   3
   2  -2   5 1.41698 28.7987   3
  -2   2  -5 70.1516 52.6222   5
  -2   2  -5 4.66460 22.4514   6
  -2   2  -5 120.157 57.3543   3
   2  -2   5 111.902 107.492   4
   2  -3   4 11681.9 609.588   6
  -2   3  -4 10917.8 569.739   6
  -2   3  -4 11353.1 635.065   2
  -2   3  -4 11780.7 633.721   3
   2  -4   3 731.845 176.102   6
  -2   4  -3 490.092 128.784   6
   2  -5   2 18.1589 40.1704   6
   2  -6   1 4702.10 544.499   6
   2  -7   0 3778.64 536.693   6
   2  -8  -1 826.160 285.339   6
   2  -9  -2-411.731 221.651   6
   2 -10  -3-69.2202 173.834   6
   3   4  11 199.918 191.765   7
  -3  -4 -11-169.452 157.504   6
   3   3  10 205.212 178.540   7
   3   3  10 198.952 146.426   4
  -3  -3 -10 429.976 229.761   6
   3   2   9 2111.62 486.567   4
  -3  -2  -9 1843.00 367.571   5
   3   1   8 23.7350 71.6587   4
  -3  -1  -8 132.866 101.854   5
   3   0   7 1168.91 306.457   4
  -3   0  -7 877.850 193.566   5
   3  -1   6 2.75937 42.7241   4
  -3   1  -6-18.2217 33.1339   5
  -3   2  -5 1317.45 201.986   6
  -3   2  -5 1592.49 261.092   3
  -3   2  -5 1243.73 162.726   5
   3  -2   5 1328.89 316.018   4
  -3   3  -4 675.501 182.391   3
  -3   3  -4 631.451 118.961   6
  -3   4  -3 1363.08 272.888   3
   3  -4   3 1596.45 211.628   6
  -3   4  -3 1453.74 186.863   6
  -3   4  -3 1619.96 253.193   2
   3  -5   2 1972.17 277.668   6
  -3   5  -2 2081.46 280.903   6
  -3   5  -2 1874.77 240.282   2
  -3   5  -2 2086.66 347.630   3
   3  -6   1 3457.50 426.156   6
   3  -7   0 1755.67 350.088   6
   3  -8  -1 2328.05 450.837   6
   3  -9  -2 929.935 320.577   6
   3 -10  -3 515.647 256.197   6
   3 -11  -4 110.454 157.298   6
   4   3  10-238.738 203.981   7
   4   3  10 180.198 144.612   4
   4   2   9 1159.77 430.750   7
   4   2   9 812.719 312.595   4
  -4  -2  -9 720.892 275.405   6
  -4  -1  -8 3407.14 520.681   6
   4   1   8 3078.15 599.251   4
   4   0   7 615.739 244.798   4
   4  -1   6 639.275 245.142   4
  -4   2  -5 7870.57 471.758   6
   4  -2   5 7912.80 778.661   4
  -4   3  -4 8217.16 695.244   3
  -4   3  -4 7046.16 294.356   6
   4  -3   4 8364.95 794.335   4
  -4   4  -3 2048.24 351.724   3
  -4   4  -3 1737.14 202.151   5
   4  -5   2 2759.23 275.271   6
  -4   5  -2 3037.53 348.962   5
  -4   5  -2 2840.61 423.701   3
  -4   6  -1 2.09493 94.2826   3
   4  -6   1 16.6720 65.0142   6
  -4   7   0 193.810 152.025   3
   4  -7   0 40.7142 74.9283   6
   4  -8  -1 1050.55 294.808   6
  -4   8   1 1392.42 346.856   3
   4  -9  -2 826.789 287.251   6
   4 -10  -3 1854.59 478.699   6
   4 -11  -4 556.168 288.919   6
   5   2   9 306.693 228.469   7
   5   2   9 368.902 287.676   4
   5   1   8 1151.66 419.881   7
   5   1   8 1755.86 475.884   4
   5   0   7 2255.71 504.622   4
   5  -1   6-52.1090 92.6019   4
   5  -2   5 1705.39 400.533   4
   5  -3   4 1319.07 336.650   4
  -5   4  -3 807.584 251.111   3
  -5   5  -2 1667.24 352.830   3
  -5   6  -1-102.029 130.272   3
   5  -6   1 48.0466 30.9999   6
  -5   7   0 2470.77 457.842   3
   5  -7   0 2153.68 325.167   6
  -5   8   1 851.764 302.239   3
   5  -8  -1 1002.02 248.651   6
  -5   9   2-138.191 112.872   3
   5  -9  -2-1.72756 81.8154   6
  -5  10   3-162.130 65.6044   3
   5 -10  -3 65.0221 96.6388   6
  -5  11   4-56.6781 102.268   3
   5 -11  -4 610.512 286.323   6
   6   1   8 108.610 160.696   7
   6   1   8 367.529 229.179   4
   6   0   7 460.514 242.395   4
   6   0   7 613.134 333.531   7
   6  -1   6 3669.05 653.557   4
   6  -2   5 172.813 139.799   4
   6  -3   4 839.256 300.210   2
   6  -3   4 918.791 306.492   4
   6  -4   3 993.340 293.546   2
   6  -4   3 985.581 330.483   4
   6  -5   2 21.2623 94.1425   2
  -6   5  -2 444.339 189.506   3
  -6   6  -1 90.7085 54.2815   3
  -6   7   0 163.880 126.504   3
  -6   8   1 110.456 131.562   3
  -6   9   2-43.1517 148.046   3
  -6  10   3 8.83725 121.829   3
   7  -1   6 1514.48 462.805   7
   7  -1   6 2256.20 546.563   4
   7  -2   5 505.657 246.640   4
   7  -3   4 1716.88 473.742   2
   7  -3   4 1149.50 390.175   4
   7  -4   3-249.021 163.924   2
   7  -4   3 173.104 126.459   4
   7  -5   2 478.064 217.701   2
  -7   5  -2 485.959 250.666   3
   7  -5   2 307.009 208.898   4
  -7   6  -1 671.992 281.711   3
  -7   7   0-42.3884 136.588   3
  -7   8   1-36.8260 126.126   3
  -7   9   2 87.7839 136.268   3
   8  -3   4-16.5088 64.8177   4
   8  -4   3 294.111 135.449   2
   8  -4   3-55.9042 93.2150   4
   8  -5   2 20.9206 97.7607   2
   8  -5   2-100.420 120.864   4
   8  -6   1-59.7989 101.552   4
  -8   7   0-487.884 254.659   3
  -8   8   1 284.106 230.647   3
   9  -7   0 421.536 267.723   4
   8  -3 -11 803.669 339.415   1
   8  -2 -10 218.266 162.051   1
   8  -1  -9 311.643 217.603   1
   8   0  -8-267.921 209.886   2
   8   0  -8 54.2334 76.9773   1
   8   1  -7-96.7936 191.856   1
   7  -6 -14 1044.55 398.653   5
   7  -5 -13-483.875 249.968   1
   7  -5 -13-265.107 192.573   5
   7  -4 -12 188.012 148.244   1
   7  -4 -12 417.058 212.465   5
   7  -3 -11-39.1719 64.7844   1
   7  -3 -11 126.462 130.618   5
   7  -2 -10 389.131 215.695   5
   7  -2 -10 218.835 190.954   1
   7  -1  -9 171.446 128.993   5
   7  -1  -9-1.22202 86.8416   1
   7   0  -8-44.8660 75.2281   1
   7   1  -7 2018.41 525.901   2
   7   1  -7 1669.83 415.145   1
   7   2  -6 3105.11 551.858   1
   7   2  -6 4481.24 840.257   2
   7   3  -5 355.754 255.362   2
   6  -6 -14 603.235 303.841   5
   6  -5 -13 102.867 73.3590   5
   6  -4 -12 755.508 303.146   5
   6  -4 -12 1169.43 364.185   1
   6  -3 -11-43.9828 60.5116   1
   6  -3 -11 285.182 164.391   5
   6  -2 -10 1435.68 363.376   5
   6  -2 -10 985.421 308.962   1
   6  -1  -9 4478.41 630.056   1
   6  -1  -9 3777.65 574.566   5
   6   0  -8 287.822 163.591   1
   6   0  -8 432.037 194.940   5
   6   1  -7 2037.61 401.062   5
  -6  -1   7 1837.09 398.327   6
   6   1  -7 2574.66 460.987   1
  -6  -2   6 2030.76 453.873   6
   6   2  -6 1592.99 372.638   1
  -6  -3   5 1075.86 341.111   6
   6   3  -5 261.441 160.200   1
   6   3  -5 759.081 316.936   2
   6   4  -4 237.256 194.022   2
  -6  -4   4 33.2836 74.3536   6
   6   4  -4 3.01637 43.7258   7
   6   5  -3 42.1821 99.1602   7
   6   5  -3 40.4983 207.175   2
   5  -6 -14 1392.47 410.065   5
   5  -5 -13 3206.37 668.610   5
  -5   4  12 4929.59 547.779   3
   5  -4 -12 4797.19 766.703   5
   5  -3 -11 2847.23 499.144   1
   5  -3 -11 3646.29 616.024   5
   5  -2 -10 1696.29 403.942   5
   5  -2 -10 1912.94 394.318   1
   5  -1  -9 1520.66 367.036   5
   5  -1  -9 1156.18 312.193   1
   5   0  -8 7505.54 737.787   1
   5   0  -8 8112.93 783.579   5
   5   1  -7 1642.25 331.575   1
   5   1  -7 1772.25 349.508   5
  -5  -1   7 1995.72 407.703   6
   5   2  -6 594.710 197.767   1
  -5  -2   6 572.472 199.570   6
   5   3  -5 5215.12 565.724   1
  -5  -3   5 4497.58 665.403   6
   5   4  -4 243.142 219.992   7
  -5  -4   4-76.7992 159.814   6
   5   4  -4 294.106 264.576   2
   5   5  -3-302.806 202.367   2
   5   5  -3-106.331 194.025   7
  -5  -5   3 57.1926 94.8737   6
   5   6  -2-275.402 212.516   7
   5   6  -2-90.4224 124.071   2
  -5  -6   2 55.6564 99.4270   6
   5   7  -1-125.767 140.723   2
  -5  -7   1 138.585 158.092   6
   4  -6 -14 220.740 196.303   5
   4  -5 -13 1469.06 435.309   5
  -4   4  12 1332.16 252.325   3
   4  -4 -12 1592.18 434.093   5
  -4   3  11 767.032 156.358   7
  -4   3  11 610.593 161.412   3
   4  -3 -11 723.717 231.334   5
   4  -2 -10 4.79122 56.6707   5
   4  -2 -10 94.7504 84.7253   1
  -4   1   9 10190.6 449.208   7
   4  -1  -9 9692.84 606.012   4
   4  -1  -9 9942.72 807.022   1
   4  -1  -9 10931.6 934.307   5
  -4   0   8 13625.5 621.587   7
   4   0  -8 13880.0 489.041   4
   4   0  -8 12830.0 895.330   1
   4   0  -8 14390.8 1014.07   5
  -4  -1   7 2682.62 335.629   7
  -4  -1   7 2502.18 425.998   6
   4   1  -7 2560.34 379.129   1
   4   1  -7 3156.39 460.286   5
  -4  -2   6 500.987 215.504   6
   4   2  -6 289.427 121.597   1
   4   3  -5 522.801 163.512   1
  -4  -3   5 491.502 198.222   6
  -4  -4   4 4690.37 682.130   6
   4   4  -4 5025.03 464.575   1
   4   5  -3 1280.55 387.928   7
  -4  -5   3 1133.31 357.285   6
   4   5  -3 966.951 331.180   2
   4   6  -2 240.859 187.612   7
   4   6  -2 194.740 143.802   2
  -4  -6   2 212.616 181.643   6
   4   7  -1-256.434 184.058   2
  -4  -7   1-169.963 165.222   6
   4   7  -1-298.358 224.508   7
   3  -6 -14 31.3588 71.2670   5
  -3   5  13 143.390 66.4322   7
   3  -5 -13 241.692 80.6757   5
  -3   4  12 5085.00 588.268   7
   3  -4 -12 4786.79 746.497   5
  -3   3  11-55.1244 86.6376   7
  -3   3  11-24.4999 62.6012   3
   3  -3 -11 23.5555 48.9388   5
   3  -2 -10 2439.98 461.381   5
   3  -1  -9 12060.3 956.153   5
   3  -1  -9 12765.3 614.246   3
   3   0  -8 13298.1 606.203   4
   3   0  -8 13744.2 850.811   1
   3   0  -8 12931.7 944.444   5
   3   0  -8 12769.8 657.690   3
  -3  -1   7 8702.32 763.029   6
  -3  -1   7 8444.75 576.146   7
   3   1  -7 8680.49 639.621   1
   3   1  -7 8779.56 747.980   5
  -3  -2   6 12511.2 934.657   6
   3   2  -6 12745.7 729.474   1
  -3  -3   5 852.130 262.812   6
   3   3  -5 526.753 143.195   1
  -3  -4   4 718.255 233.238   6
  -3  -4   4 472.302 113.261   4
   3   4  -4 593.583 139.003   1
   3   5  -3 1488.17 394.030   7
  -3  -5   3 1544.89 384.695   6
   3   5  -3 1118.43 298.672   2
   3   6  -2 384.503 173.457   2
   3   6  -2 972.547 321.522   7
  -3  -6   2 583.462 264.694   6
   3   7  -1-158.833 157.617   7
   3   7  -1-62.9386 126.514   2
  -3  -7   1-247.840 189.239   6
   3   8   0 945.777 363.225   7
  -3  -8   0 1095.01 475.995   6
  -2   6  14 1364.08 407.933   7
   2  -6 -14 878.667 406.291   5
  -2   5  13-35.3248 107.317   7
   2  -5 -13-31.2980 77.7056   5
  -2   4  12 3217.14 525.474   7
   2  -4 -12 3765.58 667.781   5
   2  -3 -11 54068.1 2306.93   5
  -2   3  11 54090.3 1179.38   3
  -2   2  10 986.355 135.337   3
   2  -2 -10 1253.76 336.360   5
   2  -1  -9 10624.3 886.435   5
   2   0  -8 38836.9 1183.47   4
  -2   0   8 41537.6 1252.84   4
   2   0  -8 41221.5 1614.30   5
   2   0  -8 39190.9 865.394   3
  -2  -1   7-43.4177 61.4652   6
   2   1  -7 21.7298 79.8081   5
  -2  -1   7 139.172 66.3746   4
   2   1  -7 50.6891 41.8618   4
  -2  -2   6 42610.9 1611.85   6
  -2  -2   6 43045.3 801.399   4
  -2  -3   5 7459.76 701.581   6
  -2  -4   4 11402.2 932.176   6
  -2  -5   3 312.266 124.911   6
  -2  -6   2 2317.73 469.731   6
   2   6  -2 2265.63 394.824   2
   2   7  -1 125.804 160.538   7
   2   7  -1 27.7243 77.2544   2
  -2  -7   1-21.4749 63.1390   6
   2   8   0 2328.10 626.754   7
  -2  -8   0 2646.69 613.332   6
  -2  -9  -1 203.410 220.604   6
  -1   6  14 357.142 228.615   7
   1  -6 -14 81.3341 164.140   5
  -1   5  13 348.759 207.330   7
   1  -5 -13 355.931 256.458   5
  -1   4  12 175.777 102.249   7
   1  -4 -12 191.732 53.5007   5
   1  -3 -11 5543.41 732.908   5
   1  -2 -10 7152.55 756.112   5
  -1   2  10 7575.22 326.318   3
   1  -1  -9 342.737 161.509   5
  -1   1   9 66.6135 98.3286   4
   1   0  -8 661.744 196.803   5
  -1   0   8 1232.41 264.472   4
  -1  -1   7 185379. 2588.80   4
   1   1  -7 187416. 2590.64   4
   1   1  -7 186754. 3195.21   5
  -1  -2   6 82592.0 2111.56   6
  -1  -2   6 83612.0 1524.72   4
  -1  -3   5 5435.83 561.724   6
  -1  -3   5 4718.06 355.364   1
  -1  -4   4 10105.5 453.062   1
  -1  -4   4 10611.0 835.425   6
  -1  -5   3 613.728 213.396   6
  -1  -6   2 678.790 259.297   6
   1   7  -1 203.547 79.0558   2
  -1  -7   1 30.5725 79.5279   6
  -1  -8   0 1325.23 418.588   6
  -1  -9  -1 1052.60 408.841   6
   0   6  14-60.9067 112.435   7
   0  -6 -14 17.3794 158.973   5
   0   5  13 1361.05 460.341   7
   0  -5 -13 2127.73 557.107   5
   0   4  12 427.069 236.228   7
   0  -4 -12 110.263 135.378   5
   0  -3 -11 38.0386 99.6426   5
   0   2  10 2027.71 429.834   4
   0  -2 -10 2977.23 505.134   5
   0   1   9 491.610 73.1302   3
   0   1   9 560.861 208.496   4
   0  -1  -9 477.550 207.085   5
   0   0   8 9098.50 718.069   4
   0   0  -8 9745.03 744.532   5
   0   1  -7 126.261 91.4593   5
   0  -1   7 176.935 98.3302   4
   0  -2   6 128.517 89.3483   6
   0  -2   6 94.9322 83.6922   4
   0  -3   5 13592.9 826.515   6
   0  -4   4 3700.12 452.594   6
   0  -5   3 32463.5 1492.91   6
   0  -6   2-106.169 133.940   6
   0   7  -1 16.9235 41.4402   2
   0  -7   1-78.8567 61.4373   6
   0  -8   0 9797.19 1076.74   6
   0  -9  -1 1155.74 391.533   6
   0 -10  -2-627.320 318.862   6
   1   5  13 276.459 227.773   7
  -1  -5 -13 96.6078 196.244   5
   1   4  12 278.476 185.795   7
  -1  -4 -12 510.785 243.710   5
   1   3  11 8278.42 979.764   4
  -1  -3 -11 7401.82 859.629   5
   1   2  10 798.653 287.225   4
  -1  -2 -10 868.075 252.952   5
   1   1   9 2118.89 231.049   3
   1   1   9 2035.68 410.577   4
  -1  -1  -9 2205.96 391.447   5
   1   0   8 5386.06 599.126   4
  -1   0  -8 5310.85 541.535   5
   1   0   8 5244.94 314.978   3
  -1   1  -7 4864.46 473.087   5
   1  -1   7 4896.51 530.193   4
   1  -1   7 5464.90 302.155   3
  -1   2  -6 45478.7 1422.18   6
   1  -2   6 45877.1 1515.09   4
  -1   2  -6 45390.5 1382.34   5
  -1   2  -6 47646.4 1007.50   3
   1  -3   5 3449.21 389.947   6
  -1   3  -5 3011.09 357.890   6
   1  -4   4 115980. 2372.58   6
   1  -5   3-2.67342 61.0682   6
   1  -6   2 9797.50 837.427   6
   1  -7   1 579.715 224.070   6
   1  -7   1 356.605 63.3671   1
  -1   7  -1 506.962 107.227   2
   1  -8   0 1386.67 372.816   6
   1  -9  -1 5133.49 812.091   6
   1 -10  -2 362.725 241.333   6
   2   4  12 458.469 310.969   7
  -2  -4 -12 221.528 164.831   5
   2   3  11-160.506 218.922   7
   2   3  11 445.646 278.850   4
  -2  -3 -11 161.829 160.240   5
   2   2  10 4181.71 680.742   4
  -2  -2 -10 3115.81 508.893   5
   2   1   9 135.211 112.683   4
  -2  -1  -9-17.8697 77.7209   5
   2   0   8 17129.4 1170.73   4
  -2   0  -8 18373.4 987.445   5
  -2   1  -7 1411.68 242.312   5
   2  -1   7 1401.44 304.433   4
   2  -1   7 1371.51 206.604   3
  -2   2  -6 4605.98 436.948   6
   2  -2   6 4176.20 515.535   4
  -2   2  -6 4790.42 409.462   5
   2  -2   6 4345.67 367.387   3
  -2   2  -6 4554.02 379.128   3
   2  -3   5 1781.96 259.084   6
  -2   3  -5 1455.12 225.046   6
  -2   3  -5 1510.04 231.305   3
   2  -4   4 47296.7 1384.52   6
  -2   4  -4 45696.2 1325.41   6
  -2   4  -4 45910.3 1373.44   3
   2  -5   3 14026.5 833.410   6
   2  -6   2 5082.55 566.813   6
   2  -7   1 3616.73 539.262   6
   2  -8   0 676.017 135.644   1
   2  -8   0 588.875 247.389   6
   2  -9  -1 100.990 136.621   6
   2 -10  -2 163.238 49.2954   6
   2 -11  -3 389.970 254.013   6
  -3  -4 -12-21.1832 74.6945   6
   3   3  11 37.8746 128.359   7
   3   3  11-29.4788 156.832   4
  -3  -3 -11-149.130 140.953   6
   3   2  10 1878.42 475.718   4
  -3  -2 -10 1691.49 370.596   5
   3   1   9-62.0928 96.7377   4
  -3  -1  -9 68.2317 79.7884   5
   3   0   8 57.4117 45.0598   4
  -3   0  -8-140.528 83.3469   5
   3  -1   7 6979.69 743.507   4
  -3   1  -7 7271.05 516.116   5
  -3   2  -6 155.147 58.8191   5
  -3   2  -6 83.5779 65.1524   6
   3  -2   6 237.653 163.185   4
  -3   3  -5 27814.9 924.364   6
   3  -3   5 30758.7 1457.55   4
  -3   3  -5 27690.4 892.200   5
  -3   3  -5 28764.4 1148.00   3
   3  -4   4 32399.1 1031.51   6
  -3   4  -4 30109.4 948.973   6
  -3   4  -4 31317.6 1256.62   3
   3  -5   3 33996.9 1182.00   6
  -3   5  -3 33742.4 1146.03   6
  -3   5  -3 33647.0 1112.49   2
  -3   5  -3 33651.6 1361.49   3
   3  -6   2 6162.32 570.183   6
  -3   6  -2 6037.61 384.302   2
   3  -7   1 386.143 162.384   6
   3  -8   0 1019.47 295.594   6
   3  -9  -1 4154.17 660.921   6
   3 -10  -2 842.108 339.607   6
   3 -11  -3-90.9384 120.291   6
   4   3  11 21.3428 63.0188   4
   4   2  10-20.7390 157.568   7
   4   2  10 105.290 243.697   4
  -4  -2 -10 35.3314 69.1543   6
   4   1   9 285.865 181.818   4
  -4  -1  -9 331.408 146.185   6
   4   0   8 920.780 312.817   4
   4  -1   7 330.237 162.335   4
  -4   1  -7 358.580 101.508   5
  -4   2  -6 1646.47 244.603   6
  -4   2  -6 1709.84 163.568   5
   4  -2   6 1906.58 413.182   4
  -4   3  -5 2324.98 375.268   3
  -4   3  -5 2405.70 235.027   6
  -4   3  -5 2182.12 174.213   5
   4  -3   5 2259.91 433.794   4
  -4   4  -4 236.357 114.485   3
  -4   4  -4 166.856 51.1428   6
  -4   4  -4 242.862 76.7867   5
   4  -5   3 4985.09 374.827   6
  -4   5  -3 4399.77 418.701   5
  -4   5  -3 4490.01 537.749   3
  -4   6  -2 1191.06 294.875   3
   4  -6   2 1287.94 235.848   6
  -4   6  -2 1176.16 209.200   2
  -4   7  -1 109.315 111.427   3
   4  -7   1 262.472 126.064   6
  -4   8   0 1564.61 368.458   3
   4  -8   0 982.502 266.367   6
   4  -9  -1 1016.47 304.694   6
   4 -10  -2 733.633 301.361   6
   4 -11  -3 172.671 159.089   6
   5   2  10-94.9386 128.869   4
   5   1   9 938.141 409.530   7
   5   1   9 992.827 379.939   4
   5   0   8 1160.33 391.485   4
   5  -1   7 1733.16 428.866   4
   5  -2   6 191.722 138.438   4
   5  -3   5 291.610 162.935   4
  -5   4  -4 1136.59 303.901   3
   5  -4   4 858.579 281.035   4
  -5   5  -3 699.054 230.681   3
  -5   6  -2 649.237 219.351   3
  -5   7  -1-174.455 128.342   3
   5  -7   1 77.7825 29.1645   6
  -5   8   0 1098.80 330.075   3
   5  -8   0 1141.68 272.134   6
  -5   9   1 350.860 191.755   3
   5  -9  -1-81.4356 101.403   6
  -5  10   2 458.196 232.244   3
   5 -10  -2 526.986 227.349   6
  -5  11   3 547.504 304.835   3
   5 -11  -3 194.482 160.143   6
   6   1   9 190.548 172.044   4
   6   0   8 474.778 217.402   4
   6  -1   7 1315.31 406.000   4
   6  -2   6-89.2658 53.6561   4
   6  -3   5 3301.62 600.843   4
   6  -4   4 724.833 286.503   4
  -6   5  -3 234.632 175.009   3
  -6   6  -2 107.470 96.0065   3
  -6   7  -1 166.155 120.729   3
  -6   8   0-29.8553 102.479   3
  -6   9   1 214.954 119.145   3
  -6  10   2 419.736 297.346   3
   7  -1   7 862.228 344.379   4
   7  -1   7 1538.36 474.635   7
   7  -2   6 263.948 188.838   4
   7  -3   5 282.840 210.859   4
   7  -4   4 366.047 187.646   4
   7  -5   3 71.6575 146.856   4
  -7   6  -2 137.740 117.075   3
  -7   7  -1 634.530 300.960   3
  -7   8   0 263.758 154.506   3
  -7   9   1 90.2435 133.952   3
   8  -3   5 634.816 297.988   4
   8  -4   4 342.794 217.233   4
   8  -5   3 314.275 197.133   4
   8  -6   2 88.0139 52.4375   4
  -8   7  -1-141.950 149.938   3
  -8   8   0 373.370 268.607   3
   9  -7   1 143.372 154.997   4
   8  -2 -11-104.209 142.141   1
   8  -1 -10-66.4961 143.050   1
   8   0  -9 284.773 178.122   1
   8   0  -9 225.172 108.829   2
   8   1  -8 617.913 274.489   1
   7  -5 -14 1062.55 388.753   5
   7  -4 -13 181.912 196.065   1
   7  -4 -13-329.196 212.693   5
   7  -3 -12 72.6346 79.8631   1
   7  -3 -12 67.3801 50.2321   5
   7  -2 -11-33.0203 124.401   5
   7  -2 -11 49.0817 113.481   1
   7  -1 -10 81.3610 126.710   5
   7  -1 -10-21.2769 145.454   1
   7   0  -9 735.784 264.828   5
   7   0  -9 557.439 248.791   1
   7   1  -8 1868.99 426.613   1
   7   2  -7 2743.38 513.364   1
   7   2  -7 3589.50 746.659   2
   7   3  -6 1475.25 497.243   2
   6  -5 -14 97.2454 49.8113   5
   6  -4 -13 438.845 234.423   5
   6  -3 -12 387.704 203.087   1
   6  -3 -12 591.748 268.323   5
   6  -2 -11 1247.22 366.764   5
   6  -2 -11 1332.68 367.054   1
   6  -1 -10 955.876 303.220   5
   6  -1 -10 1282.62 334.109   1
   6   0  -9 211.290 112.248   5
   6   0  -9 391.904 196.504   1
   6   1  -8 282.214 174.597   5
  -6  -1   8 136.159 125.816   6
   6   1  -8 56.5513 88.7364   1
   6   2  -7 371.508 168.829   1
   6   2  -7 374.784 187.541   5
  -6  -2   7 691.384 249.161   6
   6   3  -6 2747.17 457.764   1
  -6  -3   6 2329.46 514.462   6
   6   3  -6 2349.86 605.491   2
  -6  -4   5 558.072 274.324   6
   6   4  -5 343.547 159.498   2
   6   5  -4-23.7416 163.515   2
  -6  -5   4 260.429 195.154   6
   5  -6 -15 2825.88 678.408   5
   5  -5 -14 2843.87 650.034   5
   5  -4 -13 855.684 350.282   5
   5  -3 -12 20.6288 68.3416   5
   5  -2 -11-60.3742 97.0924   5
   5  -2 -11 4.60758 69.2042   1
   5  -1 -10 21.5608 118.661   5
   5  -1 -10 14.7464 78.9433   1
   5   0  -9 584.219 218.290   1
   5   0  -9 494.653 194.504   5
  -5  -1   8 5226.88 678.978   6
   5   1  -8 5382.68 618.963   1
   5   1  -8 5011.71 652.555   5
  -5  -2   7 4466.89 639.341   6
   5   2  -7 4118.34 532.715   1
  -5  -3   6 6038.51 788.457   6
   5   3  -6 5242.49 575.981   1
  -5  -4   5 2329.33 522.958   6
   5   4  -5 2889.44 591.126   2
  -5  -5   4 605.566 283.272   6
   5   5  -4 737.404 320.405   2
   5   6  -3-103.086 183.731   2
  -5  -6   3 379.794 261.461   6
   5   7  -2 369.442 206.135   2
  -5  -7   2 452.946 273.406   6
   4  -6 -15 197.637 146.589   5
   4  -5 -14 650.244 347.179   5
   4  -4 -13 3294.42 643.578   5
   4  -3 -12-127.482 122.253   5
   4  -2 -11 1413.36 377.004   5
   4  -1 -10 645.214 244.338   5
   4   0  -9 7291.60 415.797   4
   4   0  -9 7146.66 678.746   1
  -4   0   9 7094.67 474.677   7
   4   0  -9 8025.91 795.556   5
  -4  -1   8 2412.94 325.634   7
   4   1  -8 2364.65 419.779   5
  -4  -1   8 2191.88 413.887   6
   4   1  -8 2551.35 394.200   1
  -4  -2   7 4090.54 577.761   6
   4   2  -7 3985.06 473.009   1
  -4  -3   6 9571.58 935.706   6
   4   3  -6 8551.77 658.267   1
  -4  -4   5 350.040 184.973   6
   4   4  -5 443.222 144.036   1
  -4  -5   4 112.039 102.858   6
   4   5  -4 523.072 259.930   2
   4   6  -3 262.421 178.939   2
  -4  -6   3 107.015 134.563   6
   4   7  -2 286.858 218.602   2
  -4  -7   2 32.3452 94.8348   6
   3  -6 -15-165.356 240.952   5
   3  -5 -14 296.137 209.919   5
  -3   4  13 8657.09 804.556   7
   3  -4 -13 10403.8 1143.47   5
  -3   3  12 11351.0 582.075   3
   3  -3 -12 12001.5 1119.46   5
   3  -2 -11 146.390 156.212   5
   3  -1 -10-25.7740 52.3111   5
   3  -1 -10 6.54343 44.2513   3
   3   0  -9 13510.0 686.266   4
   3   0  -9 13701.3 1016.98   5
   3   0  -9 13143.2 657.254   3
  -3  -1   8 5072.43 605.961   6
   3   1  -8 6124.66 648.860   5
  -3  -2   7 3107.09 482.468   6
  -3  -3   6 5649.77 679.624   6
  -3  -4   5 2349.90 221.820   4
  -3  -4   5 2868.94 514.553   6
  -3  -5   4 3981.09 641.335   6
  -3  -6   3 1656.22 461.689   6
   3   6  -3 903.561 258.990   2
   3   7  -2 25.7799 70.0235   2
  -3  -7   2-194.815 150.913   6
   3   8  -1 68.5483 138.866   2
  -3  -8   1 207.834 160.015   6
   2  -6 -15-124.222 146.191   5
  -2   5  14 208.954 214.758   7
   2  -5 -14 138.728 147.039   5
  -2   4  13 3550.34 576.594   7
   2  -4 -13 3915.54 706.124   5
   2  -3 -12 517.430 232.445   5
  -2   2  11 1871.69 161.354   3
   2  -2 -11 2237.24 453.077   5
   2  -1 -10 2096.02 409.354   5
  -2   0   9 15139.9 846.384   4
   2   0  -9 15513.7 1057.29   5
   2   0  -9 15352.2 499.184   3
  -2  -1   8 41140.1 1164.76   4
   2   1  -8 41212.6 1167.00   4
   2   1  -8 40765.6 1649.16   5
  -2  -2   7 1453.35 173.989   4
  -2  -2   7 1387.72 306.609   6
  -2  -3   6 982.584 260.023   6
  -2  -4   5 1805.51 380.925   6
  -2  -5   4 2674.98 484.050   6
  -2  -6   3 1488.20 372.216   6
   2   7  -2 556.459 189.757   2
  -2  -7   2 789.259 323.258   6
   2   8  -1 241.178 122.090   2
  -2  -8   1 51.1767 56.0359   6
  -2  -9   0-55.5217 102.051   6
  -1   6  15 1315.74 446.908   7
  -1   5  14 262.424 190.853   7
   1  -5 -14 401.467 268.890   5
  -1   4  13 955.948 314.779   7
   1  -4 -13 563.877 251.746   5
   1  -3 -12 154.969 177.631   5
  -1   2  11 9010.51 887.058   4
   1  -2 -11 7958.13 838.416   5
  -1   2  11 7556.35 278.795   3
   1  -1 -10 256.898 92.7778   5
  -1   1  10 202.938 131.137   4
  -1   0   9 26599.0 1221.81   4
   1   0  -9 26813.9 1353.51   5
  -1  -1   8 17763.0 870.229   4
   1   1  -8 17783.8 1037.61   5
  -1  -2   7 12764.6 885.701   6
  -1  -2   7 12816.7 661.009   4
  -1  -3   6 284.530 97.0412   1
  -1  -3   6 347.136 115.844   6
  -1  -4   5 853.461 254.156   6
  -1  -4   5 907.063 154.239   1
  -1  -5   4 10500.7 922.886   6
  -1  -6   3 616.522 224.186   6
  -1  -7   2 1020.97 305.068   6
   1   7  -2 1578.14 297.065   2
   1   8  -1-29.0044 75.5512   2
  -1  -8   1 45.2798 124.282   6
  -1  -9   0-100.267 127.798   6
   0   5  14 10.6353 57.3245   7
   0  -5 -14 73.9386 139.442   5
   0   4  13 11.0875 68.0597   7
   0  -4 -13-370.909 216.674   5
   0  -3 -12 142.009 136.850   5
   0   2  11 8673.44 908.162   4
   0  -2 -11 8660.48 900.258   5
   0   1  10 18182.4 1206.53   4
   0  -1 -10 17293.2 1158.27   5
   0   1  10 15721.7 343.253   3
   0   0  -9 715.772 212.726   5
   0   0   9 503.540 174.191   4
   0  -1   8 15963.2 925.263   4
   0   1  -8 16453.9 961.391   5
   0  -2   7 46978.0 1461.46   4
   0  -3   6 7795.36 659.125   6
   0  -4   5 21264.7 1135.96   6
   0  -5   4 18048.5 1117.30   6
   0  -6   3 4103.80 594.064   6
   0  -6   3 3845.33 201.563   1
   0  -7   2 1770.42 414.216   6
   0  -8   1 858.706 309.942   6
   0  -9   0 136.925 164.683   6
   0 -10  -1 99.0969 134.514   6
  -1  -5 -14 173.171 163.418   5
   1   4  13 71.2090 84.2239   7
  -1  -4 -13 209.648 168.846   5
   1   3  12 901.173 338.873   4
  -1  -3 -12 849.193 304.215   5
   1   2  11 1111.10 339.518   4
  -1  -2 -11 1175.21 331.397   5
   1   1  10 849.087 290.791   4
   1   1  10 845.861 139.467   3
  -1  -1 -10 1060.54 284.558   5
  -1   0  -9 738.403 215.673   5
   1   0   9 711.493 114.288   3
   1   0   9 724.387 252.283   4
   1  -1   8 5721.45 608.720   4
  -1   1  -8 5295.42 528.302   5
   1  -2   7 13657.2 874.442   4
  -1   2  -7 13282.4 799.727   5
  -1   2  -7 13457.2 536.871   3
   1  -3   6 185.030 107.131   6
   1  -4   5 5440.22 532.409   6
   1  -5   4 312.085 156.408   6
   1  -6   3 6731.44 698.857   6
   1  -7   2 1010.55 312.951   6
   1  -8   1 586.143 232.335   6
   1  -9   0-106.488 121.030   6
   1 -10  -1 137.262 55.2593   6
   2   4  13 524.314 294.628   7
  -2  -4 -13 1016.21 373.056   5
   2   3  12 2813.57 646.938   7
   2   3  12 1935.17 515.582   4
  -2  -3 -12 2503.23 523.244   5
   2   2  11 1486.30 414.530   4
  -2  -2 -11 1173.19 334.923   5
   2   1  10 865.885 322.726   4
  -2  -1 -10 1115.01 275.500   5
   2   0   9 7098.76 787.857   4
  -2   0  -9 7334.34 673.294   5
  -2   1  -8 788.748 200.290   5
   2  -1   8 785.351 159.236   3
   2  -1   8 722.109 231.377   4
  -2   2  -7 17780.9 753.919   3
   2  -2   7 18431.0 1124.66   4
  -2   2  -7 17938.3 876.532   5
   2  -2   7 18962.1 769.758   3
  -2   3  -6 11149.3 698.650   6
   2  -3   6 11535.7 868.455   4
  -2   3  -6 12166.1 658.185   3
   2  -4   5 9556.98 660.057   6
  -2   4  -5 10208.7 665.654   6
  -2   4  -5 10641.9 673.600   3
   2  -5   4 278.623 131.632   6
   2  -6   3 16406.4 1022.11   6
   2  -7   2 1384.57 328.552   6
   2  -8   1 107.093 79.9566   6
   2  -9   0 2694.75 551.077   6
   2 -10  -1 500.099 250.130   6
   2 -11  -2 239.493 198.334   6
  -3  -4 -13 392.496 247.802   6
   3   3  12-33.2476 92.4645   7
   3   3  12 51.6811 96.5120   4
   3   2  11 389.107 242.364   4
   3   1  10 7220.11 928.868   4
  -3  -1 -10 6028.04 653.192   5
   3   0   9-23.4013 76.5940   4
  -3   0  -9 35.1311 26.3667   5
   3  -1   8 279.526 171.970   4
  -3   1  -8 164.279 85.3549   5
   3  -2   7 26280.1 1436.23   4
  -3   2  -7 25362.6 961.947   5
  -3   3  -6 1067.80 187.381   5
  -3   3  -6 803.130 179.092   6
  -3   3  -6 854.795 207.794   3
   3  -3   6 617.798 222.181   4
  -3   4  -5 1569.28 239.381   6
  -3   4  -5 2081.30 332.572   3
  -3   5  -4 152.088 107.173   3
   3  -5   4 91.3251 41.6661   6
  -3   5  -4 99.1062 52.8222   6
   3  -6   3 17664.4 972.290   6
  -3   6  -3 16206.6 724.420   2
  -3   6  -3 17151.5 1050.30   3
  -3   7  -2 4.42218 10.0554   2
   3  -7   2-16.6530 81.1422   6
   3  -8   1 326.206 179.365   6
   3  -9   0 289.178 185.427   6
   3 -10  -1 930.207 324.519   6
   3 -11  -2-21.3789 188.386   6
   4   2  11 175.474 151.609   7
   4   2  11 416.919 259.870   4
   4   1  10 28.2690 71.9109   4
   4   0   9-48.2090 75.1343   4
   4  -1   8 1286.52 346.769   4
   4  -2   7 7808.84 851.378   4
  -4   2  -7 6690.30 398.874   5
  -4   3  -6 510.333 103.627   5
  -4   3  -6 614.490 142.346   6
  -4   3  -6 554.137 176.178   3
   4  -3   6 750.296 248.984   4
  -4   4  -5 285.246 96.5364   5
  -4   4  -5 163.720 116.015   3
  -4   4  -5 157.390 57.9788   6
   4  -5   4-41.0276 60.1955   6
  -4   5  -4-26.9018 97.7618   3
  -4   5  -4 9.28509 22.8601   6
  -4   5  -4 90.8379 61.7444   5
   4  -6   3 8093.98 598.467   6
  -4   6  -3 9652.11 828.922   3
   4  -7   2 10568.1 779.365   6
  -4   7  -2 9751.53 869.518   3
   4  -8   1 3903.74 542.040   6
  -4   8  -1 4943.90 664.813   3
   4  -9   0-69.5248 87.1509   6
   4 -10  -1 333.284 161.093   6
   4 -11  -2 36.7515 116.934   6
   5   1  10 216.926 263.435   7
   5   1  10-110.370 132.349   4
   5   0   9 479.701 248.918   4
   5  -1   8 560.243 233.238   4
   5  -2   7 330.106 195.841   4
   5  -3   6 3169.53 577.262   4
  -5   4  -5 4541.69 594.078   3
   5  -4   5 4934.13 699.207   4
  -5   5  -4 1550.47 339.516   3
  -5   6  -3 131.487 135.499   3
  -5   7  -2 1097.32 330.541   3
  -5   8  -1 343.728 211.891   3
   5  -8   1 230.446 113.682   6
  -5   9   0 278.209 218.290   3
   5  -9   0-31.2354 34.6016   6
  -5  10   1 76.2051 114.434   3
   5 -10  -1 167.497 133.680   6
  -5  11   2 1154.56 424.140   3
   6   0   9-85.5425 62.4925   4
   6  -1   8-322.179 208.869   4
   6  -2   7 2047.49 529.781   4
   6  -3   6-143.868 107.822   4
   6  -4   5 1677.06 442.894   4
  -6   5  -4 593.763 250.051   3
   6  -5   4 650.175 286.687   4
  -6   6  -3 1113.50 354.680   3
  -6   7  -2 17.4706 50.1526   3
  -6   8  -1 69.5249 70.3533   3
  -6   9   0 673.529 275.777   3
  -6  10   1 469.515 255.552   3
   7  -1   8 393.521 244.977   4
   7  -2   7 208.065 199.346   4
   7  -3   6 244.222 188.523   4
   7  -4   5 347.131 213.540   4
   7  -5   4 419.917 251.018   4
  -7   6  -3 1040.30 352.761   3
  -7   7  -2 335.093 200.311   3
  -7   8  -1-107.737 165.154   3
  -7   9   0 51.8368 149.104   3
   8  -3   6 567.170 291.650   4
   8  -4   5 119.319 134.504   4
   8  -5   4 683.301 330.806   4
   8  -6   3 772.276 371.803   4
  -8   7  -2-44.3450 167.985   3
  -8   8  -1 2.65537 87.9192   3
   8  -1 -11 360.281 188.284   1
   8   0 -10 497.524 256.052   1
   8   1  -9 934.780 348.094   1
   7  -5 -15 39.8581 149.318   5
   7  -4 -14 110.405 55.7981   5
   7  -3 -13 666.885 278.569   1
   7  -3 -13 709.094 301.789   5
   7  -2 -12 108.400 128.373   5
   7  -2 -12 148.182 178.288   1
   7  -1 -11 59.8032 102.191   5
   7  -1 -11-2.57938 120.551   1
   7   0 -10 35.6623 69.0420   5
   7   0 -10-275.826 174.517   1
   7   1  -9 577.824 260.440   1
   7   2  -8 97.0982 75.8967   1
   7   3  -7 1296.18 444.303   2
   6  -5 -15 78.3086 80.0020   5
   6  -4 -14 333.694 195.204   5
   6  -3 -13 792.096 297.824   5
   6  -2 -12 482.619 231.620   5
   6  -2 -12 748.170 266.507   1
   6  -1 -11-64.0142 143.865   5
   6  -1 -11-26.1001 134.757   1
   6   0 -10 533.055 236.178   5
   6   0 -10 294.069 149.202   1
   6   1  -9 417.032 215.274   5
   6   1  -9 544.535 259.063   1
   6   2  -8 267.365 179.006   5
  -6  -2   8 95.5686 89.9222   6
  -6  -3   7 1199.55 380.723   6
   6   3  -7 1173.99 304.907   1
  -6  -4   6 14.3494 63.7326   6
   6   4  -6 199.166 164.739   2
   6   5  -5 14.5906 106.603   2
  -6  -5   5 68.8224 107.220   6
   5  -5 -15 4166.62 800.791   5
   5  -4 -14 1232.33 440.417   5
   5  -3 -13 1875.14 474.672   5
   5  -2 -12 1312.25 379.364   5
   5  -1 -11-71.4290 64.1265   5
   5  -1 -11-92.8627 159.309   1
   5   0 -10 6373.18 706.187   1
   5   0 -10 6304.82 763.844   5
   5   1  -9 11181.1 924.071   1
   5   1  -9 13583.0 1092.66   5
   5   2  -8 351.402 154.456   1
   5   2  -8 374.581 181.516   5
  -5  -2   8 126.444 59.9683   6
  -5  -3   7 6229.86 813.626   6
   5   3  -7 5650.27 616.150   1
  -5  -4   6 8129.68 992.536   6
   5   4  -6 7023.01 642.579   1
  -5  -5   5 499.202 233.306   6
   5   5  -5 818.971 300.056   2
   5   6  -4 352.238 243.078   2
  -5  -6   4 481.749 266.532   6
   5   7  -3-102.809 237.634   2
  -5  -7   3-20.9345 72.5876   6
   4  -5 -15 362.208 259.489   5
   4  -4 -14 156.758 142.365   5
   4  -3 -13 411.093 212.955   5
   4  -2 -12 682.873 294.961   5
   4  -1 -11 3204.92 554.446   5
   4   0 -10 2138.50 429.200   5
   4   0 -10 2143.40 255.594   4
   4   1  -9 8740.55 755.510   1
   4   1  -9 8343.80 836.167   5
  -4  -2   8 12069.9 1039.34   6
   4   2  -8 12348.8 856.190   1
  -4  -3   7 531.350 180.614   6
   4   3  -7 696.595 196.847   1
   4   4  -6 247.492 124.113   1
  -4  -4   6 141.195 85.4770   6
  -4  -5   5 6700.35 883.608   6
  -4  -6   4-210.837 169.581   6
   4   6  -4-4.55970 146.941   2
   4   7  -3 131.676 138.362   2
  -4  -7   3-2.94212 60.3400   6
   4   8  -2 423.593 239.154   2
   3  -5 -15 840.352 362.425   5
  -3   4  14 2130.44 415.990   7
   3  -4 -14 1847.75 499.085   5
   3  -3 -13 7087.89 893.610   5
   3  -2 -12 256.889 160.483   5
   3  -1 -11 8286.65 889.395   5
   3   0 -10 9308.51 885.781   5
   3   0 -10 9045.37 527.776   3
   3   1  -9 2663.99 461.132   5
  -3  -2   8 245.300 159.315   6
  -3  -3   7 505.140 235.923   6
  -3  -4   6 5048.18 693.662   6
  -3  -4   6 4703.08 268.058   4
  -3  -5   5 20441.8 1462.63   6
  -3  -6   4 598.042 260.468   6
  -3  -7   3 127.223 105.230   6
   3   7  -3 281.674 202.603   2
  -3  -8   2-119.052 140.119   6
   3   8  -2 103.880 96.0342   2
  -2   5  15 135.406 173.713   7
   2  -5 -15 74.2712 188.706   5
  -2   4  14 65.2476 97.9106   7
   2  -4 -14 94.1641 179.980   5
   2  -3 -13 38.2165 140.191   5
   2  -2 -12 9072.83 960.085   5
   2  -1 -11 277.012 157.584   5
  -2   0  10 5303.17 532.055   4
   2   0 -10 4367.90 590.412   5
   2   1  -9 3770.53 291.399   3
  -2  -1   9 3523.75 383.086   4
   2   1  -9 3594.01 373.795   4
   2   1  -9 4260.96 554.500   5
  -2  -2   8 14183.7 1025.71   6
  -2  -2   8 15204.8 661.043   4
  -2  -3   7 84.7001 96.9729   6
  -2  -3   7 25.8126 27.4449   4
  -2  -4   6 1173.87 305.412   6
  -2  -5   5 8089.20 874.445   6
  -2  -6   4 977.249 307.866   6
  -2  -7   3 289.615 192.464   6
   2   7  -3 323.956 173.781   2
   2   8  -2 24.6974 96.7409   2
  -2  -8   2-146.407 149.206   6
  -2  -9   1-64.4768 179.750   6
  -1   6  16 1173.23 453.427   7
  -1   5  15 48.2265 88.4877   7
   1  -5 -15-330.931 230.236   5
  -1   4  14 153.456 145.067   7
   1  -4 -14-194.107 166.907   5
   1  -3 -13 3998.36 692.206   5
  -1   2  12 56089.0 2340.14   4
   1  -2 -12 56965.3 2349.02   5
   1  -1 -11 559.471 217.700   5
  -1   1  11 649.163 234.134   4
   1   0 -10 114.656 94.3007   5
  -1   0  10 188.913 122.871   4
  -1  -1   9 4023.57 455.000   4
   1   1  -9 4064.29 531.309   5
  -1  -2   8 23197.1 1258.92   6
  -1  -2   8 22756.8 961.869   4
  -1  -3   7 1742.25 253.413   4
  -1  -3   7 1824.19 359.580   6
  -1  -4   6 307.115 156.986   6
  -1  -4   6 571.892 137.676   1
  -1  -5   5 2820.15 261.484   1
  -1  -5   5 2984.97 499.148   6
  -1  -6   4 19532.4 1357.52   6
  -1  -7   3 7846.32 939.335   6
   1   8  -2 158.774 127.416   2
  -1  -8   2-26.1023 186.659   6
  -1  -9   1 355.852 228.537   6
   0   5  15 179.520 173.314   7
   0  -5 -15-166.473 171.441   5
   0   4  14-107.605 128.314   7
   0  -4 -14 152.588 49.6811   5
   0  -3 -13-211.976 159.562   5
   0   2  12 153.536 170.372   4
   0  -2 -12 84.6742 147.850   5
   0   1  11 7249.16 808.966   4
   0  -1 -11 7196.01 773.448   5
   0   0 -10 176.832 96.5117   5
   0   0  10 58.7207 51.7781   4
   0   1  -9 1065.12 252.978   5
   0  -1   9 1312.20 289.019   4
   0  -2   8 18742.0 997.236   4
   0   2  -8 19796.9 1090.66   5
   0  -3   7 6096.17 611.320   6
   0  -3   7 6205.34 546.968   4
   0  -4   6 26374.5 1307.25   6
   0  -5   5 7113.34 716.337   6
   0  -6   4 4259.29 599.579   6
   0  -7   3 1618.43 400.001   6
   0  -8   2 101.884 80.2572   6
   0   8  -2 63.8149 71.2629   2
   0  -9   1 1373.75 445.597   6
   0 -10   0 773.624 379.094   6
  -1  -5 -15 320.529 195.842   5
   1   4  14 138.222 113.913   7
  -1  -4 -14 10.3491 137.820   5
  -1  -3 -13 103.029 65.8199   5
   1   2  12 246.627 181.315   4
  -1  -2 -12 425.044 201.401   5
   1   1  11 8877.31 943.897   4
  -1  -1 -11 7775.78 815.761   5
   1   0  10 12529.5 1013.56   4
  -1   0 -10 11826.7 919.553   5
   1   0  10 12147.8 453.201   3
   1  -1   9 4191.82 553.568   4
  -1   1  -9 4093.40 502.086   5
   1  -2   8 4523.76 535.129   4
  -1   2  -8 4547.21 496.439   5
  -1   2  -8 4403.75 298.309   3
  -1   3  -7 927.852 167.006   3
   1  -3   7 826.086 221.092   6
   1  -3   7 1367.88 289.777   4
   1  -4   6 3959.37 483.551   6
   1  -5   5 132.787 129.756   6
   1  -6   4 9831.90 855.429   6
   1  -7   3 369.650 187.988   6
   1  -8   2 923.060 306.772   6
   1  -9   1 192.775 202.152   6
   1 -10   0 971.101 355.597   6
   2   3  13 394.760 292.008   7
   2   3  13-364.537 237.114   4
  -2  -3 -13 125.165 158.925   5
   2   2  12-216.609 171.376   4
  -2  -2 -12 212.442 126.168   5
   2   1  11 2214.57 492.465   4
  -2  -1 -11 2157.41 420.613   5
   2   0  10 3460.25 574.572   4
  -2   0 -10 3982.30 520.375   5
   2  -1   9 2439.44 451.545   4
  -2   1  -9 2875.21 408.242   5
   2  -1   9 2562.05 284.262   3
   2  -2   8 1765.60 374.633   4
  -2   2  -8 2046.44 319.518   5
   2  -3   7 5549.47 623.249   4
  -2   3  -7 5218.94 500.702   5
  -2   3  -7 5315.73 434.766   3
   2  -4   6 6766.08 594.526   6
  -2   4  -6 7052.68 535.466   3
   2  -5   5 17627.3 991.952   6
   2  -6   4 12101.8 886.844   6
   2  -7   3 2460.38 439.342   6
   2  -8   2 2485.67 482.854   6
   2  -9   1 1939.31 469.039   6
   2 -10   0 186.362 116.473   6
   2 -11  -1 674.095 296.120   6
   3   2  12 717.740 311.989   4
   3   1  11 819.340 319.210   4
  -3  -1 -11 573.945 210.371   5
   3   0  10-3.33910 41.4885   4
  -3   0 -10 35.0786 38.9665   5
   3  -1   9 4125.60 633.352   4
  -3   1  -9 3166.17 413.148   5
  -3   2  -8 196.008 94.0388   5
   3  -2   8 433.243 203.596   4
  -3   3  -7 4600.25 468.005   3
  -3   3  -7 4260.61 447.255   6
   3  -3   7 4893.96 638.317   4
  -3   3  -7 4457.72 423.076   5
  -3   4  -6 5759.46 490.983   6
  -3   4  -6 5712.26 549.520   3
  -3   5  -5 479.816 164.433   3
   3  -5   5 326.833 108.083   6
  -3   5  -5 394.031 134.673   6
   3  -6   4 11183.5 797.256   6
  -3   6  -4 11152.9 674.451   2
  -3   6  -4 12375.0 890.836   3
   3  -7   3-17.3693 49.5291   6
   3  -8   2 1034.20 300.278   6
   3  -9   1-52.8681 63.1978   6
   3 -10   0 820.903 317.143   6
   3 -11  -1 139.933 149.008   6
   4   2  12 932.943 387.210   4
   4   1  11 344.664 205.776   4
   4   0  10-89.5704 176.208   4
   4  -1   9 2347.96 504.324   4
   4  -2   8 2203.72 482.046   4
  -4   3  -7 64.1753 44.3136   5
   4  -3   7 46.3947 73.8516   4
  -4   4  -6-44.3515 58.2014   5
  -4   4  -6-74.5218 76.0839   3
   4  -4   6-61.2784 54.5119   4
  -4   5  -5 607.014 215.115   3
  -4   5  -5 499.401 121.171   6
  -4   6  -4 2367.79 427.929   3
   4  -6   4 1892.94 292.487   6
   4  -7   3 8181.06 694.934   6
  -4   7  -3 8839.59 832.923   3
  -4   8  -2 487.930 240.355   3
   4  -8   2 295.985 152.850   6
   4  -9   1 152.102 153.767   6
   4 -10   0 1362.37 380.784   6
   4 -11  -1 492.768 255.184   6
   4 -12  -2-117.215 137.369   6
   5   1  11 67.7521 109.309   4
   5   0  10 568.113 276.480   4
   5  -1   9 391.496 223.394   4
   5  -2   8 382.765 239.009   4
   5  -3   7 613.964 273.930   4
  -5   4  -6 868.989 256.520   3
   5  -4   6 414.272 247.248   4
  -5   5  -5 2004.09 417.074   3
  -5   6  -4 149.177 147.848   3
  -5   7  -3 4375.11 618.983   3
  -5   8  -2 823.710 306.321   3
  -5   9  -1 74.8284 72.3710   3
  -5  10   0 248.081 182.026   3
  -5  11   1 365.374 247.645   3
   6  -1   9 206.922 209.647   4
   6  -2   8 58.0687 46.8035   4
   6  -3   7 1796.90 482.608   4
   6  -4   6 379.498 239.420   4
  -6   5  -5 130.276 113.308   3
   6  -5   5-58.4947 96.1445   4
  -6   6  -4 23.1300 139.021   3
  -6   7  -3 98.1700 169.034   3
  -6   8  -2 36.4768 62.7620   3
  -6   9  -1 2084.07 482.912   3
  -6  10   0 117.463 73.7033   3
   7  -2   8-126.668 141.784   4
   7  -3   7 306.514 225.093   4
   7  -4   6 412.177 231.468   4
   7  -5   5 198.633 146.210   4
  -7   6  -4 988.529 317.226   3
   7  -6   4 616.639 312.244   4
  -7   7  -3 553.180 276.604   3
  -7   8  -2 118.483 113.545   3
  -7   9  -1 403.700 217.062   3
   8  -4   6 456.280 286.885   4
   8  -5   5-150.963 154.600   4
   8  -6   4-171.339 168.827   4
  -8   7  -3 124.660 129.132   3
   8  -7   3 377.781 254.011   4
   8   0 -11 932.443 334.651   1
   8   1 -10-258.349 182.029   1
   7  -4 -15 1246.78 434.038   5
   7  -3 -14 3229.23 658.055   5
   7  -2 -13 132.019 147.848   5
   7  -2 -13 237.050 185.986   1
   7  -1 -12-212.384 163.205   5
   7  -1 -12-49.4945 92.8684   1
   7   0 -11 102.918 110.204   5
   7   0 -11 672.331 274.055   1
   7   1 -10 682.683 266.479   5
   7   1 -10 730.874 281.530   1
   7   2  -9-39.8435 95.0182   1
   6  -4 -15 697.130 295.489   5
   6  -3 -14 576.161 289.069   5
   6  -2 -13 816.808 315.893   5
   6  -1 -12 744.921 313.111   5
   6  -1 -12 447.388 220.369   1
   6   0 -11 4884.20 686.382   1
   6   0 -11 4577.08 705.184   5
   6   1 -10 2559.65 497.835   5
   6   1 -10 3832.80 589.508   1
   6   2  -9 69.6190 56.5906   5
  -6  -2   9 363.795 184.362   6
   6   2  -9 244.552 141.248   1
  -6  -3   8 127.344 121.328   6
   6   3  -8 251.381 114.103   1
  -6  -4   7 174.737 149.132   6
   6   4  -7 296.513 232.067   2
  -6  -5   6-134.881 146.437   6
   6   5  -6 366.682 280.503   2
  -6  -6   5 288.105 219.902   6
   5  -5 -16 63.8735 96.7971   5
   5  -4 -15-63.4985 139.704   5
   5  -3 -14 887.334 321.407   5
   5  -2 -13 744.027 281.330   5
   5  -1 -12 314.096 121.907   5
   5   0 -11-45.6127 112.141   5
   5   1 -10 1673.80 392.333   5
   5   1 -10 1644.42 361.455   1
   5   2  -9 856.584 278.175   5
  -5  -2   9 1081.90 341.577   6
   5   2  -9 653.668 222.740   1
  -5  -3   8 109.893 121.036   6
   5   3  -8-12.6230 43.2886   1
  -5  -4   7 1101.70 342.646   6
   5   4  -7 936.453 249.722   1
  -5  -5   6 256.428 191.102   6
  -5  -6   5 375.774 200.286   6
   5   6  -5 264.242 62.1089   2
   5   7  -4 119.228 149.440   2
  -5  -7   4 643.873 326.356   6
   4  -5 -16 1049.22 423.113   5
   4  -4 -15 620.103 312.856   5
   4  -3 -14 1209.16 392.924   5
   4  -2 -13 29.7191 80.7041   5
   4  -1 -12 5812.45 788.863   5
   4   0 -11-393.894 196.871   5
   4   1 -10 4159.56 611.433   5
  -4  -2   9 14937.1 1206.27   6
   4   2  -9 13436.6 1080.81   5
  -4  -3   8 2019.24 436.133   6
  -4  -4   7 4626.53 711.766   6
  -4  -5   6 734.153 276.431   6
  -4  -6   5-86.9127 113.746   6
   4   6  -5 222.457 191.024   2
   4   7  -4 13.5885 95.6736   2
  -4  -7   4-317.385 221.118   6
   4   8  -3 487.624 305.872   2
  -4  -8   3 102.301 202.577   6
   3  -5 -16-267.579 215.564   5
   3  -4 -15 704.855 289.649   5
   3  -3 -14 4778.81 771.639   5
   3  -2 -13 2622.64 551.851   5
   3  -1 -12 1325.90 373.067   5
   3   0 -11 7054.29 805.762   5
   3   0 -11 6388.71 424.538   3
   3   1 -10 3852.32 367.512   4
   3   1 -10 3983.28 578.022   5
   3   2  -9 2848.25 480.389   5
  -3  -2   9 2419.45 449.714   6
  -3  -3   8 2183.01 451.493   6
  -3  -4   7 3636.01 595.739   6
  -3  -4   7 3448.75 207.405   4
  -3  -5   6 5327.05 768.062   6
  -3  -6   5 4685.21 765.893   6
  -3  -7   4 1373.34 433.832   6
   3   7  -4 1177.25 370.850   2
   3   8  -3 286.082 162.277   2
  -3  -8   3 635.339 306.210   6
   2  -5 -16 988.850 439.649   5
  -2   4  15 704.305 258.939   7
   2  -4 -15 492.195 321.366   5
   2  -3 -14 2634.39 585.008   5
   2  -2 -13 2811.38 550.735   5
   2  -1 -12 2395.03 482.121   5
  -2   0  11 4041.34 507.099   4
   2   0 -11 4334.05 618.897   5
  -2  -1  10 25819.8 1117.30   4
   2   1 -10 26786.1 1471.47   5
   2   1 -10 25876.3 724.251   3
   2   2  -9 535.467 208.088   5
  -2  -2   9 251.793 147.357   6
  -2  -2   9 373.549 111.534   4
  -2  -3   8 1985.16 241.797   4
  -2  -3   8 1984.75 403.542   6
  -2  -4   7 36.6664 115.586   6
  -2  -5   6 163.175 145.653   6
  -2  -6   5 8934.78 979.490   6
  -2  -7   4 1924.11 503.592   6
   2   8  -3 565.256 212.767   2
  -2  -8   3 88.4052 229.493   6
  -2  -9   2 163.484 195.381   6
  -1   5  16 653.718 312.515   7
   1  -5 -16 345.801 244.847   5
  -1   4  15 1542.19 437.398   7
   1  -4 -15 1268.32 433.801   5
   1  -3 -14 2823.66 595.039   5
   1  -2 -13 1498.76 396.007   5
  -1   1  12 34141.9 1742.09   4
   1  -1 -12 35307.9 1843.31   5
  -1   0  11 3129.59 474.712   4
   1   0 -11 3321.88 536.719   5
   1   1 -10 1404.07 329.198   5
  -1  -1  10 1621.71 305.042   4
  -1  -2   9 12193.1 769.984   4
   1   2  -9 12256.3 948.738   5
  -1  -3   8 5337.45 618.626   6
  -1  -3   8 5734.66 498.567   4
  -1  -4   7-83.9410 117.993   6
  -1  -5   6 10228.6 933.454   6
  -1  -5   6 9270.58 533.524   1
  -1  -6   5 8513.28 909.235   6
  -1  -7   4 7988.50 932.548   6
  -1  -8   3 801.626 325.786   6
   1   8  -3 325.053 148.279   2
  -1  -9   2-105.460 130.115   6
  -1 -10   1 408.508 227.374   6
   0   4  15 2497.64 605.728   7
   0  -4 -15 2850.22 644.945   5
   0  -3 -14 111.358 121.594   5
   0   2  13 3824.41 667.375   4
   0  -2 -13 3564.74 623.302   5
   0   1  12 2623.66 514.984   4
   0  -1 -12 2310.65 461.494   5
   0   0  11 4971.12 639.011   4
   0   0 -11 3918.65 571.938   5
   0   1 -10 1351.03 299.398   5
   0  -1  10 1664.38 342.983   4
   0   2  -9 818.931 239.564   5
   0  -2   9 1066.12 256.548   4
   0   2  -9 756.989 101.848   3
   0  -3   8 27853.2 1379.04   6
   0  -3   8 27817.1 1220.52   4
   0  -4   7 6365.00 676.301   6
   0  -5   6 1998.53 388.400   6
   0  -6   5 1402.15 349.217   6
   0  -7   4 5686.02 762.182   6
   0  -8   3 495.169 252.310   6
   0  -9   2 1303.50 442.682   6
   0 -10   1 662.644 323.081   6
   1   4  15 656.302 334.090   7
  -1  -4 -15 1008.85 388.602   5
  -1  -3 -14 16.7866 89.5348   5
   1   2  13 1808.93 498.851   4
  -1  -2 -13 2600.41 522.941   5
   1   1  12 8418.27 950.242   4
  -1  -1 -12 7665.01 848.081   5
   1   0  11 14344.6 1167.06   4
  -1   0 -11 15144.6 1096.76   5
  -1   1 -10 508.419 184.349   5
   1  -1  10 715.187 243.052   4
  -1   2  -9 1518.52 172.614   3
  -1   2  -9 1549.07 307.181   5
   1  -2   9 1461.21 330.666   4
   1  -3   8 1567.51 318.951   4
  -1   3  -8 1881.00 228.397   3
   1  -4   7 5399.64 594.157   6
   1  -5   6 2714.74 431.162   6
   1  -6   5 1790.11 378.745   6
   1  -7   4 63.2757 103.798   6
   1  -8   3 13193.1 1175.13   6
   1  -9   2 4401.88 732.631   6
   1 -10   1 631.065 306.008   6
   1 -11   0 963.130 425.264   6
   2   3  14 43.8292 100.495   7
   2   2  13 25.6371 120.652   4
  -2  -2 -13 88.9328 102.811   5
   2   1  12-26.1915 110.234   4
  -2  -1 -12-98.3499 115.132   5
   2   0  11 1138.66 333.297   4
  -2   0 -11 1717.75 372.217   5
  -2   1 -10-140.016 98.0200   5
   2  -1  10 26.6867 36.3324   3
   2  -1  10 69.6835 116.306   4
  -2   2  -9 424.132 143.742   5
   2  -2   9 763.807 259.342   4
   2  -3   8 3324.94 501.373   4
  -2   3  -8 3195.97 417.206   5
  -2   3  -8 2570.83 302.001   3
   2  -4   7 20309.8 1089.81   6
  -2   4  -7 19520.0 900.512   3
   2  -5   6 1311.42 294.982   6
   2  -6   5 240.383 86.1175   6
   2  -7   4 219.958 140.289   6
   2  -8   3 2745.27 512.320   6
   2  -9   2 352.955 191.933   6
   2 -10   1-204.741 168.173   6
   2 -11   0 325.899 265.797   6
   3   2  13 288.154 227.014   4
   3   1  12 211.174 67.0791   4
   3   0  11 6628.35 894.238   4
  -3   0 -11 7505.17 732.417   5
   3  -1  10 3335.64 599.857   4
  -3   1 -10 3642.67 474.622   5
   3  -2   9 2352.74 485.583   4
  -3   2  -9 2739.83 377.225   5
  -3   3  -8 7641.88 601.279   3
   3  -3   8 7550.26 825.209   4
  -3   3  -8 7598.90 598.576   5
  -3   4  -7-57.8995 82.9126   3
   3  -4   7-131.419 110.090   4
  -3   5  -6 1687.62 308.687   3
   3  -5   6 1582.12 295.260   6
   3  -6   5 4664.26 526.346   6
  -3   6  -5 4337.34 531.234   3
   3  -7   4 3138.33 482.208   6
   3  -8   3-27.4442 85.9606   6
   3  -9   2 373.267 177.158   6
   3 -10   1 515.296 253.987   6
   3 -11   0-215.604 168.464   6
   4   1  12 200.400 173.253   4
   4   0  11 200.239 140.902   4
   4  -1  10 3901.82 683.275   4
   4  -2   9 502.549 247.502   4
   4  -3   8 76.8733 66.4346   4
  -4   3  -8 449.872 123.921   5
  -4   4  -7 34.0240 19.5736   5
  -4   4  -7 28.8493 98.6622   3
   4  -4   7 58.5271 103.391   4
  -4   5  -6 10924.0 856.701   3
   4  -6   5 9343.06 675.073   6
  -4   6  -5 9277.96 827.352   3
  -4   7  -4 1624.44 367.020   3
   4  -7   4 1860.19 327.254   6
   4  -8   3 7741.43 753.904   6
  -4   8  -3 8310.29 860.114   3
   4  -9   2 921.767 289.180   6
  -4   9  -2 1210.30 367.132   3
   4 -10   1 242.407 169.172   6
   4 -11   0 927.985 350.967   6
   4 -12  -1-412.748 252.658   6
   5   0  11-143.904 154.880   4
   5  -1  10 617.683 287.516   4
   5  -2   9 2140.22 522.096   4
   5  -3   8 1125.63 386.787   4
   5  -4   7 1182.61 370.715   4
  -5   5  -6 540.664 220.199   3
   5  -5   6 399.152 214.012   4
  -5   6  -5 204.283 156.601   3
  -5   7  -4 154.224 136.908   3
  -5   8  -3 3248.28 573.140   3
  -5   9  -2 30.1450 137.033   3
  -5  10  -1 313.784 206.300   3
  -5  11   0 32.6919 69.1647   3
   6  -1  10-199.797 179.654   4
   6  -2   9 54.1242 61.7651   4
   6  -3   8 3083.26 632.626   4
   6  -4   7 116.009 132.635   4
  -6   5  -6-21.6604 76.4551   3
   6  -5   6 114.691 129.276   4
  -6   6  -5 1405.59 367.630   3
  -6   7  -4 734.114 300.181   3
  -6   8  -3 701.712 301.298   3
  -6   9  -2 1503.62 428.864   3
  -6  10  -1 89.8729 153.579   3
   7  -3   8 772.664 362.425   4
   7  -4   7 59.6787 148.540   4
   7  -5   6 15.5916 83.7719   4
  -7   6  -5 1211.51 379.165   3
   7  -6   5 824.843 365.732   4
  -7   7  -4 342.824 171.305   3
  -7   8  -3 397.669 205.528   3
  -7   9  -2 132.350 114.240   3
   8  -5   6 158.742 159.571   4
   8  -6   5-216.231 190.130   4
  -8   7  -4 234.509 204.446   3
   8  -7   4 237.361 203.996   4
   8   1 -11 291.504 177.786   1
   7  -3 -15 145.693 166.029   5
   7  -2 -14 939.499 376.121   5
   7  -1 -13 602.082 270.221   5
   7  -1 -13 1178.83 389.114   1
   7   0 -12 669.153 307.318   5
   7   0 -12 808.272 305.623   1
   7   1 -11 1298.64 391.655   5
   7   1 -11 1118.15 351.930   1
   7   2 -10-88.9164 115.271   1
   6  -4 -16-69.2244 197.639   5
   6  -3 -15 1249.96 439.785   5
   6  -2 -14 1550.08 442.369   5
   6  -1 -13 963.494 355.348   5
   6   0 -12 219.690 143.437   5
   6   1 -11 2151.49 480.096   5
   6   1 -11 2206.60 471.189   1
   6   2 -10 449.315 218.691   1
   6   2 -10 212.400 127.667   5
  -6  -2  10 489.962 243.313   6
   6   3  -9 192.460 172.666   5
   6   3  -9 200.063 169.752   1
  -6  -4   8 319.877 197.702   6
  -6  -5   7-58.8682 105.790   6
   6   5  -7 147.897 185.737   2
  -6  -6   6 191.877 180.732   6
   5  -4 -16 111.118 106.798   5
   5  -3 -15 3316.49 689.997   5
   5  -2 -14 3410.67 672.389   5
   5  -1 -13 7179.73 928.327   5
   5   0 -12 832.121 341.379   5
   5   1 -11 2486.75 502.499   5
   5   2 -10 1698.02 431.365   5
  -5  -2  10 1928.12 487.810   6
  -5  -3   9-32.9005 74.8138   6
  -5  -4   8 83.1898 144.875   6
  -5  -5   7 888.907 322.112   6
  -5  -6   6 521.491 271.822   6
   5   6  -6 314.126 232.797   2
   5   7  -5 143.342 129.476   2
  -5  -7   5 231.823 199.479   6
   4  -4 -16 1430.35 488.228   5
   4  -3 -15 752.858 312.123   5
   4  -2 -14 396.212 237.990   5
   4  -1 -13 5235.61 790.471   5
   4   0 -12-27.9356 94.6774   5
   4   1 -11 5.26470 109.452   5
  -4  -2  10 27993.6 1700.21   6
   4   2 -10 26641.9 1598.55   5
  -4  -3   9 1440.69 391.044   6
  -4  -4   8 156.415 106.709   6
  -4  -5   7 525.733 243.727   6
  -4  -6   6 149.588 152.836   6
  -4  -7   5 340.628 191.901   6
   4   7  -5 81.5519 123.933   2
   4   8  -4 160.466 158.948   2
  -4  -8   4 515.844 297.231   6
   3  -4 -16-383.855 246.524   5
   3  -3 -15-33.5854 153.412   5
   3  -2 -14 921.882 323.008   5
   3  -1 -13 6947.49 888.947   5
   3   0 -12 231.285 178.248   5
   3   1 -11 2458.29 485.384   5
   3   1 -11 2909.49 314.765   3
  -3  -2  10 44.6431 33.0313   4
  -3  -2  10-70.1562 99.3421   6
  -3  -3   9 1175.45 125.833   4
  -3  -3   9 1603.76 419.473   6
  -3  -4   8 7340.68 869.215   6
  -3  -5   7 1288.71 367.168   6
  -3  -6   6 3541.69 652.111   6
  -3  -7   5 173.987 182.121   6
  -3  -8   4 172.209 117.433   6
   3   8  -4 124.471 117.046   2
  -2   4  16-62.0439 92.3584   7
   2  -4 -16 14.1703 62.2131   5
   2  -3 -15 2021.10 530.623   5
   2  -2 -14 1582.95 415.830   5
   2  -1 -13 3098.88 588.133   5
  -2   0  12 2543.08 428.825   4
   2   0 -12 3027.99 551.405   5
   2   1 -11 161.093 58.5767   5
   2   1 -11 329.331 76.0522   3
  -2  -1  11 419.275 163.564   4
   2   2 -10 531.350 199.607   5
  -2  -2  10 405.902 133.102   4
  -2  -3   9 7966.26 836.034   6
  -2  -3   9 7882.97 524.872   4
  -2  -4   8 16983.5 1257.64   6
  -2  -4   8 16264.9 736.789   4
  -2  -5   7 2370.71 497.187   6
  -2  -6   6 3516.16 633.726   6
  -2  -7   5 69.8270 139.495   6
  -2  -8   4 79.2745 142.053   6
   2   8  -4 273.232 138.710   2
  -2  -9   3 7.57838 122.203   6
  -1   5  17-147.505 155.349   7
  -1   4  16 219.538 161.201   7
   1  -4 -16 474.459 272.610   5
   1  -3 -15-52.2956 43.4146   5
   1  -2 -14 8158.82 982.369   5
   1  -1 -13 2626.78 524.822   5
  -1   1  13 2526.13 493.698   4
   1   0 -12 459.980 178.860   5
  -1   0  12 312.697 157.400   4
   1   1 -11 747.486 235.582   5
  -1  -1  11 515.734 196.109   4
  -1  -2  10 5666.83 557.967   4
   1   2 -10 5997.73 690.470   5
  -1  -3   9 108.419 140.018   6
  -1  -3   9 185.660 98.6828   4
  -1  -4   8-50.7644 58.6145   6
  -1  -4   8 56.7881 58.2672   4
  -1  -5   7 752.078 270.122   6
  -1  -6   6 1044.70 321.278   6
  -1  -7   5 10009.8 1078.36   6
  -1  -8   4 3049.27 630.193   6
  -1  -9   3-28.6764 51.3049   6
  -1 -10   2-73.0509 117.244   6
   0   4  16 84.5135 118.626   7
   0  -4 -16 105.007 140.328   5
   0  -3 -15 232.002 178.873   5
   0   2  14 409.914 235.128   4
   0  -2 -14 1027.21 363.488   5
   0   1  13 5004.19 725.147   4
   0  -1 -13 3667.97 599.859   5
   0   0 -12 1182.58 336.330   5
   0   0  12 1714.71 415.382   4
   0  -1  11 6306.51 701.692   4
   0   1 -11 6203.81 711.513   5
   0  -2  10 22886.5 1249.52   4
   0   2 -10 21394.7 1265.74   5
   0   2 -10 19651.0 462.555   3
   0  -3   9 14482.3 1044.98   6
   0  -3   9 13129.8 883.261   4
   0  -4   8 5854.04 667.135   6
   0  -4   8 5482.06 554.851   4
   0  -5   7 1847.26 386.299   6
   0  -6   6 754.424 231.207   6
   0  -7   5 3495.27 599.539   6
   0  -8   4 3104.11 602.073   6
   0  -9   3 332.876 205.771   6
   0 -10   2 452.603 236.187   6
  -1  -4 -16 351.499 247.780   5
  -1  -3 -15 377.973 206.184   5
   1   2  14 185.913 177.114   4
  -1  -2 -14 67.6591 124.074   5
   1   1  13 2524.31 558.077   4
  -1  -1 -13 2389.40 486.600   5
   1   0  12 8069.27 929.002   4
  -1   0 -12 7192.21 793.607   5
  -1   1 -11 818.797 244.064   5
   1  -1  11 814.045 252.222   4
   1  -2  10 3179.27 503.162   4
  -1   2 -10 2498.35 435.232   5
   1  -3   9 5983.07 655.038   4
  -1   3  -9 5885.70 627.887   5
  -1   3  -9 5694.18 398.036   3
   1  -4   8 4031.78 535.215   6
   1  -4   8 4580.99 563.609   4
   1  -5   7 1277.93 296.279   6
   1  -6   6 104.193 143.901   6
   1  -7   5 5163.07 687.989   6
   1  -8   4 12383.2 1140.90   6
   1  -9   3 2374.91 547.722   6
   1 -10   2-111.966 155.504   6
   1 -11   1 529.044 298.425   6
   2   2  14 733.667 329.389   4
  -2  -2 -14 585.199 265.661   5
   2   1  13 69.3380 121.899   4
  -2  -1 -13-9.57446 74.0319   5
   2   0  12 721.269 309.972   4
  -2   0 -12 958.107 292.203   5
  -2   1 -11 1259.48 298.625   5
   2  -1  11 635.855 282.163   4
  -2   2 -10 168.555 102.753   5
   2  -2  10 300.168 180.293   4
   2  -3   9 3014.40 496.912   4
  -2   3  -9 2817.01 406.657   5
  -2   3  -9 2488.39 298.484   3
  -2   4  -8 868.955 192.573   3
   2  -4   8 667.134 242.526   4
   2  -5   7 2059.44 378.966   6
  -2   5  -7 2520.62 360.181   3
   2  -6   6 460.265 196.671   6
   2  -7   5 286.054 168.053   6
   2  -8   4 809.764 288.445   6
   2  -9   3 391.750 208.413   6
   2 -10   2 399.140 248.667   6
   2 -11   1 93.0852 93.8697   6
   3   1  13 775.419 332.498   4
   3   0  12 1387.03 439.133   4
   3  -1  11 9075.04 1036.50   4
  -3   1 -11 10232.9 832.719   5
   3  -2  10 4532.12 689.951   4
  -3   2 -10 4616.47 524.217   5
  -3   3  -9 5.78851 77.2967   5
   3  -3   9 203.330 140.659   4
  -3   4  -8 987.177 236.249   5
  -3   4  -8 764.939 205.351   3
   3  -4   8 757.167 277.557   4
  -3   5  -7 129.614 86.1678   3
   3  -5   7 270.882 127.488   6
  -3   6  -6 695.421 236.165   3
   3  -6   6 450.686 186.498   6
   3  -7   5 65.6801 84.8621   6
   3  -8   4 604.546 231.525   6
   3  -9   3 4933.21 703.612   6
   3 -10   2 4713.68 753.512   6
   3 -11   1 362.728 269.857   6
   3 -12   0-404.574 258.552   6
   4   0  12 410.765 228.692   4
   4  -1  11 135.122 162.808   4
   4  -2  10 654.227 266.414   4
   4  -3   9 69.7820 77.8730   4
  -4   4  -8 2401.36 392.703   3
  -4   4  -8 2451.31 321.456   5
   4  -4   8 2877.94 557.725   4
  -4   5  -7 134.484 87.2202   3
   4  -5   7 24.8300 121.259   4
  -4   6  -6 1580.46 366.267   3
   4  -6   6 1201.48 246.531   6
   4  -7   5 2546.97 410.440   6
  -4   7  -5 3031.91 491.906   3
  -4   8  -4 569.095 246.188   3
   4  -8   4 358.954 152.789   6
  -4   9  -3 788.372 288.592   3
   4  -9   3 645.957 253.137   6
   4 -10   2 1170.52 353.669   6
   4 -11   1 105.016 62.8936   6
   4 -12   0 169.690 164.369   6
   5  -1  11 23.3375 161.833   4
   5  -2  10 3914.64 726.392   4
   5  -3   9 1823.08 494.412   4
   5  -4   8 317.793 192.902   4
  -5   5  -7 1792.17 392.351   3
   5  -5   7 2214.75 525.125   4
  -5   6  -6 80.3699 58.7601   3
  -5   7  -5-107.648 202.616   3
  -5   8  -4 1505.18 375.625   3
  -5   9  -3 608.813 267.638   3
  -5  10  -2-143.734 159.835   3
  -5  11  -1 472.739 293.372   3
   6  -2  10-341.191 229.649   4
   6  -3   9 223.171 210.993   4
   6  -4   8 329.286 294.576   4
   6  -5   7 57.5163 97.8555   4
  -6   6  -6 147.002 94.3691   3
   6  -6   6 232.524 181.805   4
  -6   7  -5 1221.34 365.074   3
  -6   8  -4 1241.12 384.538   3
  -6   9  -3 197.959 196.667   3
  -6  10  -2 373.735 233.964   3
   7  -4   8 2392.95 619.433   4
   7  -5   7-21.0054 81.0122   4
   7  -6   6-144.961 153.478   4
  -7   7  -5-49.2475 125.796   3
   7  -7   5-240.198 196.962   4
  -7   8  -4-138.444 139.704   3
  -7   9  -3-104.646 115.790   3
   7  -3 -16 101.831 131.101   5
   7  -2 -15-118.145 138.458   5
   7  -1 -14 11.3370 144.675   5
   7   0 -13 1204.84 400.273   5
   7   1 -12 2311.41 538.673   5
   7   1 -12 3174.88 601.212   1
   7   2 -11 1111.98 352.150   5
   7   2 -11 1565.77 409.870   1
   6  -3 -16 1146.63 451.151   5
   6  -2 -15 2925.12 657.806   5
   6  -1 -14 1921.65 496.543   5
   6   0 -13-21.5664 118.945   5
   6   1 -12-3.15945 91.2621   5
   6   2 -11 274.598 191.103   5
   6   3 -10 154.240 136.185   5
  -6  -3  10-98.1503 120.479   6
  -6  -4   9 156.017 202.648   6
  -6  -5   8 231.995 193.550   6
  -6  -6   7 29.2027 83.0908   6
   5  -3 -16 167.199 116.703   5
   5  -2 -15 4989.72 840.533   5
   5  -1 -14-16.5618 55.0670   5
   5   0 -13-106.777 172.353   5
   5   1 -12 1158.09 377.697   5
   5   2 -11 1685.45 433.179   5
   5   3 -10 951.671 325.394   5
  -5  -3  10 1048.65 349.133   6
  -5  -4   9-3.03138 172.299   6
  -5  -5   8 295.892 223.765   6
  -5  -6   7 6.13171 58.6707   6
  -5  -7   6 233.252 201.808   6
   5   7  -6-76.0093 255.948   2
   4  -4 -17 934.518 386.865   5
   4  -3 -16 836.571 373.766   5
   4  -2 -15 2.11930 51.0246   5
   4  -1 -14 12177.2 1226.07   5
   4   0 -13 6626.99 875.646   5
   4   1 -12 13.5072 122.244   5
   4   2 -11 59.2111 49.6058   5
  -4  -3  10 10278.3 1077.04   6
  -4  -4   9 666.337 274.871   6
  -4  -5   8 718.484 290.150   6
  -4  -6   7 365.455 208.132   6
  -4  -7   6 63.4123 129.157   6
   4   7  -6 316.959 201.255   2
   4   8  -5 67.6077 183.228   2
  -4  -8   5 255.770 212.117   6
   3  -4 -17 415.715 268.464   5
   3  -3 -16-155.637 155.807   5
   3  -2 -15 294.529 245.870   5
   3  -1 -14 6037.02 849.769   5
   3   0 -13 15619.1 1318.11   5
   3   1 -12 6880.61 830.038   5
   3   2 -11 48.0013 53.4231   5
  -3  -2  11 17.2939 33.3855   4
  -3  -3  10 39299.9 2016.08   6
  -3  -3  10 38412.3 909.688   4
  -3  -4   9 1607.93 408.078   6
  -3  -5   8 717.141 260.320   6
  -3  -6   7 477.499 228.290   6
  -3  -7   6 1774.99 497.153   6
  -3  -8   5-135.296 147.909   6
   3   8  -5-297.665 188.002   2
   2  -4 -17 107.327 130.801   5
   2  -3 -16 64.2175 108.524   5
   2  -2 -15 1536.35 437.339   5
   2  -1 -14 724.658 255.919   5
   2   0 -13 2539.50 514.357   5
  -2   0  13 2559.80 472.472   4
   2   1 -12 482.754 231.874   5
  -2  -1  12 532.836 172.392   4
   2   2 -11 2292.37 464.663   5
  -2  -2  11 2714.36 381.961   4
  -2  -3  10 8649.76 910.689   6
  -2  -3  10 9118.66 619.178   4
  -2  -4   9 15967.3 1247.03   6
  -2  -4   9 16303.4 782.542   4
  -2  -5   8 1681.21 415.215   6
  -2  -6   7 52.2715 148.704   6
  -2  -7   6 3367.76 659.687   6
  -2  -8   5 134.451 171.895   6
  -2  -9   4 141.120 157.795   6
  -1   4  17 1233.63 424.729   7
   1  -4 -17 792.147 399.790   5
   1  -3 -16-4.59284 57.4616   5
   1  -2 -15-102.918 161.780   5
  -1   1  14 3998.44 646.100   4
   1  -1 -14 4173.47 698.920   5
   1   0 -13-130.336 150.480   5
  -1   0  13 155.962 156.870   4
  -1  -1  12 8094.74 781.226   4
   1   1 -12 8523.53 893.402   5
  -1  -2  11 13764.8 930.317   4
   1   2 -11 13338.9 1081.93   5
  -1  -3  10 43.3464 59.7679   6
  -1  -3  10-82.1518 71.0825   4
  -1  -4   9 1609.29 386.725   6
  -1  -4   9 1133.25 237.910   4
  -1  -5   8 823.199 284.918   6
  -1  -6   7 392.746 190.648   6
  -1  -7   6-20.0467 69.3085   6
  -1  -8   5 96.2288 83.2629   6
  -1  -9   4 301.173 212.002   6
  -1 -10   3 304.129 227.345   6
   0  -3 -16 462.079 264.183   5
   0   2  15 3180.33 658.539   4
   0  -2 -15 4057.43 726.186   5
   0   1  14 254.673 205.067   4
   0  -1 -14 365.241 224.555   5
   0   0  13 34740.5 1899.41   4
   0   0 -13 34762.4 1871.86   5
   0  -1  12 15976.5 1176.95   4
   0   1 -12 15527.4 1172.35   5
   0  -2  11 5047.41 614.182   4
   0   2 -11 4841.84 631.610   5
   0  -3  10 14285.5 982.918   4
   0   3 -10 14881.1 1092.30   5
   0  -4   9 9173.55 878.720   6
   0  -4   9 8623.33 738.152   4
   0  -5   8 15429.6 1164.01   6
   0  -6   7 1699.12 401.827   6
   0  -7   6 6654.16 842.324   6
   0  -8   5 128.154 146.806   6
   0  -9   4 38.4628 74.2152   6
   0 -10   3 289.202 202.695   6
   1   3  16 744.937 355.392   7
  -1  -3 -16 270.732 154.407   5
   1   2  15 374.482 203.205   4
  -1  -2 -15-8.41803 151.090   5
   1   1  14 191.007 178.408   4
  -1  -1 -14 130.931 156.843   5
   1   0  13-149.526 146.719   4
  -1   0 -13 5.91528 160.400   5
   1  -1  12 7282.22 840.427   4
  -1   1 -12 6893.70 770.068   5
   1  -2  11 6009.42 713.766   4
  -1   2 -11 5738.60 676.514   5
   1  -3  10 2221.63 416.477   4
  -1   3 -10 2455.71 440.709   5
  -1   3 -10 2141.30 237.641   3
   1  -4   9 3976.29 566.152   6
   1  -4   9 4267.77 565.366   4
  -1   4  -9 4722.90 416.008   3
   1  -5   8 95.3062 98.7251   6
   1  -6   7 2550.82 471.682   6
   1  -7   6 2002.73 452.507   6
   1  -8   5 252.942 192.341   6
   1  -9   4 2628.93 569.556   6
   1 -10   3 1799.07 512.034   6
   1 -11   2 244.189 206.533   6
   2   2  15 729.947 362.908   4
   2   1  14 1354.94 413.463   4
  -2  -1 -14 659.405 287.063   5
   2   0  13 2368.26 563.973   4
  -2   0 -13 3100.29 543.589   5
   2  -1  12 1628.61 434.811   4
  -2   1 -12 1669.99 362.661   5
   2  -2  11 3125.39 553.555   4
  -2   2 -11 2929.40 472.172   5
  -2   3 -10 6057.65 467.010   3
   2  -3  10 5795.49 734.625   4
  -2   3 -10 6183.07 645.288   5
   2  -4   9 7347.08 801.391   4
  -2   4  -9 7134.62 694.417   5
  -2   4  -9 6917.00 546.679   3
  -2   5  -8 461.495 153.326   3
   2  -5   8 284.030 116.609   6
   2  -6   7 33.3006 88.3901   6
   2  -7   6 2655.99 484.516   6
   2  -8   5 856.857 297.491   6
   2  -9   4 700.837 305.392   6
   2 -10   3 320.694 195.080   6
   2 -11   2 143.360 153.705   6
   3   1  14 119.262 144.827   4
   3   0  13-170.756 161.976   4
   3  -1  12 4021.76 717.582   4
  -3   1 -12 3707.68 524.815   5
   3  -2  11 2107.10 494.014   4
  -3   2 -11 2044.88 368.598   5
  -3   3 -10 460.100 152.278   5
   3  -3  10 802.473 296.180   4
  -3   4  -9 997.427 235.072   5
  -3   4  -9 1211.96 253.231   3
   3  -4   9 1423.29 385.355   4
  -3   5  -8 603.514 159.278   3
   3  -5   8 506.036 226.229   4
  -3   6  -7 2088.78 378.608   3
   3  -6   7 2354.15 418.594   6
  -3   7  -6 316.464 167.875   3
   3  -7   6 70.2373 90.7906   6
   3  -8   5 1590.79 367.314   6
   3  -9   4 2683.91 529.718   6
   3 -10   3 3212.71 620.070   6
   3 -11   2 747.748 321.257   6
   3 -12   1-168.428 167.706   6
   4   0  13-38.5587 180.551   4
   4  -1  12 120.697 196.525   4
   4  -2  11 1675.94 454.763   4
   4  -3  10 420.650 217.659   4
  -4   4  -9 181.271 81.0761   3
   4  -4   9 184.201 166.267   4
  -4   5  -8 143.437 59.1066   5
  -4   5  -8 179.425 115.398   3
   4  -5   8 124.489 161.226   4
  -4   6  -7 1503.41 324.898   3
  -4   7  -6 273.221 145.411   3
   4  -7   6 40.6637 37.0963   6
  -4   8  -5 1156.20 350.231   3
   4  -8   5 870.738 273.086   6
  -4   9  -4 892.413 332.865   3
   4  -9   4 539.305 231.883   6
   4 -10   3 158.624 122.989   6
  -4  10  -3 74.4402 133.786   3
   4 -11   2 958.158 370.979   6
   4 -12   1 122.574 140.392   6
   5  -1  12-42.4187 90.9060   4
   5  -2  11 2092.29 553.024   4
   5  -3  10 3117.26 641.653   4
   5  -4   9 1006.75 403.102   4
  -5   5  -8 373.939 164.137   3
   5  -5   8 37.7004 90.2051   4
  -5   6  -7-73.2843 105.336   3
   5  -6   7-231.205 163.566   4
  -5   7  -6 304.678 186.903   3
  -5   8  -5 201.926 73.5022   3
  -5   9  -4 294.989 213.558   3
  -5  10  -3 813.903 310.817   3
  -5  11  -2 3297.43 688.276   3
   6  -3  10 17.7457 75.1516   4
   6  -4   9 225.871 170.073   4
   6  -5   8-13.0579 73.5808   4
  -6   6  -7 29.9537 48.8727   3
   6  -6   7-197.261 73.7824   4
  -6   7  -6 375.653 212.370   3
  -6   8  -5 33.0843 129.731   3
  -6   9  -4-48.6849 186.051   3
  -6  10  -3 31.6776 88.2082   3
   7  -5   8 610.171 307.880   4
   7  -6   7 75.0623 132.761   4
  -7   7  -6-259.665 180.849   3
   7  -7   6-238.669 199.788   4
  -7   8  -5 160.403 176.700   3
  -7   9  -4-82.4657 182.350   3
   7  -2 -16 365.032 270.530   5
   7  -1 -15-15.6141 61.5501   5
   7   0 -14 1904.40 530.224   5
   7   1 -13 1943.25 508.496   5
   7   2 -12 1081.01 365.575   5
   6  -2 -16 2391.37 621.572   5
   6  -1 -15 436.315 261.277   5
   6   0 -14 778.421 310.243   5
   6   1 -13 176.785 117.864   5
   6   2 -12 804.636 293.147   5
   6   3 -11 728.743 308.567   5
  -6  -3  11 1033.45 388.358   6
  -6  -4  10 77.3003 48.7043   6
  -6  -5   9-14.3865 72.4050   6
  -6  -6   8 263.312 218.292   6
   5  -3 -17-179.118 172.084   5
   5  -2 -16-193.543 174.361   5
   5  -1 -15 393.381 222.021   5
   5   0 -14 865.694 335.629   5
   5   1 -13-33.4285 77.5513   5
   5   2 -12 8665.00 991.388   5
  -5  -3  11 6173.22 904.157   6
   5   3 -11 5995.21 819.687   5
  -5  -4  10-433.595 243.684   6
  -5  -5   9 426.991 199.591   6
  -5  -6   8-193.092 177.921   6
  -5  -7   7-116.685 149.149   6
   5   7  -7-213.337 275.530   2
   4  -3 -17-146.113 157.302   5
   4  -2 -16 1105.60 395.599   5
   4  -1 -15 2580.47 617.575   5
   4   0 -14 4482.94 755.270   5
   4   1 -13 3422.56 618.719   5
   4   2 -12 258.715 169.908   5
   4   3 -11 106.565 164.595   5
  -4  -3  11 413.635 250.257   6
  -4  -4  10-56.7149 137.799   6
  -4  -5   9 842.891 342.466   6
  -4  -6   8 424.598 255.736   6
  -4  -7   7 431.770 245.802   6
   4   8  -6-21.2509 85.5633   2
   3  -3 -17-6.93939 141.393   5
   3  -2 -16 125.552 213.469   5
   3  -1 -15 1757.52 466.908   5
   3   0 -14 1037.21 383.077   5
   3   1 -13-45.2153 99.3880   5
   3   2 -12 1337.57 381.727   5
  -3  -2  12 1292.01 232.166   4
   3   3 -11 293.775 230.427   5
  -3  -3  11-82.2775 109.824   6
  -3  -4  10 5490.85 789.827   6
  -3  -5   9 3470.64 639.951   6
  -3  -6   8 1007.35 381.777   6
  -3  -7   7 1588.99 474.118   6
  -3  -8   6 229.879 184.427   6
   2  -3 -17 476.393 352.137   5
   2  -2 -16 103.650 109.571   5
   2  -1 -15 575.466 292.595   5
  -2   0  14 4450.94 629.235   4
   2   0 -14 4541.18 724.515   5
  -2  -1  13 20224.9 1214.98   4
   2   1 -13 19181.2 1441.70   5
  -2  -2  12 3581.42 471.880   4
   2   2 -12 3515.53 593.309   5
   2   3 -11 218.991 99.7181   5
  -2  -3  11 6.34562 52.6031   6
  -2  -3  11 166.163 75.5685   4
  -2  -4  10 684.868 273.038   6
  -2  -4  10 855.412 190.273   4
  -2  -5   9 2627.68 336.815   4
  -2  -5   9 2704.34 552.540   6
  -2  -6   8 74.8814 62.6938   6
  -2  -7   7 1.53583 54.6535   6
  -2  -8   6-28.9705 63.5089   6
  -2  -9   5-96.1949 95.5566   6
  -1   4  18-26.6510 76.2615   7
   1  -3 -17 595.182 312.021   5
   1  -2 -16 529.118 265.066   5
  -1   1  15-260.402 177.770   4
   1  -1 -15 104.410 183.766   5
  -1   0  14 4418.18 660.510   4
   1   0 -14 4313.93 709.068   5
  -1  -1  13 4625.64 628.655   4
   1   1 -13 4696.00 691.572   5
  -1  -2  12 18617.0 1152.98   4
   1   2 -12 16671.7 1270.14   5
   1   3 -11 2821.64 503.706   5
  -1  -3  11 2472.29 394.463   4
  -1  -4  10 11031.7 1036.56   6
  -1  -4  10 10998.2 791.688   4
  -1  -5   9 5449.29 740.134   6
  -1  -5   9 6183.07 599.832   4
  -1  -6   8 641.040 225.823   6
  -1  -7   7 639.440 262.216   6
  -1  -8   6 1096.91 380.940   6
  -1  -9   5 57.1604 62.8337   6
  -1 -10   4 330.612 222.540   6
   0  -3 -17-266.604 206.976   5
   0   2  16 89.1025 123.499   4
   0  -2 -16 393.841 224.968   5
   0   1  15 746.730 307.886   4
   0  -1 -15 1112.04 366.918   5
   0   0 -14 1477.69 403.752   5
   0   0  14 1874.51 453.263   4
   0  -1  13 7652.11 853.148   4
   0   1 -13 9550.97 971.158   5
   0   2 -12 252.638 167.870   5
   0  -2  12 387.405 191.240   4
   0   3 -11 51.1335 27.2846   3
   0   3 -11 146.341 48.5364   5
   0  -3  11 207.222 153.695   4
   0  -4  10 888.428 272.342   6
   0  -4  10 1374.21 309.361   4
   0  -5   9 7007.20 804.050   6
   0  -6   8 4266.48 642.377   6
   0  -7   7-140.474 183.952   6
   0  -8   6 306.773 186.918   6
   0  -9   5 1310.55 406.323   6
   0 -10   4-257.602 201.542   6
  -1  -3 -17 492.538 277.121   5
   1   2  16 1117.54 428.746   4
  -1  -2 -16 1411.60 429.842   5
   1   1  15 75.8816 112.512   4
  -1  -1 -15 152.707 196.165   5
   1   0  14 528.121 277.118   4
  -1   0 -14 454.882 203.705   5
   1  -1  13 17072.8 1339.18   4
  -1   1 -13 16881.3 1275.24   5
  -1   2 -12 65.6383 66.7600   5
   1  -2  12 64.9359 112.910   4
  -1   3 -11 2797.95 474.131   5
  -1   3 -11 3079.64 271.908   3
   1  -4  10 18968.1 1240.91   4
  -1   4 -10 18180.6 805.020   3
   1  -5   9 65.5415 102.599   6
   1  -5   9 49.3998 84.7621   4
   1  -6   8 2532.79 476.180   6
   1  -7   7 2723.17 520.308   6
   1  -8   6 616.374 252.739   6
   1  -9   5 15.7661 132.899   6
   1 -10   4 178.309 135.407   6
   1 -11   3-404.572 257.590   6
   2   1  15-32.9004 88.2620   4
  -2  -1 -15-241.609 168.673   5
   2   0  14 298.442 223.687   4
  -2   0 -14 531.710 225.196   5
   2  -1  13 36.8511 84.8217   4
  -2   1 -13 25.6221 64.6220   5
   2  -2  12 4961.92 758.148   4
  -2   2 -12 4392.65 595.264   5
   2  -3  11 2864.06 530.478   4
  -2   3 -11 3173.63 489.910   5
  -2   4 -10 1503.38 329.507   5
  -2   4 -10 1496.15 255.064   3
   2  -4  10 1464.85 384.369   4
  -2   5  -9 1030.36 229.208   3
   2  -5   9 1247.89 311.518   6
   2  -5   9 1264.85 346.655   4
   2  -6   8 4980.05 639.617   6
   2  -7   7 5415.26 704.785   6
   2  -8   6 537.880 224.044   6
   2  -9   5 4230.64 696.511   6
   2 -10   4-339.819 211.345   6
   2 -11   3 289.432 162.072   6
   3   0  14-10.1872 56.9287   4
   3  -1  13 119.842 173.392   4
   3  -2  12 40.1228 166.321   4
  -3   2 -12 138.804 124.869   5
  -3   3 -11 1800.15 350.512   5
   3  -3  11 1373.16 392.112   4
  -3   4 -10 18.6905 52.6787   5
  -3   4 -10 185.817 103.594   3
   3  -4  10 24.2962 92.9416   4
  -3   5  -9 191.302 123.015   3
   3  -5   9 207.630 230.019   4
  -3   6  -8 23.5374 77.6891   3
   3  -6   8 165.487 124.964   6
  -3   7  -7 246.135 158.961   3
   3  -7   7 184.549 122.405   6
   3  -8   6 888.216 278.397   6
   3  -9   5 516.783 249.507   6
   3 -10   4 439.502 251.790   6
   3 -11   3 784.692 315.184   6
   3 -12   2 373.972 243.035   6
   4  -1  13 1783.99 505.983   4
   4  -2  12 89.3018 106.043   4
   4  -3  11 149.345 114.789   4
   4  -4  10 616.379 250.438   4
   4  -5   9 7540.79 943.205   4
  -4   5  -9 6563.70 668.881   3
  -4   6  -8 301.703 164.189   3
   4  -6   8 347.766 211.260   4
  -4   7  -7 6.71229 92.2813   3
   4  -7   7 105.811 85.8529   6
  -4   8  -6 2643.92 487.195   3
   4  -8   6 2619.03 463.298   6
  -4   9  -5 192.751 136.787   3
   4  -9   5 33.3672 39.9198   6
   4 -10   4 750.581 290.201   6
  -4  10  -4 887.334 338.681   3
   4 -11   3 573.033 279.666   6
   4 -12   2 5.17138 51.3258   6
   5  -2  12-34.4600 59.7918   4
   5  -3  11 1656.99 479.764   4
   5  -4  10-103.044 108.384   4
  -5   5  -9-6.96039 54.8804   3
   5  -5   9 88.2976 115.780   4
  -5   6  -8-10.0006 75.1009   3
   5  -6   8 30.3392 112.818   4
  -5   7  -7 311.902 186.303   3
  -5   8  -6 135.038 107.732   3
  -5   9  -5 734.655 287.665   3
  -5  10  -4 266.834 200.616   3
  -5  11  -3 1157.90 394.979   3
   6  -4  10-161.302 158.550   4
   6  -5   9 298.641 129.970   4
  -6   6  -8 142.477 90.5478   3
   6  -6   8 291.636 219.588   4
  -6   7  -7 88.4739 94.1225   3
   6  -7   7 132.129 257.777   4
  -6   8  -6 91.4583 121.800   3
  -6   9  -5 531.106 277.817   3
  -6  10  -4 3.53228 72.8094   3
   7  -6   8 85.8666 127.156   4
  -7   7  -7 85.7860 155.862   3
   7  -7   7 237.496 206.160   4
  -7   8  -6 1.96578 94.4782   3
   7  -8   6-469.407 283.575   4
  -7   9  -5 18.4468 84.0065   3
   7  -1 -16-164.596 163.004   5
   7   0 -15 82.3995 120.007   5
   7   1 -14 2166.28 554.928   5
   7   2 -13-86.0212 110.868   5
   6  -1 -16 364.375 269.808   5
   6   0 -15 15.0488 57.5413   5
   6   1 -14 1487.33 450.429   5
   6   2 -13 1119.84 365.536   5
   6   3 -12 392.117 223.782   5
  -6  -3  12 557.109 285.749   6
   6   4 -11 1060.23 356.244   5
  -6  -4  11 1011.14 394.081   6
  -6  -5  10-120.319 144.887   6
   5  -2 -17-261.727 208.905   5
   5  -1 -16 823.065 347.172   5
   5   0 -15-62.3371 68.8549   5
   5   1 -14-66.3256 102.644   5
   5   2 -13 3110.04 620.209   5
  -5  -3  12 4637.20 809.181   6
   5   3 -12 4966.15 775.383   5
  -5  -4  11 89.1601 121.228   6
  -5  -5  10 646.056 316.916   6
  -5  -6   9 297.543 222.963   6
   4  -2 -17-121.467 153.722   5
   4  -1 -16 859.865 321.890   5
   4   0 -15 9234.27 1112.32   5
   4   1 -14-2.41362 49.5662   5
   4   2 -13 63.0003 152.039   5
   4   3 -12 2463.99 535.014   5
  -4  -3  12 2090.46 522.477   6
  -4  -4  11 3828.44 718.245   6
  -4  -5  10 218.724 194.715   6
  -4  -6   9 252.504 199.631   6
  -4  -7   8-21.2514 73.8655   6
   4   8  -7 221.870 164.367   2
   3  -2 -17 210.538 184.433   5
   3  -1 -16 99.0162 105.280   5
   3   0 -15 552.729 301.656   5
   3   1 -14 8182.81 997.017   5
   3   2 -13-64.7751 121.785   5
  -3  -2  13 45.0262 66.1911   4
   3   3 -12 299.610 172.953   5
  -3  -3  12 138.374 194.468   6
  -3  -4  11 42142.1 2252.68   6
  -3  -5  10-168.275 164.493   6
  -3  -6   9 985.196 353.717   6
  -3  -7   8-239.043 194.158   6
  -3  -8   7-79.2657 152.564   6
   2  -3 -18-239.818 205.918   5
   2  -2 -17 66.3571 58.7806   5
   2  -1 -16 185.297 164.044   5
   2   0 -15 1047.69 394.201   5
  -2   0  15 1209.40 345.032   4
  -2  -1  14 10419.9 919.788   4
   2   1 -14 9613.10 1051.37   5
  -2  -2  13 6138.03 661.585   4
   2   2 -13 5655.52 805.833   5
   2   3 -12 244.767 185.148   5
  -2  -3  12 286.319 134.009   4
  -2  -4  11 1959.32 309.003   4
  -2  -4  11 1665.37 453.693   6
  -2  -5  10 2119.62 313.190   4
  -2  -5  10 2565.78 543.273   6
  -2  -6   9 7397.46 968.682   6
  -2  -7   8 78.5900 134.826   6
  -2  -8   7 1505.39 485.210   6
  -2  -9   6 160.307 168.333   6
   1  -2 -17-27.2695 124.804   5
  -1   1  16 2977.98 607.984   4
   1  -1 -16 3064.61 647.712   5
   1   0 -15 85.2044 137.555   5
  -1   0  15 716.562 281.351   4
  -1  -1  14 5325.65 713.811   4
   1   1 -14 4599.49 735.785   5
   1   2 -13 446.652 217.870   5
  -1  -2  13 248.900 144.275   4
  -1  -3  12 3093.94 465.909   4
   1   3 -12 3709.23 612.705   5
  -1  -4  11 333.007 214.715   6
  -1  -4  11 287.478 125.092   4
  -1  -5  10 7755.96 907.169   6
  -1  -5  10 7686.14 687.458   4
  -1  -6   9 4066.15 692.578   6
  -1  -7   8 163.539 155.888   6
  -1  -8   7 529.672 242.664   6
  -1  -9   6-7.66918 69.8724   6
  -1 -10   5 566.090 298.755   6
   0  -2 -17 502.199 273.689   5
   0   1  16 115.850 133.257   4
   0  -1 -16 485.584 270.975   5
   0   0 -15 126.507 127.436   5
   0   0  15-150.745 139.054   4
   0   1 -14 1053.22 354.065   5
   0  -1  14 1016.09 306.600   4
   0  -2  13 8249.37 870.097   4
   0   2 -13 7851.40 885.327   5
   0  -3  12 24165.1 1404.11   4
   0   3 -12 24250.5 1526.01   5
   0   3 -12 21835.3 617.751   3
   0  -4  11 2560.32 440.014   4
   0  -5  10 2191.72 465.976   6
   0  -5  10 2550.32 445.726   4
   0  -6   9 36.3676 68.6929   6
   0  -7   8 26.3299 114.883   6
   0  -8   7 6.74828 119.194   6
   0  -9   6 122.402 135.976   6
   0 -10   5-63.3570 109.751   6
  -1  -2 -17 46.0261 89.9580   5
   1   1  16 152.740 125.552   4
  -1  -1 -16 248.884 190.039   5
   1   0  15 100.474 70.9030   4
  -1   0 -15-108.063 114.999   5
  -1   1 -14 448.195 228.795   5
   1  -1  14 366.612 207.812   4
  -1   2 -13 1563.59 393.804   5
   1  -2  13 1218.86 380.507   4
   1  -3  12 25530.1 1539.52   4
  -1   3 -12 26477.9 1530.28   5
  -1   4 -11 3014.25 506.269   5
   1  -4  11 2706.54 491.327   4
  -1   4 -11 2708.88 307.982   3
   1  -5  10 6041.66 747.347   6
   1  -5  10 5434.72 683.172   4
   1  -6   9 1181.56 341.310   6
   1  -7   8 5372.70 744.224   6
   1  -8   7 66.8000 106.457   6
   1  -9   6-34.3559 87.6220   6
   1 -10   5 413.082 253.466   6
   1 -11   4-192.732 177.995   6
   2   0  15 352.206 241.634   4
  -2   0 -15 168.387 139.116   5
   2  -1  14 419.800 267.448   4
  -2   1 -14 833.866 299.199   5
  -2   2 -13 341.067 168.568   5
   2  -2  13 181.668 153.713   4
  -2   3 -12 111.839 82.9720   5
   2  -3  12-190.824 146.323   4
   2  -4  11 4702.70 690.936   4
  -2   4 -11 3900.82 580.182   5
  -2   4 -11 4462.09 425.114   3
   2  -5  10 4520.75 663.047   4
  -2   5 -10 4450.15 474.164   3
   2  -6   9 3785.29 581.274   6
  -2   6  -9 4019.67 494.978   3
   2  -7   8 1336.58 349.436   6
   2  -8   7-183.747 142.060   6
   2  -9   6 86.9422 95.2495   6
   2 -10   5 1041.79 387.227   6
   2 -11   4-147.832 153.477   6
   3   0  15 154.659 209.618   4
   3  -1  14-78.9339 118.223   4
   3  -2  13 231.907 101.670   4
  -3   3 -12 775.625 243.174   5
   3  -3  12 754.123 326.504   4
  -3   4 -11 2365.38 341.760   3
  -3   4 -11 1984.31 366.369   5
   3  -4  11 2337.15 501.258   4
   3  -5  10 9955.97 1074.19   4
  -3   5 -10 9474.57 840.955   5
  -3   5 -10 9804.98 765.262   3
  -3   6  -9 1191.46 279.017   3
   3  -6   9 857.162 312.450   4
  -3   7  -8 918.491 263.906   3
   3  -7   8 854.193 270.857   6
   3  -8   7 556.492 237.679   6
  -3   8  -7 599.083 246.911   3
   3  -9   6 43.8172 44.4368   6
   3 -10   5 111.494 173.199   6
   3 -11   4 411.185 237.143   6
   3 -12   3 46.4349 88.5311   6
   4  -2  13 30.4987 160.472   4
   4  -3  12 721.182 299.262   4
   4  -4  11 108.970 110.145   4
  -4   5 -10 472.790 218.946   3
   4  -5  10 412.657 253.568   4
  -4   6  -9 11.9795 89.8298   3
   4  -6   9 85.7153 94.4931   4
  -4   7  -8-13.1952 82.1099   3
   4  -7   8 45.8225 52.5901   6
   4  -8   7 5050.53 655.556   6
  -4   8  -7 3886.73 595.800   3
  -4   9  -6 877.544 309.155   3
   4  -9   6 505.689 238.407   6
  -4  10  -5 259.172 197.625   3
   4 -10   5 104.854 126.152   6
   4 -11   4 98.8073 165.245   6
  -4  11  -4 196.373 215.888   3
   5  -3  12 137.442 151.078   4
   5  -4  11 9.47053 112.666   4
   5  -5  10 704.777 324.593   4
  -5   6  -9 273.633 155.538   3
   5  -6   9 577.897 284.719   4
  -5   7  -8 1098.96 320.287   3
   5  -7   8 1016.51 397.861   4
  -5   8  -7-127.036 142.415   3
  -5   9  -6 567.057 224.507   3
  -5  10  -5 40.6423 118.010   3
  -5  11  -4 195.973 134.910   3
   6  -5  10 427.282 260.293   4
  -6   6  -9 156.514 91.1332   3
   6  -6   9-9.61329 51.6747   4
  -6   7  -8 1262.64 360.178   3
   6  -7   8 1412.36 476.866   4
  -6   8  -7 39.6691 56.4288   3
  -6   9  -6 212.127 178.137   3
  -6  10  -5 463.931 270.716   3
  -7   7  -8-2.83692 152.309   3
  -7   8  -7-57.1709 103.574   3
  -7   9  -6-194.445 168.727   3
   7   1 -15-144.507 150.268   5
   7   2 -14 425.326 245.780   5
   7   3 -13-12.2426 53.0683   5
   6  -1 -17 161.054 123.575   5
   6   0 -16 325.938 197.339   5
   6   1 -15-325.726 215.604   5
   6   2 -14-129.469 137.459   5
   6   3 -13 146.127 143.082   5
   6   4 -12 49.1452 90.0692   5
  -6  -4  12 228.201 195.504   6
  -6  -5  11 585.973 315.289   6
   5  -1 -17 1273.85 474.134   5
   5   0 -16 234.084 211.264   5
   5   1 -15-34.0422 116.406   5
   5   2 -14 1469.19 450.803   5
   5   3 -13 354.084 227.994   5
   5   4 -12-38.1416 81.0992   5
  -5  -4  12 233.919 217.938   6
  -5  -5  11 117.385 143.386   6
  -5  -6  10-17.2319 68.2689   6
   4  -2 -18-211.791 226.615   5
   4  -1 -17-433.122 261.941   5
   4   0 -16-121.335 143.657   5
   4   1 -15 1457.90 448.332   5
   4   2 -14-18.6968 132.346   5
   4   3 -13 3001.11 627.171   5
  -4  -4  12 953.627 354.839   6
  -4  -5  11 30.9046 89.0296   6
  -4  -6  10 223.052 171.792   6
  -4  -7   9 348.975 244.070   6
   3  -2 -18 1008.25 407.124   5
   3  -1 -17 80.1093 98.1319   5
   3   0 -16 2640.32 597.748   5
   3   1 -15 1456.23 433.482   5
   3   2 -14 127.346 119.525   5
   3   3 -13 2454.15 542.514   5
  -3  -4  12 2215.86 536.974   6
  -3  -5  11 4133.28 737.895   6
  -3  -6  10 789.099 355.582   6
  -3  -7   9 114.341 231.544   6
  -3  -8   8 110.032 145.200   6
   2  -2 -18-192.378 176.507   5
   2  -1 -17 352.771 233.179   5
   2   0 -16-173.949 158.570   5
  -2   0  16 12.7603 170.889   4
   2   1 -15 725.512 322.144   5
  -2  -1  15 210.511 153.713   4
  -2  -2  14 7343.16 761.751   4
   2   2 -14 6509.13 884.039   5
   2   3 -13-332.563 199.047   5
  -2  -3  13 39.0792 42.1304   4
  -2  -4  12 1425.10 406.523   6
  -2  -4  12 1437.69 279.066   4
  -2  -5  11 23701.6 1700.59   6
  -2  -5  11 22478.0 1072.64   4
  -2  -6  10 191.491 224.276   6
  -2  -7   9 129.389 90.1995   6
  -2  -8   8 75.8947 71.9590   6
  -2  -9   7-112.078 141.076   6
   1  -2 -18 131.923 151.671   5
  -1   1  17 193.810 167.992   4
   1  -1 -17-43.2045 90.1379   5
   1   0 -16-38.0292 106.732   5
  -1   0  16-72.5386 81.2508   4
   1   1 -15-101.397 142.511   5
  -1  -1  15 69.9216 63.4334   4
   1   2 -14 671.807 305.599   5
  -1  -2  14 685.827 238.343   4
   1   3 -13 31.0244 62.2000   5
  -1  -3  13 160.632 84.8222   4
  -1  -4  12 626.206 236.981   6
   1   4 -12 659.342 265.165   5
  -1  -4  12 775.697 231.226   4
  -1  -5  11 5110.38 775.335   6
  -1  -5  11 5376.92 600.799   4
  -1  -6  10 21340.3 1597.53   6
  -1  -6  10 20841.0 1183.20   4
  -1  -7   9 1593.39 457.430   6
  -1  -8   8 186.095 80.8458   6
  -1  -9   7 356.730 242.211   6
  -1 -10   6-95.5293 138.973   6
   0  -2 -18 854.547 395.512   5
   0   1  17 120.966 138.373   4
   0  -1 -17-17.7892 69.1044   5
   0   0  16-138.636 141.410   4
   0   0 -16-101.292 118.953   5
   0   1 -15 544.369 281.755   5
   0  -1  15 690.273 272.025   4
   0  -2  14 7030.99 837.489   4
   0   2 -14 6871.67 861.177   5
   0  -3  13 4233.97 620.441   4
   0   3 -13 5330.03 742.541   5
   0  -4  12 4320.69 592.459   4
   0   4 -12 3931.53 631.273   5
   0  -5  11 1126.65 350.879   6
   0  -5  11 1256.77 312.964   4
   0  -6  10 283.158 198.446   6
   0  -6  10-22.1851 89.9458   4
   0  -7   9 1592.55 435.962   6
   0  -8   8 252.347 164.912   6
   0  -9   7-0.55144 106.370   6
   0 -10   6 344.693 234.847   6
   1   1  17 1413.59 495.516   4
  -1  -1 -17 973.707 402.856   5
   1   0  16 848.529 371.022   4
  -1   0 -16 704.339 273.765   5
  -1   1 -15 2422.12 525.133   5
   1  -1  15 2142.88 530.705   4
   1  -2  14 9743.79 1043.18   4
  -1   2 -14 9184.98 980.203   5
   1  -3  13 3198.27 564.447   4
  -1   3 -13 3485.27 593.767   5
  -1   4 -12 1233.94 352.079   5
  -1   4 -12 791.315 163.145   3
   1  -4  12 1037.74 311.096   4
  -1   5 -11 914.372 207.497   3
   1  -5  11 814.328 284.497   6
   1  -5  11 1056.08 306.450   4
   1  -6  10 5015.81 730.758   6
   1  -6  10 5452.16 722.057   4
   1  -7   9 2945.66 566.951   6
   1  -8   8 2803.14 578.261   6
   1  -9   7 1242.46 444.600   6
   1 -10   6-3.38793 144.445   6
   1 -11   5 544.273 327.083   6
   2   0  16-82.9744 123.431   4
   2  -1  15 78.6193 114.282   4
  -2   1 -15-20.0877 39.9637   5
  -2   2 -14 52.7416 122.125   5
   2  -2  14 271.002 248.670   4
   2  -3  13 12508.6 1205.20   4
  -2   3 -13 11576.1 1022.53   5
  -2   4 -12 2568.69 471.201   5
   2  -4  12 2457.92 517.594   4
   2  -5  11 4005.63 645.151   4
  -2   5 -11 3722.87 579.083   5
  -2   5 -11 4595.85 483.135   3
   2  -6  10 5689.44 742.675   6
   2  -6  10 5118.46 729.118   4
  -2   6 -10 5454.44 567.225   3
   2  -7   9 2019.67 459.720   6
   2  -8   8 102.616 165.134   6
   2  -9   7-8.46473 108.330   6
   2 -10   6 242.173 239.114   6
   2 -11   5 21.0683 75.2219   6
   3  -1  15-205.464 184.551   4
   3  -2  14 31.9997 77.8116   4
   3  -3  13 768.790 325.852   4
  -3   4 -12 2147.14 418.655   5
   3  -4  12 2246.74 536.365   4
  -3   5 -11 2120.55 407.995   5
   3  -5  11 2313.75 530.550   4
  -3   5 -11 2847.42 406.574   3
  -3   6 -10 110.940 124.918   3
   3  -6  10 286.000 218.253   4
   3  -7   9 2236.86 438.538   6
  -3   7  -9 2823.81 469.996   3
  -3   8  -8 639.896 259.728   3
   3  -8   8 941.644 300.847   6
   3  -9   7 1671.07 432.588   6
   3 -10   6 35.4005 63.6443   6
   3 -11   5 64.0714 103.330   6
   3 -12   4-169.395 169.684   6
   4  -2  14 257.861 263.638   4
   4  -3  13 504.964 235.997   4
   4  -4  12 83.3023 87.4904   4
  -4   5 -11 1310.16 284.091   3
   4  -5  11 1187.41 390.590   4
  -4   6 -10 688.093 234.230   3
   4  -6  10 1224.50 406.391   4
  -4   7  -9 1119.54 309.506   3
   4  -7   9 980.135 373.039   4
  -4   8  -8 72.6738 83.7919   3
  -4   9  -7 692.049 286.782   3
  -4  10  -6-110.693 174.129   3
  -4  11  -5-16.6555 130.000   3
   5  -4  12 52.3010 92.2410   4
   5  -5  11 2501.17 615.527   4
  -5   6 -10 1385.51 343.870   3
   5  -6  10 773.200 328.361   4
  -5   7  -9 2208.65 466.065   3
   5  -7   9 2159.88 577.311   4
  -5   8  -8 241.783 159.733   3
  -5   9  -7 814.844 269.850   3
  -5  10  -6 69.4704 101.082   3
  -5  11  -5 422.276 269.588   3
   6  -6  10 258.897 214.829   4
  -6   7  -9-25.1225 76.4794   3
   6  -7   9 272.827 214.215   4
  -6   8  -8 186.447 130.330   3
   6  -8   8-2.58670 46.1217   4
  -6   9  -7-189.453 169.347   3
  -6  10  -6 1278.80 403.856   3
  -7   8  -8 422.261 253.718   3
   6   1 -16 131.024 150.823   5
   6   2 -15 302.033 213.283   5
   6   3 -14 224.103 179.204   5
   6   4 -13 158.958 154.558   5
  -6  -4  13 517.900 296.472   6
   5   0 -17 1308.75 432.013   5
   5   1 -16 257.153 203.040   5
   5   2 -15 656.003 319.665   5
   5   3 -14 69.9755 93.8479   5
   5   4 -13 24.7883 59.0654   5
  -5  -4  13 26.5037 77.9387   6
  -5  -5  12-331.883 234.835   6
  -5  -6  11 428.825 273.852   6
   4  -1 -18 1292.06 461.837   5
   4   0 -17 782.839 370.071   5
   4   1 -16 29.1826 115.539   5
   4   2 -15 260.801 168.762   5
   4   3 -14 289.787 215.287   5
   4   4 -13 55.9755 87.2979   5
  -4  -4  13 127.649 139.927   6
  -4  -5  12-118.724 202.107   6
  -4  -6  11 240.118 221.439   6
  -4  -7  10 206.125 193.967   6
   3  -1 -18 295.840 221.457   5
   3   0 -17 10.0458 105.017   5
   3   1 -16 1199.81 404.304   5
   3   2 -15 1114.08 395.164   5
   3   3 -14 898.321 332.884   5
   3   4 -13 161.072 189.737   5
  -3  -4  13 400.946 220.159   6
  -3  -5  12 85.9276 101.615   6
  -3  -6  11-264.830 201.333   6
  -3  -7  10 597.613 307.696   6
  -3  -8   9 89.4256 130.157   6
   2  -1 -18 427.702 280.499   5
   2   0 -17 187.091 252.197   5
  -2   0  17 585.242 238.304   4
   2   1 -16 944.834 376.916   5
  -2  -1  16 1578.11 408.076   4
   2   2 -15 338.645 263.814   5
  -2  -2  15-124.661 107.121   4
   2   3 -14-152.365 174.472   5
  -2  -3  14-153.326 107.050   4
  -2  -4  13 3666.47 682.614   6
  -2  -4  13 4031.01 509.348   4
   2   4 -13 4600.05 748.103   5
  -2  -5  12 1568.28 433.000   6
  -2  -6  11 215.755 185.256   6
  -2  -7  10-171.016 163.954   6
  -2  -8   9 48.8902 100.860   6
  -2  -9   8 76.8232 124.904   6
  -1   1  18 117.263 143.687   4
   1  -1 -18-59.6865 132.117   5
   1   0 -17 107.240 178.675   5
  -1   0  17 313.460 203.158   4
   1   1 -16 181.255 172.683   5
  -1  -1  16 75.9555 137.579   4
   1   2 -15 480.614 244.805   5
  -1  -2  15 634.913 254.675   4
   1   3 -14 867.314 351.429   5
  -1  -3  14 1034.38 288.526   4
   1   4 -13 787.026 309.674   5
  -1  -4  13 756.674 237.528   4
  -1  -5  12 5934.40 845.735   6
  -1  -5  12 5629.36 636.090   4
  -1  -6  11 3142.88 479.214   4
  -1  -6  11 3176.17 641.395   6
  -1  -7  10 133.911 204.964   6
  -1  -8   9-39.0685 83.8055   6
  -1  -9   8-75.2211 164.551   6
  -1 -10   7 15.0833 81.3029   6
   0   1  18 108.222 138.329   4
   0  -1 -18-353.927 232.991   5
   0   0  17-96.9001 121.537   4
   0   0 -17 112.955 127.832   5
   0   1 -16 423.811 226.244   5
   0  -1  16 840.754 333.638   4
   0   2 -15 348.224 190.005   5
   0  -2  15 391.753 219.096   4
   0  -3  14 5278.39 729.189   4
   0   3 -14 4434.47 712.034   5
   0   4 -13 188.022 124.993   5
   0  -4  13 221.131 96.4414   4
   0  -5  12 205.047 175.551   6
   0  -5  12 303.763 156.355   4
   0  -6  11 4674.00 746.359   6
   0  -6  11 5762.74 708.132   4
   0  -7  10 3453.98 645.204   6
   0  -8   9 38.5035 143.506   6
   0  -9   8 250.753 225.999   6
   0 -10   7-106.887 194.212   6
  -1  -1 -18 21.9401 75.2656   5
   1   0  17 574.567 296.544   4
  -1   0 -17-73.8378 99.7894   5
  -1   1 -16-98.6133 113.513   5
   1  -1  16 190.412 191.186   4
  -1   2 -15 217.963 156.701   5
   1  -2  15 302.123 213.833   4
  -1   3 -14 301.514 196.666   5
   1  -3  14 766.117 310.776   4
  -1   4 -13 2215.51 480.966   5
   1  -4  13 2274.12 475.619   4
  -1   5 -12 27.9117 37.0559   3
  -1   5 -12-18.4676 121.545   5
   1  -5  12 32.8584 87.8551   4
   1  -6  11 137.016 162.423   6
   1  -6  11 318.829 198.345   4
   1  -7  10 11360.0 1138.12   6
   1  -8   9 2093.47 507.503   6
   1  -9   8 533.264 254.144   6
   1 -10   7 63.1635 150.722   6
   1 -11   6 220.521 208.155   6
   2  -1  16 7.86303 139.824   4
  -2   2 -15 59.5534 107.451   5
   2  -2  15 193.645 203.898   4
  -2   3 -14 2132.25 461.869   5
   2  -3  14 2183.08 533.982   4
   2  -4  13 10776.3 1115.01   4
  -2   4 -13 10131.4 1003.39   5
   2  -5  12 6030.89 815.770   4
  -2   5 -12 5069.69 704.238   5
  -2   6 -11 125.617 86.4046   3
   2  -6  11 26.5771 100.597   4
   2  -7  10 566.986 258.278   6
  -2   7 -10 682.201 240.452   3
   2  -8   9 2275.24 508.143   6
   2  -9   8 1164.86 401.872   6
   2 -10   7 118.040 158.448   6
   2 -11   6-36.6195 150.526   6
   3  -2  15 383.571 178.785   4
   3  -3  14 576.231 287.090   4
  -3   4 -13 1782.20 395.002   5
   3  -4  13 2631.07 595.434   4
  -3   5 -12 1009.28 310.762   5
   3  -5  12 1913.90 495.088   4
  -3   6 -11 960.603 291.825   5
  -3   6 -11 1014.40 252.510   3
   3  -6  11 1264.50 410.288   4
  -3   7 -10 37.4037 108.413   3
   3  -7  10 37.4720 106.545   6
   3  -7  10-65.6876 133.680   4
   3  -8   9 3229.23 581.609   6
  -3   8  -9 3691.44 563.309   3
   3  -9   8 2651.24 549.134   6
  -3   9  -8 2834.26 529.838   3
   3 -10   7 167.022 153.120   6
   3 -11   6 621.662 292.681   6
   3 -12   5-146.529 155.699   6
   4  -3  14 42.1897 95.1097   4
   4  -4  13 266.483 238.988   4
   4  -5  12 2484.94 573.161   4
   4  -6  11 6322.61 955.608   4
  -4   6 -11 5615.00 646.324   3
  -4   7 -10 1050.15 301.129   3
   4  -7  10 1158.74 396.065   4
  -4   8  -9-334.284 207.936   3
  -4   9  -8 24.0417 66.4895   3
  -4  10  -7 62.8046 75.6276   3
  -4  11  -6 92.2687 173.111   3
   5  -5  12 79.8169 84.4559   4
   5  -6  11 1711.76 517.599   4
  -5   7 -10 153.328 114.797   3
   5  -7  10-150.037 220.491   4
  -5   8  -9-144.249 111.187   3
   5  -8   9 520.148 261.666   4
  -5   9  -8 460.885 243.387   3
  -5  10  -7 1121.83 342.619   3
  -5  11  -6-80.1166 142.295   3
  -6   7 -10 1842.95 435.999   3
  -6   8  -9 863.930 297.447   3
  -6   9  -8 14.7795 58.9992   3
  -6  10  -7-106.736 88.1898   3
  -7   8  -9 318.102 243.822   3
   6   3 -15 136.547 145.222   5
   5   1 -17 270.519 162.393   5
   5   2 -16 603.706 299.260   5
   5   3 -15 250.578 227.580   5
   5   4 -14 42.3286 124.976   5
   5   5 -13-8.78574 58.2025   5
  -5  -5  13 383.676 259.454   6
   4   0 -18 300.998 226.450   5
   4   1 -17 416.840 235.792   5
   4   2 -16 90.7806 91.4630   5
   4   3 -15 66.9879 96.3950   5
   4   4 -14-116.589 132.724   5
  -4  -5  13 589.091 322.777   6
  -4  -6  12 786.568 359.042   6
  -4  -7  11-89.5407 129.180   6
   3   0 -18-7.62237 54.9406   5
   3   1 -17 202.480 169.298   5
   3   2 -16 714.187 336.131   5
   3   3 -15-31.2622 142.225   5
   3   4 -14-86.2085 118.103   5
  -3  -5  13 837.459 353.931   6
  -3  -6  12 137.994 162.146   6
  -3  -7  11 172.614 111.571   6
  -3  -8  10 471.778 292.060   6
   2   0 -18-190.542 177.980   5
   2   1 -17 1031.84 391.985   5
  -2  -1  17 831.399 305.194   4
   2   2 -16 399.381 233.797   5
  -2  -2  16 118.012 124.494   4
   2   3 -15 2821.04 617.920   5
  -2  -3  15 3441.54 532.398   4
   2   4 -14 436.841 207.416   5
  -2  -5  13 1688.34 523.179   6
  -2  -6  12 3322.75 700.106   6
  -2  -7  11 305.391 302.193   6
  -2  -8  10 354.886 242.280   6
  -2  -9   9 987.725 429.831   6
   1  -1 -19-87.2886 190.030   5
   1   0 -18 409.066 226.914   5
  -1   0  18 242.748 170.801   4
   1   1 -17 222.876 187.425   5
  -1  -1  17 160.637 143.538   4
   1   2 -16 1921.05 501.496   5
  -1  -2  16 1484.56 412.699   4
  -1  -3  15 5500.31 718.319   4
   1   3 -15 5871.85 864.414   5
   1   4 -14 1303.89 401.444   5
  -1  -4  14 1098.22 312.557   4
  -1  -5  13 526.212 284.014   6
  -1  -5  13 308.285 151.022   4
  -1  -6  12 1901.90 498.144   6
  -1  -6  12 2309.58 419.385   4
  -1  -7  11 2440.70 585.493   6
  -1  -7  11 1444.68 343.472   4
  -1  -8  10 366.121 203.600   6
  -1  -9   9 632.412 338.324   6
   0  -1 -19 460.200 276.443   5
   0   0  18 676.509 315.286   4
   0   0 -18 759.981 331.495   5
   0   1 -17 1113.16 409.272   5
   0  -1  17 1329.21 411.158   4
   0   2 -16 147.999 130.889   5
   0  -2  16 124.610 50.6757   4
   0   3 -15-217.282 164.541   5
   0  -3  15 200.146 131.204   4
   0   4 -14 1493.53 406.332   5
   0  -4  14 1349.34 362.017   4
   0   5 -13 205.283 177.112   5
   0  -5  13 407.161 171.345   4
   0  -6  12-95.0640 157.503   6
   0  -6  12 166.834 123.467   4
   0  -7  11 2333.36 565.122   6
   0  -7  11 2233.96 453.449   4
   0  -8  10 904.939 367.944   6
   0  -9   9-6.47239 64.6249   6
   0 -10   8 1115.82 467.004   6
  -1   0 -18-371.176 234.713   5
   1  -1  17-281.451 208.118   4
  -1   1 -17-27.6432 68.8597   5
  -1   2 -16 310.805 198.943   5
   1  -2  16 555.829 261.394   4
  -1   3 -15 461.745 216.779   5
   1  -3  15 243.029 171.423   4
  -1   4 -14 605.309 263.620   5
   1  -4  14 524.429 240.036   4
  -1   5 -13 1134.47 357.466   5
   1  -5  13 1247.93 356.190   4
   1  -6  12 669.860 286.462   6
   1  -6  12 482.560 225.579   4
  -1   6 -12 1143.91 255.326   3
   1  -7  11 1852.59 485.891   6
   1  -7  11 2949.56 573.738   4
   1  -8  10 593.837 287.995   6
   1  -9   9 218.788 201.248   6
   1 -10   8 67.0168 112.389   6
   1 -11   7 6.59467 63.5315   6
   2  -2  16 454.417 307.653   4
  -2   2 -16-114.855 119.671   5
  -2   3 -15 198.616 144.843   5
   2  -3  15-232.948 181.019   4
  -2   4 -14 1864.99 428.526   5
   2  -4  14 1789.76 473.732   4
  -2   5 -13-223.472 154.336   5
   2  -5  13 140.236 140.915   4
  -2   6 -12-2.73340 31.2566   3
   2  -6  12 38.4884 110.189   4
  -2   7 -11 1479.92 325.755   3
   2  -7  11 1391.49 411.048   6
   2  -7  11 984.681 340.472   4
   2  -8  10 1129.10 368.483   6
   2  -9   9 950.003 348.358   6
   2 -10   8 424.890 242.776   6
   2 -11   7-152.916 113.133   6
   3  -3  15 13.4976 102.727   4
   3  -4  14 368.735 227.303   4
  -3   5 -13 453.107 211.328   5
   3  -5  13 115.062 202.893   4
  -3   6 -12-142.948 122.432   5
   3  -6  12 43.3787 78.7309   4
  -3   7 -11-232.463 137.144   3
   3  -7  11 203.367 149.088   4
   3  -8  10 4070.21 671.741   6
  -3   8 -10 3976.28 587.998   3
  -3   9  -9 1106.96 314.094   3
   3  -9   9 983.091 348.097   6
   3 -10   8 12.3861 57.4357   6
   3 -11   7-61.2850 146.590   6
   3 -12   6-75.9591 115.938   6
   4  -4  14 149.769 204.410   4
   4  -5  13 180.927 172.715   4
   4  -6  12 1661.27 514.827   4
  -4   7 -11 62.2415 71.5969   3
   4  -7  11 133.795 138.822   4
  -4   8 -10 3.64563 117.339   3
   4  -8  10 131.705 109.646   4
  -4   9  -9 761.916 297.501   3
  -4  10  -8 572.498 243.976   3
  -4  11  -7 85.0103 119.730   3
   5  -6  12-5.61996 124.608   4
   5  -7  11 593.393 275.594   4
  -5   8 -10-23.5882 80.8203   3
   5  -8  10 17.8278 70.0038   4
  -5   9  -9 323.985 204.134   3
  -5  10  -8 1696.75 478.513   3
  -6   8 -10 954.835 345.893   3
  -6   9  -9-97.0278 154.284   3
  -6  10  -8 209.744 179.239   3
   5   2 -17 148.786 97.2607   5
   5   3 -16-182.330 171.581   5
   5   4 -15 203.952 180.710   5
  -5  -5  14 299.786 233.986   6
   4   1 -18 482.442 299.463   5
   4   2 -17 332.862 172.126   5
   4   3 -16-288.629 211.937   5
   4   4 -15 26.2706 80.6016   5
   4   5 -14 107.190 135.892   5
  -4  -5  14 134.992 156.644   6
  -4  -6  13-98.7908 143.326   6
   3   1 -18-218.121 194.558   5
   3   2 -17 315.409 261.178   5
   3   3 -16-7.96508 49.3279   5
   3   4 -15 447.953 253.079   5
   3   5 -14 491.411 296.795   5
  -3  -5  14 231.397 234.691   6
  -3  -6  13 238.190 200.759   6
  -3  -7  12 696.413 343.779   6
   2   0 -19 1437.58 486.651   5
   2   1 -18 31.5058 59.8577   5
  -2  -1  18 35.1919 70.1554   4
   2   2 -17-156.845 157.986   5
  -2  -2  17 15.7578 127.352   4
   2   3 -16-39.5065 136.017   5
   2   4 -15 585.365 286.854   5
  -2  -5  14 138.508 133.608   6
   2   5 -14-0.54147 82.9122   5
  -2  -6  13-1.75906 121.388   6
  -2  -7  12 251.838 184.287   6
  -2  -8  11 233.557 203.302   6
  -1   0  19 109.621 133.501   4
   1   0 -19 202.470 153.840   5
   1   1 -18 284.728 222.802   5
  -1  -1  18 530.719 286.324   4
   1   2 -17 2.77851 55.1312   5
  -1  -2  17 129.913 130.874   4
   1   3 -16 161.206 178.416   5
  -1  -3  16 154.799 163.379   4
   1   4 -15 3819.53 710.360   5
  -1  -4  15 3994.43 610.763   4
   1   5 -14 68.3787 55.8696   5
  -1  -5  14 67.2609 101.847   4
  -1  -6  13 433.416 255.891   6
  -1  -6  13 760.895 250.259   4
  -1  -7  12 2990.11 655.875   6
  -1  -8  11 167.828 195.676   6
  -1  -9  10 186.805 229.109   6
   0   0 -19-418.816 254.640   5
   0   1 -18 591.520 293.426   5
   0  -1  18 593.930 293.203   4
   0   2 -17 1665.70 474.627   5
   0  -2  17 1535.83 457.092   4
   0   3 -16 285.981 129.659   5
   0  -3  16 103.908 102.391   4
   0   4 -15 264.602 182.995   5
   0  -4  15-295.832 179.076   4
   0   5 -14 748.102 330.977   5
   0  -5  14 517.104 228.910   4
   0  -6  13 69.9313 104.461   6
   0  -6  13-315.172 174.787   4
   0  -7  12 1938.56 517.193   6
   0  -7  12 1645.85 403.204   4
   0  -8  11 1228.74 434.274   6
   0  -9  10 92.9539 168.288   6
   0 -10   9 587.511 298.171   6
   1  -1  18 84.8172 105.300   4
  -1   1 -18 59.5583 97.1477   5
  -1   2 -17 161.917 125.638   5
   1  -2  17 553.087 289.959   4
  -1   3 -16 311.956 224.281   5
   1  -3  16 564.919 294.133   4
  -1   4 -15 2101.70 502.783   5
   1  -4  15 2441.20 547.846   4
  -1   5 -14 1346.23 407.171   5
   1  -5  14 1757.52 439.974   4
   1  -6  13-273.665 175.929   4
   1  -7  12 92.4487 76.9296   6
   1  -7  12 308.139 209.295   4
   1  -8  11 422.245 257.936   6
   1  -9  10 183.224 166.996   6
   1 -10   9 466.705 311.108   6
   1 -11   8 131.454 156.140   6
   2  -2  17 274.292 174.388   4
  -2   3 -16 2108.02 511.965   5
   2  -3  16 2115.78 566.798   4
  -2   4 -15 949.549 302.095   5
   2  -4  15 926.327 371.637   4
  -2   5 -14 861.925 319.589   5
   2  -5  14 1367.19 417.514   4
  -2   6 -13 122.596 96.9762   5
   2  -6  13 65.0160 139.870   4
  -2   7 -12 22.8609 60.2888   3
   2  -7  12 35.4990 107.900   6
   2  -7  12 138.444 133.742   4
   2  -8  11 732.309 322.469   6
  -2   8 -11 668.541 225.430   3
   2  -9  10-26.1555 119.441   6
   2 -10   9-54.0491 237.629   6
   2 -11   8-182.607 176.471   6
   3  -3  16 103.256 136.750   4
   3  -4  15 712.114 342.685   4
   3  -5  14 2479.22 596.299   4
  -3   6 -13-39.9143 73.1714   5
   3  -6  13 75.1696 133.452   4
   3  -7  12 131.405 204.228   4
  -3   8 -11-12.6207 72.9372   3
   3  -8  11 101.884 128.844   6
   3  -8  11-7.58321 79.4728   4
  -3   9 -10 1585.78 413.990   3
   3  -9  10 2103.41 512.859   6
   3 -10   9-278.169 195.199   6
  -3  10  -9-224.009 149.054   3
   3 -11   8 113.844 137.101   6
   3 -12   7-14.9981 130.725   6
   4  -5  14 270.637 267.374   4
   4  -6  13 646.540 341.886   4
   4  -7  12 487.523 281.993   4
  -4   8 -11-26.5493 74.8203   3
   4  -8  11-365.398 240.327   4
  -4   9 -10 930.653 330.719   3
  -4  10  -9-22.7130 108.053   3
  -4  11  -8 20.4813 151.938   3
   5  -8  11-51.6618 142.175   4
  -5   9 -10 30.3320 144.188   3
  -5  10  -9 802.622 343.560   3
  -6   9 -10-290.984 193.074   3
   4   3 -17 1586.71 502.703   5
   4   4 -16 187.692 150.547   5
   4   5 -15-52.3809 99.3324   5
  -4  -5  15-152.726 155.744   6
   3   2 -18-357.170 240.793   5
   3   3 -17 183.786 175.541   5
   3   4 -16 403.788 274.783   5
   3   5 -15 203.337 173.118   5
  -3  -6  14-10.6868 152.928   6
  -3  -7  13 534.277 296.092   6
   2   1 -19 1431.40 541.756   5
  -2  -1  19 1264.36 402.541   4
   2   2 -18 30.3859 71.5018   5
   2   3 -17 55.5185 101.476   5
   2   4 -16 530.400 314.963   5
   2   5 -15 560.562 286.854   5
  -2  -6  14 516.531 273.915   6
  -2  -7  13 109.856 128.260   6
  -2  -8  12 304.013 247.152   6
   1   1 -19 253.509 275.195   5
  -1  -1  19 109.388 81.4731   4
   1   2 -18 174.885 167.010   5
  -1  -2  18 44.1857 81.3641   4
   1   3 -17-88.2332 139.495   5
  -1  -3  17 19.0862 57.4241   4
   1   4 -16 161.840 89.0926   5
  -1  -4  16 189.358 136.214   4
   1   5 -15 320.354 247.959   5
  -1  -5  15-92.5684 94.9869   4
  -1  -6  14 70.1786 134.222   6
  -1  -7  13-7.18412 61.8788   6
  -1  -8  12 109.639 125.756   6
  -1  -9  11-8.22226 63.6238   6
   0   1 -19 274.560 209.131   5
   0  -1  19-398.401 248.975   4
   0   2 -18 417.978 250.528   5
   0  -2  18 314.386 178.483   4
   0   3 -17 245.182 122.365   5
   0  -3  17 13.1282 54.6164   4
   0   4 -16 502.824 277.159   5
   0  -4  16 754.377 293.246   4
   0   5 -15-33.6470 122.230   5
   0  -5  15 291.798 173.890   4
   0  -6  14 3.97605 97.5986   4
   0  -7  13-3.41321 145.859   6
   0  -7  13 4.40210 50.8902   4
   0  -8  12 258.695 228.007   6
   0  -8  12 3.31118 45.6710   4
   0  -9  11-111.838 141.164   6
   0 -10  10 1392.16 489.235   6
  -1   1 -19-2.32404 45.4349   5
  -1   2 -18 208.785 174.767   5
   1  -2  18 163.084 113.864   4
  -1   3 -17 276.730 210.276   5
   1  -3  17 99.7637 127.105   4
  -1   4 -16 285.695 192.279   5
   1  -4  16 224.935 174.783   4
  -1   5 -15 231.118 233.462   5
   1  -5  15 218.482 175.339   4
  -1   6 -14 125.250 145.831   5
   1  -6  14-13.1195 94.6685   4
   1  -7  13 12.7565 86.2783   6
   1  -7  13 110.855 179.980   4
   1  -8  12 299.673 252.117   6
   1  -8  12 102.865 116.923   4
   1  -9  11-211.785 180.918   6
   1 -10  10-14.6831 70.3584   6
   2  -3  17 203.367 179.657   4
  -2   4 -16 350.096 213.822   5
   2  -4  16 422.017 240.651   4
  -2   5 -15 81.3876 125.050   5
   2  -5  15 391.886 280.306   4
  -2   6 -14 183.836 203.074   5
   2  -6  14 551.552 283.502   4
   2  -7  13 106.154 129.097   4
  -2   8 -12-69.7822 100.458   3
   2  -8  12 149.422 158.993   6
   2  -8  12 171.766 154.429   4
   2  -9  11 39.8854 83.3662   6
   2 -10  10-22.5293 73.4943   6
   2 -11   9-25.8950 76.3679   6
   3  -4  16 555.399 303.863   4
   3  -5  15-67.4484 106.920   4
   3  -6  14 1040.86 371.189   4
  -3   7 -13-205.622 156.078   5
   3  -7  13 320.449 217.327   4
   3  -8  12 64.9667 107.561   4
  -3   9 -11 44.5903 58.8551   3
   3  -9  11 279.081 133.658   6
  -3  10 -10-169.086 144.053   3
   3 -10  10 440.487 246.355   6
   3 -11   9-242.868 194.301   6
   4  -6  14 30.7818 86.2592   4
   4  -7  13 506.152 289.107   4
   4  -8  12 198.458 182.771   4
  -4   9 -11 47.6652 113.848   3
   4  -9  11-203.618 184.747   4
  -4  10 -10 69.0890 126.177   3
  -4  11  -9-256.951 207.058   3
  -5  10 -10 227.330 150.978   3
   3   3 -18 731.492 284.390   5
   3   4 -17 524.865 292.268   5
   3   5 -16 140.473 134.439   5
   3   6 -15-156.832 168.175   5
  -3  -6  15 94.2260 134.945   6
   2   2 -19 363.274 251.805   5
   2   3 -18 1160.82 411.378   5
   2   4 -17 1470.25 493.996   5
   2   5 -16 513.029 284.154   5
   2   6 -15 88.4106 91.3033   5
  -2  -6  15 301.000 213.354   6
  -2  -7  14 568.847 330.207   6
  -2  -8  13 616.682 310.124   6
  -1  -1  20 870.797 367.138   4
   1   2 -19 238.168 205.974   5
  -1  -2  19 277.669 223.730   4
   1   3 -18 103.352 133.861   5
  -1  -3  18 733.168 316.545   4
   1   4 -17-93.8017 126.532   5
  -1  -4  17 35.2982 46.0162   4
   1   5 -16-130.425 148.771   5
   1   6 -15 701.283 377.053   5
  -1  -7  14 787.977 317.403   6
  -1  -8  13 435.645 219.891   6
  -1  -9  12 496.593 332.873   6
   0   2 -19-54.7710 102.309   5
   0  -2  19 155.567 158.132   4
   0   3 -18 601.686 315.032   5
   0  -3  18 546.015 291.308   4
   0   4 -17 468.909 276.179   5
   0  -4  17 134.423 139.920   4
   0   5 -16 85.1297 117.726   5
   0  -5  16-19.7160 60.6291   4
   0   6 -15 1442.91 470.260   5
   0  -6  15 1529.08 413.832   4
   0  -7  14 146.536 153.310   6
   0  -7  14-131.999 122.297   4
   0  -8  13 1773.35 529.755   6
   0  -9  12 997.575 403.297   6
  -1   2 -19 192.118 175.173   5
  -1   3 -18 29.3615 87.9503   5
   1  -3  18-122.526 139.008   4
  -1   4 -17 621.107 284.947   5
   1  -4  17 70.1730 105.839   4
  -1   5 -16-75.9617 104.258   5
   1  -5  16 169.021 179.944   4
  -1   6 -15 332.644 241.870   5
   1  -6  15 178.165 180.002   4
   1  -7  14 89.9060 110.980   4
   1  -8  13 310.810 255.278   6
   1  -8  13-0.97854 112.489   4
   1  -9  12 249.540 199.289   6
   1  -9  12 383.403 277.146   4
   1 -10  11 918.090 406.807   6
   2  -4  17 83.6357 122.380   4
  -2   5 -16 567.419 258.448   5
   2  -5  16 448.989 254.787   4
  -2   6 -15-98.7290 117.749   5
   2  -6  15 239.027 186.452   4
  -2   7 -14-161.842 150.926   5
   2  -7  14 123.594 192.016   4
   2  -8  13-122.064 134.266   6
   2  -8  13 183.990 161.316   4
   2  -9  12 118.097 51.9358   6
   2  -9  12-127.325 142.242   4
  -2   9 -12 260.228 207.155   3
   2 -10  11-383.108 243.194   6
   2 -11  10 546.732 302.225   6
   3  -5  16 750.115 374.317   4
   3  -6  15 855.211 359.767   4
   3  -7  14 127.400 191.134   4
   3  -8  13 173.433 137.538   4
   3  -9  12 497.883 239.813   6
   3  -9  12 159.054 160.706   4
  -3  10 -11 166.026 144.032   3
   3 -10  11-111.890 131.691   6
  -3  11 -10 187.613 202.963   3
  -4  10 -11-482.052 239.022   3
  -4  11 -10 29.0499 85.7331   3
   2   4 -18 634.834 369.877   5
   2   5 -17 928.648 398.698   5
   2   6 -16-165.747 175.876   5
  -2  -7  15-42.6608 104.243   6
  -1  -2  20 903.823 399.095   4
   1   3 -19-144.162 159.212   5
  -1  -3  19-229.420 177.719   4
   1   4 -18 24.6557 215.178   5
   1   5 -17 964.859 384.102   5
   1   6 -16 139.944 161.239   5
  -1  -7  15 400.938 178.804   6
  -1  -8  14-51.9683 108.229   6
   0   3 -19 398.740 252.599   5
   0  -3  19 43.4873 88.8414   4
   0   4 -18 185.708 172.007   5
   0  -4  18 236.194 193.271   4
   0   5 -17 1655.75 501.553   5
   0  -5  17 912.902 341.237   4
   0   6 -16 65.7143 113.955   5
   0  -6  16 245.799 169.691   4
   0  -7  15 140.618 97.4266   4
   0  -8  14 149.326 163.758   6
   0  -9  13-288.232 226.449   6
  -1   3 -19 1118.84 410.084   5
  -1   4 -18 289.913 171.284   5
   1  -4  18 226.239 186.564   4
  -1   5 -17 44.8629 86.5491   5
   1  -5  17-143.310 144.073   4
  -1   6 -16 105.745 127.649   5
   1  -6  16 112.236 128.990   4
  -1   7 -15 179.104 166.491   5
   1  -7  15-28.2056 73.5046   4
   1  -8  14 288.416 217.313   6
   1  -8  14 568.684 257.246   4
   1  -9  13 572.608 338.146   6
   1  -9  13 416.206 222.141   4
   1 -10  12 288.598 223.896   6
   2  -5  17 290.048 214.033   4
  -2   6 -16 43.5338 84.8086   5
   2  -6  16 40.8526 88.7898   4
  -2   7 -15-133.867 142.120   5
   2  -7  15 157.493 154.688   4
   2  -8  14 176.416 163.803   4
   2  -9  13-138.821 148.805   6
   2  -9  13 298.871 235.499   4
   2 -10  12 377.412 284.025   6
   3  -7  15 340.963 234.221   4
   3  -8  14 349.432 300.835   4
   3  -9  13 126.145 188.923   4
   3 -10  12 2.58995 43.1712   4
  -3  11 -11-134.447 179.018   3
   1   5 -18 559.656 307.234   5
   1   6 -17 264.619 227.571   5
   1   7 -16 276.565 174.313   5
   0   4 -19-197.128 183.241   5
   0  -4  19 30.9569 57.8593   4
   0   5 -18 753.210 342.148   5
   0  -5  18 898.908 326.251   4
   0   6 -17 424.519 291.297   5
   0  -6  17 662.359 300.536   4
   0   7 -16 50.8695 129.552   5
   0  -8  15-24.6638 101.867   6
  -1   4 -19 753.090 341.456   5
  -1   5 -18 97.3407 87.1178   5
   1  -5  18 247.664 204.199   4
  -1   6 -17 265.481 190.850   5
   1  -6  17 284.672 200.463   4
  -1   7 -16 27.6976 81.1228   5
   1  -7  16 413.522 242.016   4
   1  -8  15-441.265 244.640   4
   1  -9  14-212.921 194.259   6
   1  -9  14-59.7703 100.182   4
   2  -6  17 347.793 235.449   4
  -2   7 -16 142.384 147.679   5
   2  -7  16 1137.03 435.147   4
  -2   8 -15 324.192 222.443   5
   2  -8  15-13.0143 67.1003   4
   2  -9  14 47.8820 98.4176   6
   2  -9  14-368.154 237.597   4
   2 -10  13-127.938 256.056   6
   2 -10  13-412.892 256.348   4
   0  -4  20 185.630 171.305   4
  -1   5 -19-281.261 213.641   5
  -1   6 -18-129.784 147.561   5
   1  -6  18 190.610 171.896   4
  -1   7 -17 643.060 323.624   5
   1  -7  17 849.487 346.161   4
  -1   8 -16 32.8583 83.2655   5
   1  -8  16-100.322 131.240   4
  -2   8 -16 39.5041 86.4850   5
   2  -8  16-333.551 229.572   4
   2  -9  15-283.273 213.649   4
   1  -7  18-59.8535 107.294   4
   0   0   0    0.00    0.00   0
TITL 131229_s1_wj in P-1
REM P-1 (#2 in standard setting)
CELL 0.71073   7.049259   9.241742  15.151398  94.9117 103.0071 111.7719
ZERR    4.00   0.000429   0.000795   0.001122   0.0065   0.0061   0.0070
LATT  1
SFAC C H N O F
UNIT 48.00 48.00 8.00 12.00 24.00
TREF
HKLF 4
END
;
_shelx_hkl_checksum              4483
loop_
_space_group_symop_operation_xyz
'x, y, z'
'-x, -y, -z'
loop_
_atom_site_label
_atom_site_type_symbol
_atom_site_fract_x
_atom_site_fract_y
_atom_site_fract_z
_atom_site_U_iso_or_equiv
_atom_site_adp_type
_atom_site_occupancy
_atom_site_site_symmetry_order
_atom_site_calc_flag
_atom_site_refinement_flags_posn
_atom_site_refinement_flags_occupancy
_atom_site_disorder_assembly
_atom_site_disorder_group
C1 C 0.7176(4) 0.4296(3) 0.55462(18) 0.0452(6) Uani 1 1 d . . . .
C2 C 0.8614(4) 0.6439(3) 0.5104(2) 0.0492(7) Uani 1 1 d . . . .
C3 C 0.7278(4) 0.5482(3) 0.34588(18) 0.0455(6) Uani 1 1 d . . . .
C4 C 0.8393(4) 0.6999(3) 0.3382(2) 0.0537(7) Uani 1 1 d . . . .
H4 H 0.8386 0.7257 0.2801 0.064 Uiso 1 1 calc R . . .
C5 C 0.9550(5) 0.8172(4) 0.4172(2) 0.0600(8) Uani 1 1 d . . . .
H5 H 1.0274 0.9198 0.4089 0.072 Uiso 1 1 calc R . . .
C6 C 0.6565(4) 0.3195(3) 0.61702(18) 0.0461(7) Uani 1 1 d . . . .
C7 C 0.7366(4) 0.3727(4) 0.7115(2) 0.0562(8) Uani 1 1 d . . . .
H7 H 0.8299 0.4779 0.7348 0.067 Uiso 1 1 calc R . . .
C8 C 0.6789(5) 0.2707(5) 0.7712(2) 0.0692(9) Uani 1 1 d . . . .
H8 H 0.7341 0.3074 0.8345 0.083 Uiso 1 1 calc R . . .
C9 C 0.5404(6) 0.1149(5) 0.7379(3) 0.0747(10) Uani 1 1 d . . . .
H9 H 0.5011 0.0466 0.7784 0.090 Uiso 1 1 calc R . . .
C10 C 0.4602(5) 0.0611(4) 0.6439(2) 0.0697(9) Uani 1 1 d . . . .
H10 H 0.3666 -0.0441 0.6210 0.084 Uiso 1 1 calc R . . .
C11 C 0.5178(5) 0.1617(4) 0.5839(2) 0.0577(8) Uani 1 1 d . . . .
H11 H 0.4634 0.1239 0.5207 0.069 Uiso 1 1 calc R . . .
C12 C 0.5958(4) 0.4186(3) 0.26606(18) 0.0469(7) Uani 1 1 d . . . .
C13 C 0.6643(5) 0.4180(4) 0.1870(2) 0.0558(7) Uani 1 1 d . . . .
H13 H 0.7953 0.4938 0.1869 0.067 Uiso 1 1 calc R . . .
C14 C 0.5391(5) 0.3054(4) 0.1083(2) 0.0636(8) Uani 1 1 d . . . .
C15 C 0.3437(5) 0.1931(4) 0.1070(2) 0.0661(9) Uani 1 1 d . . . .
H15 H 0.2589 0.1180 0.0539 0.079 Uiso 1 1 calc R . . .
C16 C 0.2757(5) 0.1936(4) 0.1855(2) 0.0568(8) Uani 1 1 d . . . .
C17 C 0.3994(4) 0.3035(3) 0.26462(18) 0.0493(7) Uani 1 1 d . . . .
H17 H 0.3517 0.3009 0.3172 0.059 Uiso 1 1 calc R . . .
C18 C 0.6115(8) 0.3070(6) 0.0234(3) 0.0923(13) Uani 1 1 d . . . .
C19 C 0.0613(6) 0.0766(5) 0.1838(3) 0.0772(10) Uani 1 1 d . . . .
F1A F 0.6069(8) 0.1688(5) -0.0103(3) 0.1295(15) Uani 0.834(4) 1 d . P A 1
F1B F 0.794(6) 0.301(3) 0.0387(16) 0.1295(15) Uani 0.166(4) 1 d . P A 2
F2A F 0.7959(10) 0.4159(10) 0.0307(4) 0.212(5) Uani 0.834(4) 1 d . P A 1
F2B F 0.682(6) 0.433(6) 0.009(3) 0.212(5) Uani 0.166(4) 1 d . P A 2
F3A F 0.4811(7) 0.3317(7) -0.0468(2) 0.1363(16) Uani 0.834(4) 1 d . P A 1
F3B F 0.488(4) 0.213(4) -0.0466(12) 0.1363(16) Uani 0.166(4) 1 d . P A 2
F4A F -0.0865(7) 0.1321(7) 0.1626(6) 0.178(3) Uani 0.834(4) 1 d . P A 1
F4B F -0.066(4) 0.070(5) 0.112(3) 0.178(3) Uani 0.166(4) 1 d . P A 2
F5A F -0.0013(7) -0.0572(5) 0.1231(3) 0.1475(18) Uani 0.834(4) 1 d . P A 1
F5B F 0.034(4) -0.063(3) 0.1751(16) 0.1475(18) Uani 0.166(4) 1 d . P A 2
F6A F 0.0526(5) 0.0293(5) 0.2625(2) 0.1135(13) Uani 0.834(4) 1 d . P A 1
F6B F -0.014(3) 0.100(3) 0.2409(14) 0.1135(13) Uani 0.166(4) 1 d . P A 2
N1 N 0.7392(3) 0.5224(3) 0.43430(15) 0.0439(5) Uani 1 1 d . . . .
N2 N 0.6467(3) 0.3842(3) 0.46296(15) 0.0453(6) Uani 1 1 d . . . .
N3 N 0.8489(3) 0.5850(3) 0.58664(16) 0.0515(6) Uani 1 1 d . . . .
N4 N 0.9690(4) 0.7932(3) 0.50198(19) 0.0603(7) Uani 1 1 d . . . .
loop_
_atom_site_aniso_label
_atom_site_aniso_U_11
_atom_site_aniso_U_22
_atom_site_aniso_U_33
_atom_site_aniso_U_23
_atom_site_aniso_U_13
_atom_site_aniso_U_12
C1 0.0382(13) 0.0529(16) 0.0455(16) 0.0014(12) 0.0116(11) 0.0212(11)
C2 0.0415(14) 0.0491(17) 0.0520(17) -0.0032(13) 0.0110(12) 0.0165(12)
C3 0.0432(13) 0.0517(16) 0.0452(16) 0.0075(12) 0.0184(12) 0.0199(12)
C4 0.0536(15) 0.0495(17) 0.0609(19) 0.0110(14) 0.0254(14) 0.0182(13)
C5 0.0557(16) 0.0484(17) 0.073(2) 0.0102(16) 0.0248(16) 0.0142(13)
C6 0.0416(13) 0.0581(17) 0.0420(15) 0.0051(12) 0.0143(11) 0.0229(12)
C7 0.0526(16) 0.069(2) 0.0471(17) 0.0060(14) 0.0112(13) 0.0272(14)
C8 0.077(2) 0.092(3) 0.0441(18) 0.0142(17) 0.0170(16) 0.040(2)
C9 0.078(2) 0.093(3) 0.066(2) 0.031(2) 0.0281(18) 0.040(2)
C10 0.069(2) 0.069(2) 0.071(2) 0.0194(18) 0.0205(17) 0.0256(17)
C11 0.0565(16) 0.065(2) 0.0494(17) 0.0060(15) 0.0156(14) 0.0219(14)
C12 0.0502(15) 0.0493(16) 0.0420(15) 0.0055(12) 0.0143(12) 0.0207(12)
C13 0.0603(17) 0.0584(18) 0.0486(17) 0.0098(14) 0.0216(14) 0.0200(14)
C14 0.080(2) 0.069(2) 0.0435(17) 0.0096(15) 0.0217(15) 0.0300(17)
C15 0.080(2) 0.063(2) 0.0396(16) 0.0009(14) 0.0093(15) 0.0177(16)
C16 0.0615(17) 0.0569(18) 0.0415(16) 0.0075(13) 0.0075(13) 0.0167(14)
C17 0.0537(15) 0.0544(17) 0.0395(15) 0.0089(12) 0.0160(12) 0.0194(13)
C18 0.118(3) 0.102(4) 0.051(2) 0.008(2) 0.037(2) 0.031(3)
C19 0.068(2) 0.075(3) 0.059(2) 0.0072(19) 0.0073(18) 0.0035(19)
F1A 0.223(4) 0.127(3) 0.090(2) 0.023(2) 0.094(3) 0.098(3)
F1B 0.223(4) 0.127(3) 0.090(2) 0.023(2) 0.094(3) 0.098(3)
F2A 0.175(5) 0.223(5) 0.128(4) -0.052(4) 0.121(5) -0.069(6)
F2B 0.175(5) 0.223(5) 0.128(4) -0.052(4) 0.121(5) -0.069(6)
F3A 0.211(4) 0.192(5) 0.0647(19) 0.063(2) 0.067(2) 0.121(4)
F3B 0.211(4) 0.192(5) 0.0647(19) 0.063(2) 0.067(2) 0.121(4)
F4A 0.0591(18) 0.177(5) 0.312(9) 0.139(5) 0.050(3) 0.045(2)
F4B 0.0591(18) 0.177(5) 0.312(9) 0.139(5) 0.050(3) 0.045(2)
F5A 0.130(3) 0.116(2) 0.097(3) -0.042(3) 0.026(3) -0.043(2)
F5B 0.130(3) 0.116(2) 0.097(3) -0.042(3) 0.026(3) -0.043(2)
F6A 0.093(2) 0.115(3) 0.080(2) 0.0420(18) 0.0187(16) -0.0169(17)
F6B 0.093(2) 0.115(3) 0.080(2) 0.0420(18) 0.0187(16) -0.0169(17)
N1 0.0418(11) 0.0445(13) 0.0442(13) 0.0028(10) 0.0151(9) 0.0155(9)
N2 0.0465(12) 0.0459(13) 0.0432(13) 0.0047(10) 0.0149(10) 0.0175(10)
N3 0.0465(12) 0.0542(15) 0.0457(14) -0.0029(11) 0.0092(10) 0.0159(11)
N4 0.0564(14) 0.0486(15) 0.0640(17) -0.0006(13) 0.0146(12) 0.0117(11)
loop_
_atom_type_symbol
_atom_type_description
_atom_type_scat_dispersion_real
_atom_type_scat_dispersion_imag
_atom_type_scat_source
C C 0.0033 0.0016 'International Tables Vol C Tables 4.2.6.8 and 6.1.1.4'
H H 0.0000 0.0000 'International Tables Vol C Tables 4.2.6.8 and 6.1.1.4'
F F 0.0171 0.0103 'International Tables Vol C Tables 4.2.6.8 and 6.1.1.4'
N N 0.0061 0.0033 'International Tables Vol C Tables 4.2.6.8 and 6.1.1.4'
loop_
_geom_angle_atom_site_label_1
_geom_angle_atom_site_label_2
_geom_angle_atom_site_label_3
_geom_angle
N2 C1 C6 122.2(2)
N2 C1 N3 116.0(3)
N3 C1 C6 121.8(2)
N3 C2 N1 108.8(2)
N3 C2 N4 128.7(3)
N4 C2 N1 122.5(3)
C4 C3 C12 123.7(3)
C4 C3 N1 115.4(3)
N1 C3 C12 120.9(2)
C3 C4 H4 119.9
C3 C4 C5 120.2(3)
C5 C4 H4 119.9
C4 C5 H5 117.6
N4 C5 C4 124.8(3)
N4 C5 H5 117.6
C7 C6 C1 119.8(3)
C7 C6 C11 118.7(3)
C11 C6 C1 121.5(3)
C6 C7 H7 119.8
C8 C7 C6 120.4(3)
C8 C7 H7 119.8
C7 C8 H8 119.7
C9 C8 C7 120.6(3)
C9 C8 H8 119.7
C8 C9 H9 120.3
C8 C9 C10 119.3(3)
C10 C9 H9 120.3
C9 C10 H10 119.7
C11 C10 C9 120.5(3)
C11 C10 H10 119.7
C6 C11 H11 119.8
C10 C11 C6 120.5(3)
C10 C11 H11 119.8
C13 C12 C3 118.4(2)
C13 C12 C17 118.7(3)
C17 C12 C3 122.7(2)
C12 C13 H13 119.7
C14 C13 C12 120.6(3)
C14 C13 H13 119.7
C13 C14 C18 120.3(3)
C15 C14 C13 120.5(3)
C15 C14 C18 119.2(3)
C14 C15 H15 120.5
C14 C15 C16 119.0(3)
C16 C15 H15 120.5
C15 C16 C19 119.5(3)
C17 C16 C15 121.3(3)
C17 C16 C19 119.2(3)
C12 C17 H17 120.0
C16 C17 C12 120.0(3)
C16 C17 H17 120.0
F1A C18 C14 113.2(4)
F1A C18 F3A 102.1(4)
F1B C18 C14 111.7(10)
F2A C18 C14 115.1(4)
F2A C18 F1A 108.8(5)
F2A C18 F3A 104.3(7)
F2B C18 C14 111.7(17)
F2B C18 F1B 90(3)
F2B C18 F3B 111(2)
F3A C18 C14 112.1(4)
F3B C18 C14 117.8(11)
F3B C18 F1B 111.0(16)
F4A C19 C16 112.7(4)
F4A C19 F5A 107.0(5)
F4B C19 C16 108.6(14)
F5A C19 C16 112.3(4)
F5B C19 C16 117.0(13)
F5B C19 F4B 99(2)
F6A C19 C16 113.5(3)
F6A C19 F4A 106.5(5)
F6A C19 F5A 104.2(4)
F6B C19 C16 118.8(9)
F6B C19 F4B 104.0(18)
F6B C19 F5B 106.7(16)
C18 F1B F2B 41.9(11)
C18 F2B F1B 48(3)
C3 N1 C2 121.6(2)
N2 N1 C2 109.9(2)
N2 N1 C3 128.4(2)
C1 N2 N1 101.8(2)
C2 N3 C1 103.5(2)
C5 N4 C2 115.4(3)
loop_
_geom_bond_atom_site_label_1
_geom_bond_atom_site_label_2
_geom_bond_distance
C1 C6 1.462(4)
C1 N2 1.337(3)
C1 N3 1.359(3)
C2 N1 1.395(3)
C2 N3 1.325(4)
C2 N4 1.339(4)
C3 C4 1.359(4)
C3 C12 1.477(4)
C3 N1 1.371(3)
C4 H4 0.9300
C4 C5 1.398(4)
C5 H5 0.9300
C5 N4 1.311(4)
C6 C7 1.386(4)
C6 C11 1.390(4)
C7 H7 0.9300
C7 C8 1.378(5)
C8 H8 0.9300
C8 C9 1.375(5)
C9 H9 0.9300
C9 C10 1.379(5)
C10 H10 0.9300
C10 C11 1.373(5)
C11 H11 0.9300
C12 C13 1.389(4)
C12 C17 1.393(4)
C13 H13 0.9300
C13 C14 1.384(4)
C14 C15 1.378(5)
C14 C18 1.485(5)
C15 H15 0.9300
C15 C16 1.379(4)
C16 C17 1.376(4)
C16 C19 1.490(5)
C17 H17 0.9300
C18 F1A 1.321(6)
C18 F1B 1.28(3)
C18 F2A 1.289(7)
C18 F2B 1.15(5)
C18 F3A 1.336(6)
C18 F3B 1.23(2)
C19 F4A 1.314(6)
C19 F4B 1.22(4)
C19 F5A 1.337(6)
C19 F5B 1.22(3)
C19 F6A 1.311(5)
C19 F6B 1.16(2)
F1B F2B 1.73(7)
N1 N2 1.360(3)
loop_
_geom_torsion_atom_site_label_1
_geom_torsion_atom_site_label_2
_geom_torsion_atom_site_label_3
_geom_torsion_atom_site_label_4
_geom_torsion
C1 C6 C7 C8 179.4(3)
C1 C6 C11 C10 -179.0(3)
C2 N1 N2 C1 0.1(2)
C3 C4 C5 N4 0.9(4)
C3 C12 C13 C14 -175.5(3)
C3 C12 C17 C16 174.6(3)
C3 N1 N2 C1 178.3(2)
C4 C3 C12 C13 35.3(4)
C4 C3 C12 C17 -140.3(3)
C4 C3 N1 C2 -1.4(3)
C4 C3 N1 N2 -179.4(2)
C4 C5 N4 C2 -0.3(4)
C6 C1 N2 N1 179.0(2)
C6 C1 N3 C2 -178.8(2)
C6 C7 C8 C9 -0.3(5)
C7 C6 C11 C10 0.5(4)
C7 C8 C9 C10 0.4(5)
C8 C9 C10 C11 0.0(5)
C9 C10 C11 C6 -0.4(5)
C11 C6 C7 C8 -0.1(4)
C12 C3 C4 C5 177.8(2)
C12 C3 N1 C2 -179.3(2)
C12 C3 N1 N2 2.6(4)
C12 C13 C14 C15 0.5(5)
C12 C13 C14 C18 179.0(3)
C13 C12 C17 C16 -1.0(4)
C13 C14 C15 C16 -0.6(5)
C13 C14 C18 F1A 127.6(5)
C13 C14 C18 F1B 55.6(16)
C13 C14 C18 F2A 1.6(9)
C13 C14 C18 F2B -44(3)
C13 C14 C18 F3A -117.5(5)
C13 C14 C18 F3B -174.1(16)
C14 C15 C16 C17 -0.2(5)
C14 C15 C16 C19 177.7(3)
C14 C18 F1B F2B -113.6(19)
C14 C18 F2B F1B 113.6(13)
C15 C14 C18 F1A -53.9(6)
C15 C14 C18 F1B -125.9(15)
C15 C14 C18 F2A -180.0(7)
C15 C14 C18 F2B 135(3)
C15 C14 C18 F3A 61.0(6)
C15 C14 C18 F3B 4.3(17)
C15 C16 C17 C12 1.0(5)
C15 C16 C19 F4A -92.5(6)
C15 C16 C19 F4B -44(2)
C15 C16 C19 F5A 28.5(6)
C15 C16 C19 F5B 67.2(14)
C15 C16 C19 F6A 146.4(4)
C15 C16 C19 F6B -162.5(16)
C17 C12 C13 C14 0.3(4)
C17 C16 C19 F4A 85.4(5)
C17 C16 C19 F4B 134(2)
C17 C16 C19 F5A -153.6(4)
C17 C16 C19 F5B -114.9(13)
C17 C16 C19 F6A -35.7(6)
C17 C16 C19 F6B 15.5(16)
C18 C14 C15 C16 -179.0(3)
C19 C16 C17 C12 -176.9(3)
F1A C18 F1B F2B 139.8(19)
F1A C18 F2B F1B -55(3)
F2A C18 F1B F2B -8(2)
F2A C18 F2B F1B 10(2)
F3A C18 F1B F2B 57(2)
F3A C18 F2B F1B -140.5(12)
F3B C18 F1B F2B 113(2)
F3B C18 F2B F1B -112.7(19)
N1 C2 N3 C1 -0.6(3)
N1 C2 N4 C5 -1.2(4)
N1 C3 C4 C5 -0.1(4)
N1 C3 C12 C13 -146.9(3)
N1 C3 C12 C17 37.5(4)
N2 C1 C6 C7 179.3(2)
N2 C1 C6 C11 -1.2(4)
N2 C1 N3 C2 0.7(3)
N3 C1 C6 C7 -1.2(4)
N3 C1 C6 C11 178.3(2)
N3 C1 N2 N1 -0.5(3)
N3 C2 N1 C3 -178.1(2)
N3 C2 N1 N2 0.3(3)
N3 C2 N4 C5 179.0(3)
N4 C2 N1 C3 2.1(4)
N4 C2 N1 N2 -179.5(2)
N4 C2 N3 C1 179.2(3)
