#------------------------------------------------------------------------------
#$Date: 2017-03-04 15:43:23 +0200 (Sat, 04 Mar 2017) $
#$Revision: 193491 $
#$URL: file:///home/coder/svn-repositories/cod/cif/4/12/54/4125439.cif $
#------------------------------------------------------------------------------
#
# This file is available in the Crystallography Open Database (COD),
# http://www.crystallography.net/
#
# All data on this site have been placed in the public domain by the
# contributors.
#
data_4125439
loop_
_publ_author_name
'Lopchuk, Justin M.'
'Fjelbye, Kasper'
'Kawamata, Yu'
'Malins, Lara R.'
'Pan, Chung-Mao'
'Gianatassio, Ryan'
'Wang, Jie'
'Prieto, Liher'
'Bradow, James'
'Brandt, Thomas A.'
'Collins, Michael R.'
'Elleraas, Jeff'
'Ewanicki, Jason'
'Farrell, William'
'Fadeyi, Olugbeminiyi O.'
'Gallego, Gary M.'
'Mousseau, James J.'
'Oliver, Robert'
'Sach, Neal W.'
'Smith, Jason K.'
'Spangler, Jillian E.'
'Zhu, Huichin'
'Zhu, Jinjiang'
'Baran, Phil S.'
_publ_section_title
;
 Strain-Release Heteroatom Functionalization: Development, Scope, and
 Stereospecificity.
;
_journal_issue                   8
_journal_name_full               'Journal of the American Chemical Society'
_journal_page_first              3209
_journal_page_last               3226
_journal_paper_doi               10.1021/jacs.6b13229
_journal_volume                  139
_journal_year                    2017
_chemical_absolute_configuration ad
_chemical_formula_moiety         'C15 H15 F3 N2 O2 S'
_chemical_formula_sum            'C15 H15 F3 N2 O2 S'
_chemical_formula_weight         344.35
_chemical_name_systematic
;
 ?
;
_space_group_crystal_system      monoclinic
_space_group_IT_number           4
_space_group_name_Hall           'P 2yb'
_space_group_name_H-M_alt        'P 1 21 1'
_symmetry_space_group_name_Hall  'P 2yb'
_symmetry_space_group_name_H-M   'P 1 21 1'
_atom_sites_solution_hydrogens   geom
_audit_creation_date             2016-07-01
_audit_creation_method
;
Olex2 1.2-beta
(compiled 2016.02.19 svn.r3266 for OlexSys, GUI svn.r5155)
;
_cell_angle_alpha                90
_cell_angle_beta                 107.161(2)
_cell_angle_gamma                90
_cell_formula_units_Z            2
_cell_length_a                   10.9261(7)
_cell_length_b                   5.0669(3)
_cell_length_c                   14.3346(9)
_cell_measurement_reflns_used    9515
_cell_measurement_temperature    296(2)
_cell_measurement_theta_max      26.36
_cell_measurement_theta_min      2.78
_cell_volume                     758.25(8)
_computing_cell_refinement       'SAINT v8.34A (Bruker, 2013)'
_computing_data_collection       'APEX2 v2013.6-2 (Bruker, 2013)'
_computing_data_reduction        'SAINT v8.34A (Bruker, 2013)'
_computing_molecular_graphics    'Olex2 (Dolomanov et al., 2009)'
_computing_publication_material  'Olex2 (Dolomanov et al., 2009)'
_computing_structure_refinement  'ShelXL (Sheldrick, 2015)'
_computing_structure_solution    'XT (Sheldrick, 2008)'
_diffrn_ambient_temperature      296.15
_diffrn_detector                 'Bruker APEX CCD'
_diffrn_detector_area_resol_mean 8.0
_diffrn_detector_type            'CCD Area Detector'
_diffrn_measured_fraction_theta_full 0.998
_diffrn_measured_fraction_theta_max 0.998
_diffrn_measurement_device       'Kappa Four-Circle Diffractometer'
_diffrn_measurement_device_type  'Bruker X8 APEX'
_diffrn_measurement_method       '\w and \f scans'
_diffrn_radiation_monochromator  graphite
_diffrn_radiation_probe          x-ray
_diffrn_radiation_type           MoK\a
_diffrn_radiation_wavelength     0.71073
_diffrn_reflns_av_R_equivalents  0.0337
_diffrn_reflns_av_unetI/netI     0.0266
_diffrn_reflns_Laue_measured_fraction_full 0.998
_diffrn_reflns_Laue_measured_fraction_max 0.998
_diffrn_reflns_limit_h_max       13
_diffrn_reflns_limit_h_min       -11
_diffrn_reflns_limit_k_max       6
_diffrn_reflns_limit_k_min       -6
_diffrn_reflns_limit_l_max       17
_diffrn_reflns_limit_l_min       -17
_diffrn_reflns_number            15847
_diffrn_reflns_point_group_measured_fraction_full 0.998
_diffrn_reflns_point_group_measured_fraction_max 0.998
_diffrn_reflns_theta_full        26.000
_diffrn_reflns_theta_max         26.022
_diffrn_reflns_theta_min         2.780
_diffrn_source                   'sealed tube'
_diffrn_source_type              fine-focus
_diffrn_standards_number         0
_exptl_absorpt_coefficient_mu    0.257
_exptl_absorpt_correction_T_max  0.6465
_exptl_absorpt_correction_T_min  0.5916
_exptl_absorpt_correction_type   multi-scan
_exptl_absorpt_process_details
;
SADABS-2014/5 (Bruker,2014/5) was used for absorption correction.
wR2(int) was 0.0851 before and 0.0475 after correction.
The Ratio of minimum to maximum transmission is 0.9151.
The \l/2 correction factor is 0.00150.
;
_exptl_crystal_colour            colourless
_exptl_crystal_colour_primary    colourless
_exptl_crystal_density_diffrn    1.508
_exptl_crystal_description       plank
_exptl_crystal_F_000             356
_exptl_crystal_size_max          0.32
_exptl_crystal_size_mid          0.2
_exptl_crystal_size_min          0.08
_refine_diff_density_max         0.316
_refine_diff_density_min         -0.237
_refine_diff_density_rms         0.041
_refine_ls_abs_structure_details
;
 Flack x determined using 1207 quotients [(I+)-(I-)]/[(I+)+(I-)]
 (Parsons, Flack and Wagner, Acta Cryst. B69 (2013) 249-259).
;
_refine_ls_abs_structure_Flack   -0.02(2)
_refine_ls_extinction_method     none
_refine_ls_goodness_of_fit_ref   1.049
_refine_ls_hydrogen_treatment    constr
_refine_ls_matrix_type           full
_refine_ls_number_parameters     208
_refine_ls_number_reflns         2988
_refine_ls_number_restraints     1
_refine_ls_restrained_S_all      1.048
_refine_ls_R_factor_all          0.0302
_refine_ls_R_factor_gt           0.0278
_refine_ls_shift/su_max          0.000
_refine_ls_shift/su_mean         0.000
_refine_ls_structure_factor_coef Fsqd
_refine_ls_weighting_details
'w=1/[\s^2^(Fo^2^)+(0.0317P)^2^+0.2328P] where P=(Fo^2^+2Fc^2^)/3'
_refine_ls_weighting_scheme      calc
_refine_ls_wR_factor_gt          0.0649
_refine_ls_wR_factor_ref         0.0664
_reflns_Friedel_coverage         0.785
_reflns_Friedel_fraction_full    0.997
_reflns_Friedel_fraction_max     0.997
_reflns_number_gt                2837
_reflns_number_total             2988
_reflns_threshold_expression     'I > 2\s(I)'
_cod_data_source_file            ja6b13229_si_013.cif
_cod_data_source_block           baran591
_cod_depositor_comments
;
The following automatic conversions were performed:

'_diffrn_radiation_probe' value 'X-ray' changed to 'x-ray' according
to
/usr/data/users/saulius/crontab/automatic-downloads/rss-feeds/ACS/lib/dictionaries/cif_core.dic
dictionary named 'cif_core.dic' version 2.4.2 from 2011-04-26.

Automatic conversion script
Id: cif_fix_values 4268 2015-11-12 08:31:59Z antanas 

 Adding full bibliography for 4125430--4125440.cif.
;
_cod_database_code               4125439
_shelxl_version_number           2014-3
_shelx_space_group_comment
;
The symmetry employed for this shelxl refinement is uniquely defined
by the following loop, which should always be used as a source of
symmetry information in preference to the above space-group names.
They are only intended as comments.
;
_shelx_estimated_absorpt_t_max   0.980
_shelx_estimated_absorpt_t_min   0.922
_olex2_refinement_description
;
1. Fixed Uiso
 At 1.2 times of:
  All C(H) groups, All C(H,H) groups
2.a Ternary CH refined with riding coordinates:
 C4(H4), C6(H6)
2.b Secondary CH2 refined with riding coordinates:
 C5(H5A,H5B), C7(H7A,H7B), C8(H8A,H8B)
2.c Aromatic/amide H refined with riding coordinates:
 C1(H1), C2(H2), C3(H3), C10(H10), C11(H11), C13(H13), C14(H14)
;
_shelx_res_file
;
TITL Barab591_a.res in P2(1)
REM Old TITL Barab591 in P2(1)
REM SHELXT solution in P2(1)
REM R1 0.087, Rweak 0.030, Alpha 0.005, Orientation as input
REM Flack x = 0.020 ( 0.023 ) from Parsons' quotients
REM Formula found by SHELXT: C15 N2 O2 F3 S
CELL 0.71073 10.9261 5.0669 14.3346 90 107.161 90
ZERR 2 0.0007 0.0003 0.0009 0 0.002 0
LATT -1
SYMM -X,0.5+Y,-Z
SFAC C H F N O S
UNIT 30 30 6 4 4 2

L.S. 10
PLAN  5
SIZE 0.32 0.2 0.08
TEMP 23
BOND $H
ACTA 52
fmap 2
OMIT 0 0 1
OMIT -1 0 1
REM <olex2.extras>
REM <HklSrc "%.\\Baran591.hkl">
REM </olex2.extras>

WGHT    0.031700    0.232800
FVAR       0.93636
S1    6    0.268495    0.175571    0.605570    11.00000    0.01484    0.01575 =
         0.01593    0.00043    0.00294   -0.00480
F1    3    0.567072    1.039448    0.947956    11.00000    0.03953    0.04064 =
         0.03538   -0.02274    0.00689   -0.00432
F2    3    0.679388    0.692131    0.996269    11.00000    0.04536    0.04463 =
         0.02193    0.00571   -0.01288   -0.01170
F3    3    0.719587    0.944409    0.888756    11.00000    0.03473    0.05054 =
         0.02904   -0.01638    0.01288   -0.02484
O1    5    0.342501   -0.038301    0.583028    11.00000    0.02985    0.01326 =
         0.02408   -0.00346    0.00110    0.00075
O2    5    0.157947    0.112403    0.636835    11.00000    0.01893    0.04141 =
         0.02101    0.00362    0.00443   -0.01449
N1    4    0.090090    0.089066    0.214674    11.00000    0.02962    0.02300 =
         0.02281   -0.00523    0.00937    0.00183
N2    4    0.040200    0.311450    0.241368    11.00000    0.01657    0.01752 =
         0.01597   -0.00097    0.00480   -0.00074
C1    1    0.011096    0.034718    0.126420    11.00000    0.04169    0.02649 =
         0.02314   -0.00891    0.01642   -0.00991
AFIX  43
H1    2    0.020943   -0.108808    0.088836    11.00000   -1.20000
AFIX   0
C2    1   -0.087786    0.217660    0.097073    11.00000    0.02353    0.03514 =
         0.01814   -0.00159    0.00372   -0.01211
AFIX  43
H2    2   -0.154058    0.220102    0.038822    11.00000   -1.20000
AFIX   0
C3    1   -0.066195    0.392622    0.172483    11.00000    0.01182    0.02659 =
         0.01972    0.00291    0.00106   -0.00347
AFIX  43
H3    2   -0.115499    0.539977    0.175776    11.00000   -1.20000
AFIX   0
C4    1    0.102803    0.437239    0.334431    11.00000    0.01177    0.01770 =
         0.01586   -0.00152    0.00318   -0.00069
AFIX  13
H4    2    0.053984    0.596107    0.339465    11.00000   -1.20000
AFIX   0
C5    1    0.107959    0.260603    0.422163    11.00000    0.01009    0.01930 =
         0.01886   -0.00019    0.00476   -0.00286
AFIX  23
H5A   2    0.127053    0.079062    0.410090    11.00000   -1.20000
H5B   2    0.028153    0.266688    0.438802    11.00000   -1.20000
AFIX   0
C6    1    0.217822    0.386379    0.502106    11.00000    0.01229    0.01215 =
         0.01417   -0.00168    0.00297   -0.00003
AFIX  13
H6    2    0.188941    0.554805    0.521825    11.00000   -1.20000
AFIX   0
C7    1    0.320434    0.438863    0.450991    11.00000    0.01290    0.02024 =
         0.01934    0.00008    0.00607   -0.00409
AFIX  23
H7A   2    0.370317    0.281135    0.449925    11.00000   -1.20000
H7B   2    0.377694    0.579205    0.483341    11.00000   -1.20000
AFIX   0
C8    1    0.243142    0.520626    0.347245    11.00000    0.01328    0.02463 =
         0.01881    0.00264    0.00644   -0.00217
AFIX  23
H8A   2    0.275822    0.432695    0.299399    11.00000   -1.20000
H8B   2    0.248547    0.709855    0.338996    11.00000   -1.20000
AFIX   0
C9    1    0.372037    0.372867    0.697142    11.00000    0.01308    0.01511 =
         0.01368    0.00324    0.00192   -0.00126
C10   1    0.321558    0.528179    0.756614    11.00000    0.01408    0.02265 =
         0.01659    0.00292    0.00590    0.00162
AFIX  43
H10   2    0.233995    0.528055    0.748856    11.00000   -1.20000
AFIX   0
C11   1    0.403501    0.683325    0.827671    11.00000    0.02080    0.02254 =
         0.01396    0.00098    0.00726    0.00358
AFIX  43
H11   2    0.371413    0.788951    0.868090    11.00000   -1.20000
AFIX   0
C12   1    0.534216    0.679868    0.838092    11.00000    0.01958    0.01737 =
         0.01316    0.00152    0.00296   -0.00245
C13   1    0.583944    0.523640    0.778406    11.00000    0.01350    0.02255 =
         0.01981   -0.00025    0.00459   -0.00210
AFIX  43
H13   2    0.671515    0.522853    0.786197    11.00000   -1.20000
AFIX   0
C14   1    0.502330    0.369549    0.707430    11.00000    0.01614    0.01886 =
         0.01990   -0.00400    0.00832    0.00101
AFIX  43
H14   2    0.534387    0.264418    0.666857    11.00000   -1.20000
AFIX   0
C15   1    0.624648    0.838222    0.917434    11.00000    0.02505    0.02859 =
         0.01592   -0.00338    0.00453   -0.00503
HKLF 4

REM  Barab591_a.res in P2(1)
REM R1 =  0.0278 for    2837 Fo > 4sig(Fo)  and  0.0302 for all    2988 data
REM    208 parameters refined using      1 restraints

END

WGHT      0.0317      0.2328

REM Highest difference peak  0.316,  deepest hole -0.237,  1-sigma level  0.041
Q1    1   0.2535  0.2995  0.5549  11.00000  0.05    0.32
Q2    1   0.2778 -0.0351  0.6009  11.00000  0.05    0.22
Q3    1   0.5510  0.6642  0.7975  11.00000  0.05    0.21
Q4    1   0.3020  0.3377  0.6418  11.00000  0.05    0.19
Q5    1   0.5651  0.7681  0.8652  11.00000  0.05    0.19
;
_shelx_res_checksum              30782
_shelx_hkl_file
;
   2   0   0  301.87   10.70
  -2   0   0  280.07   10.60
   2   0   0  300.97    9.70
   2   0   0  293.17    9.70
   2   0   0  280.87    9.60
   2   0   0  276.87    9.60
  -2   0   0  278.27    9.70
   3   0   0 2111.29   68.09
   3   0   0 2067.49   67.99
   3   0   0 2030.00   67.89
  -3   0   0 2064.29   69.49
   3   0   0 2128.19   68.09
   3   0   0 2135.39   69.49
  -3   0   0 2121.89   67.99
   4   0   0   25.00    2.20
   4   0   0   24.30    1.80
   4   0   0   27.60    1.90
  -4   0   0   25.90    1.70
   4   0   0   28.50    3.40
   4   0   0   24.70    2.10
  -4   0   0   28.60    1.80
   5   0   0  982.30   33.60
   5   0   0 1043.00   35.80
  -5   0   0  998.50   33.00
  -5   0   0  936.31   32.90
   5   0   0 1010.60   33.20
   5   0   0  977.20   33.10
   5   0   0 1035.20   33.40
   5   0   0 1024.00   33.40
   6   0   0  313.17   11.30
   6   0   0  301.57   11.10
   6   0   0  312.37   13.90
  -6   0   0  305.27   10.70
  -6   0   0  291.97   10.70
   6   0   0  309.17   11.60
   6   0   0  321.27   11.50
   6   0   0  313.57   11.30
   7   0   0   29.80    2.90
   7   0   0   26.30    2.30
   7   0   0   32.00    4.90
   7   0   0   24.50    2.70
   7   0   0   27.10    3.00
   7   0   0   27.70    2.40
   8   0   0   15.10    2.40
   8   0   0   15.30    2.10
   8   0   0   14.50    2.30
   8   0   0   14.40    2.00
   8   0   0   13.70    2.30
   8   0   0    9.90    3.70
   9   0   0   15.20    2.60
   9   0   0   15.30    2.60
   9   0   0   14.70    2.20
   9   0   0   13.10    2.50
   9   0   0   18.20    2.30
   9   0   0   14.70    4.70
  10   0   0   -0.30    1.40
  10   0   0   -0.10    4.00
  10   0   0    2.10    1.90
  10   0   0    1.50    1.90
  10   0   0   -0.50    1.80
  11   0   0   25.50    6.30
  11   0   0   28.40    3.40
  11   0   0   28.80    3.60
  11   0   0   29.30    3.70
  12   0   0   58.89    5.50
  12   0   0   56.19    9.70
   0  -1   0   -2.50    1.00
   0  -1   0   -0.80    1.00
   0  -1   0    0.30    1.30
   0  -1   0   -0.80    0.90
   0  -1   0    2.10    1.80
   0  -1   0   -1.20    1.60
   0   1   0    0.00    1.60
   0   1   0   -1.20    0.90
   0   1   0   -3.20    1.20
   0   1   0   -1.00    1.20
   0   1   0   -5.40    1.60
   0   1   0   -1.70    1.00
   0   1   0   -1.70    1.50
   0   1   0   -3.40    1.50
   0   1   0   -5.50    1.50
  -1  -1   0 4152.28  133.09
   1  -1   0 4125.49  134.19
   1  -1   0 4136.19  133.89
   1  -1   0 4037.30  133.69
   1  -1   0 4075.59  133.09
   1  -1   0 3892.71  133.49
   1  -1   0 4108.49  133.29
  -1  -1   0 4199.58  133.39
   1  -1   0 3976.80  133.99
   1  -1   0 4184.08  133.49
  -1  -1   0 3771.32  133.19
  -1  -1   0 3975.70  133.49
  -1   1   0 4077.09  133.39
   1   1   0 4227.18  133.79
  -1   1   0 4036.50  133.09
  -1   1   0 4347.67  133.59
   1   1   0 4075.49  133.39
  -1   1   0 4198.28  134.09
   1   1   0 4153.98  133.29
  -1   1   0 4506.55  133.89
   1   1   0 3911.21  133.09
   1   1   0 4077.89  133.29
   1   1   0 4231.38  133.69
  -2  -1   0  532.65   17.90
   2  -1   0  521.65   18.00
   2  -1   0  542.35   19.00
   2  -1   0  501.55   18.20
   2  -1   0  545.05   19.50
   2  -1   0  527.85   18.50
   2  -1   0  536.65   18.70
  -2  -1   0  531.15   18.10
  -2  -1   0  514.25   18.30
   2  -1   0  520.35   19.50
  -2  -1   0  537.25   18.50
  -2  -1   0  519.35   18.00
  -2   1   0  541.55   18.60
   2   1   0  525.75   18.50
  -2   1   0  545.35   18.50
  -2   1   0  536.25   18.90
  -2   1   0  523.65   19.40
   2   1   0  495.65   18.40
   2   1   0  515.75   17.90
   2   1   0  537.65   18.20
  -2   1   0  528.75   17.90
   2   1   0  538.75   18.10
  -2   1   0  544.05   19.30
   3  -1   0  363.76   13.30
  -3  -1   0  374.26   13.50
   3  -1   0  377.66   13.80
   3  -1   0  386.56   14.50
   3  -1   0  377.16   14.00
   3  -1   0  397.46   15.30
  -3  -1   0  403.96   14.10
  -3  -1   0  377.66   13.20
  -3  -1   0  376.16   13.20
   3  -1   0  367.86   15.40
  -3  -1   0  384.36   13.40
   3  -1   0  361.76   14.10
   3   1   0  385.56   13.50
  -3   1   0  380.96   13.60
   3   1   0  396.06   13.50
  -3   1   0  396.06   15.10
  -3   1   0  397.86   15.40
  -3   1   0  419.16   14.00
   3   1   0  393.06   14.10
   3   1   0  399.26   13.90
  -3   1   0  370.96   13.90
   3   1   0  375.56   13.40
  -3   1   0  408.86   14.40
   4  -1   0  402.76   16.70
   4  -1   0  386.56   14.80
   4  -1   0  414.96   16.40
  -4  -1   0  417.36   14.80
   4  -1   0  376.46   14.30
   4  -1   0  378.16   15.10
   4  -1   0  387.56   13.90
   4  -1   0  409.36   14.70
  -4  -1   0  397.46   13.80
  -4   1   0  425.86   14.90
   4   1   0  375.66   13.80
   4   1   0  386.56   14.70
  -4   1   0  375.76   14.40
  -4   1   0  394.26   15.90
  -4   1   0  423.56   14.40
   4   1   0  407.56   14.30
   4   1   0  399.16   14.00
  -4   1   0  393.96   14.10
   4   1   0  423.96   14.00
   5  -1   0  122.29    5.90
   5  -1   0  104.19    7.30
  -5  -1   0  117.99    4.90
   5  -1   0  117.59    5.60
   5  -1   0  112.29    7.90
   5  -1   0  113.19    5.10
   5  -1   0  116.49    6.10
   5  -1   0  113.09    6.50
  -5  -1   0  121.99    4.90
   5   1   0  126.29    5.50
   5   1   0  134.49    5.40
  -5   1   0  134.39    6.10
  -5   1   0  132.49    7.40
  -5   1   0  125.39    5.30
  -5   1   0  119.69    5.70
   5   1   0  126.49    5.30
  -5   1   0  135.19    5.60
   5   1   0  118.69    5.10
   5   1   0  119.99    5.90
   6  -1   0  178.78    9.90
   6  -1   0  166.48    7.50
   6  -1   0  162.68    7.30
   6  -1   0  169.58    7.90
   6  -1   0  174.08   10.40
   6  -1   0  180.78    8.40
  -6  -1   0  167.48    6.20
  -6   1   0  159.58    7.20
   6   1   0  167.08    7.70
  -6   1   0  168.28    6.80
  -6   1   0  167.58    9.30
   6   1   0  172.08    6.90
   6   1   0  171.58    9.50
   6   1   0  169.38    6.80
   6   1   0  169.58    6.90
   6   1   0  165.98    7.00
  -6   1   0  178.28    7.50
   7  -1   0   41.20    4.30
   7  -1   0   46.90    6.70
   7  -1   0   50.09    4.80
   7  -1   0   54.69    4.00
   7  -1   0   46.80    3.70
   7  -1   0   44.10    5.90
   7   1   0   52.29    5.60
  -7   1   0   53.89    3.80
  -7   1   0   52.49    3.50
   7   1   0   49.80    3.90
  -7   1   0   54.59    3.00
  -7   1   0   50.19    5.60
   7   1   0   53.09    3.40
   7   1   0   55.39    3.40
   7   1   0   53.59    3.30
   7   1   0   49.70    3.30
   8  -1   0   66.09    4.60
   8  -1   0   68.09    5.60
   8  -1   0   62.19    4.30
   8  -1   0   67.89    7.40
   8  -1   0   80.99    8.40
   8  -1   0   66.59    5.20
   8   1   0   61.99    3.90
   8   1   0   63.29    6.70
  -8   1   0   53.89    6.50
   8   1   0   63.49    4.70
   8   1   0   68.49    3.90
   8   1   0   72.79    4.00
   8   1   0   59.89    3.90
   9  -1   0  195.18    8.10
   9  -1   0  178.08   12.90
   9  -1   0  183.98   12.20
   9  -1   0  175.48    8.40
   9  -1   0  194.48    9.40
   9  -1   0  185.38    9.60
   9   1   0  174.68   11.50
   9   1   0  180.88    7.90
   9   1   0  176.58    7.70
   9   1   0  176.68    7.80
   9   1   0  173.98    7.70
  -9   1   0  187.18   11.90
   9   1   0  185.18    9.00
  10  -1   0  113.39    6.60
  10  -1   0  127.39   11.70
  10  -1   0  131.79    8.10
  10  -1   0  128.39    8.10
  10  -1   0  132.69    7.80
  10   1   0  115.89    6.20
  10   1   0  115.79    5.90
  10   1   0  121.09    5.90
  10   1   0  119.09    7.20
  11  -1   0   71.89    6.50
  11  -1   0   77.09    6.60
  11  -1   0   81.29   11.00
  11   1   0   66.79    4.90
  11   1   0   81.99    6.00
  12  -1   0  113.39    8.10
  12  -1   0  112.09    7.90
  12  -1   0  101.49   12.70
   0  -2   0  421.26   15.00
   0  -2   0  402.36   14.90
   0  -2   0  407.76   16.10
   0  -2   0  420.66   15.30
   0  -2   0  390.96   16.20
   0  -2   0  391.76   15.40
   0   2   0  387.56   15.80
   0   2   0  390.46   16.00
   0   2   0  397.86   16.10
   0   2   0  385.76   14.80
   0   2   0  416.06   15.70
   0   2   0  373.96   14.80
   1  -2   0   92.29    5.50
  -1  -2   0  109.99    6.80
   1  -2   0   95.19    6.60
  -1  -2   0   95.79    5.00
   1  -2   0   90.59    5.10
   1  -2   0   92.09    6.70
  -1  -2   0   84.39    5.20
   1  -2   0   99.89    5.10
  -1  -2   0   88.99    5.50
   1  -2   0   87.89    5.90
   1  -2   0   90.59    6.50
  -1  -2   0   87.89    5.10
  -1  -2   0  103.19    6.60
  -1   2   0   84.39    6.50
  -1   2   0   85.89    6.10
   1   2   0  100.49    6.00
   1   2   0  122.59    6.80
   1   2   0   93.29    5.10
   1   2   0   97.29    6.40
  -1   2   0   96.19    5.20
  -1   2   0   90.99    6.50
  -1   2   0   90.09    5.00
   1   2   0   88.79    5.30
  -1   2   0   95.39    6.40
   1   2   0   90.49    5.40
   2  -2   0  141.89    6.20
   2  -2   0  116.69    7.70
   2  -2   0  131.09    6.30
  -2  -2   0  126.99    6.20
   2  -2   0  126.69    6.70
   2  -2   0  124.49    7.10
  -2  -2   0  147.99    6.60
  -2  -2   0  142.79    6.10
   2  -2   0  123.29    7.90
  -2  -2   0  125.09    6.30
   2  -2   0  122.49    7.80
  -2  -2   0  128.99    7.10
   2  -2   0  131.79    7.20
   2   2   0  137.69    7.30
   2   2   0  116.89    6.60
   2   2   0  110.49    6.30
  -2   2   0  130.39    7.80
   2   2   0  116.39    6.00
   2   2   0  128.29    6.40
  -2   2   0  122.79    7.80
  -2   2   0  131.39    7.50
  -2   2   0  128.89    7.20
  -2   2   0  115.69    6.50
  -2   2   0  110.79    5.80
   2   2   0  126.99    7.30
  -3  -2   0  205.78    8.80
   3  -2   0  203.28   11.00
  -3  -2   0  213.58    9.50
   3  -2   0  205.78   10.20
   3  -2   0  213.28   10.00
   3  -2   0  198.78   10.40
   3  -2   0  197.68   10.90
   3  -2   0  219.38    9.60
   3  -2   0  218.18    8.70
  -3  -2   0  200.68    8.70
  -3  -2   0  232.88    9.50
  -3  -2   0  210.68    8.50
   3  -2   0  199.38    9.00
  -3   2   0  212.28    8.60
   3   2   0  210.68    9.30
  -3   2   0  201.88   10.00
  -3   2   0  216.98    9.80
  -3   2   0  220.88   10.90
   3   2   0  193.18    8.60
   3   2   0  213.78    9.20
  -3   2   0  198.88    9.30
  -3   2   0  207.38    8.90
  -3   2   0  210.08   10.60
   3   2   0  219.98   10.40
   3   2   0  207.58    8.90
   3   2   0  210.08    9.70
   4  -2   0   18.50    3.50
   4  -2   0   18.70    2.90
  -4  -2   0   32.90    3.50
  -4  -2   0   21.40    2.90
   4  -2   0   21.60    2.80
   4  -2   0   14.00    3.90
  -4  -2   0   17.20    2.00
  -4  -2   0   15.60    2.20
   4  -2   0   18.20    3.70
   4  -2   0   18.60    2.30
   4  -2   0   14.10    3.10
  -4  -2   0   24.50    2.70
   4  -2   0   18.80    4.00
  -4   2   0   19.90    3.20
  -4   2   0   13.10    2.10
   4   2   0   16.10    2.50
  -4   2   0   13.10    2.50
   4   2   0   16.40    2.80
   4   2   0   11.30    2.50
   4   2   0   14.00    2.20
  -4   2   0   16.30    3.80
  -4   2   0   16.10    3.50
   4   2   0   16.60    2.50
  -4   2   0   20.50    3.70
  -5  -2   0   57.79    3.30
   5  -2   0   47.90    6.50
   5  -2   0   50.39    3.50
   5  -2   0   53.89    5.30
   5  -2   0   57.99    5.70
  -5  -2   0   49.99    3.60
   5  -2   0   52.09    4.50
   5  -2   0   44.50    5.60
  -5  -2   0   49.90    4.10
   5  -2   0   48.90    4.10
   5  -2   0   48.30    5.50
  -5  -2   0   51.39    3.90
  -5   2   0   46.90    4.20
   5   2   0   56.29    4.20
  -5   2   0   52.29    5.40
   5   2   0   53.29    3.70
   5   2   0   61.39    4.60
   5   2   0   54.99    4.40
   5   2   0   54.19    4.10
  -5   2   0   49.70    3.90
   6  -2   0   99.49    5.90
   6  -2   0   98.09    8.10
   6  -2   0   96.19    5.00
   6  -2   0   86.59    7.00
   6  -2   0   95.39    7.00
   6  -2   0   82.99    8.30
  -6  -2   0  108.09    5.00
   6  -2   0  105.99    6.30
   6   2   0   91.49    5.30
   6   2   0  104.89    6.10
   6   2   0   93.59    5.20
  -6   2   0   96.29    5.40
  -6   2   0   92.89    7.40
   6   2   0   91.99    6.10
   6   2   0   99.59    5.60
  -6   2   0   95.39    5.90
   7  -2   0  752.32   25.20
   7  -2   0  636.04   25.60
  -7  -2   0  661.23   22.80
   7  -2   0  658.13   28.50
  -7  -2   0  649.04   22.80
   7  -2   0  608.94   25.70
   7  -2   0  668.53   23.30
   7  -2   0  663.23   25.30
   7  -2   0  645.54   24.30
   7  -2   0  679.33   28.20
   7   2   0  630.64   23.30
   7   2   0  649.54   23.70
   7   2   0  663.63   24.90
   7   2   0  690.83   24.40
  -7   2   0  647.54   23.60
  -7   2   0  651.13   24.30
   7   2   0  656.63   23.50
   8  -2   0  143.29    7.70
   8  -2   0  137.09   10.80
   8  -2   0  107.59   10.60
   8  -2   0  118.69    6.00
   8  -2   0  113.19    8.60
   8  -2   0  115.59    7.00
   8  -2   0  122.99    8.40
   8  -2   0  117.69    8.60
   8   2   0  132.39    7.20
  -8   2   0  122.39    7.00
   8   2   0  116.69    6.30
   8   2   0  123.89    7.60
   8   2   0  128.89    6.40
  -8   2   0  124.29    6.30
  -8   2   0  133.79    9.60
   8   2   0  126.69    6.70
   9  -2   0  132.79    8.60
   9  -2   0  127.79    9.20
   9  -2   0  115.79    9.00
   9  -2   0  119.19   11.70
   9  -2   0  124.39    8.80
   9   2   0  133.49    8.10
   9   2   0  133.59    6.60
   9   2   0  133.69    7.00
   9   2   0  121.99    6.50
  10  -2   0   22.60    4.80
  10  -2   0   20.00    6.60
  10  -2   0   17.70    4.40
  10   2   0   16.30    2.90
  10   2   0   22.60    2.80
  10   2   0   16.80    3.80
  10   2   0   18.60    2.90
  11  -2   0  101.29   12.40
  11  -2   0   99.69    8.70
  11  -2   0   86.79    8.10
  11   2   0   97.29    6.10
  11   2   0  108.49    7.90
  11   2   0  101.89    7.80
  12  -2   0  125.69   20.10
  12  -2   0  111.69    9.30
  12   2   0  105.69    6.50
   0  -3   0   -0.10    2.90
   0  -3   0    0.30    2.20
   0  -3   0   -1.70    2.60
   0  -3   0   -0.40    1.40
   0  -3   0    0.80    2.20
   0   3   0   -2.60    3.00
   0   3   0    0.50    2.60
   0   3   0    0.10    1.70
   0   3   0    0.70    2.90
   0   3   0   -0.70    1.80
   0   3   0    0.80    1.80
   0   3   0   -2.00    2.40
   1  -3   0  488.15   19.30
  -1  -3   0  483.15   18.90
   1  -3   0  479.85   20.30
   1  -3   0  467.15   20.40
  -1  -3   0  493.45   18.30
  -1  -3   0  461.85   19.80
   1  -3   0  491.85   19.40
   1  -3   0  499.05   18.60
   1  -3   0  488.35   18.50
  -1  -3   0  497.75   20.30
   1   3   0  465.05   20.60
   1   3   0  473.15   18.80
   1   3   0  487.85   20.30
  -1   3   0  443.46   20.40
  -1   3   0  481.75   19.10
   1   3   0  467.45   19.20
   1   3   0  491.45   20.20
  -1   3   0  484.85   18.50
   1   3   0  448.26   19.10
  -1   3   0  489.25   19.70
   1   3   0  474.65   19.80
  -1   3   0  470.35   18.40
   1   3   0  443.26   18.70
  -1   3   0  483.85   20.40
   1   3   0  475.75   18.40
   2  -3   0  117.39    8.90
   2  -3   0  130.69    7.70
   2  -3   0  131.89    7.10
  -2  -3   0  124.09    7.40
  -2  -3   0  138.49    8.20
   2  -3   0  121.39    8.10
   2  -3   0  112.29    9.00
  -2  -3   0  125.89    8.50
   2  -3   0  123.09    9.10
   2  -3   0  130.09    7.30
  -2   3   0  129.19    7.80
   2   3   0  132.79    8.10
  -2   3   0  134.29    9.10
   2   3   0  134.99    7.20
   2   3   0  122.99    7.80
   2   3   0  130.69    8.60
   2   3   0  137.39    7.60
   2   3   0  136.99    9.00
  -2   3   0  140.39    8.50
  -2   3   0  143.39    7.40
   2   3   0  145.19    9.00
  -2   3   0  130.79    7.10
   2   3   0  130.29    7.60
   3  -3   0  767.52   26.60
   3  -3   0  730.63   27.80
  -3  -3   0  721.73   27.50
   3  -3   0  727.93   26.90
   3  -3   0  768.32   27.70
   3  -3   0  729.03   28.80
   3  -3   0  722.43   29.50
   3  -3   0  675.63   29.00
  -3  -3   0  712.23   26.50
   3   3   0  750.02   27.30
   3   3   0  761.32   28.20
  -3   3   0  734.23   26.30
   3   3   0  723.83   26.50
  -3   3   0  692.53   28.80
  -3   3   0  756.52   27.80
  -3   3   0  719.03   26.70
   3   3   0  708.73   27.10
   3   3   0  715.13   26.90
  -3   3   0  724.33   27.30
   4  -3   0   62.09    7.20
  -4  -3   0   66.99    5.00
   4  -3   0   59.39    6.20
   4  -3   0   62.79    4.70
   4  -3   0   77.59    7.70
  -4  -3   0   68.39    5.90
   4  -3   0   75.39    5.90
   4  -3   0   60.79    7.50
   4  -3   0   48.40    6.00
   4  -3   0   64.89    5.20
  -4   3   0   66.79    5.10
   4   3   0   69.59    5.10
   4   3   0   72.29    5.60
  -4   3   0   65.49    7.00
  -4   3   0   63.89    5.60
  -4   3   0   70.19    4.80
   4   3   0   67.69    6.30
   4   3   0   65.49    5.80
   4   3   0   61.39    5.50
   5  -3   0  207.38   13.10
  -5  -3   0  218.48   10.40
   5  -3   0  198.28   12.20
   5  -3   0  211.88   10.40
   5  -3   0  207.08   11.40
  -5  -3   0  209.38    9.40
   5  -3   0  219.68   11.60
   5  -3   0  222.48    9.70
   5  -3   0  211.58   10.90
   5  -3   0  204.68   13.40
   5   3   0  207.78   10.10
  -5   3   0  200.88   12.30
   5   3   0  217.68   11.30
   5   3   0  210.88   10.80
  -5   3   0  209.18   10.70
   5   3   0  215.88    9.90
   5   3   0  202.68   10.40
   6  -3   0  864.41   34.00
   6  -3   0  938.61   37.30
   6  -3   0  855.21   36.80
   6  -3   0  873.01   34.10
  -6  -3   0  870.91   31.30
  -6  -3   0  881.51   32.30
   6  -3   0  954.60   32.20
   6  -3   0  895.11   35.30
   6  -3   0  980.20   34.20
   6  -3   0  920.51   33.30
   6   3   0  897.41   33.00
   6   3   0  907.61   32.70
  -6   3   0  943.81   33.70
   6   3   0  882.11   33.60
   6   3   0  968.90   34.10
   6   3   0  858.71   32.10
  -6   3   0  893.21   35.70
  -6   3   0  922.21   32.70
   7  -3   0   60.99    8.10
   7  -3   0   62.09    8.90
   7  -3   0   58.29    6.00
   7  -3   0   51.69    6.60
   7  -3   0   65.79    4.70
   7  -3   0   50.89    6.50
  -7   3   0   50.79    7.00
   7   3   0   57.29    6.30
   7   3   0   55.19    5.70
   7   3   0   58.69    5.30
   7   3   0   59.79    5.10
  -7   3   0   54.09    5.50
   8  -3   0   21.70    6.60
   8  -3   0   17.50    4.60
   8  -3   0   31.70    6.00
  -8   3   0   20.30    4.80
   8   3   0   18.30    3.30
   8   3   0   22.50    4.20
   8   3   0   16.20    2.90
   8   3   0   18.50    3.60
   9  -3   0   41.80    7.10
   9  -3   0   39.30    6.00
   9  -3   0   38.00    8.70
   9  -3   0   51.79    6.90
   9   3   0   40.20    4.70
   9   3   0   44.50    4.50
   9   3   0   40.50    5.70
  10  -3   0   70.09    8.80
  10  -3   0   64.19    8.10
  10  -3   0   70.89    8.10
  10  -3   0   67.79   11.30
  10   3   0   73.69    5.60
  10   3   0   77.19    7.60
  10   3   0   58.19    5.40
  11  -3   0   71.79   13.30
  11  -3   0   57.69    7.60
  11  -3   0   42.80    7.20
  11  -3   0   42.60    6.90
  11   3   0   68.99    7.50
  11   3   0   65.39    5.60
   0  -4   0  231.88   12.70
   0  -4   0  253.07   15.00
   0  -4   0  261.67   14.60
   0   4   0  256.17   15.00
   0   4   0  264.97   13.20
   0   4   0  252.47   12.30
   0   4   0  268.27   12.70
   0   4   0  279.87   14.20
  -1  -4   0   62.59    8.60
   1  -4   0   82.59    8.70
  -1  -4   0   77.79    8.30
   1  -4   0   85.59    6.40
   1  -4   0   71.09    7.20
   1  -4   0   93.69    9.70
  -1  -4   0   68.99    6.70
   1   4   0   91.89    8.20
  -1   4   0   82.59    7.10
  -1   4   0   83.69    8.10
   1   4   0   78.69    6.40
   1   4   0   65.19    8.40
  -1   4   0   82.79    6.60
  -1   4   0   85.29    9.30
   1   4   0   64.19    6.50
  -1   4   0   81.29    6.30
   1   4   0   81.79    6.40
   2  -4   0  441.36   22.70
   2  -4   0  531.25   20.50
   2  -4   0  499.65   21.30
   2  -4   0  477.05   22.40
  -2  -4   0  444.36   20.00
  -2  -4   0  488.45   21.70
  -2   4   0  518.25   21.20
  -2   4   0  506.05   20.00
  -2   4   0  495.25   20.20
   2   4   0  486.35   21.30
  -2   4   0  491.85   22.90
   2   4   0  524.15   20.20
   2   4   0  517.15   20.80
   2   4   0  454.45   22.70
   2   4   0  467.45   20.30
   3  -4   0  121.39   10.80
   3  -4   0  121.49    9.50
   3  -4   0  120.29   10.40
   3  -4   0   97.89   10.00
  -3  -4   0  128.89    9.50
   3  -4   0  113.59    7.90
  -3   4   0  128.69    8.10
   3   4   0  121.29    8.00
  -3   4   0  124.39   10.60
   3   4   0  124.39    9.00
   3   4   0  124.49   10.70
   3   4   0  130.69    8.60
   3   4   0  128.39    9.30
  -3   4   0  113.49    8.40
  -3   4   0  121.79    7.70
   3   4   0  127.29    8.50
   4  -4   0   65.79    6.30
   4  -4   0   74.59   13.10
   4  -4   0   65.79    9.70
   4  -4   0   65.99    7.90
  -4  -4   0   70.49    7.20
   4  -4   0   71.59    9.00
   4   4   0   69.79    6.60
  -4   4   0   68.39    6.10
  -4   4   0   76.59    7.00
  -4   4   0   65.49    5.70
   4   4   0   62.19    6.70
   4   4   0   76.39    8.00
   4   4   0   67.29    8.10
   4   4   0   66.19    7.60
  -4   4   0   72.29    8.60
   4   4   0   67.09    7.20
   4   4   0   66.59    6.20
   5  -4   0  347.87   16.90
   5  -4   0  298.77   18.60
  -5  -4   0  310.87   15.60
   5  -4   0  349.77   18.30
   5   4   0  353.86   16.40
   5   4   0  356.26   15.80
  -5   4   0  326.47   14.60
  -5   4   0  333.17   16.00
  -5   4   0  290.87   18.10
   5   4   0  354.76   15.30
   6  -4   0   39.80    7.20
   6  -4   0   26.00    5.50
   6  -4   0   28.90    7.30
   6   4   0   36.80    5.20
   6   4   0   27.10    4.30
  -6   4   0   38.00    5.80
   6   4   0   30.30    5.60
   7  -4   0   59.89   10.20
   7  -4   0   66.79    8.40
   7  -4   0   61.99    8.80
  -7   4   0   72.99    7.20
   7   4   0   58.19    6.90
   7   4   0   66.59    6.70
   7   4   0   67.69    6.30
   8  -4   0   30.70    6.70
   8  -4   0   30.40    8.40
   8  -4   0   36.40    6.70
   8   4   0   26.30    4.40
   8   4   0   26.00    5.40
   8   4   0   26.20    4.10
   9  -4   0  177.58   12.90
   9  -4   0  193.08   16.60
   9  -4   0  205.28   14.70
   9   4   0  166.58    9.90
   9   4   0  161.48   11.80
   9   4   0  181.78   10.30
   0  -5   0    0.50    4.80
   0  -5   0    3.10    4.80
   0   5   0   -0.20    3.30
   0   5   0    6.40    3.70
   0   5   0    0.30    2.80
  -1  -5   0  159.68   12.50
  -1  -5   0  157.98   12.80
   1  -5   0  132.49   12.70
   1  -5   0  148.99   14.30
   1  -5   0  145.59   12.50
  -1   5   0  139.59    9.80
   1   5   0  142.29    9.70
   1   5   0  130.29   10.10
   1   5   0  154.08   10.70
  -1   5   0  133.99    9.50
  -1   5   0  138.19   10.50
   2  -5   0  235.38   15.80
   2  -5   0  196.18   13.10
   2  -5   0  224.08   16.30
  -2  -5   0  201.58   13.90
   2   5   0  209.58   12.80
   2   5   0  232.48   13.00
  -2   5   0  234.58   13.60
   2   5   0  214.68   12.30
  -2   5   0  231.08   12.60
   3  -5   0  217.98   15.50
  -3  -5   0  202.68   13.40
   3  -5   0  209.68   16.00
   3  -5   0  205.68   13.50
   3   5   0  207.68   12.70
   3   5   0  215.58   12.20
   3   5   0  210.28   12.80
  -3   5   0  202.48   12.90
   4  -5   0   -0.70    4.60
   4  -5   0    6.80    4.60
  -4  -5   0    2.10    3.90
   4  -5   0    6.70    5.80
   4   5   0   -0.90    3.40
  -4   5   0    0.20    3.10
   4   5   0   10.10    4.90
  -4   5   0    5.40    3.80
   4   5   0    2.80    3.40
   5  -5   0   15.20    5.60
   5  -5   0   14.70    6.80
   5  -5   0   29.80    7.20
  -5   5   0   12.20    4.80
  -5   5   0   13.00    3.70
   5   5   0   16.30    4.30
   5   5   0   18.10    4.80
   5   5   0    5.70    4.30
   6  -5   0   22.10    6.10
   6  -5   0   11.00    5.50
   6  -5   0   26.40    8.40
  -6   5   0   35.70    6.30
   6   5   0    9.20    4.80
   6   5   0   16.10    4.50
   6   5   0   26.70    5.30
   7  -5   0    4.40    6.70
   7  -5   0    7.90    5.20
   7  -5   0   12.20    6.10
   7   5   0   12.30    5.80
   7   5   0   15.20    4.50
   7   5   0   13.30    3.90
   0  -6   0  186.38   15.10
   0  -6   0  145.69   14.30
   0   6   0  153.08   11.60
   0   6   0  185.58   13.10
  -1  -6   0  137.19   13.40
   1  -6   0  121.19   13.60
   1  -6   0  134.49   13.80
  -1   6   0  113.09   11.00
   1   6   0  117.09   10.70
   1   6   0  145.39   11.80
  -1   6   0  115.89   10.30
   1   6   0  120.59   10.40
  -2  -6   0   26.70    7.20
   2  -6   0   19.50    8.00
   2  -6   0   37.60    8.60
   2   6   0   21.90    5.50
  -2   6   0   20.80    5.40
  -2   6   0   21.80    5.80
   2   6   0   25.40    6.40
   2   6   0   19.00    6.30
   3  -6   0   38.60    8.70
   3  -6   0   43.60   10.40
  -3   6   0   68.99    9.50
  -3   6   0   40.20    6.80
   3   6   0   34.90    6.50
  13   0  -1  123.79   13.50
  12   0  -1    4.80    5.30
  11   0  -1   59.39    9.10
  11   0  -1   49.80    4.90
  10   0  -1  259.87   10.50
  10   0  -1  278.57   10.40
  10   0  -1  259.77   11.40
  10   0  -1  238.38   15.30
  10   0  -1  247.58   10.10
   9   0  -1    2.10    1.70
   9   0  -1    2.90    1.90
   9   0  -1   -0.20    2.60
   9   0  -1   -0.40    1.00
   9   0  -1    0.70    3.50
   9   0  -1   -3.50    1.30
   9   0  -1   -0.30    1.00
   8   0  -1  492.55   19.00
   8   0  -1  524.85   18.00
   8   0  -1  550.94   18.30
   8   0  -1  530.65   22.00
   8   0  -1  498.15   17.90
   8   0  -1  499.05   18.00
   7   0  -1   56.19    3.00
   7   0  -1   61.49    3.50
   7   0  -1   57.89    3.10
   7   0  -1   71.99    5.90
   7   0  -1   56.09    4.00
   6   0  -1  173.68    9.00
   6   0  -1  161.08    6.30
   6   0  -1  165.78    6.50
   5   0  -1 1584.14   54.99
   5   0  -1 1545.15   52.59
   5   0  -1 1705.03   52.79
   4   0  -1   63.19    2.70
   4   0  -1   70.39    4.50
   4   0  -1   67.09    3.00
   3   0  -1 1615.54   55.39
   3   0  -1 1823.92   55.49
   3   0  -1 1756.32   56.89
  -3   0   1 1655.83   56.89
   2   0  -1 5523.05  179.48
  -2   0   1 5353.46  179.68
   1   0  -1  170.58    6.20
   0   0  -1   -0.40    0.20
   0   0   1    0.00    0.30
   0   0   1   -0.10    0.30
  -1   0  -1  161.58    5.70
  -1   0  -1  148.99    6.00
   1   0   1  153.58    5.20
   1   0   1  156.08    5.70
   1   0   1  155.88    5.70
  -1   0  -1  156.88    5.20
  -1   0  -1  153.68    5.70
   1   0   1  155.68    6.00
   1   0   1  149.49    5.60
  -1   0  -1  164.18    5.80
   1   0   1  160.38    5.60
  -2   0  -1 1383.06   45.70
   2   0   1 1415.96   45.80
   2   0   1 1421.76   45.60
   2   0   1 1420.46   45.80
   2   0   1 1336.47   45.20
  -2   0  -1 1407.66   45.70
   2   0   1 1389.26   46.50
   2   0   1 1354.26   45.60
  -2   0  -1 1387.06   46.50
  -2   0  -1 1417.26   45.50
  -2   0  -1 1396.46   45.50
  -3   0  -1   21.20    1.80
   3   0   1   21.00    2.10
  -3   0  -1   23.80    3.00
   3   0   1   22.10    2.20
  -3   0  -1   20.40    2.00
   3   0   1   19.90    1.60
  -3   0  -1   19.40    1.70
   3   0   1   21.70    2.00
  -3   0  -1   22.50    2.10
   3   0   1   24.50    2.20
   3   0   1   21.50    2.90
   4   0   1   19.80    2.30
   4   0   1   16.10    3.00
   4   0   1   17.50    1.70
  -4   0  -1   20.20    1.80
  -4   0  -1   20.00    2.10
   4   0   1   16.90    2.10
  -4   0  -1   19.60    1.70
   4   0   1   17.00    2.30
   4   0   1   19.90    2.10
  -4   0  -1   18.50    1.90
   5   0   1  446.26   16.00
   5   0   1  466.65   16.40
  -5   0  -1  474.75   16.20
   5   0   1  465.85   16.50
   5   0   1  474.85   18.70
  -5   0  -1  454.15   15.70
   5   0   1  446.46   16.20
  -5   0  -1  456.35   15.70
   5   0   1  473.05   16.50
   6   0   1    8.40    1.70
  -6   0  -1    5.50    1.30
   6   0   1    3.60    1.30
   6   0   1    6.20    1.80
   6   0   1    3.80    2.50
   6   0   1    6.80    1.90
   6   0   1    6.10    1.50
   7   0   1   21.50    2.40
   7   0   1   35.00    5.10
  -7   0  -1   27.20    2.30
   7   0   1   25.80    3.20
   7   0   1   30.80    2.90
  -7   0  -1   23.00    2.10
   7   0   1   24.50    3.20
   7   0   1   24.60    2.70
   8   0   1   96.29    5.20
   8   0   1  101.49    5.40
  -8   0  -1   90.59    4.40
   8   0   1   97.59    5.60
   8   0   1   88.79    4.90
   8   0   1   98.09    5.90
  -8   0  -1   93.99    4.40
   8   0   1  101.99    8.30
   9   0   1    5.50    4.70
   9   0   1    5.70    2.30
   9   0   1    5.90    2.40
   9   0   1    2.30    2.10
   9   0   1    2.20    1.60
   9   0   1    4.80    1.90
  10   0   1   20.20    3.10
  10   0   1   23.30    3.10
  10   0   1   25.70    3.70
  10   0   1   20.70    3.30
  11   0   1  111.79    7.10
  11   0   1  100.49   11.20
  11   0   1  113.89    7.10
  12   0   1   19.40    6.60
  12   0   1   11.00    3.30
  12  -1  -1  120.69   12.80
  12  -1  -1  101.59    7.50
  12  -1  -1   97.69    6.90
  11  -1  -1  132.59   12.70
  11  -1  -1  129.39    7.00
  11  -1  -1  145.89    8.30
  11  -1  -1  144.99    8.10
  11   1  -1  114.39    7.80
  10  -1  -1    2.90    1.80
  10  -1  -1    7.20    2.70
  10  -1  -1   -3.30    4.20
  10  -1  -1    2.50    2.40
  10   1  -1    4.90    2.50
   9  -1  -1  153.58   12.00
   9  -1  -1  162.38   11.40
   9  -1  -1  158.38    8.50
   9  -1  -1  162.48    8.50
   9  -1  -1  152.98    7.60
   9  -1  -1  163.98    8.40
   9  -1  -1  158.08    7.50
   9   1  -1  180.18   11.10
  -9   1   1  172.78    7.10
   9   1  -1  156.68    8.50
  -9   1   1  162.68   10.80
   8  -1  -1  202.58   11.60
   8  -1  -1  176.08    8.00
   8  -1  -1  177.68    8.20
   8  -1  -1  200.78    8.90
   8  -1  -1  215.58   12.80
   8  -1  -1  197.68    9.20
  -8   1   1  193.08    7.80
   8   1  -1  171.08   10.50
   8   1  -1  179.68    7.10
  -8   1   1  174.88    7.50
   8   1  -1  173.48    8.90
  -8   1   1  195.08   11.10
   8   1  -1  191.98    7.40
   7  -1  -1  597.24   22.20
   7  -1  -1  682.93   26.00
   7  -1  -1  636.04   26.40
   7  -1  -1  657.43   22.90
   7  -1  -1  667.93   23.30
   7  -1  -1  628.54   22.50
   7   1  -1  595.24   23.10
  -7   1   1  634.54   25.10
  -7   1   1  647.94   22.10
   7   1  -1  647.74   25.10
   7   1  -1  622.44   21.60
   7   1  -1  604.14   21.40
   6  -1  -1  206.08    8.90
   6  -1  -1  214.48    9.30
   6  -1  -1  200.48    8.30
   6  -1  -1  194.08    8.50
   6  -1  -1  206.08   11.50
   6  -1  -1  214.08   10.90
  -6   1   1  232.88    8.60
  -6   1   1  210.08    8.40
   6   1  -1  195.18    7.80
  -6   1   1  203.88   10.40
   6   1  -1  192.88    8.90
   6   1  -1  201.28    7.50
  -6   1   1  201.18    8.10
   6   1  -1  195.08    7.50
  -6   1   1  198.78    7.60
   5  -1  -1  193.98   10.40
   5  -1  -1  191.28    7.90
   5  -1  -1  207.78    8.70
   5  -1  -1  179.78    7.60
   5  -1  -1  203.88    8.30
   5  -1  -1  197.78    9.70
   5   1  -1  187.38    7.30
   5   1  -1  186.58    8.30
   5   1  -1  187.88    7.00
  -5   1   1  186.68    7.20
  -5   1   1  175.78    7.60
  -5   1   1  189.68    8.10
   5   1  -1  180.58    6.90
  -5   1   1  189.48    9.40
  -5   1   1  187.58    7.50
  -4  -1   1  586.94   20.10
  -4  -1   1  597.14   20.10
   4  -1  -1  590.74   21.60
   4  -1  -1  606.94   21.10
   4  -1  -1  643.34   22.80
   4  -1  -1  584.34   20.80
   4  -1  -1  625.44   21.60
   4  -1  -1  613.54   21.30
   4  -1  -1  626.54   23.20
   4   1  -1  611.84   20.70
  -4   1   1  619.74   21.40
  -4   1   1  606.24   22.40
   4   1  -1  578.24   20.20
  -4   1   1  633.14   23.00
   4   1  -1  559.04   21.30
   4   1  -1  597.74   20.30
  -4   1   1  587.14   20.60
  -4   1   1  619.64   20.80
  -4   1   1  596.94   20.90
   4   1  -1  600.14   20.30
  -3  -1   1  320.67   10.80
   3  -1  -1  361.06   13.20
   3  -1  -1  321.67   11.50
  -3  -1   1  338.77   12.10
   3  -1  -1  331.97   13.50
   3  -1  -1  313.67   11.60
   3  -1  -1  321.17   11.80
   3  -1  -1  319.07   12.10
  -3  -1   1  322.17   11.10
   3  -1  -1  308.97   12.30
  -3  -1   1  315.97   10.90
  -3   1   1  320.47   13.20
  -3   1   1  334.37   12.30
  -3   1   1  329.97   12.80
  -3   1   1  320.27   11.80
  -3   1   1  302.17   11.70
   3   1  -1  303.17   11.10
   3   1  -1  323.87   12.10
   3   1  -1  319.57   11.60
   3   1  -1  275.77   11.30
   3   1  -1  310.97   11.20
  -3   1   1  315.87   11.40
   2  -1  -1 3562.34  119.89
  -2  -1   1 3580.34  119.29
   2  -1  -1 3958.10  120.49
  -2  -1   1 3633.94  119.09
  -2  -1   1 3603.64  119.59
   2  -1  -1 3805.22  119.29
   2  -1  -1 3566.84  119.29
  -2  -1   1 3657.53  118.89
  -2  -1   1 3575.74  118.99
   2  -1  -1 3645.84  119.59
   2  -1  -1 3815.22  120.69
   2  -1  -1 3721.53  119.49
  -2   1   1 3682.63  119.49
  -2   1   1 3736.83  119.89
   2   1  -1 3661.63  119.39
   2   1  -1 3739.23  119.39
   2   1  -1 3526.95  119.09
   2   1  -1 3445.86  118.89
  -2   1   1 3827.22  119.59
   2   1  -1 3756.32  119.19
  -2   1   1 3698.43  120.19
   2   1  -1 3538.55  119.59
  -2   1   1 3779.82  120.59
  -2   1   1 3598.84  119.19
   1  -1  -1 2059.99   66.89
  -1  -1   1 1951.40   65.99
   1  -1  -1 2218.28   66.89
   1  -1  -1 2026.60   65.99
   1  -1  -1 2016.50   66.49
   1  -1  -1 1930.01   65.89
  -1  -1   1 2063.39   66.19
  -1  -1   1 1982.20   66.29
   1  -1  -1 1893.71   66.19
   1  -1  -1 2020.30   66.19
  -1  -1   1 2024.20   65.79
  -1  -1   1 1889.71   65.89
   1   1  -1 1926.71   65.89
   1   1  -1 2000.00   66.09
   1   1  -1 1980.50   66.29
  -1   1   1 1934.31   65.89
   1   1  -1 2096.89   66.09
   1   1  -1 2094.09   66.19
  -1   1   1 1999.20   66.09
  -1   1   1 2066.99   66.59
  -1   1   1 1967.60   65.89
  -1   1   1 2090.59   66.99
   1   1  -1 1911.21   65.69
  -1   1   1 2069.49   66.79
  -1   1   1 2126.59   66.19
   0  -1  -1  742.63   27.00
   0  -1  -1  823.42   27.40
   0  -1   1  765.42   26.90
   0  -1   1  802.22   27.40
   0  -1  -1  779.52   26.50
   0  -1   1  799.32   27.10
   0  -1   1  801.82   26.70
   0  -1  -1  830.32   26.70
   0  -1   1  829.62   26.60
   0  -1   1  750.12   26.40
   0  -1   1  747.13   26.80
   0  -1  -1  776.72   26.70
   0   1  -1  817.42   27.30
   0   1   1  789.22   26.50
   0   1  -1  799.42   26.50
   0   1  -1  786.12   27.10
   0   1   1  706.93   26.50
   0   1  -1  795.42   26.90
   0   1  -1  796.12   26.60
   0   1   1  772.02   27.10
   0   1  -1  783.52   26.90
   0   1   1  864.01   27.60
   0   1   1  837.02   26.80
   0   1  -1  794.82   26.80
  -1  -1  -1  773.62   27.10
  -1  -1  -1  804.12   27.10
  -1  -1  -1  819.82   26.90
   1  -1   1  798.32   27.10
  -1  -1  -1  811.62   27.40
   1  -1   1  780.62   27.70
   1  -1   1  783.72   27.90
   1  -1   1  842.22   27.30
   1  -1   1  774.92   27.70
   1  -1   1  835.32   26.70
   1  -1   1  779.92   27.40
   1   1   1  798.72   26.90
  -1   1  -1  764.42   26.60
   1   1   1  780.92   27.40
  -1   1  -1  799.72   27.70
  -1   1  -1  804.32   27.80
  -1   1  -1  835.82   27.70
  -1   1  -1  822.72   27.40
   1   1   1  854.11   28.00
  -1   1  -1  804.62   27.10
   1   1   1  818.72   27.10
   1   1   1  798.32   27.10
  -1   1  -1  809.02   27.30
   1   1   1  759.72   27.00
   2  -1   1 2361.96   82.29
  -2  -1  -1 2502.05   82.29
  -2  -1  -1 2525.25   82.09
  -2  -1  -1 2572.84   82.39
   2  -1   1 2504.45   81.79
   2  -1   1 2650.53   83.09
  -2  -1  -1 2514.25   82.09
   2  -1   1 2483.85   83.49
   2  -1   1 2392.26   83.39
  -2  -1  -1 2495.15   82.39
   2  -1   1 2593.64   82.69
   2  -1   1 2569.04   82.69
  -2   1  -1 2595.44   82.89
   2   1   1 2447.06   82.09
  -2   1  -1 2516.15   81.69
   2   1   1 2551.84   82.29
  -2   1  -1 2529.45   82.59
  -2   1  -1 2483.15   83.29
  -2   1  -1 2455.25   83.29
   2   1   1 2461.35   82.39
   2   1   1 2535.85   82.59
   2   1   1 2566.94   82.29
  -2   1  -1 2596.74   82.49
   3  -1   1   72.59    3.30
   3  -1   1   81.49    5.90
   3  -1   1   76.39    4.80
  -3  -1  -1   76.59    4.10
  -3  -1  -1   76.39    3.90
  -3  -1  -1   80.39    3.70
   3  -1   1   75.39    4.20
   3  -1   1   73.29    5.00
  -3  -1  -1   80.39    3.80
   3  -1   1   78.09    4.40
  -3  -1  -1   80.79    4.20
   3  -1   1   80.79    5.60
   3   1   1   84.29    4.30
  -3   1  -1   83.79    4.50
   3   1   1   79.89    4.10
  -3   1  -1   80.79    4.10
  -3   1  -1   84.39    4.80
  -3   1  -1   84.39    5.40
   3   1   1   76.49    4.30
   3   1   1   83.69    4.20
  -3   1  -1   79.99    4.40
   3   1   1   78.79    4.00
   4  -1   1  135.39    5.40
  -4  -1  -1  144.69    5.70
   4  -1   1  129.49    8.20
  -4  -1  -1  145.19    6.10
   4  -1   1  150.28    6.70
   4  -1   1  144.39    6.40
  -4  -1  -1  129.09    5.90
   4  -1   1  143.09    8.10
  -4  -1  -1  145.59    5.70
   4  -1   1  139.89    7.20
  -4  -1  -1  146.79    6.40
   4  -1   1  146.89    7.00
  -4   1  -1  142.99    7.70
   4   1   1  146.39    6.40
   4   1   1  140.79    6.00
   4   1   1  144.59    6.10
  -4   1  -1  153.18    6.50
  -4   1  -1  139.59    6.10
   4   1   1  143.49    6.40
   4   1   1  149.49    6.30
  -4   1  -1  142.39    6.50
  -4   1  -1  147.89    6.80
   5  -1   1  228.68   12.10
   5  -1   1  257.57   10.80
   5  -1   1  248.18   12.00
   5  -1   1  225.38    9.70
   5  -1   1  250.37   10.10
   5  -1   1  233.18    8.70
  -5  -1  -1  240.48    9.20
   5  -1   1  253.27   10.30
  -5  -1  -1  254.57    9.90
   5   1   1  237.58    9.80
  -5   1  -1  242.78   11.50
  -5   1  -1  234.38    9.40
   5   1   1  247.88    9.60
  -5   1  -1  238.98    9.90
  -5   1  -1  256.47    9.60
   5   1   1  255.37    9.80
  -5   1  -1  253.67   10.10
   5   1   1  234.38    9.30
   5   1   1  250.87    9.50
   6  -1   1  380.06   16.70
  -6  -1  -1  352.36   12.90
   6  -1   1  399.86   14.90
   6  -1   1  346.67   16.70
   6  -1   1  356.76   12.60
   6  -1   1  368.16   13.80
  -6  -1  -1  354.86   12.90
   6  -1   1  379.06   14.30
   6  -1   1  373.66   14.10
   6   1   1  368.36   13.30
   6   1   1  339.77   13.20
  -6   1  -1  350.26   13.20
   6   1   1  346.07   15.90
   6   1   1  363.86   13.60
  -6   1  -1  343.27   13.60
   6   1   1  338.57   13.70
   6   1   1  350.86   13.40
  -6   1  -1  369.06   16.10
  -6   1  -1  360.76   13.80
  -7  -1  -1   72.29    3.70
   7  -1   1   78.59    5.10
   7  -1   1   81.69    5.90
   7  -1   1   85.99    7.40
   7  -1   1   71.79    5.40
   7  -1   1   77.09    7.70
  -7  -1  -1   79.29    3.80
   7  -1   1   77.69    3.70
   7  -1   1   76.99    4.80
   7   1   1   74.29    4.40
   7   1   1   76.29    4.60
  -7   1  -1   76.79    4.00
   7   1   1   80.79    4.60
   7   1   1   76.09    6.90
   7   1   1   76.79    4.80
  -7   1  -1   78.39    6.80
  -7   1  -1   71.29    4.50
   7   1   1   73.09    4.40
   8  -1   1  409.96   20.10
   8  -1   1  417.56   16.50
   8  -1   1  410.66   14.60
   8  -1   1  433.96   20.00
   8  -1   1  419.96   17.00
   8  -1   1  425.86   16.30
   8  -1   1  411.86   15.90
   8  -1   1  423.36   14.70
   8   1   1  423.76   15.40
  -8   1  -1  383.46   15.40
   8   1   1  402.86   18.90
  -8   1  -1  405.36   19.00
   8   1   1  407.56   16.00
   8   1   1  396.36   15.30
   8   1   1  390.66   15.40
   8   1   1  405.86   15.40
   9  -1   1   70.09    9.00
   9  -1   1   71.29    5.10
   9  -1   1   71.59    4.10
   9  -1   1   79.79    6.60
   9  -1   1   72.09    6.00
   9   1   1   72.09    5.20
   9   1   1   70.69    5.00
   9   1   1   78.89    4.90
   9   1   1   80.79    4.90
  -9   1  -1   80.89    8.20
  10  -1   1  389.76   16.90
  10  -1   1  410.96   16.80
  10  -1   1  408.56   17.00
  10  -1   1  399.26   21.60
  10   1   1  374.96   15.80
  10   1   1  373.56   15.10
  10   1   1  398.16   15.30
  10   1   1  397.16   15.30
  11  -1   1    3.30    3.50
  11  -1   1    4.20    5.70
  11  -1   1    7.20    3.30
  11   1   1    5.30    3.10
  11   1   1    2.40    2.20
  11   1   1    6.20    2.40
  12  -1   1  104.09    8.20
  12  -1   1  114.89   13.30
  12  -1   1   96.79    7.90
  12   1   1  101.99    6.80
  12  -2  -1   10.40    3.90
  12  -2  -1   11.90    3.90
  12  -2  -1   12.40    7.10
  12  -2  -1   10.60    3.90
  12   2  -1    8.70    4.20
  11  -2  -1  118.39    9.00
  11  -2  -1  114.39    8.70
  11  -2  -1  117.39   12.70
  11   2  -1  115.49    6.40
  11   2  -1  112.59    8.30
  10  -2  -1   97.09    7.80
  10  -2  -1   99.69    8.20
  10  -2  -1   76.59   10.60
  10   2  -1   84.59    5.20
  10   2  -1   88.79    4.80
  10   2  -1  100.29    7.20
   9  -2  -1  359.96   15.20
   9  -2  -1  355.36   16.80
   9  -2  -1  362.46   16.30
   9  -2  -1  355.46   20.20
   9   2  -1  370.06   13.80
   9   2  -1  395.36   16.40
   9   2  -1  371.76   14.00
  -9   2   1  369.36   18.40
   9   2  -1  379.16   14.40
   8  -2  -1  787.72   27.60
   8  -2  -1  754.32   29.60
   8  -2  -1  753.92   28.10
   8  -2  -1  819.02   32.70
   8  -2  -1  782.02   28.70
   8  -2  -1  745.13   32.90
   8  -2  -1  782.62   29.20
  -8   2   1  791.82   27.20
  -8   2   1  796.32   31.30
  -8   2   1  754.62   27.90
   8   2  -1  748.43   29.00
   8   2  -1  802.32   27.80
   8   2  -1  763.32   26.90
   8   2  -1  771.02   27.00
   8   2  -1  796.52   27.40
   7  -2  -1   83.99    4.90
  -7  -2   1   82.29    3.80
   7  -2  -1   84.09    7.90
   7  -2  -1   75.89    8.50
   7  -2  -1   76.39    6.40
  -7  -2   1   78.59    3.90
   7  -2  -1   90.39    5.80
   7  -2  -1   88.29    5.50
   7  -2  -1   70.99    6.70
   7   2  -1   84.19    5.00
  -7   2   1   79.19    5.30
   7   2  -1   72.79    5.80
  -7   2   1   83.89    4.90
   7   2  -1   79.69    5.30
  -7   2   1   75.89    7.00
   7   2  -1   75.59    4.60
   7   2  -1   80.69    4.70
   6  -2  -1  835.62   32.40
   6  -2  -1  809.12   30.00
   6  -2  -1  828.52   33.00
   6  -2  -1  835.52   28.80
   6  -2  -1  829.32   29.30
   6  -2  -1  851.01   29.80
   6  -2  -1  818.82   30.70
  -6  -2   1  804.12   28.00
   6   2  -1  819.32   28.70
   6   2  -1  794.02   29.80
  -6   2   1  805.92   31.40
   6   2  -1  858.21   29.30
  -6   2   1  844.22   28.80
   6   2  -1  841.82   28.60
  -6   2   1  789.32   29.20
   6   2  -1  787.52   28.30
   5  -2  -1  243.88   11.40
   5  -2  -1  241.88   12.10
   5  -2  -1  254.37   13.00
  -5  -2   1  247.28    9.40
  -5  -2   1  250.37   10.10
   5  -2  -1  255.57   10.30
  -5  -2   1  262.77   11.20
   5  -2  -1  254.77   10.70
   5  -2  -1  273.77   11.30
  -5  -2   1  253.37    9.90
   5  -2  -1  245.58   13.40
  -5   2   1  240.38   10.80
   5   2  -1  259.47   10.30
   5   2  -1  243.58   11.20
   5   2  -1  256.87   11.00
  -5   2   1  270.17   10.50
   5   2  -1  260.07   10.50
   5   2  -1  242.88   10.00
  -5   2   1  245.98   12.30
   4  -2  -1  319.97   14.90
  -4  -2   1  304.47   12.60
  -4  -2   1  323.37   12.30
   4  -2  -1  321.27   13.20
   4  -2  -1  301.17   14.00
  -4  -2   1  328.97   11.90
   4  -2  -1  340.67   12.60
   4  -2  -1  308.57   15.10
  -4  -2   1  336.17   13.30
   4  -2  -1  307.07   12.70
  -4  -2   1  318.07   12.00
   4  -2  -1  308.67   13.40
   4  -2  -1  296.07   13.30
   4   2  -1  337.37   12.60
   4   2  -1  333.17   13.30
  -4   2   1  333.17   15.00
   4   2  -1  322.47   13.20
  -4   2   1  347.77   13.40
   4   2  -1  319.67   12.20
  -4   2   1  329.07   14.50
   4   2  -1  333.47   12.80
  -4   2   1  346.87   14.00
  -4   2   1  323.77   12.60
  -4   2   1  311.67   13.00
   3  -2  -1  486.75   17.90
  -3  -2   1  444.96   16.90
   3  -2  -1  438.16   18.50
  -3  -2   1  497.45   17.90
  -3  -2   1  456.75   17.70
   3  -2  -1  446.96   17.90
   3  -2  -1  467.85   19.30
  -3  -2   1  469.55   17.10
   3  -2  -1  474.35   17.20
   3  -2  -1  446.06   17.30
   3  -2  -1  450.65   19.30
  -3  -2   1  502.65   16.90
   3   2  -1  499.15   18.50
  -3   2   1  466.15   17.30
  -3   2   1  505.55   18.20
  -3   2   1  475.55   19.00
   3   2  -1  465.45   17.40
  -3   2   1  484.35   18.50
   3   2  -1  464.95   17.00
   3   2  -1  469.25   18.00
   3   2  -1  456.75   17.80
  -3   2   1  459.55   17.70
   3   2  -1  458.55   17.20
  -3   2   1  473.95   19.30
   3   2  -1  473.95   17.80
  -3   2   1  456.85   17.10
   2  -2  -1  145.59    6.90
  -2  -2   1  142.69    7.00
  -2  -2   1  149.79    6.50
   2  -2  -1  143.39    6.70
   2  -2  -1  143.79    8.60
   2  -2  -1  164.68    8.60
   2  -2  -1  162.28    7.40
  -2  -2   1  146.89    6.80
  -2  -2   1  146.29    7.80
   2  -2  -1  140.39    7.60
   2  -2  -1  145.69    8.30
  -2  -2   1  142.99    6.80
  -2   2   1  131.89    6.60
  -2   2   1  152.78    8.60
   2   2  -1  120.19    6.40
  -2   2   1  140.89    7.60
   2   2  -1  163.48    8.00
  -2   2   1  127.19    7.70
   2   2  -1  158.88    7.90
   2   2  -1  137.89    6.80
  -2   2   1  132.99    8.10
   2   2  -1  141.59    7.10
   2   2  -1  145.99    7.40
   2   2  -1  157.28    8.00
   2   2  -1  157.98    7.50
  -2   2   1  134.49    6.70
  -2   2   1  131.99    7.00
   1  -2  -1 1138.69   40.40
  -1  -2   1 1112.89   40.70
  -1  -2   1 1157.18   40.70
   1  -2  -1 1124.59   41.40
   1  -2  -1 1184.48   41.60
   1  -2  -1 1227.98   40.10
   1  -2  -1 1126.79   39.90
   1  -2  -1 1219.08   40.40
  -1  -2   1 1187.28   40.10
   1  -2  -1 1133.39   41.00
  -1  -2   1 1216.68   39.80
  -1  -2   1 1112.19   40.10
  -1  -2   1 1145.79   40.00
  -1   2   1 1262.67   40.70
  -1   2   1 1189.08   41.50
   1   2  -1 1192.78   40.20
  -1   2   1 1228.98   41.00
  -1   2   1 1133.29   39.80
   1   2  -1 1118.29   39.80
   1   2  -1 1197.08   40.20
   1   2  -1 1193.58   40.80
   1   2  -1 1163.98   40.70
  -1   2   1 1188.78   40.00
  -1   2   1 1293.77   40.80
   1   2  -1 1147.89   40.40
   1   2  -1 1175.68   41.40
  -1   2   1 1182.08   41.10
   0  -2   1   84.29    6.10
   0  -2  -1  103.09    5.20
   0  -2  -1   90.09    6.50
   0  -2   1   83.99    6.50
   0  -2  -1   96.09    5.80
   0  -2   1   97.79    5.20
   0  -2  -1  102.39    6.80
   0  -2   1   94.09    5.40
   0  -2   1   83.59    5.80
   0  -2  -1   89.29    5.00
   0  -2   1   93.19    5.00
   0  -2  -1  106.59    5.50
   0   2   1  101.59    6.40
   0   2  -1   88.19    5.80
   0   2  -1   92.49    5.20
   0   2   1   89.49    5.40
   0   2  -1   91.09    5.10
   0   2  -1   79.39    6.00
   0   2   1   99.79    5.80
   0   2   1   91.79    5.20
   0   2  -1   99.29    6.20
   0   2   1   94.69    6.60
   0   2  -1   90.19    6.40
   0   2  -1   93.29    5.50
   0   2   1   92.09    5.10
   0   2   1   90.19    6.40
   1  -2   1   96.19    6.80
  -1  -2  -1  104.39    5.60
   1  -2   1   99.19    6.70
  -1  -2  -1  100.49    5.80
   1  -2   1   93.59    5.70
   1  -2   1   91.49    6.20
   1  -2   1  101.29    5.20
   1  -2   1   98.79    5.40
  -1  -2  -1   90.19    6.30
   1  -2   1   93.69    6.80
  -1  -2  -1  102.09    5.30
   1  -2   1   97.99    6.60
  -1  -2  -1   95.19    6.80
   1   2   1  110.39    6.60
   1   2   1  106.19    5.40
  -1   2  -1  100.79    5.80
   1   2   1  112.49    6.10
  -1   2  -1  101.29    6.90
   1   2   1   97.29    5.60
  -1   2  -1  100.49    5.20
   1   2   1  103.99    6.90
  -1   2  -1  111.29    6.30
  -1   2  -1  112.19    6.70
  -1   2  -1   98.29    5.40
  -1   2  -1  104.59    6.60
   1   2   1   94.29    5.50
   2  -2   1  444.16   16.40
  -2  -2  -1  445.56   16.50
  -2  -2  -1  426.76   16.80
  -2  -2  -1  461.85   16.10
   2  -2   1  431.86   17.10
   2  -2   1  404.86   17.70
   2  -2   1  426.66   18.10
   2  -2   1  460.55   15.90
   2  -2   1  416.36   17.50
  -2  -2  -1  458.45   16.40
   2  -2   1  457.95   16.90
   2   2   1  415.86   16.40
  -2   2  -1  442.76   15.80
  -2   2  -1  442.76   17.30
   2   2   1  442.26   16.50
  -2   2  -1  445.46   16.90
   2   2   1  421.26   16.00
  -2   2  -1  421.46   16.60
   2   2   1  431.06   17.70
   2   2   1  441.06   17.20
  -2   2  -1  450.95   17.80
   2   2   1  415.86   16.30
  -2   2  -1  426.96   16.30
  -2   2  -1  416.96   17.60
  -3  -2  -1  220.48    9.20
   3  -2   1  233.58   10.00
  -3  -2  -1  219.58    9.80
   3  -2   1  228.28    9.60
   3  -2   1  210.98   11.30
  -3  -2  -1  237.08    9.70
   3  -2   1  223.78   11.70
   3  -2   1  224.38   10.50
   3  -2   1  233.08    8.90
  -3  -2  -1  216.38    9.30
   3  -2   1  207.98   10.70
  -3  -2  -1  233.78    9.10
   3   2   1  207.48    9.60
   3   2   1  209.88   10.90
  -3   2  -1  206.98    9.30
  -3   2  -1  227.68   11.10
  -3   2  -1  208.18   10.80
  -3   2  -1  219.78    8.70
   3   2   1  210.88   10.10
   3   2   1  218.88    9.60
  -3   2  -1  207.88   10.30
  -3   2  -1  236.98   10.10
   3   2   1  215.88    9.20
   3   2   1  209.98    9.40
  -3   2  -1  212.18    9.70
  -4  -2  -1  411.46   15.40
   4  -2   1  420.16   16.60
   4  -2   1  394.46   18.40
  -4  -2  -1  414.36   16.00
  -4  -2  -1  426.06   15.60
  -4  -2  -1  434.86   16.50
   4  -2   1  408.46   18.40
   4  -2   1  413.46   16.20
  -4  -2  -1  429.36   15.90
   4  -2   1  410.06   17.00
   4  -2   1  428.86   15.30
   4  -2   1  419.86   17.60
  -4   2  -1  429.16   15.20
  -4   2  -1  417.46   17.80
  -4   2  -1  456.15   17.20
   4   2   1  407.06   16.40
   4   2   1  431.06   16.70
  -4   2  -1  424.16   18.00
  -4   2  -1  447.06   16.50
   4   2   1  417.56   15.70
   4   2   1  404.16   16.00
   4   2   1  409.06   16.00
  -4   2  -1  440.46   16.60
   5  -2   1  138.99    9.70
  -5  -2  -1  129.39    6.40
   5  -2   1  136.29    7.00
   5  -2   1  140.99    7.40
  -5  -2  -1  134.79    7.00
  -5  -2  -1  130.89    5.90
  -5  -2  -1  124.69    6.50
   5  -2   1  133.99    5.90
   5  -2   1  130.89    8.40
   5  -2   1  128.19    7.90
   5  -2   1  125.59    9.10
  -5   2  -1  128.69    7.00
  -5   2  -1  133.99    8.60
   5   2   1  128.19    6.70
   5   2   1  136.19    6.90
   5   2   1  128.39    7.10
   5   2   1  125.19    7.20
  -5   2  -1  133.29    6.60
   5   2   1  128.39    6.40
  -6  -2  -1   70.69    3.60
   6  -2   1   63.29    6.10
   6  -2   1   61.39    6.40
   6  -2   1   70.09    5.30
   6  -2   1   61.69    4.80
   6  -2   1   70.19    3.90
   6  -2   1   68.69    7.10
   6  -2   1   61.19    7.40
  -6  -2  -1   63.69    4.20
  -6  -2  -1   62.59    4.60
   6   2   1   72.19    5.30
   6   2   1   65.39    4.70
  -6   2  -1   62.59    4.40
  -6   2  -1   64.29    4.90
   6   2   1   68.69    4.70
  -6   2  -1   70.79    6.60
   6   2   1   68.39    4.50
   6   2   1   67.99    5.20
   7  -2   1 1310.47   49.20
   7  -2   1 1327.67   46.90
   7  -2   1 1273.87   49.40
   7  -2   1 1262.97   45.10
   7  -2   1 1286.07   46.00
   7  -2   1 1342.97   45.80
   7  -2   1 1280.67   43.40
   7   2   1 1317.77   44.60
  -7   2  -1 1276.17   44.40
   7   2   1 1309.07   44.50
   7   2   1 1333.67   45.20
  -7   2  -1 1277.27   45.20
  -7   2  -1 1302.47   48.00
   7   2   1 1312.87   44.30
   7   2   1 1268.07   45.40
   8  -2   1   34.40    5.00
   8  -2   1   34.90    7.10
   8  -2   1   37.60    4.30
   8  -2   1   44.60    5.70
   8  -2   1   36.40    5.60
   8   2   1   39.40    4.00
   8   2   1   29.80    4.20
   8   2   1   41.20    4.00
  -8   2  -1   37.90    6.30
  -8   2  -1   39.80    4.10
   8   2   1   37.50    3.90
   9  -2   1  451.55   19.00
   9  -2   1  442.66   23.10
   9  -2   1  429.76   19.40
   9   2   1  430.06   16.80
   9   2   1  455.15   18.20
   9   2   1  412.16   16.90
   9   2   1  428.26   16.80
  10  -2   1   53.79    6.60
  10  -2   1   51.79    9.30
  10  -2   1   55.69    7.30
  10   2   1   52.69    4.60
  10   2   1   53.69    4.90
  10   2   1   50.49    5.60
  11  -2   1  123.59    9.70
  11  -2   1  108.89    9.00
  11  -2   1  116.29   13.30
  11  -2   1  118.39    9.70
  11   2   1  109.89    6.60
  11   2   1  122.99    7.20
  11   2   1  126.09   11.00
  11  -3  -1    3.90    6.80
  11  -3  -1    3.60    3.70
  11  -3  -1    2.20    3.90
  11   3  -1   10.60    4.50
  11   3  -1    4.50    2.30
  10  -3  -1   40.90    9.20
  10  -3  -1   47.30    6.90
  10  -3  -1   49.30    7.50
  10   3  -1   52.79    4.80
  10   3  -1   55.69    6.90
  10   3  -1   52.99    4.80
   9  -3  -1  114.99   10.30
   9  -3  -1  142.99   10.00
   9  -3  -1  128.49   12.70
   9   3  -1  170.28   10.10
   9   3  -1  136.49    7.40
   9   3  -1  132.09    7.50
   8  -3  -1  205.48   13.40
   8  -3  -1  225.28   12.80
   8  -3  -1  229.78   15.80
   8   3  -1  225.58   10.40
   8   3  -1  235.28   12.40
   8   3  -1  237.18   11.20
   8   3  -1  232.38   10.50
  -8   3   1  235.78   12.00
   7  -3  -1  660.93   30.00
   7  -3  -1  635.94   26.40
   7  -3  -1  649.43   27.50
   7  -3  -1  653.33   29.50
   7  -3  -1  721.83   26.50
   7  -3  -1  624.24   25.40
   7   3  -1  664.33   26.20
   7   3  -1  664.13   24.70
   7   3  -1  669.03   25.10
  -7   3   1  689.03   28.40
  -7   3   1  657.13   25.50
   7   3  -1  679.63   24.50
  -6  -3   1   26.50    3.20
   6  -3  -1   30.40    3.90
   6  -3  -1   28.40    4.50
   6  -3  -1   34.60    4.20
   6  -3  -1   26.60    5.60
   6  -3  -1   21.70    4.50
   6  -3  -1   26.40    6.20
   6  -3  -1   19.80    6.00
  -6  -3   1   19.80    3.40
  -6   3   1   39.50    6.10
   6   3  -1   20.00    4.10
   6   3  -1   19.90    3.90
  -6   3   1   20.70    3.20
   6   3  -1   20.40    3.50
   6   3  -1   22.30    3.40
   6   3  -1   24.80    4.30
   6   3  -1   23.40    3.80
  -6   3   1   24.20    3.80
   5  -3  -1  151.38   11.30
   5  -3  -1  143.89    9.40
   5  -3  -1  155.48    8.50
   5  -3  -1  148.79   10.40
  -5  -3   1  149.99    7.60
  -5  -3   1  150.68    8.60
   5  -3  -1  174.78    8.30
   5  -3  -1  152.58   11.20
   5  -3  -1  169.58    9.30
  -5   3   1  173.48   10.90
   5   3  -1  157.08    9.40
   5   3  -1  152.58    8.00
   5   3  -1  179.68    9.80
   5   3  -1  167.38    8.90
   5   3  -1  164.38    9.10
  -5   3   1  152.18    8.80
   5   3  -1  165.08    8.50
  -4  -3   1   67.59    6.00
  -4  -3   1   69.99    5.20
   4  -3  -1   67.79    7.70
   4  -3  -1   63.69    7.00
   4  -3  -1   82.49    6.10
   4  -3  -1   85.29    8.00
   4  -3  -1   65.59    6.40
   4  -3  -1   77.29    5.20
   4  -3  -1   78.79    5.50
  -4   3   1   79.99    7.30
   4   3  -1   62.49    5.70
   4   3  -1   72.39    5.60
  -4   3   1   76.29    6.00
   4   3  -1   66.69    5.90
   4   3  -1   75.19    6.60
   4   3  -1   77.19    5.30
  -4   3   1   72.79    5.40
  -4   3   1   78.09    5.20
   4   3  -1   69.29    6.30
   4   3  -1   69.29    6.00
   4   3  -1   89.49    9.00
  -3  -3   1  509.15   21.70
   3  -3  -1  564.64   23.70
   3  -3  -1  577.44   21.00
   3  -3  -1  587.54   21.90
   3  -3  -1  528.55   22.80
   3  -3  -1  528.45   23.50
  -3  -3   1  529.65   20.80
   3  -3  -1  546.35   21.10
   3  -3  -1  554.74   22.10
   3   3  -1  530.85   20.70
  -3   3   1  594.14   22.40
   3   3  -1  553.04   22.20
  -3   3   1  541.05   21.60
   3   3  -1  553.24   21.60
   3   3  -1  565.64   21.70
  -3   3   1  553.64   20.80
   3   3  -1  581.24   21.40
  -3   3   1  564.94   23.40
   3   3  -1  540.95   21.50
   3   3  -1  548.55   22.50
  -3   3   1  554.54   21.00
   2  -3  -1  339.77   13.80
  -2  -3   1  321.17   14.40
  -2  -3   1  296.47   14.10
   2  -3  -1  300.07   13.00
  -2  -3   1  297.97   13.10
   2  -3  -1  316.27   13.10
  -2  -3   1  284.17   14.10
   2  -3  -1  300.07   15.20
   2  -3  -1  300.87   13.80
   2  -3  -1  291.97   14.60
   2  -3  -1  310.77   15.20
   2   3  -1  301.07   14.30
  -2   3   1  287.07   14.80
   2   3  -1  294.87   14.10
   2   3  -1  301.07   15.10
  -2   3   1  311.17   14.00
  -2   3   1  321.37   13.10
  -2   3   1  307.77   12.80
   2   3  -1  305.87   13.30
  -2   3   1  299.87   13.40
   2   3  -1  311.27   13.80
   2   3  -1  306.27   12.90
   1  -3  -1  183.78   10.90
   1  -3  -1  173.78    9.70
   1  -3  -1  186.78    8.70
   1  -3  -1  180.08    9.30
  -1  -3   1  179.48   10.10
   1  -3  -1  174.58   10.50
   1  -3  -1  165.58    9.30
  -1  -3   1  172.38    9.20
  -1  -3   1  169.08    8.30
  -1  -3   1  158.28   10.00
   1   3  -1  178.18   10.20
  -1   3   1  181.78    8.60
   1   3  -1  168.28    8.50
   1   3  -1  170.28    9.00
  -1   3   1  169.78    8.50
   1   3  -1  162.48   10.30
  -1   3   1  166.98   10.50
  -1   3   1  166.08    8.90
  -1   3   1  170.88   10.40
   1   3  -1  150.48    8.40
   1   3  -1  156.68    9.40
  -1   3   1  194.58   10.80
  -1   3   1  218.58   14.00
   1   3  -1  164.38    9.90
  -1   3   1  148.59    9.60
   0  -3   1   53.89    6.30
   0  -3   1   56.69    6.60
   0  -3  -1   55.79    6.30
   0  -3  -1   63.09    5.60
   0  -3  -1   57.69    6.60
   0  -3   1   52.89    5.50
   0  -3   1   68.19    5.00
   0  -3   1   62.99    4.70
   0  -3  -1   67.19    4.80
   0   3   1   44.50    6.30
   0   3  -1   65.19    4.90
   0   3   1   66.79    5.00
   0   3   1   60.59    4.80
   0   3  -1   63.89    6.30
   0   3  -1   51.89    5.00
   0   3   1   68.29    5.50
   0   3  -1   59.39    6.10
   0   3  -1   66.89    5.10
   0   3   1   60.29    6.10
   0   3   1   50.69    6.40
   0   3   1   51.79    5.50
   0   3   1   67.59    6.60
   0   3  -1   65.39    5.90
   0   3   1   64.99    6.00
   0   3  -1   58.39    6.30
  -1  -3  -1  408.56   15.60
   1  -3   1  388.16   15.40
   1  -3   1  384.46   15.60
   1  -3   1  376.86   16.40
   1  -3   1  386.76   17.90
   1  -3   1  357.86   17.20
  -1  -3  -1  404.46   17.20
  -1  -3  -1  381.46   16.00
  -1  -3  -1  410.16   17.80
   1  -3   1  391.06   17.60
   1   3   1  417.96   18.10
  -1   3  -1  378.76   16.10
   1   3   1  397.46   16.40
  -1   3  -1  386.06   15.60
   1   3   1  382.66   15.90
   1   3   1  386.46   16.00
  -1   3  -1  382.46   17.20
   1   3   1  383.96   15.50
   1   3   1  372.66   17.70
  -1   3  -1  389.26   15.40
  -1   3  -1  390.66   16.60
   1   3   1  385.56   17.10
  -1   3  -1  372.66   17.60
  -1   3  -1  389.46   18.20
  -2  -3  -1   24.60    3.50
   2  -3   1   18.70    4.50
  -2  -3  -1   14.30    3.80
   2  -3   1   22.50    4.10
   2  -3   1   18.00    4.50
   2  -3   1   19.80    3.70
   2  -3   1   27.90    4.20
   2  -3   1   26.80    3.10
   2  -3   1   20.40    3.10
   2  -3   1   19.70    4.60
   2   3   1   26.80    3.80
  -2   3  -1   22.70    3.90
  -2   3  -1   28.20    5.10
   2   3   1   14.90    3.00
   2   3   1   21.20    4.10
  -2   3  -1   26.20    3.40
  -2   3  -1   27.80    4.30
  -2   3  -1   17.00    6.40
  -2   3  -1   22.40    3.20
   2   3   1   21.40    3.20
   2   3   1   25.00    3.70
   3  -3   1   79.59    5.20
  -3  -3  -1  116.99    7.50
   3  -3   1   77.59    7.80
   3  -3   1   79.09    6.80
   3  -3   1   81.29    5.90
   3  -3   1   73.69    7.70
   3  -3   1   81.19    6.30
   3  -3   1   67.09    6.80
   3  -3   1   78.49    7.60
  -3  -3  -1   97.79    6.00
  -3   3  -1   80.39    6.20
  -3   3  -1   82.19    6.80
   3   3   1   82.79    5.70
   3   3   1   80.09    5.90
  -3   3  -1   71.79    5.10
  -3   3  -1   68.69    5.40
   3   3   1   87.59    6.30
   3   3   1   79.89    6.90
   3   3   1   79.39    6.10
  -3   3  -1   74.09    7.20
   4  -3   1  102.69    8.70
  -4  -3  -1  113.79    6.70
   4  -3   1  135.19   10.10
   4  -3   1  117.99    6.40
   4  -3   1  115.49    8.40
   4  -3   1  121.39    7.30
   4  -3   1  118.69    8.90
   4  -3   1  125.39    9.80
  -4  -3  -1  118.29    7.60
   4  -3   1  117.79    7.70
  -4   3  -1  140.89    8.10
   4   3   1  119.39    7.50
   4   3   1  126.69    8.30
  -4   3  -1  117.09    6.40
  -4   3  -1  124.89    7.20
  -4   3  -1  123.69    9.10
   4   3   1  127.29    7.60
   4   3   1  116.89    6.90
   4   3   1  130.69    7.60
   5  -3   1  149.79    7.20
  -5  -3  -1  133.69    7.10
   5  -3   1  149.39    8.70
   5  -3   1  124.49   10.60
   5  -3   1  148.19   11.10
   5  -3   1  117.79    9.60
   5  -3   1  147.09    8.10
   5  -3   1  140.99    9.40
   5  -3   1  128.89    9.70
  -5  -3  -1  150.68    8.10
   5   3   1  131.49    8.00
   5   3   1  137.49    8.30
  -5   3  -1  127.89    9.50
  -5   3  -1  134.79    7.60
   5   3   1  138.79    8.90
   5   3   1  140.29    7.60
  -5   3  -1  135.49    8.30
  -5   3  -1  133.09    6.90
   5   3   1  131.99    7.90
   6  -3   1   81.99    5.10
   6  -3   1   93.59    7.00
   6  -3   1   84.09    7.80
  -6  -3  -1   78.99    5.10
   6  -3   1   69.79    8.90
   6  -3   1   80.49    9.00
   6  -3   1   73.69    6.10
   6  -3   1   74.79    7.90
   6  -3   1   57.99    7.50
  -6  -3  -1   86.99    6.00
  -6   3  -1   73.79    6.30
  -6   3  -1   80.29    5.90
   6   3   1   73.19    6.10
   6   3   1   81.49    7.00
  -6   3  -1   70.29    7.60
   6   3   1   70.29    5.60
   6   3   1   84.99    6.30
   6   3   1   82.99    6.50
   7  -3   1   82.79    9.00
   7  -3   1   97.59    8.50
   7  -3   1   92.49    7.30
   7  -3   1   87.99    8.80
   7  -3   1  101.09   10.60
   7   3   1   97.39    6.90
  -7   3  -1   91.09    6.80
   7   3   1   99.49    7.60
   7   3   1   83.39    6.10
  -7   3  -1   94.29    8.90
   7   3   1  100.79    6.80
   8  -3   1   82.79    9.00
   8  -3   1   94.89   10.90
   8  -3   1   82.59    8.40
   8  -3   1   82.19    9.10
   8   3   1   80.59    6.00
   8   3   1   85.99    7.00
   8   3   1   75.89    6.20
   9  -3   1   50.49    7.40
   9  -3   1   63.89    7.90
   9  -3   1   58.09    9.90
   9   3   1   55.89    5.50
   9   3   1   50.19    5.20
   9   3   1   61.29    6.70
  10  -3   1  166.48   15.60
  10  -3   1  157.68   11.70
  10  -3   1  153.68   12.20
  10   3   1  166.08   10.50
  10   3   1  164.88    8.90
  10   3   1  159.28    8.80
  11  -3   1   15.00    5.70
  11   3   1   18.10    3.60
  11   3   1   21.80    5.00
  10  -4  -1   22.40    6.10
  10  -4  -1   20.70    6.60
  10   4  -1   25.70    5.80
  10   4  -1   23.10    4.10
   9  -4  -1    6.70    6.30
   9  -4  -1    4.20    5.00
   9  -4  -1    1.80    4.00
   9   4  -1    7.20    4.30
   9   4  -1    7.90    3.10
   9   4  -1    8.30    3.00
   8  -4  -1  184.48   12.60
   8  -4  -1  164.08   15.30
   8  -4  -1  206.98   14.10
   8   4  -1  176.08   12.10
   8   4  -1  179.58   10.40
   8   4  -1  188.08   10.10
   7  -4  -1   18.60    5.10
   7  -4  -1    3.70    4.40
   7  -4  -1   12.20    6.30
   7   4  -1   15.10    3.50
  -7   4   1   19.20    4.40
   7   4  -1   15.00    3.80
   7   4  -1   10.80    4.40
   6  -4  -1   21.50    5.10
   6  -4  -1    9.70    5.00
   6  -4  -1   11.30    5.90
   6   4  -1   18.50    4.00
   6   4  -1   16.20    3.70
  -6   4   1   14.20    3.90
   6   4  -1   17.20    5.00
   5  -4  -1  117.89   11.60
   5  -4  -1  146.19   11.40
  -5  -4   1  131.19    9.10
   5  -4  -1  149.39   10.20
  -5   4   1  144.29    9.40
  -5   4   1  134.09    8.20
  -5   4   1  121.29   10.90
   5   4  -1  135.79    9.20
   5   4  -1  119.59    8.10
   5   4  -1  121.39    8.60
   4  -4  -1   65.69    6.10
   4  -4  -1   67.49    9.60
  -4  -4   1   62.89    6.90
   4  -4  -1   62.69    7.60
   4  -4  -1   72.29    9.00
   4  -4  -1   59.69    8.20
  -4   4   1   56.59    5.60
   4   4  -1   58.99    6.30
  -4   4   1   59.49    8.20
   4   4  -1   55.49    5.80
  -4   4   1   57.79    6.40
   4   4  -1   51.29    6.00
   4   4  -1   65.19    7.60
   4   4  -1   55.49    6.90
  -4   4   1   53.09    5.50
   3  -4  -1  122.19   10.50
   3  -4  -1  133.79    8.30
   3  -4  -1  102.59   10.60
   3  -4  -1  133.39   10.90
  -3  -4   1  120.69    9.40
   3  -4  -1  130.19    9.60
   3   4  -1  124.39    8.00
  -3   4   1  121.29    8.00
   3   4  -1  125.39    8.50
  -3   4   1  120.09    7.80
   3   4  -1  134.69    9.40
  -3   4   1  126.29    8.70
  -3   4   1  123.19   10.30
   3   4  -1  116.89    8.50
   3   4  -1  122.59   10.60
   2  -4  -1   56.79    5.50
   2  -4  -1   63.49    8.20
   2  -4  -1   80.29    9.10
  -2  -4   1   52.29    5.90
   2  -4  -1   55.19    6.60
  -2  -4   1   41.80    6.40
   2   4  -1   54.69    5.70
  -2   4   1   57.59    8.20
   2   4  -1   59.69    5.80
  -2   4   1   46.60    5.50
  -2   4   1   54.59    5.70
   2   4  -1   56.89    6.30
   2   4  -1   59.69    7.10
  -2   4   1   55.69    6.40
   2   4  -1   61.99    8.40
  -1  -4   1   57.79    6.30
   1  -4  -1   62.99    6.90
  -1  -4   1   52.69    7.10
   1  -4  -1   65.09    8.70
   1  -4  -1   54.79    7.40
   1  -4  -1   55.99    5.40
  -1  -4   1   49.99    7.30
   1   4  -1   56.59    6.20
   1   4  -1   44.30    5.60
  -1   4   1   54.59    8.30
  -1   4   1   61.59    7.20
   1   4  -1   65.29    8.50
  -1   4   1   59.19    5.80
  -1   4   1   44.60    5.40
   1   4  -1   55.49    7.00
   1   4  -1   57.39    5.60
  -1   4   1   52.59    6.10
   0  -4   1  132.49   10.80
   0  -4  -1  137.79   11.10
   0  -4  -1  151.08   10.80
   0  -4   1  132.09   11.10
   0  -4   1  133.99    9.30
   0  -4  -1  136.99    9.20
   0   4   1  138.19    9.10
   0   4   1  144.99    8.70
   0   4   1  148.59   10.60
   0   4   1  139.19   11.40
   0   4  -1  145.09    8.70
   0   4   1  158.58    8.70
   0   4  -1  141.49    8.60
   0   4  -1  147.89   11.00
   0   4  -1  128.19    9.80
   0   4  -1  136.39    9.10
   1  -4   1  202.98   13.50
   1  -4   1  198.18   11.60
  -1  -4  -1  229.68   12.90
  -1  -4  -1  210.08   13.30
  -1  -4  -1  214.68   11.30
   1  -4   1  243.28   14.20
   1  -4   1  198.48   12.90
   1   4   1  207.08   11.00
  -1   4  -1  196.68   13.00
   1   4   1  201.38   10.50
   1   4   1  194.88   11.00
   1   4   1  169.18   12.90
  -1   4  -1  211.68   12.10
   1   4   1  196.68   11.90
  -1   4  -1  196.98   11.30
  -1   4  -1  181.48   10.10
  -1   4  -1  206.08   10.80
   2  -4   1   10.10    4.90
  -2  -4  -1   37.70    5.90
  -2  -4  -1   14.00    3.60
   2  -4   1   15.20    5.30
   2  -4   1   29.80    4.50
   2  -4   1   14.20    4.40
   2  -4   1   21.50    5.90
   2   4   1   23.30    5.70
  -2   4  -1   16.80    3.70
   2   4   1   21.10    4.50
  -2   4  -1   12.00    4.00
   2   4   1   16.60    4.10
   2   4   1   21.90    3.90
   2   4   1   14.00    3.80
  -2   4  -1   15.80    3.70
  -2   4  -1   19.80    5.40
   2   4   1   13.20    3.70
   3  -4   1   18.50    5.40
   3  -4   1   12.30    5.60
   3  -4   1   10.10    4.20
   3  -4   1   21.30    3.90
   3  -4   1   18.20    5.50
  -3  -4  -1   22.00    4.80
  -3   4  -1   21.80    4.10
   3   4   1   20.80    4.70
  -3   4  -1   14.40    3.50
   3   4   1   19.90    3.90
   3   4   1   19.50    4.20
   3   4   1   17.40    4.20
  -3   4  -1   21.70    4.60
  -3   4  -1   33.00    6.30
  -4  -4  -1   55.79    6.80
   4  -4   1   50.09    8.20
   4  -4   1   44.70    6.60
   4  -4   1   45.30    7.10
   4  -4   1   47.00    6.80
  -4   4  -1   53.69    5.10
   4   4   1   71.09    9.70
  -4   4  -1   47.40    6.40
   4   4   1   47.00    6.00
   4   4   1   51.69    5.80
  -4   4  -1   58.99    7.70
  -4   4  -1   46.00    5.30
   4   4   1   52.59    6.30
   5  -4   1   86.99   10.40
  -5  -4  -1  101.69    8.00
   5  -4   1   87.19    8.80
   5  -4   1   79.29    9.80
   5   4   1   83.99    7.50
  -5   4  -1  101.99    6.60
  -5   4  -1   81.39    7.70
   5   4   1   96.09    7.20
   5   4   1   94.89    7.80
   6  -4   1   92.99   10.30
   6  -4   1   72.79   10.40
   6  -4   1   91.89    9.00
   6   4   1   95.59    7.70
  -6   4  -1   89.99    7.90
   6   4   1   89.09    7.20
   6   4   1   89.59    7.90
   7  -4   1  167.68   12.10
   7  -4   1  173.58   14.70
   7  -4   1  178.38   13.40
  -7   4  -1  167.28   10.70
   7   4   1  150.98    9.50
   7   4   1  173.88   10.20
   7   4   1  175.28   11.10
   8  -4   1   95.89   13.50
   8  -4   1   84.49   10.70
   8  -4   1   75.69    9.20
   8   4   1  104.99    8.70
   8   4   1   72.69    6.80
   8   4   1   82.69    7.30
   9  -4   1   12.20    5.90
   9  -4   1   18.30    8.00
   9  -4   1   20.40    5.60
   9   4   1   11.30    3.70
   9   4   1   14.40    5.10
   9   4   1    9.70    3.40
   7  -5  -1   33.60    7.30
   7  -5  -1   24.50    7.40
   7  -5  -1   18.90    7.90
   7   5  -1   25.40    6.60
   7   5  -1   32.30    5.60
   7   5  -1   30.20    5.10
   6  -5  -1    7.60    5.20
   6  -5  -1   10.00    6.00
   6  -5  -1   24.10    8.40
   6   5  -1   20.00    4.70
   6   5  -1   14.00    5.20
  -6   5   1   17.10    4.60
   6   5  -1   22.50    5.00
   5  -5  -1  225.68   14.70
   5  -5  -1  202.38   17.10
   5  -5  -1  267.97   17.00
  -5   5   1  227.58   12.50
   5   5  -1  225.08   12.80
   5   5  -1  236.58   13.70
   5   5  -1  240.58   14.00
  -5   5   1  249.58   14.20
   4  -5  -1   22.70    5.70
   4  -5  -1   18.70    6.30
   4  -5  -1   26.70    7.80
  -4  -5   1   26.70    5.90
  -4   5   1   14.40    4.70
   4   5  -1   18.70    5.10
   4   5  -1   21.90    4.70
  -4   5   1   19.40    4.60
   4   5  -1   23.80    5.10
   3  -5  -1  271.97   15.40
  -3  -5   1  293.07   16.10
   3  -5  -1  277.07   17.20
   3  -5  -1  258.17   17.80
   3   5  -1  254.97   14.30
   3   5  -1  284.07   14.90
   3   5  -1  250.57   13.70
  -3   5   1  255.87   14.70
  -3   5   1  256.97   13.70
   2  -5  -1   27.80    6.90
   2  -5  -1   13.80    4.50
   2  -5  -1   19.70    7.00
  -2  -5   1   19.00    5.80
  -2   5   1   12.60    4.10
  -2   5   1   17.10    4.20
   2   5  -1   15.40    4.90
   2   5  -1   23.40    4.60
  -2   5   1   25.10    5.50
   2   5  -1   20.80    5.00
  -1  -5   1   48.80    7.80
   1  -5  -1   66.59   10.20
  -1  -5   1   45.30    8.30
   1  -5  -1   59.49    9.30
   1  -5  -1   77.09   10.00
  -1   5   1   69.39    7.00
  -1   5   1   73.89    8.00
   1   5  -1   62.29    6.90
   1   5  -1   75.39    7.90
  -1   5   1   63.79    6.90
   1   5  -1   64.39    6.90
   0  -5  -1  192.18   14.70
   0  -5  -1  195.98   14.20
   0  -5   1  232.48   15.30
   0  -5   1  209.38   14.90
   0   5   1  204.98   12.60
   0   5  -1  207.98   11.90
   0   5   1  207.38   11.90
   0   5  -1  203.58   11.90
   0   5   1  189.48   12.10
   0   5  -1  215.58   12.90
   1  -5   1   96.29   11.10
  -1  -5  -1  112.39   10.90
  -1  -5  -1  108.69   11.60
   1  -5   1  100.69   11.90
  -1   5  -1  105.99    8.60
   1   5   1  108.29    8.60
   1   5   1  107.19    9.40
  -1   5  -1  131.29   10.00
   1   5   1  116.29    9.10
  -1   5  -1  117.69    8.80
   2  -5   1   82.29    9.10
   2  -5   1  101.89   12.20
  -2  -5  -1  106.99   10.20
   2  -5   1   96.49   11.30
   2   5   1   90.49    8.40
  -2   5  -1   84.89    8.70
  -2   5  -1   76.69    7.10
  -2   5  -1  104.99    8.70
   2   5   1  105.29    9.00
   2   5   1   93.39    8.10
  -3  -5  -1   77.09    9.00
   3  -5   1   49.80    9.00
   3  -5   1   44.30    7.20
   3  -5   1   43.30    8.30
  -3   5  -1   45.20    6.70
   3   5   1   55.69    7.30
  -3   5  -1   51.09    6.10
   3   5   1   36.50    5.70
   3   5   1   37.50    6.10
   4  -5   1   78.29    9.50
   4  -5   1   77.69   10.70
  -4  -5  -1   82.69   10.20
   4  -5   1   83.19   12.00
   4   5   1   84.09    8.80
   4   5   1   93.09    8.90
  -4   5  -1   84.89    7.30
   4   5   1   86.09    7.90
  -4   5  -1   85.19    8.90
   5  -5   1   27.20    7.10
   5  -5   1   34.40    9.10
   5  -5   1   27.70    6.60
  -5   5  -1   38.10    6.20
  -5   5  -1   30.60    5.00
   5   5   1   28.70    5.30
   5   5   1   34.10    5.90
   5   5   1   36.10    6.30
   6  -5   1    1.60    5.20
   6  -5   1    0.40    6.00
   6  -5   1    1.30    4.60
  -6   5  -1    3.10    3.60
   6   5   1   11.90    4.20
   6   5   1   -3.60    3.70
   6   5   1   14.00    4.60
   7  -5   1   66.79    9.20
   7  -5   1   64.59   10.40
   7  -5   1   46.50   10.70
   7   5   1   58.39    8.40
   7   5   1   64.99    8.00
   7   5   1   63.39    7.20
   3  -6  -1    6.50    6.50
   3  -6  -1    1.90    7.50
   3   6  -1    0.70    3.80
  -3   6   1    3.30    4.50
  -3   6   1    4.40    4.20
   3   6  -1   12.40    8.50
   2  -6  -1   33.20    8.70
   2  -6  -1   56.09    9.80
  -2  -6   1   59.49    9.40
  -2   6   1   59.19    7.80
   2   6  -1   52.19    7.10
  -2   6   1   61.19    8.70
   2   6  -1   37.80    6.70
   2   6  -1   58.79    8.20
  -1  -6   1   61.69   10.00
   1  -6  -1   35.20    8.60
  -1  -6   1   54.49    9.20
   1  -6  -1   62.99    9.80
  -1   6   1   48.90    7.80
   1   6  -1   59.39    8.00
   1   6  -1   61.59    8.70
  -1   6   1   71.69    9.20
   1   6  -1   61.99    8.80
   0  -6   1   19.30    7.00
   0  -6  -1   32.80    7.80
   0  -6   1   15.80    7.00
   0  -6  -1   34.40    8.50
   0   6   1   21.20    6.10
   0   6  -1   32.40    6.90
   0   6   1   18.60    6.00
   0   6  -1   33.00    6.00
   1  -6   1   27.50    8.10
  -1  -6  -1   52.79    8.80
   1  -6   1   23.70    7.50
   1   6   1   25.90    5.80
  -1   6  -1   25.10    6.00
   1   6   1   27.80    6.50
   1   6   1   34.80    7.00
  -1   6  -1   40.30    7.00
   2  -6   1   88.79   12.60
   2  -6   1   78.19   11.30
  -2  -6  -1   74.39   10.00
   2   6   1   69.99    9.30
   2   6   1   67.09    9.20
  -2   6  -1   85.69    9.70
   2   6   1   89.89    9.20
   3  -6   1   40.30    9.20
   3  -6   1   50.09   11.00
  -3   6  -1   60.79    9.00
   3   6   1   44.20    6.90
  -3   6  -1   54.19    7.10
  13   0  -2   57.79   10.40
  12   0  -2   86.89   10.80
  11   0  -2   -1.10    3.90
  11   0  -2    1.60    2.20
  10   0  -2  290.27   12.80
  10   0  -2  316.77   16.10
  10   0  -2  280.97   16.30
   9   0  -2  842.92   31.80
   9   0  -2  792.62   28.70
   9   0  -2  745.03   31.80
   8   0  -2  410.06   17.40
   8   0  -2  355.56   17.60
   7   0  -2  340.97   15.80
   7   0  -2  348.57   15.20
   6   0  -2   31.90    3.80
   6   0  -2   29.80    4.40
   5   0  -2   32.80    4.20
   5   0  -2   49.99    4.10
   4   0  -2  103.79    6.00
   4   0  -2  110.79    5.60
   3   0  -2  230.88    7.80
   3   0  -2  233.78    9.30
   3   0  -2  224.08    8.80
  -3   0   2  218.28    8.80
   3   0  -2  222.98    7.70
   2   0  -2 9683.63  309.27
  -2   0   2 9168.28  309.77
  -2   0   2 9614.84  309.27
   2   0  -2 9999.00  308.67
  -2   0   2 9610.04  308.17
   2   0  -2 8891.91  308.47
   2   0  -2 9596.84  308.87
  -2   0   2 9363.66  308.37
   2   0  -2 9449.05  309.67
   2   0  -2 9905.01  310.77
   1   0  -2  658.23   21.80
   1   0  -2  614.74   21.70
  -1   0   2  635.84   21.70
  -1   0   2  647.54   21.60
   1   0  -2  652.93   21.60
   1   0  -2  649.14   21.60
  -1   0   2  646.64   21.80
  -1   0   2  645.14   21.60
  -1   0   2  727.33   21.80
   0   0   2   51.49    2.90
   0   0   2   48.00    2.40
   0   0  -2   63.69    2.90
   0   0  -2   55.39    2.70
   0   0   2   53.39    2.90
   0   0  -2   51.89    2.80
   0   0  -2   60.29    2.80
   0   0   2   56.29    2.80
  -1   0  -2 2899.21   95.09
   1   0   2 3092.99   95.89
  -1   0  -2 2897.01   95.79
   1   0   2 2933.11   95.79
   1   0   2 3008.00   95.69
  -1   0  -2 2921.11   95.69
  -1   0  -2 2882.11   95.79
   1   0   2 2914.71   95.69
   1   0   2 2925.51   95.99
  -2   0  -2    0.00    0.90
   2   0   2    0.40    1.20
   2   0   2    0.30    0.60
  -2   0  -2   -1.10    1.00
  -2   0  -2    0.00    1.20
   2   0   2   -0.20    1.00
   2   0   2   -0.80    1.30
  -2   0  -2    0.40    1.10
   2   0   2    2.20    1.70
  -2   0  -2    0.50    0.60
   2   0   2    0.50    1.20
   3   0   2 1286.67   44.40
   3   0   2 1362.96   44.80
  -3   0  -2 1384.76   44.40
  -3   0  -2 1342.27   44.30
   3   0   2 1356.16   44.70
   3   0   2 1289.47   43.60
   3   0   2 1304.67   44.50
  -3   0  -2 1366.06   44.70
   3   0   2 1366.66   45.90
  -3   0  -2 1344.07   44.60
  -4   0  -2   34.20    2.90
   4   0   2   36.10    3.10
  -4   0  -2   38.40    2.60
  -4   0  -2   38.60    3.00
   4   0   2   33.60    3.20
   4   0   2   40.20    2.90
  -4   0  -2   33.50    2.60
   4   0   2   37.10    4.20
   4   0   2   34.60    3.20
   4   0   2   35.70    2.10
  -5   0  -2   22.10    2.50
  -5   0  -2   21.60    2.40
   5   0   2   25.00    2.60
   5   0   2   24.80    2.90
  -5   0  -2   22.40    2.20
   5   0   2   21.10    1.80
  -5   0  -2   26.00    2.20
   5   0   2   22.80    2.90
   5   0   2   24.70    3.90
   5   0   2   24.00    2.70
   6   0   2  326.87   12.90
   6   0   2  330.77   15.30
  -6   0  -2  319.87   12.60
   6   0   2  345.97   13.20
   6   0   2  321.87   11.90
   6   0   2  342.17   12.80
  -6   0  -2  351.86   12.80
   6   0   2  345.57   13.20
  -6   0  -2  332.17   12.10
   7   0   2    0.70    1.80
   7   0   2    1.10    1.90
   7   0   2   -0.90    1.30
   7   0   2   -0.40    1.40
  -7   0  -2   -0.80    0.80
  -7   0  -2    1.20    1.10
   7   0   2   -0.10    1.00
  -7   0  -2   -0.80    1.10
   7   0   2   -0.20    2.40
   8   0   2  593.54   21.70
   8   0   2  610.54   22.30
   8   0   2  627.34   25.80
   8   0   2  601.74   21.90
   8   0   2  593.54   22.00
   8   0   2  563.04   20.70
   9   0   2   19.40    3.40
   9   0   2   12.60    3.20
   9   0   2   16.40    2.70
   9   0   2   17.90    2.30
  10   0   2  171.98    9.00
  10   0   2  164.08    8.50
  10   0   2  172.08    9.20
  11   0   2   50.29    5.80
  11   0   2   46.70    5.50
  12   0   2  166.78    9.60
  12   0   2  165.78    9.70
  12   0   2  171.48   15.10
  13  -1  -2    9.30    3.20
  13  -1  -2   14.80    7.00
  13   1  -2    9.50    5.60
  12  -1  -2   76.29    5.90
  12  -1  -2   84.69   11.10
  12   1  -2   80.69    6.70
  12   1  -2   79.09    9.80
  11  -1  -2  106.69    6.80
  11  -1  -2   94.99    6.20
  11  -1  -2   84.79    5.30
  11  -1  -2   87.09   10.60
  11   1  -2   86.19    6.80
  10  -1  -2   91.69    9.80
  10  -1  -2   81.79    4.90
  10  -1  -2   78.39    5.80
  10  -1  -2   81.49    6.00
  10   1  -2   74.69    6.20
   9  -1  -2  302.57   15.50
   9  -1  -2  289.27   12.20
   9  -1  -2  310.97   12.50
   9  -1  -2  286.87   11.50
   9  -1  -2  299.57   16.60
   9  -1  -2  268.97   11.30
  -9   1   2  277.47   14.80
   9   1  -2  286.57   14.80
   9   1  -2  285.87   12.90
   8  -1  -2  159.48    7.10
   8  -1  -2  146.89    6.90
   8  -1  -2  162.78    8.00
   8  -1  -2  163.78   10.10
   8  -1  -2  159.18   11.10
   8  -1  -2  163.28    7.80
  -8   1   2  164.28    6.50
   8   1  -2  154.88    9.40
   8   1  -2  149.49    8.20
  -8   1   2  150.58    6.30
  -8   1   2  147.69    9.50
   7  -1  -2   72.59    5.00
   7  -1  -2   70.39    4.80
   7  -1  -2   66.99    4.10
   7  -1  -2   61.29    3.90
   7  -1  -2   67.89    7.10
   7  -1  -2   80.39    6.50
   7   1  -2   65.39    4.80
   7   1  -2   80.19    6.20
  -7   1   2   70.49    4.00
  -7   1   2   65.19    3.50
  -7   1   2   79.79    6.20
   6  -1  -2   66.09    3.90
   6  -1  -2   77.89    6.00
   6  -1  -2   69.79    4.10
   6  -1  -2   67.59    4.90
   6  -1  -2   71.69    6.60
   6  -1  -2   70.39    4.60
  -6   1   2   73.09    5.50
  -6   1   2   76.19    4.40
   6   1  -2   66.29    4.60
   5  -1  -2  173.58    7.50
   5  -1  -2  160.98    7.20
   5  -1  -2  193.78    9.30
   5  -1  -2  181.88    8.20
   5  -1  -2  180.08    9.90
   5  -1  -2  176.38    7.80
   5   1  -2  183.88    8.10
  -5   1   2  195.28    9.00
   5   1  -2  171.08    6.90
  -5   1   2  169.28    6.80
  -5   1   2  172.88    7.20
  -5   1   2  194.58    7.90
   5   1  -2  180.38    6.50
  -5   1   2  180.18    7.10
  -4  -1   2  650.93   21.60
   4  -1  -2  628.64   22.40
   4  -1  -2  694.83   24.20
   4  -1  -2  632.74   23.10
   4  -1  -2  652.03   22.70
   4  -1  -2  636.14   22.80
   4  -1  -2  674.43   24.80
  -4  -1   2  613.74   21.70
   4   1  -2  648.94   22.00
  -4   1   2  642.84   22.20
  -4   1   2  672.63   22.50
   4   1  -2  673.83   23.30
  -4   1   2  626.94   22.40
  -4   1   2  655.83   24.40
   4   1  -2  666.63   21.90
   4   1  -2  654.23   21.80
  -4   1   2  687.73   23.90
   4   1  -2  641.14   22.20
  -4   1   2  693.03   23.10
   3  -1  -2 1362.46   44.90
  -3  -1   2 1286.97   42.60
   3  -1  -2 1291.07   43.30
   3  -1  -2 1391.36   44.40
  -3  -1   2 1237.88   42.40
   3  -1  -2 1350.36   43.30
  -3  -1   2 1347.47   42.40
   3  -1  -2 1249.47   43.00
   3  -1  -2 1318.07   43.70
   3  -1  -2 1261.27   43.20
   3   1  -2 1288.97   42.80
   3   1  -2 1267.97   42.70
   3   1  -2 1246.78   43.60
  -3   1   2 1240.98   43.10
  -3   1   2 1289.67   43.60
  -3   1   2 1288.47   42.90
  -3   1   2 1310.97   44.70
   3   1  -2 1245.28   42.60
  -3   1   2 1333.17   43.70
  -3   1   2 1280.77   44.00
  -3   1   2 1374.06   43.30
   3   1  -2 1281.37   43.00
   2  -1  -2   87.19    4.90
   2  -1  -2   70.59    4.80
   2  -1  -2   80.19    4.40
  -2  -1   2   84.59    3.60
   2  -1  -2   76.39    5.30
  -2  -1   2   73.09    4.40
   2  -1  -2   79.89    4.20
   2  -1  -2   79.09    3.90
  -2  -1   2   75.39    4.10
   2  -1  -2   80.69    4.00
  -2  -1   2   81.19    3.80
   2   1  -2   72.79    4.10
  -2   1   2   69.59    4.80
   2   1  -2   74.89    4.20
   2   1  -2   81.39    3.90
   2   1  -2   72.89    3.60
  -2   1   2   79.19    4.40
  -2   1   2   72.99    4.80
   2   1  -2   72.39    4.10
  -2   1   2   77.79    5.40
  -2   1   2   72.19    4.10
   1  -1  -2 1712.33   53.09
  -1  -1   2 1576.74   51.89
   1  -1  -2 1540.25   51.99
  -1  -1   2 1599.64   51.69
  -1  -1   2 1435.56   51.89
   1  -1  -2 1541.75   52.39
  -1  -1   2 1497.85   52.19
   1  -1  -2 1581.24   51.89
   1  -1  -2 1608.94   52.09
  -1  -1   2 1556.44   51.59
   1  -1  -2 1576.84   52.09
  -1   1   2 1667.83   52.69
  -1   1   2 1640.44   53.09
   1   1  -2 1567.84   51.99
   1   1  -2 1595.74   52.39
   1   1  -2 1572.04   51.99
  -1   1   2 1593.14   52.49
   1   1  -2 1518.45   52.09
  -1   1   2 1547.65   51.99
   1   1  -2 1561.74   51.89
   1   1  -2 1585.24   51.79
  -1   1   2 1505.65   51.89
   1   1  -2 1642.04   51.69
  -1   1   2 1581.04   51.79
  -1   1   2 1535.05   52.09
   0  -1   2 5388.66  181.78
   0  -1  -2 5441.36  181.68
   0  -1   2 5666.33  182.08
   0  -1  -2 5827.52  182.58
   0  -1  -2 5417.26  181.58
   0  -1  -2 5651.33  182.08
   0  -1  -2 5487.45  181.58
   0  -1  -2 5620.64  181.78
   0  -1   2 5421.16  181.58
   0  -1   2 5702.53  181.58
   0  -1   2 5456.85  181.38
   0  -1   2 5682.73  182.28
   0   1  -2 5535.45  181.58
   0   1  -2 5803.22  182.18
   0   1   2 5532.65  181.78
   0   1   2 5658.83  181.78
   0   1  -2 5754.82  181.78
   0   1   2 5725.33  181.68
   0   1   2 5478.25  181.48
   0   1  -2 5648.44  181.78
   0   1   2 5428.36  182.08
   0   1  -2 5745.73  182.08
   0   1  -2 5657.33  181.58
   0   1  -2 5545.85  181.38
   0   1   2 5836.02  182.68
  -1  -1  -2  341.27   12.10
   1  -1   2  344.17   12.60
   1  -1   2  332.87   11.50
  -1  -1  -2  340.37   12.00
   1  -1   2  315.77   12.60
   1  -1   2  343.07   12.50
  -1  -1  -2  328.27   12.40
   1  -1   2  315.87   12.90
   1  -1   2  335.07   12.90
  -1  -1  -2  340.77   12.20
   1  -1   2  326.97   12.10
  -1  -1  -2  338.07   12.20
  -1   1  -2  316.77   12.30
   1   1   2  312.97   12.20
   1   1   2  349.47   13.20
  -1   1  -2  326.17   12.50
   1   1   2  323.87   12.00
   1   1   2  334.17   12.20
   1   1   2  334.97   12.10
  -1   1  -2  327.67   11.50
   1   1   2  325.27   12.60
  -1   1  -2  321.17   12.40
  -1   1  -2  333.07   12.10
  -1   1  -2  329.37   12.80
  -1   1  -2  332.07   12.70
  -2  -1  -2  945.61   32.50
   2  -1   2  957.00   33.70
  -2  -1  -2  987.40   32.40
   2  -1   2  948.31   33.80
   2  -1   2  957.60   33.30
   2  -1   2  961.90   32.70
   2  -1   2 1007.60   33.10
  -2  -1  -2  945.31   32.80
  -2  -1  -2  965.70   32.50
  -2  -1  -2  970.50   32.70
   2  -1   2  959.50   33.10
   2  -1   2  963.60   31.70
  -2   1  -2 1014.60   32.90
   2   1   2  992.10   32.70
   2   1   2  950.60   32.90
  -2   1  -2  958.40   31.70
   2   1   2  963.50   32.50
  -2   1  -2  981.10   33.00
  -2   1  -2  945.41   32.70
   2   1   2  988.30   32.60
  -2   1  -2  974.90   33.60
  -2   1  -2  951.70   33.10
   2   1   2  946.91   32.70
   3  -1   2  486.75   17.80
   3  -1   2  464.25   15.70
   3  -1   2  462.65   17.00
  -3  -1  -2  475.15   16.70
  -3  -1  -2  486.75   16.60
  -3  -1  -2  472.35   17.10
   3  -1   2  487.85   17.40
   3  -1   2  449.86   18.50
  -3  -1  -2  482.55   17.00
   3  -1   2  457.15   18.50
   3  -1   2  450.85   17.30
  -3  -1  -2  495.75   16.90
  -3   1  -2  487.05   17.50
  -3   1  -2  470.45   18.20
  -3   1  -2  457.45   17.30
   3   1   2  468.25   16.80
  -3   1  -2  494.55   17.20
   3   1   2  489.85   17.00
   3   1   2  480.95   17.30
   3   1   2  468.95   16.90
   3   1   2  472.95   17.10
  -4  -1  -2  807.52   27.20
   4  -1   2  785.22   27.60
  -4  -1  -2  824.12   27.20
   4  -1   2  770.22   29.30
   4  -1   2  781.42   27.60
  -4  -1  -2  796.52   27.00
   4  -1   2  786.72   29.30
   4  -1   2  741.13   27.20
   4  -1   2  773.82   25.70
  -4  -1  -2  800.12   26.70
  -4  -1  -2  807.22   26.70
   4  -1   2  796.52   28.10
   4   1   2  746.43   26.90
   4   1   2  805.42   27.50
   4   1   2  799.22   27.10
   4   1   2  752.12   27.20
   4   1   2  746.33   27.00
  -4   1  -2  792.92   27.60
  -4   1  -2  767.62   27.10
  -4   1  -2  841.62   27.30
  -4   1  -2  756.72   28.80
  -4   1  -2  802.92   27.60
   5  -1   2  328.47   13.10
  -5  -1  -2  329.67   12.00
   5  -1   2  341.47   13.10
   5  -1   2  325.77   15.20
  -5  -1  -2  350.26   12.50
   5  -1   2  308.77   12.60
   5  -1   2  323.17   13.50
  -5  -1  -2  319.37   12.20
  -5  -1  -2  341.57   11.90
  -5  -1  -2  348.97   12.60
   5  -1   2  334.87   15.10
   5  -1   2  311.17   10.90
   5   1   2  302.47   12.40
  -5   1  -2  310.37   12.80
  -5   1  -2  330.67   14.50
   5   1   2  326.17   12.80
   5   1   2  328.17   12.50
  -5   1  -2  346.07   13.10
   5   1   2  312.77   12.50
  -5   1  -2  327.97   12.40
   5   1   2  316.47   12.30
   6  -1   2  331.87   15.80
   6  -1   2  307.87   15.60
   6  -1   2  328.37   12.90
  -6  -1  -2  308.37   12.10
  -6  -1  -2  331.67   12.30
   6  -1   2  319.27   13.30
  -6  -1  -2  329.97   11.70
   6  -1   2  314.77   11.00
   6  -1   2  340.47   13.30
   6  -1   2  313.47   11.00
   6  -1   2  317.97   13.70
   6   1   2  334.67   12.70
   6   1   2  316.47   12.40
  -6   1  -2  319.27   12.90
  -6   1  -2  313.87   15.00
   6   1   2  310.27   12.50
  -6   1  -2  333.97   12.40
   6   1   2  354.66   15.50
   6   1   2  326.07   12.80
   6   1   2  341.57   13.00
   7  -1   2   33.40    3.60
   7  -1   2   33.60    1.80
   7  -1   2   35.50    4.50
  -7  -1  -2   33.10    2.80
   7  -1   2   37.40    6.30
   7  -1   2   44.60    6.20
   7  -1   2   33.40    1.90
   7  -1   2   33.10    3.80
   7  -1   2   36.40    4.70
   7   1   2   36.40    3.60
  -7   1  -2   28.20    3.20
   7   1   2   33.60    3.50
  -7   1  -2   29.00    4.80
   7   1   2   28.20    3.60
   7   1   2   27.60    3.20
   7   1   2   24.30    4.70
   7   1   2   28.50    3.20
  -7   1  -2   39.00    3.00
   8  -1   2   76.59    6.60
   8  -1   2   74.89    8.60
   8  -1   2   79.19    5.60
   8  -1   2   76.09    5.30
   8  -1   2   74.89    6.10
  -8  -1  -2   73.89    4.10
   8  -1   2   77.09    8.20
   8   1   2   69.69    4.80
   8   1   2   82.69    7.70
   8   1   2   72.39    5.00
  -8   1  -2   71.09    4.80
   8   1   2   81.89    5.30
   8   1   2   83.29    5.30
   8   1   2   79.49    5.20
  -8   1  -2   74.29    4.20
  -8   1  -2   63.49    7.00
   9  -1   2  678.13   25.40
   9  -1   2  644.54   30.00
   9  -1   2  667.43   25.90
   9  -1   2  704.53   26.60
   9   1   2  710.53   25.00
   9   1   2  669.63   24.90
   9   1   2  686.53   24.90
   9   1   2  703.33   25.00
  10  -1   2   21.60    6.50
  10  -1   2   17.00    4.20
  10  -1   2   29.40    4.50
  10   1   2   19.70    3.40
  10   1   2   23.10    3.50
  10   1   2   20.70    3.70
  10   1   2   25.20    3.50
  11  -1   2   90.79   11.30
  11  -1   2   92.79    8.00
  11  -1   2   88.69    7.50
  11   1   2   83.79    6.20
  11   1   2   92.99    6.50
  12  -1   2  117.19    8.90
  12   1   2   96.79    7.40
  12  -2  -2   23.80    4.60
  12  -2  -2   19.90    4.80
  12  -2  -2   23.70    7.80
  12   2  -2   32.40    5.20
  11  -2  -2   12.10    3.80
  11  -2  -2    8.60    3.40
  11  -2  -2   -0.80    5.10
  11   2  -2    6.80    3.40
  10  -2  -2   76.79    7.20
  10  -2  -2   77.19    6.70
  10  -2  -2   77.99   10.30
  10   2  -2   68.79    6.40
   9  -2  -2  235.98   15.70
   9  -2  -2  247.68   11.90
   9  -2  -2  225.78   12.30
   9  -2  -2  260.17   15.60
   9  -2  -2  254.37   12.60
   9  -2  -2  240.98   11.00
  -9   2   2  262.97   14.10
   9   2  -2  237.58    9.30
   9   2  -2  234.78   10.00
   9   2  -2  244.98   12.10
   9   2  -2  231.38   13.40
   8  -2  -2   56.09    8.20
   8  -2  -2   54.19    5.70
   8  -2  -2   58.49    6.50
   8  -2  -2   51.99    4.90
   8  -2  -2   57.19    4.40
   8  -2  -2   55.09    4.60
   8  -2  -2   52.39    7.00
   8   2  -2   50.69    3.60
   8   2  -2   50.09    5.00
   8   2  -2   59.09    4.30
  -8   2   2   63.39    6.80
   8   2  -2   54.59    4.40
  -8   2   2   50.79    3.80
   8   2  -2   55.29    3.60
  -8   2   2   58.99    4.50
   7  -2  -2   57.89    7.80
   7  -2  -2   62.89    4.70
   7  -2  -2   77.09    7.50
   7  -2  -2   68.89    5.10
   7  -2  -2   60.79    5.60
   7  -2  -2   65.99    4.60
   7  -2  -2   57.09    6.10
   7   2  -2   67.79    5.30
   7   2  -2   66.59    5.00
  -7   2   2   72.69    4.80
   7   2  -2   66.79    4.10
  -7   2   2   64.99    4.20
   7   2  -2   77.09    4.70
  -7   2   2   71.89    6.70
   7   2  -2   62.99    4.00
   6  -2  -2  246.08   10.40
   6  -2  -2  255.47   10.70
  -6  -2   2  237.28    9.50
   6  -2  -2  251.37   12.20
  -6  -2   2  260.37    9.40
   6  -2  -2  258.77   11.10
   6  -2  -2  250.17   13.90
   6  -2  -2  228.48   11.30
   6  -2  -2  272.67   13.50
   6   2  -2  252.97   10.30
   6   2  -2  258.47    9.80
   6   2  -2  247.48   10.70
  -6   2   2  240.08   10.60
  -6   2   2  250.47   12.50
   6   2  -2  231.18   11.20
  -6   2   2  237.28   10.10
   6   2  -2  244.18    9.90
   5  -2  -2   32.20    4.70
   5  -2  -2   35.00    3.80
  -5  -2   2   42.40    2.70
   5  -2  -2   32.40    3.40
   5  -2  -2   42.30    6.10
   5  -2  -2   40.40    5.20
  -5  -2   2   37.50    2.80
  -5  -2   2   37.00    3.40
   5  -2  -2   34.80    4.20
   5  -2  -2   32.70    3.30
  -5   2   2   41.50    5.00
   5   2  -2   44.50    3.90
   5   2  -2   38.10    3.10
  -5   2   2   31.10    3.30
   5   2  -2   44.40    4.50
  -5   2   2   34.30    5.80
   5   2  -2   37.90    4.30
   5   2  -2   28.20    3.10
  -5   2   2   31.30    3.60
  -4  -2   2   96.89    4.50
  -4  -2   2  108.29    5.90
  -4  -2   2   91.79    4.80
   4  -2  -2   98.29    5.50
  -4  -2   2   89.79    5.60
   4  -2  -2  101.69    5.80
   4  -2  -2   89.59    6.80
   4  -2  -2   98.59    7.70
   4  -2  -2   97.79    6.30
   4  -2  -2   95.09    7.10
   4  -2  -2  104.89    5.40
  -4  -2   2  101.29    5.00
   4   2  -2   91.49    5.50
   4   2  -2   89.69    4.90
   4   2  -2   86.89    5.40
  -4   2   2   95.79    5.30
  -4   2   2   96.39    7.20
  -4   2   2   88.09    5.50
  -4   2   2   90.39    6.50
   4   2  -2   92.59    5.20
   4   2  -2   94.19    5.90
  -4   2   2   97.09    6.80
   4   2  -2   86.29    5.70
  -4   2   2  100.29    6.20
   3  -2  -2  361.26   14.10
  -3  -2   2  347.17   12.90
  -3  -2   2  368.96   13.40
   3  -2  -2  328.87   15.50
  -3  -2   2  341.77   13.90
   3  -2  -2  321.27   14.60
  -3  -2   2  316.47   13.90
   3  -2  -2  347.67   13.50
   3  -2  -2  340.57   14.20
   3  -2  -2  362.76   13.60
   3  -2  -2  355.96   15.30
  -3  -2   2  320.87   13.20
  -3   2   2  342.77   13.80
  -3   2   2  353.26   13.50
  -3   2   2  362.86   15.70
   3   2  -2  364.06   14.30
  -3   2   2  375.76   15.10
   3   2  -2  367.06   14.00
  -3   2   2  340.07   13.40
  -3   2   2  340.07   14.60
  -3   2   2  377.86   14.50
   3   2  -2  344.17   14.00
  -3   2   2  361.66   15.30
   3   2  -2  365.16   14.20
   3   2  -2  353.96   13.20
   3   2  -2  343.47   13.50
  -2  -2   2 1051.09   37.00
  -2  -2   2 1065.29   37.00
  -2  -2   2 1088.79   37.80
  -2  -2   2 1174.98   37.50
  -2  -2   2 1107.79   36.70
   2  -2  -2 1037.20   38.80
   2  -2  -2 1081.79   37.10
   2  -2  -2 1075.89   38.20
   2  -2  -2 1064.49   37.50
   2  -2  -2 1122.49   38.80
   2  -2  -2 1117.59   37.60
   2  -2  -2 1110.19   37.20
   2   2  -2  971.80   37.10
   2   2  -2 1028.10   36.80
  -2   2   2 1026.00   37.30
  -2   2   2 1105.59   39.00
   2   2  -2 1059.89   37.30
  -2   2   2 1076.99   37.10
   2   2  -2 1053.59   37.10
   2   2  -2 1084.79   37.50
  -2   2   2 1176.28   38.60
   2   2  -2 1067.49   37.70
  -2   2   2 1125.69   37.70
  -2   2   2 1167.18   37.80
  -2   2   2 1064.19   37.00
  -2   2   2 1071.89   38.70
  -1  -2   2  126.39    6.80
   1  -2  -2  145.39    7.20
  -1  -2   2  134.29    6.10
  -1  -2   2  127.19    6.40
  -1  -2   2  128.89    6.20
   1  -2  -2  160.28    8.20
   1  -2  -2  151.38    8.40
  -1  -2   2  116.49    6.60
   1  -2  -2  132.79    6.40
   1  -2  -2  123.79    6.30
  -1  -2   2  117.49    7.20
  -1  -2   2  123.69    7.00
  -1  -2   2  106.19    7.30
  -1   2   2  117.99    6.20
  -1   2   2  128.59    8.00
  -1   2   2  132.99    7.50
   1   2  -2  113.49    6.30
  -1   2   2  113.99    7.70
   1   2  -2  114.09    6.70
   1   2  -2  127.59    7.20
  -1   2   2  127.49    6.60
   1   2  -2  119.29    6.20
   1   2  -2  128.89    6.80
  -1   2   2  132.39    6.90
   1   2  -2  118.09    6.10
   1   2  -2  130.19    7.60
  -1   2   2  123.89    6.30
   0  -2   2  136.69    7.40
   0  -2  -2  125.19    7.60
   0  -2  -2  143.39    6.60
   0  -2  -2  135.69    7.00
   0  -2   2  149.69    6.50
   0  -2   2  139.79    6.90
   0  -2   2  137.79    7.60
   0  -2   2  127.59    7.80
   0  -2   2  149.09    8.20
   0  -2  -2  140.69    6.90
   0  -2  -2  135.69    8.20
   0  -2   2  137.69    6.60
   0  -2  -2  144.29    6.70
   0   2   2  129.99    6.60
   0   2  -2  138.39    6.50
   0   2  -2  143.79    7.30
   0   2   2  123.69    7.00
   0   2   2  132.49    6.80
   0   2  -2  132.29    7.30
   0   2  -2  136.29    7.00
   0   2   2  153.08    8.00
   0   2  -2  131.69    7.80
   0   2   2  138.69    8.30
   0   2  -2  129.29    7.50
   0   2  -2  128.19    6.50
   0   2   2  141.09    8.10
   0   2   2  134.59    7.00
  -1  -2  -2  351.56   14.60
   1  -2   2  337.97   14.80
   1  -2   2  328.37   14.10
  -1  -2  -2  338.37   13.90
  -1  -2  -2  365.66   13.10
   1  -2   2  346.87   13.10
  -1  -2  -2  339.77   13.20
  -1  -2  -2  324.07   13.20
   1  -2   2  369.66   13.70
   1  -2   2  331.17   13.80
  -1  -2  -2  362.86   13.30
   1  -2   2  331.07   14.30
   1  -2   2  350.66   12.70
   1   2   2  315.97   12.90
   1   2   2  340.57   14.10
   1   2   2  330.77   14.60
  -1   2  -2  329.27   12.60
  -1   2  -2  318.17   14.00
  -1   2  -2  329.77   13.50
  -1   2  -2  319.87   13.80
   1   2   2  311.97   13.20
   1   2   2  316.77   13.30
   1   2   2  328.17   13.20
  -1   2  -2  322.37   14.20
  -1   2  -2  332.77   13.60
   2  -2   2  360.06   16.00
   2  -2   2  395.36   14.90
  -2  -2  -2  403.56   14.90
  -2  -2  -2  376.36   14.80
  -2  -2  -2  378.26   15.40
   2  -2   2  397.96   15.40
   2  -2   2  402.26   14.20
  -2  -2  -2  405.86   14.60
   2  -2   2  384.06   15.60
   2  -2   2  402.46   16.90
   2  -2   2  344.67   15.90
  -2   2  -2  382.46   15.20
  -2   2  -2  377.86   14.80
  -2   2  -2  394.16   15.40
   2   2   2  396.66   16.50
  -2   2  -2  355.06   16.00
   2   2   2  376.66   15.00
  -2   2  -2  404.86   15.90
   2   2   2  375.26   14.90
  -2   2  -2  392.06   14.10
   2   2   2  387.46   15.70
   2   2   2  373.56   14.90
  -2   2  -2  387.96   16.00
   2   2   2  381.86   14.60
  -3  -2  -2  663.73   24.20
  -3  -2  -2  677.33   23.90
   3  -2   2  656.83   26.40
   3  -2   2  701.73   25.00
   3  -2   2  650.93   26.20
   3  -2   2  670.13   24.40
  -3  -2  -2  656.83   24.50
  -3  -2  -2  693.63   24.50
   3  -2   2  638.04   25.00
  -3  -2  -2  670.13   24.00
   3  -2   2  642.34   25.50
   3  -2   2  686.83   23.30
  -3   2  -2  676.33   23.30
   3   2   2  715.23   26.40
   3   2   2  659.33   24.30
  -3   2  -2  691.03   24.30
  -3   2  -2  696.13   25.30
   3   2   2  644.04   23.90
   3   2   2  660.73   24.40
  -3   2  -2  663.83   25.80
  -3   2  -2  679.73   24.70
   3   2   2  697.93   24.50
   3   2   2  731.03   25.30
  -3   2  -2  695.63   25.80
  -3   2  -2  682.63   24.80
   4  -2   2   88.89    7.50
   4  -2   2   79.39    5.60
   4  -2   2   85.19    4.20
   4  -2   2   86.19    6.30
  -4  -2  -2   93.39    5.40
   4  -2   2   80.49    5.30
   4  -2   2   81.69    7.10
  -4  -2  -2   88.49    5.00
  -4  -2  -2   83.69    5.40
  -4  -2  -2   88.99    5.20
   4  -2   2   87.09    6.90
  -4   2  -2   99.39    6.00
  -4   2  -2   86.49    4.20
   4   2   2   88.99    5.50
  -4   2  -2   90.59    6.70
   4   2   2   80.19    5.10
   4   2   2   80.79    5.40
   4   2   2   90.49    5.60
   4   2   2   93.39    6.00
  -4   2  -2   81.79    5.60
  -5  -2  -2  652.83   23.90
   5  -2   2  658.93   25.70
   5  -2   2  651.43   26.90
   5  -2   2  663.63   24.30
  -5  -2  -2  710.43   24.40
  -5  -2  -2  662.63   23.20
   5  -2   2  667.83   24.80
   5  -2   2  610.74   26.80
   5  -2   2  668.03   22.50
   5  -2   2  626.24   24.90
   5   2   2  659.83   23.70
   5   2   2  678.13   24.70
   5   2   2  652.03   24.20
  -5   2  -2  659.33   24.60
  -5   2  -2  641.04   23.90
   5   2   2  653.63   24.00
  -5   2  -2  645.24   26.00
   5   2   2  678.13   24.00
   6  -2   2  383.96   16.80
   6  -2   2  358.06   13.10
   6  -2   2  360.56   15.90
  -6  -2  -2  382.86   13.70
  -6  -2  -2  363.26   14.40
   6  -2   2  390.36   15.30
   6  -2   2  371.96   18.20
   6  -2   2  382.06   15.70
   6  -2   2  365.96   18.30
  -6   2  -2  336.77   16.70
   6   2   2  353.36   15.00
   6   2   2  379.56   14.90
   6   2   2  365.96   15.30
  -6   2  -2  362.76   14.60
  -6   2  -2  360.86   15.20
   6   2   2  358.96   14.40
   6   2   2  390.66   14.90
   7  -2   2   14.90    3.80
  -7  -2  -2   21.30    2.80
   7  -2   2   19.40    1.90
  -7  -2  -2   18.10    2.20
   7  -2   2   24.10    5.60
   7  -2   2   17.20    3.20
   7  -2   2   19.80    4.50
   7  -2   2   22.10    5.90
   7  -2   2   19.70    3.60
   7   2   2   19.00    3.00
   7   2   2   22.80    3.50
  -7   2  -2   23.30    3.10
   7   2   2   23.60    3.80
  -7   2  -2   28.90    5.00
   7   2   2   22.70    3.20
   7   2   2   23.20    3.40
  -7   2  -2   23.40    3.60
   8  -2   2    7.30    2.70
   8  -2   2   16.40    4.00
   8  -2   2    7.60    3.70
   8  -2   2    6.20    4.50
   8   2   2   11.30    3.10
  -8   2  -2    8.40    3.70
  -8   2  -2    6.90    2.50
   8   2   2   12.10    2.80
   8   2   2   11.10    2.80
   8   2   2    5.30    2.30
   9  -2   2  119.99    8.90
   9  -2   2  119.69    9.30
   9  -2   2  110.39   11.50
   9   2   2  110.59    7.10
   9   2   2  117.79    7.10
   9   2   2  115.09    7.50
   9   2   2  121.09    7.10
  10  -2   2  105.09    8.80
  10  -2   2   95.59    9.40
  10  -2   2  100.59   12.00
  10   2   2  108.09    7.00
  10   2   2  115.99    7.00
  10   2   2  116.79    7.60
  11  -2   2   58.69    7.70
  11  -2   2   49.70    6.80
  11  -2   2   47.10    9.60
  11   2   2   61.79    5.60
  11   2   2   52.99    5.20
  11  -3  -2   70.29    8.70
  11  -3  -2   64.49    7.90
  11  -3  -2   61.89   11.10
  11   3  -2   73.29    7.90
  11   3  -2   73.99    5.30
  10  -3  -2   11.90    4.60
  10  -3  -2   10.40    4.10
  10  -3  -2   19.00    7.00
  10   3  -2   12.50    4.40
  10   3  -2    7.10    2.30
  10   3  -2   11.30    2.60
   9  -3  -2  131.79    9.50
   9  -3  -2  127.69   12.60
   9  -3  -2  138.39   10.50
   9   3  -2  122.29    7.00
   9   3  -2  140.69    9.30
   9   3  -2  125.19    7.90
   9   3  -2  134.69    7.20
   8  -3  -2  200.48   11.70
   8  -3  -2  215.98   15.20
   8  -3  -2  191.48   12.50
   8   3  -2  196.68   10.70
   8   3  -2  218.28   10.60
  -8   3   2  224.88   13.50
   8   3  -2  208.78    9.80
   8   3  -2  203.58   11.50
   8   3  -2  207.68    9.60
  -8   3   2  208.18   10.80
   7  -3  -2  322.77   16.20
   7  -3  -2  338.17   15.00
   7  -3  -2  313.57   14.20
   7  -3  -2  342.97   18.30
   7  -3  -2  334.17   15.30
   7  -3  -2  289.27   17.90
   7   3  -2  290.27   14.90
   7   3  -2  326.67   15.80
  -7   3   2  349.07   17.00
   7   3  -2  316.17   13.20
   7   3  -2  315.17   13.40
   7   3  -2  319.57   14.00
   7   3  -2  326.27   14.10
  -7   3   2  305.87   14.10
  -6  -3   2  143.39    8.00
   6  -3  -2  161.58   11.40
   6  -3  -2  149.88    8.30
   6  -3  -2  158.58   10.40
   6  -3  -2  142.29    9.40
   6  -3  -2  152.98    9.00
   6  -3  -2  136.79   11.50
  -6  -3   2  157.18    7.10
  -6   3   2  147.29    8.50
   6   3  -2  150.78    8.00
   6   3  -2  151.48    9.30
   6   3  -2  146.99    7.70
   6   3  -2  137.39    9.10
  -6   3   2  140.19   10.40
   6   3  -2  158.18    8.60
   6   3  -2  158.98    8.80
  -6   3   2  154.98    8.10
  -5  -3   2  303.77   12.40
  -5  -3   2  295.97   13.40
   5  -3  -2  303.97   16.50
   5  -3  -2  320.57   13.60
   5  -3  -2  338.67   14.40
   5  -3  -2  258.47   14.70
   5  -3  -2  325.77   14.60
   5  -3  -2  296.77   15.90
  -5   3   2  325.97   15.90
   5   3  -2  311.97   14.30
   5   3  -2  321.07   13.00
  -5   3   2  295.07   13.70
   5   3  -2  305.37   14.20
   5   3  -2  328.17   13.40
   5   3  -2  316.17   13.80
   4  -3  -2  102.09    6.90
   4  -3  -2  105.49    6.50
  -4  -3   2   96.89    6.10
   4  -3  -2  101.19    7.50
  -4  -3   2  103.29    7.20
   4  -3  -2  107.09    9.00
   4  -3  -2  106.49    8.20
   4  -3  -2  107.69    8.60
   4   3  -2   91.09    6.00
   4   3  -2  100.49    6.50
  -4   3   2   99.99    6.30
  -4   3   2   90.29    5.90
  -4   3   2  104.79    8.50
   4   3  -2   96.59    7.00
   4   3  -2  107.59    7.60
   4   3  -2  104.79    7.40
   4   3  -2   94.09    6.60
  -4   3   2   93.29    6.60
  -3  -3   2  344.97   15.60
   3  -3  -2  376.06   14.90
  -3  -3   2  334.77   14.40
   3  -3  -2  378.36   17.50
   3  -3  -2  348.07   16.90
   3  -3  -2  374.86   16.70
   3  -3  -2  375.36   15.40
   3  -3  -2  369.16   15.70
   3   3  -2  351.66   15.70
   3   3  -2  340.07   15.50
  -3   3   2  375.46   16.10
  -3   3   2  366.06   14.70
  -3   3   2  354.46   14.50
   3   3  -2  339.77   14.30
   3   3  -2  348.77   15.20
  -3   3   2  342.77   15.00
   3   3  -2  320.67   14.70
   3   3  -2  353.36   14.90
  -3   3   2  345.87   16.70
   2  -3  -2   18.10    3.40
   2  -3  -2   21.30    3.20
   2  -3  -2   17.50    4.50
   2  -3  -2   21.70    3.80
   2  -3  -2   19.30    4.50
  -2  -3   2   16.60    3.20
  -2  -3   2   17.60    4.20
  -2  -3   2   29.50    4.60
   2   3  -2   11.50    3.30
   2   3  -2   24.20    4.80
  -2   3   2   23.10    3.40
   2   3  -2   17.90    3.20
   2   3  -2   16.30    4.00
   2   3  -2   22.00    3.20
   2   3  -2   10.60    3.50
   2   3  -2   15.70    3.10
  -2   3   2   21.50    4.80
  -2   3   2   21.60    4.10
  -2   3   2   19.20    3.10
  -2   3   2   17.10    3.50
   1  -3  -2  282.67   14.20
   1  -3  -2  298.27   12.70
   1  -3  -2  284.27   17.10
  -1  -3   2  278.97   14.10
  -1  -3   2  291.97   13.80
  -1  -3   2  315.57   12.60
   1  -3  -2  288.77   13.30
  -1  -3   2  273.27   13.10
   1  -3  -2  282.47   14.70
   1   3  -2  285.27   14.50
   1   3  -2  301.87   13.70
  -1   3   2  302.97   13.60
   1   3  -2  303.17   14.10
   1   3  -2  321.37   13.00
   1   3  -2  297.27   13.50
  -1   3   2  296.57   12.70
  -1   3   2  304.87   13.20
   1   3  -2  287.37   13.00
  -1   3   2  292.17   13.70
  -1   3   2  276.77   14.60
   1   3  -2  311.67   12.80
  -1   3   2  300.07   12.80
   0  -3   2  127.19    8.00
   0  -3  -2  118.79    7.60
   0  -3   2  126.49    8.60
   0  -3   2  146.99    7.30
   0  -3  -2  119.49    9.00
   0  -3  -2  132.59    7.20
   0  -3  -2  139.89    8.90
   0  -3   2  128.59    8.90
   0  -3   2  129.19    7.00
   0   3  -2  111.49    8.40
   0   3   2  127.79    7.50
   0   3   2  112.49    7.00
   0   3   2  138.59    8.90
   0   3  -2  129.09    7.10
   0   3  -2  123.99    7.90
   0   3  -2  126.29    8.10
   0   3   2  126.79    7.10
   0   3  -2  130.09    8.40
   0   3   2  131.69    8.00
   0   3   2  115.39    8.80
   0   3  -2  122.19    7.60
   0   3  -2  125.99    7.20
   1  -3   2   43.60    4.00
  -1  -3  -2   45.20    5.80
   1  -3   2   38.30    5.40
   1  -3   2   30.60    4.50
   1  -3   2   38.10    4.10
   1  -3   2   35.60    5.40
   1  -3   2   35.40    5.40
  -1  -3  -2   47.30    6.30
   1  -3   2   38.70    5.50
  -1  -3  -2   41.70    4.10
   1  -3   2   43.20    5.30
  -1  -3  -2   43.10    4.80
  -1   3  -2   42.10    4.90
   1   3   2   35.80    4.10
   1   3   2   36.10    4.50
   1   3   2   48.40    5.90
  -1   3  -2   47.10    5.60
  -1   3  -2   34.90    3.60
  -1   3  -2   37.90    4.30
  -1   3  -2   37.00    4.70
   1   3   2   34.30    4.00
  -1   3  -2   39.60    5.60
   1   3   2   39.30    4.70
   2  -3   2  458.65   18.00
  -2  -3  -2  442.56   18.80
   2  -3   2  426.26   19.60
   2  -3   2  444.46   20.40
  -2  -3  -2  437.66   17.80
   2  -3   2  427.96   19.70
   2  -3   2  455.75   19.60
   2  -3   2  468.15   17.40
   2  -3   2  445.86   19.00
  -2   3  -2  461.35   18.10
  -2   3  -2  442.76   19.90
   2   3   2  463.35   17.90
  -2   3  -2  471.25   19.70
   2   3   2  406.36   17.80
   2   3   2  495.25   19.70
   2   3   2  474.65   18.60
  -2   3  -2  437.66   18.50
  -2   3  -2  465.95   17.40
   2   3   2  467.55   18.30
  -2   3  -2  465.25   18.70
   3  -3   2  248.58   11.20
   3  -3   2  246.68   10.20
   3  -3   2  220.18   12.80
  -3  -3  -2  214.78   10.40
   3  -3   2  224.68   12.50
   3  -3   2  235.18   12.20
   3  -3   2  221.28   13.00
  -3  -3  -2  230.38   11.60
   3  -3   2  231.68   13.50
   3   3   2  248.78   12.40
   3   3   2  235.08   10.80
  -3   3  -2  226.48   12.70
  -3   3  -2  243.28   10.10
  -3   3  -2  233.58   11.60
   3   3   2  236.48   11.40
  -3   3  -2  263.17   13.00
  -3   3  -2  229.78   10.90
   3   3   2  237.88   11.20
   3   3   2  221.98   11.00
  -4  -3  -2  154.88    8.90
  -4  -3  -2  157.28    8.10
   4  -3   2  180.28    7.80
   4  -3   2  167.78   10.60
   4  -3   2  161.58   10.00
   4  -3   2  140.39   10.60
   4  -3   2  172.18    8.90
   4  -3   2  168.58   11.40
   4   3   2  157.18    8.30
   4   3   2  164.98    9.90
  -4   3  -2  149.49   10.20
  -4   3  -2  148.89    7.40
   4   3   2  153.88    8.80
  -4   3  -2  158.88    8.50
   4   3   2  155.68    8.80
   4   3   2  151.88    8.70
  -4   3  -2  148.89    9.00
   5  -3   2   67.59    4.40
  -5  -3  -2   59.39    5.40
   5  -3   2   55.89    7.30
   5  -3   2   58.89    6.80
   5  -3   2   62.99    8.00
  -5  -3  -2   63.09    4.80
   5  -3   2   73.99    5.80
   5  -3   2   58.09    7.80
   5   3   2   57.89    5.90
   5   3   2   69.29    5.90
  -5   3  -2   67.49    6.00
  -5   3  -2   71.39    7.40
   5   3   2   62.19    5.20
   5   3   2   67.99    5.90
  -5   3  -2   69.79    5.40
  -5   3  -2   58.39    4.30
   5   3   2   65.19    6.50
   6  -3   2  203.18   12.00
   6  -3   2  213.48   10.70
   6  -3   2  189.08   12.30
  -6  -3  -2  200.98   10.20
   6  -3   2  214.48   14.60
   6  -3   2  201.28    8.80
  -6  -3  -2  242.68   12.60
   6  -3   2  201.48   13.90
   6   3   2  214.98   10.60
   6   3   2  189.98    9.90
   6   3   2  215.18   11.50
  -6   3  -2  186.18   10.60
   6   3   2  197.78   10.90
  -6   3  -2  203.08   12.60
   6   3   2  195.48   10.40
   7  -3   2  332.57   16.40
   7  -3   2  345.27   19.40
   7  -3   2  287.87   16.50
   7   3   2  311.07   14.30
  -7   3  -2  330.07   15.10
   7   3   2  323.07   14.90
   7   3   2  336.17   17.00
   7   3   2  322.57   14.00
   8  -3   2  111.19    9.70
   8  -3   2  132.19   12.60
   8  -3   2  126.39   10.60
   8  -3   2  111.29   10.30
   8   3   2  130.89    8.00
   8   3   2  122.19    7.70
   8   3   2  111.19    8.40
   9  -3   2  170.28   12.00
   9  -3   2  182.18   12.60
   9  -3   2  188.78   13.00
   9  -3   2  158.68   14.70
   9   3   2  162.88   10.50
   9   3   2  177.08    9.50
   9   3   2  172.28    9.70
  10  -3   2    5.80    4.40
  10  -3   2    4.30    6.20
  10  -3   2   14.10    5.20
  10  -3   2   -2.10    4.00
  10   3   2    6.90    3.90
  10   3   2    5.20    3.00
  10   3   2    4.80    2.80
  10  -4  -2  101.59   10.20
  10  -4  -2   99.09   10.80
  10   4  -2   98.39    7.20
  10   4  -2  112.49   10.30
   9  -4  -2  164.68   12.10
   9  -4  -2  173.58   13.30
   9  -4  -2  140.69   14.80
   9   4  -2  184.68    9.70
   9   4  -2  171.78    9.80
   9   4  -2  168.88   12.00
   8  -4  -2    8.70    4.30
   8  -4  -2    3.60    5.40
   8  -4  -2    7.70    4.80
   8   4  -2    3.50    3.80
   8   4  -2    5.40    3.00
   8   4  -2    6.90    3.00
   7  -4  -2   40.60    7.30
   7  -4  -2   40.70    6.60
   7  -4  -2   35.20    8.10
   7   4  -2   34.10    4.80
   7   4  -2   36.10    5.90
   7   4  -2   30.60    4.50
  -7   4   2   28.60    5.10
   6  -4  -2   66.19    8.80
   6  -4  -2   59.29    9.20
   6  -4  -2   80.29    8.30
  -6   4   2   65.79    6.70
   6   4  -2   73.49    7.20
   6   4  -2   69.69    6.10
   6   4  -2   67.09    6.60
  -5  -4   2   26.40    4.70
   5  -4  -2   34.70    5.80
   5  -4  -2   25.40    5.70
   5  -4  -2   28.00    6.80
   5   4  -2   32.20    4.90
   5   4  -2   25.70    4.20
  -5   4   2   32.40    6.40
  -5   4   2   35.90    4.90
  -5   4   2   33.90    5.20
   5   4  -2   28.60    5.20
   4  -4  -2  118.29   10.40
   4  -4  -2  131.89   12.30
  -4  -4   2  108.39    8.80
   4  -4  -2  131.29    9.70
   4  -4  -2  117.09    8.00
   4  -4  -2  138.29   11.40
  -4   4   2  120.29    7.90
  -4   4   2  126.69    8.10
   4   4  -2  133.49    8.20
  -4   4   2  126.09   10.80
   4   4  -2  127.39    8.60
   4   4  -2  112.99   10.70
  -4   4   2  131.19    8.90
   4   4  -2  127.19    8.50
   4   4  -2  109.59    8.80
   4   4  -2  129.79    9.70
  -3  -4   2   90.99    8.50
   3  -4  -2   99.39    8.50
   3  -4  -2   90.89    9.90
   3  -4  -2  103.89    9.70
   3  -4  -2  108.89    7.40
   3   4  -2   89.19    9.30
  -3   4   2  107.49    9.70
  -3   4   2   99.49    7.20
   3   4  -2   99.89    7.50
   3   4  -2   94.69    8.10
   3   4  -2   95.79    7.60
   3   4  -2   94.09    7.10
  -3   4   2   87.39    7.40
  -3   4   2  103.79    7.30
   2  -4  -2  248.28   15.30
   2  -4  -2  251.27   13.00
  -2  -4   2  217.18   11.90
   2  -4  -2  241.28   11.90
  -2  -4   2  229.68   13.60
   2  -4  -2  235.38   14.00
  -2  -4   2  231.48   13.20
   2   4  -2  228.48   14.30
  -2   4   2  246.18   11.90
   2   4  -2  243.28   11.90
   2   4  -2  238.78   13.00
  -2   4   2  220.38   11.50
   2   4  -2  244.48   12.50
  -2   4   2  240.48   12.50
   2   4  -2  226.08   12.10
   1  -4  -2  285.37   13.00
   1  -4  -2  268.57   14.90
  -1  -4   2  240.38   13.00
  -1  -4   2  262.47   14.70
   1  -4  -2  265.67   15.70
  -1  -4   2  237.38   14.40
   1  -4  -2  274.47   13.60
   1   4  -2  259.47   12.60
   1   4  -2  260.37   12.80
  -1   4   2  271.07   14.40
   1   4  -2  255.57   13.30
  -1   4   2  267.67   12.90
  -1   4   2  259.37   12.70
  -1   4   2  275.47   13.40
   1   4  -2  283.47   14.00
  -1   4   2  257.17   15.30
   1   4  -2  259.27   15.20
   0  -4  -2  206.48   13.60
   0  -4   2  190.08   13.10
   0  -4  -2  208.78   13.00
   0  -4   2  217.18   12.00
   0  -4  -2  225.78   11.90
   0  -4   2  209.48   13.30
   0   4  -2  223.78   11.30
   0   4   2  216.68   12.50
   0   4   2  209.98   11.00
   0   4   2  220.18   12.70
   0   4   2  223.58   11.50
   0   4   2  214.98   11.70
   0   4  -2  209.08   10.80
   0   4  -2  230.28   11.90
   0   4  -2  209.08   13.40
   0   4  -2  223.48   12.50
   0   4   2  203.38   13.90
  -1  -4  -2  139.39   10.30
  -1  -4  -2  127.89   10.70
  -1  -4  -2  146.69    9.10
   1  -4   2  116.89    9.20
   1  -4   2  151.98   11.40
   1  -4   2  135.69   11.00
  -1   4  -2  132.79    8.50
   1   4   2  152.68    9.90
   1   4   2  138.99    8.50
   1   4   2  109.89    8.20
  -1   4  -2  119.59   10.40
  -1   4  -2  139.59    9.80
   1   4   2  145.79    9.20
  -1   4  -2  129.39    8.90
   1   4   2  121.59   10.80
   1   4   2  144.89    9.70
  -1   4  -2  133.09    7.90
   2  -4   2  207.88   13.80
  -2  -4  -2  235.78   13.10
  -2  -4  -2  216.28   11.50
   2  -4   2  227.58   14.20
   2  -4   2  208.68   12.50
   2  -4   2  235.48   14.40
   2   4   2  222.78   14.30
  -2   4  -2  225.98   11.10
  -2   4  -2  225.48   11.60
  -2   4  -2  219.78   13.90
   2   4   2  214.88   11.30
   2   4   2  216.98   11.70
  -2   4  -2  233.08   12.40
   2   4   2  228.08   12.60
   2   4   2  228.68   12.10
   3  -4   2 1160.98   41.30
   3  -4   2 1075.89   43.60
   3  -4   2 1036.70   43.80
   3  -4   2 1157.78   42.60
  -3  -4  -2 1174.48   42.30
   3   4   2 1186.08   41.00
  -3   4  -2 1086.99   41.80
  -3   4  -2 1132.59   41.10
   3   4   2 1122.09   42.00
   3   4   2 1149.08   41.60
  -3   4  -2 1119.69   40.20
  -3   4  -2 1088.69   43.80
   3   4   2 1185.38   41.70
   4  -4   2   49.70    6.90
  -4  -4  -2   62.79    7.10
   4  -4   2   57.59    7.80
   4  -4   2   54.59    7.30
   4  -4   2   53.49    8.60
  -4   4  -2   57.99    5.00
   4   4   2   50.79    5.80
  -4   4  -2   56.69    7.80
   4   4   2   56.99    6.70
   4   4   2   50.79    6.10
  -4   4  -2   52.99    5.90
  -4   4  -2   58.89    6.50
   5  -4   2  273.77   17.30
  -5  -4  -2  289.77   14.20
   5  -4   2  263.37   15.30
   5  -4   2  267.77   15.20
   5  -4   2  263.47   16.40
   5   4   2  312.27   14.60
  -5   4  -2  297.37   14.80
  -5   4  -2  287.17   12.50
   5   4   2  271.17   14.20
   5   4   2  277.37   13.50
   6  -4   2  186.58   12.90
   6  -4   2  200.88   14.10
   6  -4   2  182.78   12.80
   6  -4   2  201.48   15.30
   6   4   2  195.88   12.00
  -6   4  -2  207.08   11.90
   6   4   2  220.98   11.80
   6   4   2  185.28   10.70
   7  -4   2  149.99   14.00
   7  -4   2  141.29   12.30
   7  -4   2  129.99   11.20
   7  -4   2  135.39   11.20
   7   4   2  137.49    9.00
   7   4   2  148.79   10.00
   7   4   2  136.09    9.50
  -7   4  -2  147.49   10.00
   8  -4   2   86.99   12.70
   8  -4   2   76.79   10.30
   8  -4   2   80.29    9.40
   8  -4   2   73.59    9.30
   8   4   2   69.39    7.20
   8   4   2   76.49    7.10
   8   4   2   93.79    8.10
   9  -4   2   92.49   10.40
   9  -4   2  108.69   10.90
   9  -4   2   83.59   13.20
   9  -4   2   89.19   11.60
   9   4   2   84.79    8.30
   9   4   2  120.29    9.60
   9   4   2  114.79    8.60
   8  -5  -2   53.69    8.80
   8   5  -2   47.30    9.20
   8   5  -2   50.79    6.70
   7  -5  -2   21.80    6.20
   7  -5  -2   25.10    7.10
   7  -5  -2   24.70    8.00
   7   5  -2   15.90    4.50
   7   5  -2   32.10    5.30
   7   5  -2   23.20    6.20
   6  -5  -2  131.89   11.60
   6  -5  -2  151.28   13.20
   6  -5  -2  118.79   14.20
   6   5  -2  152.18   10.70
   6   5  -2  156.58   10.00
  -6   5   2  131.79   10.50
   6   5  -2  132.39   11.00
   5  -5  -2  160.48   13.30
   5  -5  -2  134.89   13.90
   5  -5  -2  148.39   11.90
   5   5  -2  142.19   10.40
   5   5  -2  144.79    9.70
   5   5  -2  136.09   10.90
  -5   5   2  125.69    9.50
  -5   5   2  152.98   11.00
   4  -5  -2    6.20    5.70
   4  -5  -2   -1.00    3.90
   4  -5  -2    0.10    4.30
  -4  -5   2    7.10    4.50
   4   5  -2   -0.10    3.70
  -4   5   2    3.90    3.80
  -4   5   2    0.80    3.20
   4   5  -2    1.80    3.30
   4   5  -2    5.50    3.70
   3  -5  -2   53.59    9.80
  -3  -5   2   60.09    8.10
   3  -5  -2   69.79    8.40
   3  -5  -2   77.79   10.30
   3   5  -2   75.89    8.10
   3   5  -2   69.69    8.00
  -3   5   2   54.89    6.90
  -3   5   2   58.69    7.50
   3   5  -2   75.19    7.40
   2  -5  -2   30.20    7.80
   2  -5  -2   30.50    5.90
   2  -5  -2   42.40    7.70
  -2  -5   2   40.60    6.90
   2   5  -2   36.20    5.70
  -2   5   2   31.20    5.20
  -2   5   2   22.80    5.00
   2   5  -2   38.50    5.80
   2   5  -2   27.50    5.60
  -2   5   2   44.60    6.90
  -1  -5   2  212.08   15.10
  -1  -5   2  244.58   15.80
   1  -5  -2  216.88   16.00
   1  -5  -2  280.07   16.30
  -1   5   2  241.18   13.90
  -1   5   2  223.78   13.20
  -1   5   2  243.78   13.10
   1   5  -2  234.18   13.20
   1   5  -2  243.88   13.20
   1   5  -2  258.07   14.30
   0  -5   2  449.86   22.70
   0  -5  -2  407.16   22.90
   0  -5   2  459.05   23.10
   0  -5  -2  466.45   22.70
   0   5  -2  474.25   21.30
   0   5   2  453.55   21.00
   0   5   2  459.35   20.50
   0   5  -2  439.26   20.10
   0   5   2  460.75   20.20
   0   5  -2  450.95   20.10
   1  -5   2   48.00    8.50
   1  -5   2   46.70    9.00
  -1  -5  -2   33.20    8.30
  -1  -5  -2   43.50    7.50
   1   5   2   40.70    5.60
   1   5   2   39.10    6.40
   1   5   2   42.00    6.40
  -1   5  -2   39.00    5.80
  -1   5  -2   49.50    7.10
  -1   5  -2   37.70    5.90
  -2  -5  -2   20.50    5.50
   2  -5   2   14.80    6.60
   2  -5   2   16.80    5.20
   2  -5   2   16.00    6.20
  -2   5  -2   17.80    4.30
   2   5   2   22.30    5.10
   2   5   2   20.40    5.00
  -2   5  -2   13.30    4.40
   2   5   2   15.10    4.30
   3  -5   2   15.60    6.80
  -3  -5  -2   25.80    6.00
   3  -5   2   16.10    6.10
   3  -5   2    9.70    4.80
   3   5   2   17.90    4.90
  -3   5  -2    6.70    3.40
   3   5   2   20.70    5.30
  -3   5  -2   20.40    5.10
   3   5   2   12.20    4.00
   4  -5   2  280.07   19.30
   4  -5   2  293.27   17.20
   4  -5   2  313.47   19.20
   4   5   2  329.77   16.70
  -4   5  -2  303.47   14.60
   4   5   2  313.47   15.70
   4   5   2  321.67   16.80
  -4   5  -2  309.17   16.80
   5  -5   2    2.00    6.30
   5  -5   2    1.30    4.20
   5  -5   2    3.60    5.30
   5   5   2    8.60    4.60
   5   5   2    3.20    4.10
   5   5   2    2.10    3.30
  -5   5  -2    6.50    3.30
  -5   5  -2    9.30    4.60
   6  -5   2   45.00    8.00
   6  -5   2   58.99    9.60
   6  -5   2   43.10   10.20
   6   5   2   47.20    6.80
   6   5   2   66.49    7.20
   6   5   2   58.39    7.90
  -6   5  -2   55.39    8.00
   7  -5   2   24.60    6.70
   7  -5   2   26.20    9.00
   7   5   2   31.00    7.00
   7   5   2   17.40    5.10
   7   5   2   21.30    4.80
   3  -6  -2   11.00    6.10
   3  -6  -2    7.40    7.30
   3   6  -2    9.90    4.50
  -3   6   2    5.90    4.90
   3   6  -2   -1.80    5.40
  -3   6   2    5.60    4.50
  -2  -6   2   17.90    6.60
   2  -6  -2   13.80    6.30
   2  -6  -2   16.30    7.40
  -2   6   2   13.20    5.20
   2   6  -2   14.00    5.40
   2   6  -2   24.50    6.30
  -2   6   2   12.00    5.10
   2   6  -2   21.50    5.40
  -1  -6   2  138.49   13.70
  -1  -6   2  126.99   13.10
   1  -6  -2  134.99   13.60
   1   6  -2  141.69   11.20
   1   6  -2  143.49   12.00
   1   6  -2  159.88   11.50
  -1   6   2  148.59   11.00
  -1   6   2  144.39   12.00
   0  -6  -2    8.20    5.80
   0  -6   2    4.60    6.10
   0  -6  -2   18.80    7.40
   0  -6   2    9.90    6.70
   0   6   2    2.00    5.10
   0   6   2    8.30    5.10
   0   6  -2    4.10    4.50
   0   6  -2   12.20    5.20
   1  -6   2  100.29   12.70
   1  -6   2   69.89   10.70
  -1  -6  -2   84.89   11.30
  -1   6  -2   87.09    9.80
   1   6   2   71.99    9.60
   1   6   2   78.49    9.70
  -1   6  -2   91.69    8.50
   2  -6   2    5.50    6.20
  -2  -6  -2    1.20    5.10
   2  -6   2    1.10    6.60
   2   6   2    1.30    6.20
  -2   6  -2    0.20    3.70
  -2   6  -2    5.30    4.10
   2   6   2   -1.50    3.80
  13   0  -3   65.29   10.60
  12   0  -3   10.30    3.10
  12   0  -3    9.50    5.30
  11   0  -3  208.48   14.30
  11   0  -3  204.18   10.50
  10   0  -3    8.70    2.60
  10   0  -3   11.50    4.80
  10   0  -3    4.30    3.30
   9   0  -3  118.19    8.30
   9   0  -3   99.49    8.60
   8   0  -3   30.70    4.40
   8   0  -3   20.70    4.50
   7   0  -3  131.39    7.80
   7   0  -3  132.09    8.50
   6   0  -3   37.80    3.80
   6   0  -3   37.60    4.40
   5   0  -3  631.24   22.00
   5   0  -3  581.34   21.20
   5   0  -3  538.65   19.20
   4   0  -3  108.39    4.40
   4   0  -3  113.29    4.50
   4   0  -3  113.29    6.20
   4   0  -3  120.79    5.60
   3   0  -3   69.49    3.30
   3   0  -3   77.89    3.40
   3   0  -3   79.49    4.40
   3   0  -3   71.99    3.40
   3   0  -3   76.29    3.80
   3   0  -3   70.99    3.30
  -3   0   3   73.79    3.50
  -2   0   3 3885.91  124.29
   2   0  -3 3644.24  124.29
  -2   0   3 3716.83  124.19
  -2   0   3 3759.22  124.39
   2   0  -3 3899.91  124.49
   2   0  -3 4279.37  124.79
   2   0  -3 3657.83  124.19
   2   0  -3 3787.62  124.29
  -2   0   3 3992.50  124.69
  -2   0   3 3824.22  124.39
   2   0  -3 3759.42  124.49
  -1   0   3  277.27   10.30
   1   0  -3  266.67   10.30
  -1   0   3  289.07   10.30
   1   0  -3  282.17   10.30
  -1   0   3  274.27   10.10
  -1   0   3  306.07   10.20
   1   0  -3  258.67   10.00
   1   0  -3  277.17   10.10
   1   0  -3  284.97   10.00
   0   0   3    5.10    1.60
   0   0   3    3.90    1.30
   0   0  -3    4.40    1.50
   0   0  -3    6.50    1.50
   0   0  -3    6.20    1.60
   0   0   3    4.40    1.10
   0   0   3    3.00    1.40
   0   0   3    4.10    1.60
   0   0  -3    5.30    1.40
  -1   0  -3  102.79    5.10
  -1   0  -3  104.09    5.10
   1   0   3   98.89    5.00
   1   0   3  101.99    5.20
  -1   0  -3  110.39    4.90
  -1   0  -3   92.09    4.60
   1   0   3   95.59    5.00
  -1   0  -3  104.79    4.10
   1   0   3  103.39    4.80
   1   0   3  104.39    5.10
  -2   0  -3    0.50    0.70
   2   0   3   -0.10    1.20
  -2   0  -3    1.90    1.40
  -2   0  -3   -0.60    1.20
   2   0   3    0.10    1.30
   2   0   3    2.50    1.80
   2   0   3    1.20    1.50
   2   0   3    1.60    1.40
  -2   0  -3   -0.50    0.30
  -2   0  -3    1.40    1.30
   3   0   3  154.18    5.50
   3   0   3  150.08    7.10
   3   0   3  151.48    6.90
   3   0   3  151.58    7.90
  -3   0  -3  155.28    6.50
  -3   0  -3  157.58    7.00
   3   0   3  149.09    7.10
  -3   0  -3  154.58    5.50
  -3   0  -3  154.88    6.60
  -3   0  -3  150.18    6.90
   3   0   3  161.18    6.80
  -4   0  -3   34.90    2.80
  -4   0  -3   36.50    3.20
   4   0   3   37.20    3.20
   4   0   3   36.20    1.90
   4   0   3   43.00    4.40
  -4   0  -3   38.90    3.00
  -4   0  -3   34.60    3.30
   4   0   3   32.60    3.50
   4   0   3   35.50    3.50
   4   0   3   40.80    3.50
   5   0   3    0.40    1.40
   5   0   3    0.00    2.10
  -5   0  -3    0.20    1.00
  -5   0  -3   -1.00    1.30
   5   0   3   -0.20    0.70
  -5   0  -3   -0.30    1.10
   5   0   3   -0.70    1.60
   5   0   3   -0.30    1.40
   5   0   3   -0.20    1.50
  -6   0  -3  106.29    5.70
   6   0   3  115.99    6.30
   6   0   3  102.09    4.40
  -6   0  -3  113.09    5.20
   6   0   3  110.89    6.40
   6   0   3  116.39    8.10
   6   0   3  100.19    6.10
   6   0   3  104.89    5.80
   7   0   3    5.40    1.20
   7   0   3    7.60    2.30
  -7   0  -3    6.20    1.70
   7   0   3    6.70    2.00
  -7   0  -3    9.00    1.70
   7   0   3    4.70    2.30
   7   0   3    6.90    2.40
   7   0   3   11.80    3.70
  -8   0  -3  294.47   12.20
   8   0   3  303.17   13.30
   8   0   3  305.47   11.00
   8   0   3  304.17   12.80
   8   0   3  315.27   13.10
   8   0   3  313.37   13.20
   8   0   3  304.47   16.10
   9   0   3    2.00    2.60
   9   0   3   -1.30    2.10
   9   0   3    0.80    2.00
  10   0   3  260.17   12.30
  10   0   3  263.47   12.70
  11   0   3   17.50    4.10
  11   0   3   11.00    3.60
  12   0   3  106.59    8.30
  13  -1  -3   61.99    5.30
  13  -1  -3   89.19   11.90
  13   1  -3   59.09    9.40
  12  -1  -3   16.70    6.50
  12  -1  -3   16.50    3.10
  12  -1  -3   14.70    2.60
  12   1  -3   11.80    5.20
  12   1  -3   15.00    3.80
  11  -1  -3   19.80    3.20
  11  -1  -3   30.70    3.70
  11  -1  -3   27.90    6.90
  11  -1  -3   22.90    2.90
  11   1  -3   16.90    3.80
  10  -1  -3  264.97   10.90
  10  -1  -3  260.57   15.90
  10  -1  -3  240.88   10.20
  10  -1  -3  267.47   14.80
  10  -1  -3  241.08   10.80
  10   1  -3  247.58   13.80
  10   1  -3  241.18   12.00
   9  -1  -3  175.78    7.80
   9  -1  -3  179.68    7.90
   9  -1  -3  182.88    8.60
   9  -1  -3  187.28    8.50
   9  -1  -3  196.28   11.60
   9  -1  -3  184.28   12.50
  -9   1   3  185.18   11.10
   9   1  -3  174.88   10.70
   9   1  -3  179.58    9.50
   8  -1  -3   66.19    4.10
   8  -1  -3   84.99    7.00
   8  -1  -3   77.19    4.90
   8  -1  -3   86.99    8.00
   8  -1  -3   74.69    4.30
   8  -1  -3   72.79    5.10
   8   1  -3   81.69    6.40
  -8   1   3   70.79    6.50
   8   1  -3   76.59    5.60
  -8   1   3   72.09    3.40
  -8   1   3   74.79    3.80
   7  -1  -3  415.66   17.40
   7  -1  -3  394.76   14.60
   7  -1  -3  390.96   15.10
   7  -1  -3  381.46   14.70
   7  -1  -3  382.76   14.30
   7  -1  -3  418.76   18.40
   7   1  -3  398.26   15.90
  -7   1   3  391.76   16.80
  -7   1   3  404.26   14.20
   7   1  -3  393.86   16.60
  -7   1   3  373.76   13.90
   6  -1  -3  156.88    6.90
   6  -1  -3  164.78    7.40
   6  -1  -3  189.28   10.20
   6  -1  -3  171.18    7.90
   6  -1  -3  169.08    9.00
   6  -1  -3  158.68    7.10
   6   1  -3  155.88    7.90
  -6   1   3  174.08    7.40
  -6   1   3  160.08    8.60
   5  -1  -3 1221.98   41.30
   5  -1  -3 1165.58   40.80
   5  -1  -3 1192.28   40.90
   5  -1  -3 1336.77   43.90
   5  -1  -3 1124.79   40.50
   5  -1  -3 1234.58   42.60
   5   1  -3 1202.38   40.00
  -5   1   3 1299.57   41.10
  -5   1   3 1187.48   40.10
  -5   1   3 1162.88   40.50
  -5   1   3 1259.87   40.40
  -5   1   3 1241.68   43.10
  -5   1   3 1241.48   42.20
   5   1  -3 1164.98   41.60
   5   1  -3 1212.38   39.90
  -4  -1   3 1826.82   57.99
   4  -1  -3 1773.02   59.29
   4  -1  -3 1762.22   58.89
   4  -1  -3 1859.81   60.99
  -4  -1   3 1678.83   58.09
   4  -1  -3 1698.83   58.79
   4  -1  -3 1904.91   60.19
   4  -1  -3 1673.83   58.49
  -4   1   3 1877.31   58.79
  -4   1   3 1740.93   58.69
   4   1  -3 1748.03   59.49
   4   1  -3 1776.32   58.39
  -4   1   3 1769.92   59.79
   4   1  -3 1812.02   58.29
  -4   1   3 1770.12   58.39
  -4   1   3 1866.31   59.29
   4   1  -3 1769.42   58.19
   4   1  -3 1666.63   57.99
  -4   1   3 1810.92   60.69
  -3  -1   3  339.27   12.20
  -3  -1   3  328.97   12.60
  -3  -1   3  357.86   12.00
   3  -1  -3  325.07   13.20
   3  -1  -3  341.47   12.60
   3  -1  -3  356.06   14.30
  -3  -1   3  353.06   12.30
   3  -1  -3  326.27   12.70
   3  -1  -3  402.36   13.70
   3  -1  -3  334.17   12.80
  -3   1   3  350.26   13.40
  -3   1   3  361.76   13.40
   3   1  -3  344.77   13.10
   3   1  -3  337.17   12.10
  -3   1   3  355.56   12.80
   3   1  -3  352.36   12.50
   3   1  -3  332.37   12.30
  -3   1   3  330.47   12.60
  -3   1   3  324.67   14.20
   3   1  -3  358.46   12.60
  -3   1   3  328.27   12.40
   2  -1  -3 1749.43   59.69
   2  -1  -3 2013.40   60.49
   2  -1  -3 1833.82   59.99
  -2  -1   3 1703.63   59.89
   2  -1  -3 1783.52   60.29
   2  -1  -3 1916.91   59.99
  -2  -1   3 1759.62   59.69
   2  -1  -3 1913.31   61.19
  -2  -1   3 1913.11   59.49
   2  -1  -3 1728.53   59.89
  -2  -1   3 1776.72   59.59
   2   1  -3 1849.71   59.09
   2   1  -3 1840.92   60.09
   2   1  -3 1758.72   59.69
   2   1  -3 1841.72   59.79
  -2   1   3 1834.12   61.09
  -2   1   3 1780.02   60.29
   2   1  -3 1815.82   59.89
  -2   1   3 1838.92   60.39
   2   1  -3 1681.63   59.39
  -2   1   3 1828.32   59.89
  -2   1   3 1717.73   59.79
  -1  -1   3 2327.87   78.09
  -1  -1   3 2458.65   77.59
  -1  -1   3 2377.66   76.99
   1  -1  -3 2575.94   78.99
  -1  -1   3 2365.36   77.79
   1  -1  -3 2298.27   78.09
   1  -1  -3 2381.76   77.89
   1  -1  -3 2107.99   77.59
   1  -1  -3 2340.17   77.79
   1  -1  -3 2396.26   77.69
  -1   1   3 2377.56   78.19
  -1   1   3 2520.65   78.99
   1   1  -3 2420.86   77.79
   1   1  -3 2286.97   77.59
   1   1  -3 2402.66   77.79
   1   1  -3 2377.96   77.99
  -1   1   3 2377.46   78.29
  -1   1   3 2266.17   77.79
   1   1  -3 2345.87   77.79
   1   1  -3 2478.85   77.99
  -1   1   3 2444.56   77.89
  -1   1   3 2372.16   77.69
  -1   1   3 2213.28   77.69
   0  -1  -3 5594.14  179.28
   0  -1   3 5560.14  179.58
   0  -1  -3 5594.94  179.48
   0  -1   3 5781.02  179.48
   0  -1  -3 5670.93  179.38
   0  -1   3 5701.43  179.68
   0  -1  -3 5335.07  179.68
   0  -1   3 5438.46  179.88
   0  -1  -3 5762.22  180.38
   0  -1   3 5458.25  179.88
   0  -1  -3 5605.04  179.58
   0  -1   3 5331.37  179.08
   0   1  -3 5686.23  179.78
   0   1   3 5524.45  179.88
   0   1  -3 5469.55  179.38
   0   1  -3 5367.06  178.98
   0   1   3 5857.71  180.58
   0   1   3 5519.85  179.48
   0   1   3 5492.95  179.58
   0   1   3 5397.96  179.28
   0   1  -3 5433.56  179.58
   0   1  -3 5393.66  179.58
   0   1  -3 5463.55  179.48
   0   1   3 5227.58  179.28
   1  -1   3 2367.06   78.29
  -1  -1  -3 2348.57   77.79
  -1  -1  -3 2411.46   78.09
  -1  -1  -3 2391.16   77.79
  -1  -1  -3 2298.97   77.89
   1  -1   3 2348.27   78.59
   1  -1   3 2350.66   78.69
  -1  -1  -3 2355.16   78.19
   1  -1   3 2280.97   77.89
   1  -1   3 2376.36   78.19
   1  -1   3 2422.86   78.29
   1   1   3 2325.17   77.79
   1   1   3 2278.77   77.79
   1   1   3 2461.25   78.49
   1   1   3 2339.47   78.09
  -1   1  -3 2477.95   77.99
  -1   1  -3 2310.27   77.19
  -1   1  -3 2334.87   78.19
   1   1   3 2429.16   79.09
  -1   1  -3 2414.26   78.39
   1   1   3 2421.86   78.09
  -1   1  -3 2362.06   78.49
  -1   1  -3 2415.56   78.09
   2  -1   3  366.16   14.00
   2  -1   3  356.66   14.70
  -2  -1  -3  367.26   14.00
  -2  -1  -3  383.96   13.40
  -2  -1  -3  392.46   13.50
   2  -1   3  366.56   13.70
   2  -1   3  374.36   14.10
  -2  -1  -3  366.86   13.80
   2  -1   3  359.06   14.60
   2  -1   3  380.26   14.50
   2   1   3  357.86   13.40
   2   1   3  357.76   13.60
   2   1   3  379.86   13.90
  -2   1  -3  369.06   13.70
  -2   1  -3  349.57   14.00
  -2   1  -3  362.86   12.40
  -2   1  -3  360.66   14.10
   2   1   3  361.86   13.70
  -2   1  -3  347.37   14.40
  -2   1  -3  353.96   13.80
   2   1   3  376.16   14.10
  -3  -1  -3 2079.49   67.29
   3  -1   3 2001.20   67.89
   3  -1   3 2022.70   67.69
   3  -1   3 2028.70   69.19
  -3  -1  -3 2075.99   67.39
   3  -1   3 1982.00   68.29
   3  -1   3 2043.20   69.19
  -3  -1  -3 2051.79   67.69
  -3  -1  -3 1991.90   67.69
  -3  -1  -3 2067.19   67.29
   3  -1   3 2129.99   68.09
   3   1   3 2098.89   67.99
   3   1   3 1996.50   67.29
   3   1   3 1968.40   67.39
  -3   1  -3 2168.38   67.79
  -3   1  -3 1972.70   68.69
   3   1   3 2018.10   67.59
   3   1   3 2052.79   67.79
  -3   1  -3 1984.10   67.99
  -3   1  -3 2020.70   67.99
  -4  -1  -3  154.58    7.00
   4  -1   3  158.28    7.60
  -4  -1  -3  151.28    6.60
  -4  -1  -3  152.18    6.60
   4  -1   3  141.59    7.10
   4  -1   3  144.19    9.00
   4  -1   3  157.48    9.00
  -4  -1  -3  145.19    7.10
   4  -1   3  139.29    7.90
   4  -1   3  147.99    7.60
  -4  -1  -3  149.19    6.60
  -4   1  -3  171.58    7.40
   4   1   3  158.38    7.30
   4   1   3  149.39    6.60
  -4   1  -3  149.39    6.90
  -4   1  -3  163.48    7.60
  -4   1  -3  144.09    8.20
  -4   1  -3  164.48    7.50
   4   1   3  150.38    7.40
   4   1   3  154.68    7.10
   4   1   3  150.58    7.00
   5  -1   3  190.08    9.80
  -5  -1  -3  212.58    8.30
   5  -1   3  210.28    9.00
   5  -1   3  213.68    9.40
   5  -1   3  203.18    9.50
   5  -1   3  204.38   11.10
   5  -1   3  201.98   11.40
  -5  -1  -3  208.48    8.80
  -5  -1  -3  198.28    8.60
  -5  -1  -3  207.78    8.40
   5   1   3  225.28   11.00
   5   1   3  196.38    8.40
   5   1   3  198.48    9.00
  -5   1  -3  190.18    9.00
   5   1   3  200.88    8.80
   5   1   3  180.88    8.60
  -5   1  -3  171.28   10.10
   5   1   3  208.38    9.20
  -5   1  -3  194.48    8.60
  -6  -1  -3   65.49    4.40
  -6  -1  -3   69.19    3.90
   6  -1   3   65.59    5.80
   6  -1   3   65.49    7.20
   6  -1   3   65.49    5.00
   6  -1   3   74.79    7.00
   6  -1   3   67.79    4.80
   6  -1   3   74.69    5.60
  -6  -1  -3   68.59    4.10
  -6   1  -3   71.19    4.80
   6   1   3   80.49    6.70
  -6   1  -3   63.29    4.30
   6   1   3   80.79    5.00
   6   1   3   71.89    4.30
   6   1   3   67.69    4.70
   6   1   3   77.69    5.20
  -6   1  -3   61.79    6.10
   6   1   3   81.09    5.20
  -7  -1  -3  321.77   11.70
   7  -1   3  303.97   14.10
   7  -1   3  302.17   13.60
   7  -1   3  299.77   13.40
   7  -1   3  305.87   13.10
  -7  -1  -3  323.47   12.50
   7  -1   3  288.57   15.90
   7  -1   3  298.07   16.40
   7   1   3  321.87   13.20
  -7   1  -3  320.97   15.80
   7   1   3  330.87   13.40
   7   1   3  305.87   12.40
   7   1   3  339.37   13.10
  -7   1  -3  315.87   12.30
   7   1   3  307.57   12.90
  -7   1  -3  303.07   12.90
   7   1   3  321.17   15.80
   8  -1   3  217.18   10.40
   8  -1   3  223.88   11.10
   8  -1   3  229.68   12.30
   8  -1   3  226.58   11.60
   8  -1   3  220.08   14.20
  -8   1  -3  201.08    9.90
  -8   1  -3  237.98   13.50
   8   1   3  218.48    9.60
   8   1   3  216.98   10.10
  -8   1  -3  237.38   10.30
   8   1   3  221.98   10.40
   8   1   3  220.18   10.20
   9  -1   3   53.19    6.60
   9  -1   3   50.79    8.50
   9  -1   3   56.29    6.30
   9   1   3   51.19    5.20
   9   1   3   48.80    5.10
   9   1   3   49.40    4.10
   9   1   3   57.29    5.00
  10  -1   3   27.40    5.10
  10  -1   3   27.40    4.60
  10  -1   3   30.30    7.40
  10   1   3   31.50    4.30
  10   1   3   25.30    4.00
  11  -1   3   25.00    4.80
  11  -1   3   21.00    7.20
  11  -1   3   26.60    5.40
  11   1   3   25.00    4.10
  11   1   3   26.90    4.20
  12  -2  -3   23.10    7.70
  12  -2  -3   41.20    5.40
  12  -2  -3   28.50    4.80
  12   2  -3   28.00    5.00
  11  -2  -3    9.90    3.30
  11  -2  -3    8.00    5.90
  11  -2  -3    9.00    3.50
  11   2  -3    6.40    3.40
  10  -2  -3   48.80    6.00
  10  -2  -3   66.19    9.70
  10  -2  -3   53.39    5.70
  10   2  -3   59.49    6.00
 -10   2   3   46.30    9.30
   9  -2  -3   31.40    4.90
   9  -2  -3   22.10    6.40
   9  -2  -3   24.10    3.40
   9  -2  -3   26.30    4.30
   9  -2  -3   35.80    6.60
   9   2  -3   27.40    4.40
   9   2  -3   25.00    2.20
   9   2  -3   31.10    5.30
  -9   2   3   30.70    5.50
   8  -2  -3  479.95   21.80
   8  -2  -3  460.75   19.50
   8  -2  -3  475.25   18.30
   8  -2  -3  460.75   22.80
   8  -2  -3  485.25   18.70
   8  -2  -3  462.95   18.90
   8   2  -3  492.65   19.70
  -8   2   3  473.75   17.10
  -8   2   3  473.25   20.80
   8   2  -3  470.65   17.40
   8   2  -3  467.05   16.90
   8   2  -3  492.25   17.30
   8   2  -3  475.55   16.80
  -8   2   3  458.95   17.90
   7  -2  -3  546.45   22.50
   7  -2  -3  507.05   19.80
   7  -2  -3  516.65   19.10
   7  -2  -3  539.35   19.40
   7  -2  -3  480.25   22.90
   7  -2  -3  544.05   19.70
   7  -2  -3  498.95   20.30
   7   2  -3  510.85   18.50
   7   2  -3  475.85   17.90
  -7   2   3  508.35   21.30
   7   2  -3  478.65   20.10
   7   2  -3  490.65   18.40
  -7   2   3  482.05   18.90
   7   2  -3  498.05   18.00
  -7   2   3  507.45   18.30
   6  -2  -3  467.35   17.90
   6  -2  -3  442.96   18.20
   6  -2  -3  443.26   20.90
   6  -2  -3  444.86   18.80
   6  -2  -3  473.55   18.10
  -6  -2   3  481.35   16.40
   6  -2  -3  471.55   20.20
   6  -2  -3  494.75   17.80
  -6  -2   3  451.55   16.50
   6   2  -3  485.35   17.40
  -6   2   3  489.35   19.70
   6   2  -3  469.05   17.50
  -6   2   3  473.55   17.20
  -6   2   3  451.15   17.60
   6   2  -3  470.85   16.90
   6   2  -3  455.65   18.60
   6   2  -3  444.46   16.70
   5  -2  -3  955.10   32.00
   5  -2  -3  868.71   32.80
  -5  -2   3  831.12   31.00
   5  -2  -3  913.41   32.20
   5  -2  -3  906.21   32.30
   5  -2  -3  889.01   34.70
   5  -2  -3  919.81   31.70
   5  -2  -3  946.01   34.10
  -5  -2   3  922.11   30.80
  -5  -2   3  846.62   30.20
  -5   2   3  905.01   31.80
  -5   2   3  920.81   31.30
   5   2  -3  934.11   31.70
   5   2  -3  920.31   31.20
  -5   2   3  927.01   33.50
   5   2  -3  875.71   30.90
   5   2  -3  918.71   31.40
   5   2  -3  885.41   32.50
   4  -2  -3   52.49    4.10
   4  -2  -3   45.90    3.70
   4  -2  -3   48.90    5.10
   4  -2  -3   50.19    6.00
  -4  -2   3   40.70    4.30
   4  -2  -3   51.89    5.40
  -4  -2   3   39.30    3.40
   4  -2  -3   49.00    4.70
  -4  -2   3   47.60    3.10
  -4  -2   3   48.00    3.40
   4  -2  -3   45.70    3.80
  -4   2   3   54.69    5.00
   4   2  -3   52.49    4.30
   4   2  -3   53.39    4.20
  -4   2   3   44.90    5.70
   4   2  -3   49.10    3.80
  -4   2   3   46.80    5.10
  -4   2   3   50.39    4.80
   4   2  -3   46.60    4.30
   4   2  -3   49.60    4.40
  -4   2   3   48.00    5.10
  -4   2   3   45.70    3.70
  -4   2   3   46.80    4.10
   4   2  -3   42.60    3.40
   3  -2  -3 1460.85   52.09
   3  -2  -3 1519.45   51.29
  -3  -2   3 1588.54   51.69
   3  -2  -3 1488.25   51.59
   3  -2  -3 1594.34   51.69
  -3  -2   3 1440.46   51.49
   3  -2  -3 1456.25   53.29
   3  -2  -3 1528.25   52.79
  -3  -2   3 1465.35   50.79
   3  -2  -3 1467.85   51.09
  -3  -2   3 1562.64   50.99
  -3  -2   3 1519.95   50.49
   3   2  -3 1488.85   51.59
  -3   2   3 1566.44   52.79
   3   2  -3 1497.15   50.99
   3   2  -3 1442.46   50.69
  -3   2   3 1488.15   51.39
   3   2  -3 1541.65   51.59
  -3   2   3 1521.45   50.99
   3   2  -3 1494.25   51.19
  -3   2   3 1580.64   51.69
  -3   2   3 1557.84   52.49
   3   2  -3 1516.95   51.29
  -3   2   3 1603.04   51.79
  -3   2   3 1492.15   53.29
  -2  -2   3 1311.07   41.80
  -2  -2   3 1284.77   41.60
   2  -2  -3 1206.08   41.40
   2  -2  -3 1335.07   42.10
  -2  -2   3 1231.18   41.10
  -2  -2   3 1202.48   42.00
  -2  -2   3 1080.49   41.20
  -2  -2   3 1153.18   42.10
  -2  -2   3 1062.49   41.20
   2  -2  -3 1242.38   42.90
   2  -2  -3 1240.48   41.60
   2  -2  -3 1245.38   41.90
   2  -2  -3 1203.38   43.30
   2  -2  -3 1186.78   42.40
  -2   2   3 1305.37   42.90
   2   2  -3 1221.08   42.00
   2   2  -3 1189.98   41.50
  -2   2   3 1289.57   42.00
  -2   2   3 1214.68   41.30
  -2   2   3 1224.48   43.00
   2   2  -3 1180.98   41.20
   2   2  -3 1237.68   41.70
  -2   2   3 1257.27   41.60
   2   2  -3 1154.08   41.50
   2   2  -3 1236.58   41.40
  -2   2   3 1185.28   43.30
   2   2  -3 1196.58   42.50
  -2   2   3 1121.59   41.50
  -1  -2   3  324.67   12.80
   1  -2  -3  326.57   12.70
   1  -2  -3  300.57   12.90
   1  -2  -3  321.97   14.40
   1  -2  -3  329.57   12.60
  -1  -2   3  321.77   12.90
  -1  -2   3  330.67   12.50
  -1  -2   3  311.17   13.70
   1  -2  -3  322.67   13.00
  -1  -2   3  282.47   12.90
  -1  -2   3  338.17   12.70
   1  -2  -3  319.07   13.70
  -1   2   3  313.87   12.60
   1   2  -3  308.57   12.80
  -1   2   3  303.57   12.80
  -1   2   3  319.27   14.00
  -1   2   3  321.07   12.60
  -1   2   3  329.57   13.20
   1   2  -3  316.87   12.50
   1   2  -3  320.47   12.70
  -1   2   3  355.06   14.10
   1   2  -3  310.57   13.70
  -1   2   3  301.67   14.40
   1   2  -3  316.77   13.40
   1   2  -3  310.97   13.00
   1   2  -3  330.07   12.60
   0  -2  -3  169.58    7.70
   0  -2  -3  154.48    8.60
   0  -2  -3  169.58    8.00
   0  -2   3  174.08    7.40
   0  -2  -3  170.28    9.30
   0  -2   3  170.48    9.20
   0  -2  -3  155.38    7.90
   0  -2  -3  173.18    7.80
   0  -2   3  153.08    8.80
   0  -2   3  157.48    8.20
   0   2  -3  167.58    8.60
   0   2   3  167.38    8.20
   0   2   3  159.08    8.00
   0   2  -3  163.78    7.40
   0   2   3  151.38    7.50
   0   2  -3  163.78    8.80
   0   2   3  165.38    7.70
   0   2  -3  170.98    8.20
   0   2   3  165.68    8.80
   0   2  -3  163.48    8.00
   0   2  -3  156.48    7.90
   0   2   3  161.88    9.30
   0   2  -3  162.38    7.60
   1  -2   3 1571.54   56.79
  -1  -2  -3 1644.94   56.79
   1  -2   3 1766.32   56.79
  -1  -2  -3 1703.23   55.99
   1  -2   3 1759.22   56.29
   1  -2   3 1572.84   57.19
   1  -2   3 1621.54   57.69
  -1  -2  -3 1722.93   56.49
  -1  -2  -3 1649.04   56.19
   1  -2   3 1578.24   56.69
  -1  -2  -3 1698.03   56.29
   1  -2   3 1693.13   55.49
  -1   2  -3 1589.04   56.49
  -1   2  -3 1691.03   56.19
   1   2   3 1653.43   57.99
   1   2   3 1656.13   56.39
   1   2   3 1662.03   55.99
   1   2   3 1730.93   56.49
  -1   2  -3 1610.34   57.19
   1   2   3 1662.93   56.19
  -1   2  -3 1661.83   55.49
  -1   2  -3 1703.23   56.69
  -1   2  -3 1665.73   56.59
  -1   2  -3 1718.83   57.09
   1   2   3 1702.23   57.19
  -2  -2  -3  883.71   31.20
   2  -2   3  910.51   31.80
  -2  -2  -3  897.41   31.10
  -2  -2  -3  890.21   31.70
   2  -2   3  858.71   31.90
  -2  -2  -3  912.31   31.40
   2  -2   3  844.92   32.40
   2  -2   3  922.91   30.30
   2  -2   3  904.81   31.30
   2  -2   3  883.21   33.10
   2  -2   3  887.81   32.50
  -2  -2  -3  916.11   31.00
  -2   2  -3  891.21   32.00
  -2   2  -3  876.21   31.20
  -2   2  -3  883.51   32.10
   2   2   3  903.21   32.10
   2   2   3  890.71   31.50
  -2   2  -3  886.11   32.50
  -2   2  -3  904.41   31.60
  -2   2  -3  847.62   30.20
   2   2   3  872.01   31.00
   2   2   3  875.81   31.40
   2   2   3  907.81   33.20
   2   2   3  881.11   31.30
  -3  -2  -3   21.50    2.80
   3  -2   3   19.90    2.20
   3  -2   3   14.30    3.80
   3  -2   3   16.60    3.90
   3  -2   3   19.40    3.50
  -3  -2  -3   14.40    2.80
   3  -2   3   17.70    2.80
  -3  -2  -3   22.60    3.00
   3  -2   3   23.20    3.90
  -3  -2  -3   24.10    2.90
  -3  -2  -3   21.10    3.00
   3  -2   3   24.40    3.40
  -3   2  -3   20.70    2.90
   3   2   3   19.90    3.00
   3   2   3   18.20    2.60
   3   2   3   12.70    2.60
   3   2   3   20.70    3.50
  -3   2  -3   20.00    4.10
  -3   2  -3   17.80    2.00
  -3   2  -3   17.30    3.50
  -3   2  -3   23.50    3.30
   3   2   3   17.10    4.00
   3   2   3   23.30    3.20
  -3   2  -3   18.10    3.00
   4  -2   3  481.55   20.40
   4  -2   3  469.35   21.10
  -4  -2  -3  494.55   19.00
   4  -2   3  499.45   17.30
   4  -2   3  495.35   19.00
   4  -2   3  500.65   19.60
   4  -2   3  476.15   21.20
  -4  -2  -3  530.45   19.00
   4  -2   3  483.35   19.70
  -4  -2  -3  507.65   18.40
   4   2   3  487.95   19.00
  -4   2  -3  520.75   19.00
   4   2   3  505.85   19.00
  -4   2  -3  510.15   17.20
   4   2   3  503.35   19.60
  -4   2  -3  465.65   20.30
   4   2   3  478.85   18.60
   4   2   3  509.45   19.00
  -4   2  -3  516.05   19.50
   5  -2   3  126.49    8.10
   5  -2   3  129.39    7.30
   5  -2   3  140.69    7.90
   5  -2   3  119.69    8.70
   5  -2   3  124.89    9.60
  -5  -2  -3  132.89    6.50
   5  -2   3  133.79    9.70
  -5  -2  -3  135.49    7.10
   5  -2   3  133.49    5.30
  -5  -2  -3  131.09    7.20
   5   2   3  146.19    7.40
   5   2   3  124.79    6.90
  -5   2  -3  132.29    7.50
   5   2   3  133.09    7.40
  -5   2  -3  145.19    8.90
   5   2   3  119.99    7.50
   5   2   3  129.79    7.10
  -5   2  -3  133.79    7.00
   6  -2   3   52.79    2.30
   6  -2   3   55.19    6.10
   6  -2   3   53.19    4.80
   6  -2   3   48.30    5.10
   6  -2   3   48.40    6.40
  -6  -2  -3   50.49    3.70
   6  -2   3   51.59    7.30
  -6  -2  -3   48.40    4.40
   6  -2   3   46.00    6.60
   6   2   3   48.50    5.00
   6   2   3   56.69    4.80
  -6   2  -3   45.10    4.00
   6   2   3   54.19    4.70
   6   2   3   44.40    4.40
  -6   2  -3   41.90    4.60
  -6   2  -3   51.89    6.10
   6   2   3   49.80    4.90
   7  -2   3  103.19    7.80
   7  -2   3  110.29    9.60
  -7  -2  -3   99.29    5.90
   7  -2   3  101.99    8.40
   7  -2   3  104.09    7.20
   7  -2   3   90.09    6.50
   7  -2   3  100.89    9.90
  -7  -2  -3  105.69    5.20
  -7   2  -3   95.19    6.60
   7   2   3   98.99    6.30
  -7   2  -3   92.89    8.30
   7   2   3   97.59    6.90
   7   2   3   85.39    6.30
   7   2   3   91.49    6.30
   7   2   3   83.59    6.20
   8  -2   3   46.40    6.00
   8  -2   3   31.30    7.00
   8  -2   3   32.30    5.80
   8   2   3   42.30    4.90
   8   2   3   47.10    4.80
   8   2   3   39.60    4.60
  -8   2  -3   32.40    5.20
   8   2   3   38.60    4.50
   9  -2   3    2.30    3.30
   9  -2   3   -4.00    3.40
   9  -2   3    3.20    4.80
   9   2   3    2.30    2.20
   9   2   3    1.40    2.50
   9   2   3    2.60    2.60
  10  -2   3  418.66   19.80
  10  -2   3  393.16   23.40
  10  -2   3  431.06   19.50
  10   2   3  399.66   17.10
  10   2   3  419.06   17.30
  11  -2   3   20.30    5.20
  11  -2   3   17.50    5.30
  11  -2   3   29.10    8.80
  11   2   3   23.60    4.10
  11   2   3   23.00    4.10
  11  -3  -3   93.59    8.40
  11  -3  -3   90.19    8.90
  11  -3  -3   93.39   12.80
  11   3  -3   77.49    5.30
  11   3  -3   90.59    8.60
  10  -3  -3   30.10    7.90
  10  -3  -3   37.70    5.90
  10  -3  -3   27.60    5.50
  10   3  -3   30.40    5.80
  10   3  -3   30.50    3.60
  10   3  -3   32.30    3.80
   9  -3  -3  238.08   17.20
   9  -3  -3  282.17   13.90
   9  -3  -3  255.47   14.30
   9   3  -3  258.17   11.10
   9   3  -3  245.18   12.00
   9   3  -3  260.57   13.90
   9   3  -3  261.57   11.10
   8  -3  -3  681.53   28.10
   8  -3  -3  719.93   27.40
   8  -3  -3  636.84   30.90
   8   3  -3  666.33   27.20
   8   3  -3  659.63   25.80
   8   3  -3  683.63   24.90
  -8   3   3  695.83   26.30
  -8   3   3  706.33   29.20
   8   3  -3  699.23   25.00
   7  -3  -3   18.50    5.90
   7  -3  -3   17.90    3.30
   7  -3  -3   20.30    4.20
   7  -3  -3   23.00    4.10
   7  -3  -3   21.10    5.50
   7  -3  -3   20.80    4.60
  -7   3   3   24.00    5.20
   7   3  -3   17.00    3.20
  -7   3   3   21.90    3.60
   7   3  -3   13.00    3.50
   7   3  -3   15.30    2.90
   7   3  -3   18.00    4.40
   7   3  -3   15.20    4.40
   6  -3  -3  110.99   10.30
   6  -3  -3  135.69    7.40
   6  -3  -3  125.29    9.30
  -6  -3   3  112.19    6.90
   6  -3  -3  119.49    9.80
   6  -3  -3  120.59    7.90
  -6  -3   3  108.89    5.90
   6  -3  -3  122.59    8.30
  -6   3   3  111.59    7.30
   6   3  -3  119.99    8.20
  -6   3   3  118.89    6.80
   6   3  -3   98.19    7.80
   6   3  -3  122.19    6.80
   6   3  -3  109.59    7.60
   6   3  -3  109.79    6.80
  -6   3   3  120.39    9.40
   5  -3  -3   76.39    8.40
   5  -3  -3   75.59    5.60
   5  -3  -3   61.29    7.10
  -5  -3   3   64.69    4.90
   5  -3  -3   77.59    6.10
   5  -3  -3   69.59    7.80
   5  -3  -3   73.39    6.60
  -5  -3   3   65.09    5.80
   5   3  -3   70.49    6.00
   5   3  -3   56.49    6.50
  -5   3   3   75.09    7.50
  -5   3   3   69.49    5.80
   5   3  -3   74.49    6.40
   5   3  -3   74.69    5.50
   5   3  -3   62.49    6.10
   5   3  -3   70.79    5.10
  -4  -3   3  265.87   11.80
   4  -3  -3  267.37   14.00
  -4  -3   3  257.07   12.90
   4  -3  -3  294.37   12.60
   4  -3  -3  294.97   13.20
   4  -3  -3  275.77   14.60
   4  -3  -3  284.77   13.20
   4  -3  -3  273.97   15.10
   4   3  -3  284.77   13.20
   4   3  -3  263.37   12.60
   4   3  -3  268.77   11.90
  -4   3   3  293.47   12.40
   4   3  -3  280.17   12.80
  -4   3   3  282.67   12.80
  -4   3   3  285.67   14.60
   4   3  -3  265.57   12.20
  -4   3   3  295.27   12.40
   4   3  -3  290.97   13.30
   3  -3  -3  143.49    8.80
   3  -3  -3  162.48    8.80
  -3  -3   3  144.39    8.20
   3  -3  -3  162.78   10.10
   3  -3  -3  169.58    8.30
  -3  -3   3  133.09    9.10
   3  -3  -3  170.68   10.90
   3  -3  -3  146.79    9.80
  -3   3   3  161.88    8.20
  -3   3   3  149.59    8.40
   3   3  -3  140.59    9.60
  -3   3   3  159.38   10.20
   3   3  -3  137.99    7.70
   3   3  -3  153.18    8.70
   3   3  -3  149.69    9.00
   3   3  -3  148.09    8.20
  -3   3   3  146.09    9.30
  -3   3   3  149.79    7.90
   3   3  -3  153.48    8.40
   3   3  -3  147.79    8.80
   2  -3  -3  501.65   21.50
   2  -3  -3  549.35   20.20
   2  -3  -3  497.55   20.50
   2  -3  -3  469.35   22.00
  -2  -3   3  530.95   20.60
   2  -3  -3  569.64   21.70
  -2  -3   3  478.25   21.00
  -2  -3   3  513.45   20.20
   2   3  -3  531.25   20.30
   2   3  -3  527.05   21.10
   2   3  -3  506.75   20.30
  -2   3   3  524.05   20.10
  -2   3   3  519.55   19.90
  -2   3   3  498.65   20.30
  -2   3   3  551.84   21.10
   2   3  -3  529.25   19.90
   2   3  -3  508.25   20.50
   2   3  -3  529.65   20.60
  -2   3   3  551.04   21.00
  -2   3   3  492.25   22.00
   2   3  -3  494.55   21.70
   1  -3  -3  339.17   16.70
  -1  -3   3  346.07   15.20
  -1  -3   3  360.76   16.30
  -1  -3   3  354.56   15.60
   1  -3  -3  345.57   15.20
   1  -3  -3  390.96   14.90
   1  -3  -3  343.57   16.10
  -1  -3   3  370.46   14.50
  -1   3   3  358.26   14.80
   1   3  -3  374.36   16.00
  -1   3   3  354.56   14.60
  -1   3   3  366.16   15.50
   1   3  -3  330.27   14.40
  -1   3   3  317.57   16.50
   1   3  -3  354.06   15.30
   1   3  -3  355.06   15.10
   1   3  -3  351.76   14.60
   1   3  -3  344.47   16.20
   1   3  -3  363.86   15.40
  -1   3   3  351.16   15.10
   0  -3   3    8.80    3.40
   0  -3  -3    5.40    2.10
   0  -3  -3    7.30    3.80
   0  -3  -3    5.10    2.60
   0  -3   3    2.40    3.20
   0  -3  -3    2.10    2.80
   0  -3   3    6.90    3.30
   0  -3   3    6.50    3.00
   0  -3   3    7.70    2.50
   0  -3   3   12.60    3.40
   0  -3   3    3.90    2.00
   0   3   3    5.10    2.10
   0   3   3    6.20    3.40
   0   3   3    8.40    2.90
   0   3  -3    4.20    2.90
   0   3  -3    3.50    3.20
   0   3   3    7.70    2.70
   0   3   3    6.60    3.20
   0   3  -3    6.50    2.20
   0   3  -3    3.00    2.20
   0   3   3    5.40    2.50
   0   3  -3    6.50    2.70
   0   3  -3    4.10    2.00
   0   3  -3    5.70    2.90
   1  -3   3  433.16   19.00
   1  -3   3  410.56   19.20
  -1  -3  -3  453.45   19.90
   1  -3   3  416.96   19.70
  -1  -3  -3  491.05   17.80
  -1  -3  -3  430.86   18.70
   1  -3   3  455.25   17.70
   1  -3   3  462.25   17.40
  -1  -3  -3  445.46   17.90
   1  -3   3  425.16   18.60
   1   3   3  476.15   19.60
  -1   3  -3  446.36   17.70
   1   3   3  477.25   18.10
  -1   3  -3  476.45   18.60
   1   3   3  421.06   17.50
  -1   3  -3  431.86   17.10
  -1   3  -3  445.66   18.70
   1   3   3  445.36   18.10
   1   3   3  445.66   18.40
  -1   3  -3  424.36   19.40
  -1   3  -3  434.56   18.20
   2  -3   3   47.20    5.80
   2  -3   3   58.99    4.90
   2  -3   3   50.09    6.80
   2  -3   3   50.09    6.40
   2  -3   3   54.09    6.70
  -2  -3  -3   51.49    5.00
   2  -3   3   51.19    4.20
  -2  -3  -3   59.09    6.00
  -2   3  -3   50.19    5.20
   2   3   3   45.70    4.60
  -2   3  -3   46.00    5.80
   2   3   3   52.29    5.30
   2   3   3   44.10    5.80
   2   3   3   49.99    5.20
  -2   3  -3   50.49    6.00
  -2   3  -3   45.30    4.60
  -2   3  -3   49.60    4.00
  -2   3  -3   41.50    5.30
   2   3   3   40.10    4.60
   3  -3   3  411.86   18.80
   3  -3   3  430.16   19.70
   3  -3   3  447.86   17.90
  -3  -3  -3  427.66   18.20
   3  -3   3  420.76   20.40
   3  -3   3  424.36   19.90
   3  -3   3  445.36   16.70
   3   3   3  416.56   17.40
   3   3   3  461.45   19.30
  -3   3  -3  442.86   16.60
   3   3   3  448.46   18.10
   3   3   3  436.36   18.10
   3   3   3  423.36   17.90
  -3   3  -3  458.45   18.50
  -3   3  -3  441.36   19.60
  -3   3  -3  457.15   17.90
   4  -3   3  169.88   11.60
   4  -3   3  194.98   11.30
   4  -3   3  190.78    8.50
   4  -3   3  176.88   12.20
   4  -3   3  210.88   10.10
  -4  -3  -3  176.08    9.10
  -4  -3  -3  197.88   10.30
   4  -3   3  202.98   12.80
  -4   3  -3  197.38   10.50
   4   3   3  192.18   10.00
   4   3   3  186.28    9.50
  -4   3  -3  193.98    9.80
   4   3   3  194.38   11.00
   4   3   3  187.38   10.00
   4   3   3  187.38   10.10
  -4   3  -3  198.88    8.50
  -4   3  -3  173.78   11.30
  -5  -3  -3   66.59    6.00
  -5  -3  -3   66.49    5.10
   5  -3   3   68.39    7.40
   5  -3   3   56.99    8.30
   5  -3   3   61.89    5.70
   5  -3   3   71.79    4.40
   5  -3   3   65.89    8.30
   5  -3   3   62.19    7.80
   5   3   3   69.79    6.10
  -5   3  -3   69.19    7.30
   5   3   3   79.49    7.10
  -5   3  -3   62.79    6.10
   5   3   3   62.59    5.70
   5   3   3   67.19    5.60
   5   3   3   65.59    6.00
  -5   3  -3   71.69    4.40
  -5   3  -3   69.39    5.60
   6  -3   3   82.39    8.40
   6  -3   3   97.99    9.40
  -6  -3  -3  103.49    6.80
   6  -3   3   68.09    9.40
   6   3   3   95.19    7.00
   6   3   3   91.79    6.60
  -6   3  -3   95.69    7.20
  -6   3  -3   91.69    8.30
   6   3   3   83.39    6.80
   6   3   3  103.29    7.10
   7  -3   3  106.59   11.30
   7  -3   3  111.79    9.40
   7  -3   3  112.49   10.00
  -7   3  -3  116.39    8.10
   7   3   3  109.49    7.80
   7   3   3  108.69    7.80
   7   3   3  104.19    7.40
   8  -3   3  149.39   13.60
   8  -3   3  150.78   11.90
   8  -3   3  137.79   10.70
   8   3   3  134.29    8.60
   8   3   3  144.39    9.00
   8   3   3  150.08    9.60
   9  -3   3  116.89   10.00
   9  -3   3   87.09   12.00
   9  -3   3   97.69   10.50
   9   3   3  110.99    7.90
   9   3   3  106.09    7.60
   9   3   3  113.89    8.50
  10  -3   3  143.49   11.80
  10  -3   3  124.39   14.40
  10  -3   3  127.09   11.20
  10   3   3  128.89    8.80
  10   3   3  129.59    9.20
  10   3   3  125.79    8.60
  10  -4  -3   58.49    8.50
  10  -4  -3   58.59   12.50
  10  -4  -3   52.89    7.80
  10   4  -3   66.09    5.90
  10   4  -3   62.69    8.50
  10   4  -3   58.19    6.80
   9  -4  -3   48.60    9.70
   9  -4  -3   40.90    6.70
   9  -4  -3   50.49    7.70
   9   4  -3   55.59    5.80
   9   4  -3   40.50    5.20
   9   4  -3   47.30    7.10
   8  -4  -3   36.40    6.90
   8  -4  -3   34.80    6.30
   8  -4  -3   21.40    7.20
   8   4  -3   20.70    3.80
   8   4  -3   31.60    4.60
   8   4  -3   27.40    5.60
   7  -4  -3  126.09   11.10
   7  -4  -3  119.49   12.70
   7  -4  -3  114.09    9.80
   7   4  -3  139.29    8.30
  -7   4   3  134.19    9.00
   7   4  -3  125.99    9.50
   7   4  -3  127.49    8.50
   6  -4  -3  312.27   19.20
   6  -4  -3  342.57   16.50
   6  -4  -3  330.37   17.50
   6   4  -3  321.87   14.90
   6   4  -3  313.47   14.40
  -6   4   3  315.07   24.60
  -6   4   3  328.37   15.50
   6   4  -3  304.97   15.70
  -5  -4   3   86.79    8.00
   5  -4  -3  106.49    9.00
   5  -4  -3  108.29   10.00
   5  -4  -3   91.39   10.40
   5   4  -3  107.19    7.40
  -5   4   3  107.49    8.10
   5   4  -3  100.09    7.80
   5   4  -3  100.49    8.00
   4  -4  -3   70.69    9.80
   4  -4  -3   48.20    5.50
   4  -4  -3   49.60    7.00
   4  -4  -3   33.60    7.10
   4  -4  -3   45.90    6.40
  -4  -4   3   52.29    6.60
   4   4  -3   48.10    7.50
   4   4  -3   42.50    6.10
   4   4  -3   53.39    6.90
   4   4  -3   47.30    5.80
  -4   4   3   46.80    7.70
   4   4  -3   41.10    5.20
   4   4  -3   43.70    5.80
  -4   4   3   52.79    6.20
  -4   4   3   55.29    5.70
  -4   4   3   52.99    5.50
   3  -4  -3  209.48   10.70
   3  -4  -3  153.98   12.70
   3  -4  -3  192.58   12.60
   3  -4  -3  180.28   11.10
  -3  -4   3  185.18   11.80
  -3   4   3  194.08   10.20
  -3   4   3  201.28   13.40
   3   4  -3  182.08   10.50
   3   4  -3  176.08   10.90
   3   4  -3  175.68   10.00
  -3   4   3  186.78   10.70
   3   4  -3  193.98   12.90
   3   4  -3  165.38   10.40
  -3   4   3  187.28   10.20
  -2  -4   3   26.00    4.70
   2  -4  -3   31.30    6.60
  -2  -4   3   34.10    5.80
  -2  -4   3   37.90    6.30
   2  -4  -3   34.10    6.40
   2  -4  -3   46.00    5.30
   2  -4  -3   40.20    5.80
   2   4  -3   38.40    5.10
  -2   4   3   36.60    4.90
  -2   4   3   31.50    6.50
   2   4  -3   29.40    4.40
   2   4  -3   38.70    5.40
  -2   4   3   32.00    4.40
   2   4  -3   37.10    6.90
  -2   4   3   32.20    5.00
   2   4  -3   34.90    5.50
   1  -4  -3   85.29    9.40
   1  -4  -3   74.49    8.40
  -1  -4   3   67.29    8.30
  -1  -4   3   58.19    6.70
   1  -4  -3   71.99    8.90
   1  -4  -3   70.29    7.20
  -1  -4   3   57.79    7.60
  -1   4   3   54.09    8.20
  -1   4   3   56.39    6.80
  -1   4   3   56.69    6.00
   1   4  -3   58.89    7.60
  -1   4   3   61.59    7.40
   1   4  -3   77.49    7.50
  -1   4   3   65.99    6.00
   1   4  -3   60.99    6.00
   1   4  -3   64.19    5.80
   1   4  -3   53.49    6.30
  -1   4   3   59.49    6.50
   0  -4   3    2.40    3.10
   0  -4   3    5.80    4.50
   0  -4  -3    7.40    4.00
   0  -4  -3    2.60    3.00
   0  -4  -3   -0.50    4.30
   0  -4   3    4.70    4.50
   0   4   3    6.50    3.40
   0   4  -3    1.10    2.60
   0   4  -3    7.20    3.20
   0   4   3    5.20    3.10
   0   4  -3    9.30    3.80
   0   4   3   -1.40    3.90
   0   4   3    0.90    3.20
   0   4   3    3.80    2.70
   0   4  -3    2.10    2.50
   0   4  -3   -3.30    3.40
   1  -4   3  363.66   18.50
   1  -4   3  352.56   17.10
  -1  -4  -3  365.76   17.50
   1  -4   3  351.16   18.00
  -1  -4  -3  338.07   18.30
  -1  -4  -3  334.87   15.90
   1   4   3  361.06   16.90
   1   4   3  347.17   16.00
  -1   4  -3  377.86   16.20
  -1   4  -3  361.86   15.50
  -1   4  -3  336.97   18.10
  -1   4  -3  378.66   17.10
   1   4   3  359.36   16.50
   1   4   3  360.96   15.80
   1   4   3  336.37   18.50
  -2  -4  -3  229.18   11.50
   2  -4   3  209.28   12.60
   2  -4   3  201.48   13.90
  -2  -4  -3  214.88   12.70
   2  -4   3  198.98   14.20
   2  -4   3  220.48   12.80
   2  -4   3  232.08   11.60
   2  -4   3  196.18   13.70
   2   4   3  222.78   11.40
  -2   4  -3  199.58   11.90
   2   4   3  215.08   11.90
  -2   4  -3  235.28   10.90
  -2   4  -3  211.88   13.60
   2   4   3  228.58   11.80
  -2   4  -3  207.38   11.30
   2   4   3  225.28   12.50
   3  -4   3    6.40    4.00
   3  -4   3    6.80    4.30
   3  -4   3    5.60    4.10
   3  -4   3   13.50    5.50
   3  -4   3    7.90    3.10
   3  -4   3    9.90    4.70
  -3   4  -3    1.00    2.50
   3   4   3    4.70    3.30
  -3   4  -3    6.00    3.20
  -3   4  -3    6.60    4.20
  -3   4  -3    7.70    2.70
   3   4   3   -0.70    2.50
   3   4   3    0.70    3.10
   4  -4   3    5.60    4.40
  -4  -4  -3   -0.10    3.10
   4  -4   3   -0.40    4.20
   4  -4   3    0.70    3.70
   4  -4   3    1.80    4.40
   4   4   3    0.90    3.20
  -4   4  -3    2.10    2.90
   4   4   3    0.80    2.60
  -4   4  -3    1.50    5.40
   4   4   3    1.40    3.10
  -4   4  -3    1.60    2.30
   5  -4   3   24.40    6.10
  -5  -4  -3   14.20    4.20
   5  -4   3   21.50    5.60
   5  -4   3   13.20    5.90
   5  -4   3   12.60    5.30
   5   4   3   17.40    4.80
  -5   4  -3   16.40    3.00
   5   4   3   14.50    4.20
  -5   4  -3   10.80    3.90
   5   4   3   20.20    3.90
   6  -4   3   22.70    5.80
   6  -4   3   19.00    6.80
   6  -4   3   18.20    6.00
   6  -4   3   21.00    5.90
   6   4   3   25.20    4.50
   6   4   3   28.70    5.60
  -6   4  -3   36.80    6.20
   6   4   3   32.30    5.30
   7  -4   3   78.99   11.60
   7  -4   3   77.39   10.00
   7  -4   3   74.59   10.00
   7  -4   3   73.89    9.60
  -7   4  -3   76.69    7.90
   7   4   3   76.59    7.10
   7   4   3   86.09    7.70
   7   4   3   80.19    8.20
   8  -4   3   49.99   10.30
   8  -4   3   47.90    8.00
   8  -4   3   37.70    7.70
   8  -4   3   51.59    8.70
   8   4   3   43.80    6.10
   8   4   3   64.19    7.60
   8   4   3   46.30    6.00
   8  -5  -3  125.39   11.70
   8   5  -3  114.39    9.30
   7  -5  -3   18.20    7.90
   7  -5  -3   15.90    5.50
   7  -5  -3    8.70    5.70
   7   5  -3   14.60    5.80
   7   5  -3   18.40    4.40
   7   5  -3    7.90    3.60
   6  -5  -3   43.30    8.10
   6  -5  -3   29.80    6.40
   6  -5  -3   45.00   10.00
   6   5  -3   32.10    6.40
  -6   5   3   32.40    5.70
   6   5  -3   38.90    5.50
   6   5  -3   40.70    6.20
   5  -5  -3   41.30    6.80
   5  -5  -3   57.69    8.80
   5  -5  -3   41.40    8.80
   5   5  -3   45.70    6.50
   5   5  -3   57.59    6.60
   5   5  -3   47.70    7.10
  -5   5   3   44.00    6.40
  -5   5   3   58.09    8.00
   4  -5  -3  268.87   16.70
  -4  -5   3  266.07   19.90
   4  -5  -3  230.28   17.30
   4  -5  -3  242.08   14.90
   4   5  -3  251.67   14.10
  -4   5   3  218.28   13.80
  -4   5   3  261.77   13.60
   4   5  -3  244.88   14.00
   4   5  -3  259.27   13.70
   3  -5  -3  106.39    9.60
   3  -5  -3   84.09   10.40
  -3  -5   3   73.29    9.40
   3  -5  -3   76.09   11.30
   3   5  -3   62.39    7.30
  -3   5   3   92.59    7.70
   3   5  -3   88.69    7.90
   3   5  -3   80.89    8.40
  -3   5   3   87.39    8.50
  -2  -5   3  360.46   19.60
   2  -5  -3  340.77   20.70
   2  -5  -3  371.06   18.50
   2  -5  -3  388.76   20.10
   2   5  -3  397.26   17.70
  -2   5   3  373.36   17.50
   2   5  -3  342.77   17.40
  -2   5   3  366.96   18.20
   2   5  -3  356.86   18.00
   1  -5  -3  265.07   15.80
   1  -5  -3  203.38   15.90
  -1  -5   3  212.88   15.30
  -1  -5   3  215.38   14.80
   1   5  -3  236.08   13.20
   1   5  -3  230.28   13.10
  -1   5   3  237.88   12.90
  -1   5   3  232.98   13.70
   1   5  -3  251.77   14.20
  -1   5   3  240.88   13.20
   0  -5   3   77.39   10.60
   0  -5  -3  103.49   10.50
   0  -5  -3   90.39   11.20
   0  -5   3   57.29    8.90
   0   5   3   88.59    8.00
   0   5  -3   93.19    7.70
   0   5   3   68.89    8.20
   0   5  -3   75.99    8.40
   0   5  -3   76.19    7.80
   0   5   3   61.29    7.20
  -1  -5  -3  102.19   10.40
   1  -5   3   97.59   11.30
   1  -5   3  102.59   11.60
  -1   5  -3   92.69    8.10
   1   5   3   84.59    8.70
  -1   5  -3   89.49    8.90
   1   5   3   97.09    8.90
  -1   5  -3  106.89    8.00
   1   5   3   74.29    7.80
   2  -5   3   86.09   11.00
   2  -5   3   64.69    9.80
  -2  -5  -3   83.89    9.60
  -2   5  -3   82.19    8.60
   2   5   3   69.89    8.10
   2   5   3   88.69    8.10
   2   5   3   94.99    8.90
  -2   5  -3   79.19    7.10
   3  -5   3   64.39    8.60
   3  -5   3   81.09   11.40
   3  -5   3   69.69   10.10
  -3  -5  -3   75.69    9.30
   3   5   3   58.49    7.80
  -3   5  -3   66.49    8.10
   3   5   3   79.69    7.90
   3   5   3   62.29    7.90
  -3   5  -3   66.29    6.60
   4  -5   3   48.90    9.30
   4  -5   3   52.99    9.00
   4  -5   3   71.19    9.40
   4   5   3   60.89    8.00
  -4   5  -3   67.99    8.10
  -4   5  -3   49.40    5.70
   4   5   3   58.89    8.00
   4   5   3   44.90    6.20
   5  -5   3   88.39   11.90
   5  -5   3  117.19   11.30
   5  -5   3  102.09   13.20
  -5   5  -3   98.69    9.60
   5   5   3   97.69    9.50
   5   5   3  114.09   10.10
   5   5   3  100.89    8.70
   6  -5   3   14.10    6.30
   6  -5   3    8.60    5.50
   6  -5   3    8.90    7.50
   6   5   3   13.60    4.30
   6   5   3   19.70    5.40
   6   5   3    9.00    5.40
  -6   5  -3   12.10    4.70
   3  -6  -3  115.99   13.30
   3  -6  -3  104.89   14.20
   3   6  -3  143.09   10.90
   3   6  -3  132.39   12.50
  -3   6   3  108.69    9.80
  -3   6   3  119.79   11.30
  -2  -6   3   75.79   11.30
   2  -6  -3   69.89   10.30
   2  -6  -3   79.79   12.30
  -2   6   3   72.79    8.40
  -2   6   3   78.79    9.80
   2   6  -3   94.69    9.20
   2   6  -3   70.89    9.00
   2   6  -3   60.89    9.00
  -1  -6   3   48.40    9.70
  -1  -6   3   36.40    8.00
   1  -6  -3   59.69    9.50
   1  -6  -3   44.40    9.50
   1   6  -3   43.60    7.50
   1   6  -3   42.10    7.10
  -1   6   3   46.40    7.70
   1   6  -3   50.39    7.80
  -1   6   3   38.50    6.70
   0  -6   3    5.90    7.00
   0  -6   3   13.50    6.90
   0  -6  -3    2.40    6.00
   0  -6  -3   10.60    6.10
   0   6  -3    5.70    4.80
   0   6   3    8.50    5.30
   0   6   3    1.40    4.20
   0   6  -3   15.30    5.40
   1  -6   3  106.19   13.40
  -1  -6  -3  101.69   12.20
   1  -6   3   94.99   13.10
  -1   6  -3   95.59   10.60
   1   6   3   97.99   10.80
  -1   6  -3   97.99    9.30
   1   6   3  101.79   11.20
   2  -6   3   52.69   10.00
  -2  -6  -3   57.49   10.10
   2  -6   3   31.70    9.30
   2   6   3   62.09    7.90
  -2   6  -3   74.39   10.10
  -2   6  -3   39.80    6.80
  13   0  -4   -1.70    4.40
  12   0  -4   -0.30    2.50
  12   0  -4    4.50    4.90
  11   0  -4 1041.30   37.30
  11   0  -4  991.70   41.10
  10   0  -4    7.20    4.20
  10   0  -4   10.30    3.50
   9   0  -4  453.55   19.60
   9   0  -4  437.16   20.50
   8   0  -4  208.78   10.60
   8   0  -4  190.98   11.30
   7   0  -4  944.31   35.70
   7   0  -4  990.50   35.00
   6   0  -4  298.27   10.80
   6   0  -4  323.27   13.90
   6   0  -4  319.37   10.90
   6   0  -4  310.07   12.90
   5   0  -4 1006.60   33.90
   5   0  -4 1036.30   34.00
   5   0  -4 1015.90   33.80
   5   0  -4 1077.09   36.30
   5   0  -4  995.40   35.30
   4   0  -4  218.38    8.60
   4   0  -4  228.08    8.40
   4   0  -4  235.38    8.40
   4   0  -4  235.88    9.90
   4   0  -4  224.68    8.50
  -4   0   4  226.88    8.50
   4   0  -4  243.88    9.20
  -3   0   4   59.79    3.20
   3   0  -4   62.19    3.90
   3   0  -4   59.89    3.50
   3   0  -4   61.19    3.30
  -3   0   4   62.09    3.40
   3   0  -4   56.69    3.00
   3   0  -4   63.59    3.40
  -3   0   4   58.09    3.40
   3   0  -4   61.79    3.30
  -3   0   4   69.09    4.10
  -3   0   4   62.99    3.20
   2   0  -4   74.79    3.70
   2   0  -4   63.69    3.60
  -2   0   4   71.29    4.00
  -2   0   4   63.49    3.60
  -2   0   4   64.99    3.60
   2   0  -4   64.69    3.90
   2   0  -4   66.49    3.60
  -2   0   4   73.29    3.90
  -2   0   4   64.29    3.90
   2   0  -4   61.29    3.70
  -1   0   4    9.30    2.00
  -1   0   4    8.90    1.20
   1   0  -4   11.10    2.10
  -1   0   4    8.30    1.70
   1   0  -4    8.90    1.60
  -1   0   4   10.90    2.00
   1   0  -4    7.60    1.60
  -1   0   4   10.20    1.70
   1   0  -4    8.80    1.80
  -1   0   4   10.40    1.80
   0   0   4  740.03   25.80
   0   0   4  758.92   25.60
   0   0  -4  753.62   25.80
   0   0  -4  775.52   25.60
   0   0  -4  703.63   25.40
   0   0   4  707.93   25.10
   0   0   4  754.22   25.60
   0   0   4  764.42   25.90
  -1   0  -4 1605.94   51.59
   1   0   4 1521.25   51.29
  -1   0  -4 1508.15   51.49
   1   0   4 1553.84   51.29
   1   0   4 1505.15   51.49
  -1   0  -4 1581.54   51.29
   1   0   4 1552.74   51.59
  -1   0  -4 1488.05   51.19
   1   0   4 1511.85   51.39
  -2   0  -4 1423.46   48.90
   2   0   4 1448.06   48.70
   2   0   4 1461.75   49.30
  -2   0  -4 1430.96   49.00
   2   0   4 1426.16   49.00
  -2   0  -4 1478.05   48.60
   2   0   4 1453.85   48.70
  -2   0  -4 1436.36   48.50
  -2   0  -4 1476.45   47.50
   2   0   4 1461.95   49.10
  -3   0  -4  373.06   14.00
   3   0   4  382.26   14.20
  -3   0  -4  376.16   14.50
   3   0   4  383.86   14.60
   3   0   4  380.26   14.40
   3   0   4  353.66   15.10
   3   0   4  370.56   14.60
  -3   0  -4  362.06   14.30
  -3   0  -4  373.06   12.70
  -4   0  -4  132.39    6.70
   4   0   4  130.69    6.50
   4   0   4  130.59    7.90
  -4   0  -4  135.99    6.30
   4   0   4  121.19    6.70
  -4   0  -4  126.79    4.70
  -4   0  -4  117.89    6.00
   4   0   4  122.89    6.60
  -4   0  -4  120.49    6.50
   4   0   4  128.09    6.90
   5   0   4   35.30    4.00
   5   0   4   35.70    3.80
   5   0   4   32.30    4.00
   5   0   4   30.80    3.40
  -5   0  -4   28.20    3.30
   5   0   4   41.90    5.10
   5   0   4   30.80    1.80
  -5   0  -4   31.80    3.00
   6   0   4  225.68    9.90
  -6   0  -4  216.58    9.80
   6   0   4  215.48   12.10
   6   0   4  214.18   10.30
   6   0   4  224.48   10.30
   6   0   4  217.58    7.70
  -6   0  -4  224.08    9.30
   6   0   4  221.98   10.20
   7   0   4   90.79    8.10
  -7   0  -4   72.29    5.00
   7   0   4   61.89    5.90
  -7   0  -4   77.49    4.60
   7   0   4   72.09    5.40
   7   0   4   71.69    5.90
   7   0   4   77.59    3.20
   7   0   4   86.59    5.90
   8   0   4  663.13   24.90
   8   0   4  664.13   24.80
   8   0   4  650.93   25.20
   9   0   4  125.99    8.20
   9   0   4  124.49    8.40
  10   0   4   92.49    7.50
  10   0   4  113.59    8.10
  11   0   4  191.58   11.00
  11   0   4  191.28   11.20
  13  -1  -4   16.20    7.00
  13   1  -4    8.10    5.40
  13   1  -4    6.50    3.80
  12  -1  -4   82.39    5.40
  12  -1  -4   71.59   10.30
  12   1  -4   70.99    9.10
  12   1  -4   92.99    7.60
  11  -1  -4   39.80    3.50
  11  -1  -4   43.80    4.30
  11  -1  -4   67.29    9.80
  11  -1  -4   52.69    3.90
  11   1  -4   50.69    7.70
  11   1  -4   48.00    5.50
  10  -1  -4  254.67   10.80
  10  -1  -4  254.37   10.70
  10  -1  -4  258.57   10.40
  10  -1  -4  264.37   14.60
  10  -1  -4  250.67   15.90
  10   1  -4  248.28   14.40
  10   1  -4  267.07   12.70
  10   1  -4  263.97   13.90
   9  -1  -4   51.09    7.30
   9  -1  -4   47.20    3.40
   9  -1  -4   57.19    4.30
   9  -1  -4   46.30    3.40
   9  -1  -4   43.60    4.00
   9  -1  -4   51.69    6.10
  -9   1   4   50.59    6.00
   9   1  -4   44.50    5.00
   9   1  -4   49.99    5.60
   8  -1  -4  270.87   10.80
   8  -1  -4  301.77   14.00
   8  -1  -4  275.27   11.40
   8  -1  -4  263.27   11.10
   8  -1  -4  283.77   15.10
   8  -1  -4  276.77   11.00
  -8   1   4  276.27   10.00
   8   1  -4  278.57   13.20
   8   1  -4  275.97   12.50
  -8   1   4  280.87   13.40
  -8   1   4  291.27   10.20
   7  -1  -4   35.90    4.50
   7  -1  -4   28.90    3.40
   7  -1  -4   27.60    4.90
   7  -1  -4   30.80    2.70
   7  -1  -4   29.50    3.20
   7  -1  -4   25.00    2.70
  -7   1   4   33.70    3.00
  -7   1   4   26.40    2.20
   7   1  -4   27.30    3.50
   7   1  -4   30.50    3.90
  -7   1   4   35.40    4.40
   6  -1  -4 1631.94   55.89
   6  -1  -4 1615.54   55.79
   6  -1  -4 1775.92   58.09
   6  -1  -4 1725.13   59.19
   6  -1  -4 1674.63   56.29
   6  -1  -4 1550.94   55.49
  -6   1   4 1783.82   55.99
   6   1  -4 1680.73   54.79
  -6   1   4 1763.72   58.79
  -6   1   4 1695.93   57.39
   6   1  -4 1616.94   54.79
   6   1  -4 1604.54   57.09
  -6   1   4 1711.23   54.89
   5  -1  -4  362.06   14.20
  -5  -1   4  330.47   11.60
   5  -1  -4  348.17   12.90
   5  -1  -4  332.27   13.20
   5  -1  -4  319.77   12.80
   5  -1  -4  346.47   15.10
   5  -1  -4  328.87   12.60
   5   1  -4  335.47   12.10
  -5   1   4  350.66   13.80
  -5   1   4  330.97   12.60
   5   1  -4  319.67   11.90
  -5   1   4  353.56   13.30
  -5   1   4  354.16   12.20
   5   1  -4  335.47   12.20
  -5   1   4  381.46   15.20
   5   1  -4  337.57   12.10
  -5   1   4  354.36   12.60
  -4  -1   4   20.20    2.00
   4  -1  -4   22.40    3.10
   4  -1  -4   18.40    2.40
   4  -1  -4   26.20    4.10
   4  -1  -4   19.90    2.80
   4  -1  -4   19.20    2.40
   4  -1  -4   16.50    2.40
  -4   1   4   17.10    2.00
  -4   1   4   19.60    2.50
  -4   1   4   20.20    2.50
   4   1  -4   18.80    2.40
  -4   1   4   16.80    2.70
   4   1  -4   19.10    2.20
   4   1  -4   13.20    2.00
   4   1  -4   16.80    1.90
  -4   1   4   17.30    2.80
  -4   1   4   19.10    3.70
   3  -1  -4  479.75   18.60
  -3  -1   4  473.75   18.10
   3  -1  -4  494.15   18.30
  -3  -1   4  510.65   17.60
   3  -1  -4  560.94   18.80
  -3  -1   4  506.35   17.90
   3  -1  -4  512.55   18.30
   3  -1  -4  496.95   18.00
   3  -1  -4  532.95   19.70
  -3  -1   4  507.75   17.90
  -3   1   4  506.55   18.20
   3   1  -4  513.65   18.00
   3   1  -4  525.75   18.00
  -3   1   4  523.15   18.80
   3   1  -4  500.75   17.70
  -3   1   4  492.15   19.60
   3   1  -4  496.75   18.00
  -3   1   4  552.14   18.40
  -3   1   4  498.85   18.50
  -3   1   4  526.55   18.00
  -2  -1   4  683.63   23.70
   2  -1  -4  679.63   24.20
   2  -1  -4  693.03   24.00
  -2  -1   4  644.64   23.60
   2  -1  -4  702.13   24.90
   2  -1  -4  696.93   24.00
  -2  -1   4  699.43   23.40
  -2  -1   4  665.93   24.00
   2  -1  -4  659.43   23.60
   2  -1  -4  669.03   23.80
  -2   1   4  707.43   24.10
  -2   1   4  694.73   25.10
  -2   1   4  723.63   24.00
   2   1  -4  708.23   23.60
  -2   1   4  669.93   23.60
   2   1  -4  683.23   23.80
   2   1  -4  639.84   23.60
   2   1  -4  669.53   23.60
   2   1  -4  730.13   23.80
  -2   1   4  665.23   24.20
  -2   1   4  672.73   23.90
   1  -1  -4  363.36   13.50
  -1  -1   4  356.46   13.10
  -1  -1   4  367.36   13.40
   1  -1  -4  333.27   13.10
   1  -1  -4  333.17   13.60
   1  -1  -4  369.86   13.30
   1  -1  -4  380.16   14.30
  -1  -1   4  366.16   13.40
  -1  -1   4  339.77   13.40
   1  -1  -4  335.37   13.30
  -1  -1   4  345.57   13.80
  -1   1   4  361.66   14.50
  -1   1   4  351.56   13.50
  -1   1   4  345.67   13.10
   1   1  -4  362.26   13.40
   1   1  -4  358.06   13.40
   1   1  -4  356.26   13.50
   1   1  -4  360.76   13.10
   1   1  -4  342.47   13.10
  -1   1   4  381.66   14.00
  -1   1   4  345.47   13.40
   0  -1   4  935.81   32.10
   0  -1  -4  984.20   32.50
   0  -1  -4  936.21   33.00
   0  -1  -4  987.10   32.90
   0  -1   4  942.81   32.90
   0  -1   4  943.51   32.80
   0  -1  -4  996.30   32.60
   0  -1   4  953.10   33.20
   0  -1  -4  910.21   32.50
   0  -1   4 1002.50   32.60
   0  -1   4  939.61   32.80
   0   1   4 1004.40   33.80
   0   1   4  971.20   33.20
   0   1   4  961.80   32.80
   0   1  -4  885.41   32.70
   0   1  -4  927.81   32.50
   0   1  -4  914.21   32.00
   0   1  -4  942.61   32.60
   0   1  -4  969.00   32.70
   0   1   4  979.90   32.80
   0   1  -4  951.80   32.90
   0   1   4  944.61   32.40
   0   1   4  967.30   32.60
   1  -1   4   90.29    5.30
   1  -1   4   87.39    5.30
  -1  -1  -4   78.09    5.10
  -1  -1  -4   86.69    4.40
  -1  -1  -4   87.89    4.70
   1  -1   4   86.29    5.70
  -1  -1  -4   83.79    4.80
   1  -1   4   86.19    5.40
   1  -1   4   86.29    4.80
  -1  -1  -4   89.69    4.90
   1  -1   4   90.79    5.20
   1   1   4   90.49    5.40
  -1   1  -4   75.99    4.90
  -1   1  -4   81.89    4.70
   1   1   4   77.39    4.70
  -1   1  -4   79.59    3.80
  -1   1  -4   73.29    4.90
   1   1   4   83.19    4.50
  -1   1  -4   80.39    5.10
   1   1   4   78.39    5.00
   1   1   4   88.59    6.00
   1   1   4   82.89    4.90
  -1   1  -4   85.19    5.00
  -2  -1  -4  811.12   27.00
   2  -1   4  788.62   28.50
   2  -1   4  787.72   27.50
  -2  -1  -4  771.62   27.30
   2  -1   4  732.13   28.00
   2  -1   4  829.12   28.00
   2  -1   4  771.42   27.80
  -2  -1  -4  798.92   27.30
  -2  -1  -4  752.12   27.70
  -2  -1  -4  793.32   27.60
   2   1   4  790.92   28.00
  -2   1  -4  760.32   27.80
   2   1   4  776.62   27.70
  -2   1  -4  816.12   27.60
  -2   1  -4  785.92   27.90
  -2   1  -4  802.62   27.50
  -2   1  -4  742.73   28.00
   2   1   4  797.12   27.60
   2   1   4  768.42   27.30
   2   1   4  801.42   27.10
  -2   1  -4  805.52   26.00
   3  -1   4  947.31   35.00
   3  -1   4  969.30   34.30
   3  -1   4  978.00   33.60
   3  -1   4  971.80   34.00
  -3  -1  -4  986.10   33.20
  -3  -1  -4  970.90   32.90
   3  -1   4  967.00   33.90
  -3  -1  -4  946.61   33.20
  -3  -1  -4 1011.40   33.70
  -3  -1  -4  967.20   33.80
   3   1   4  978.70   33.40
  -3   1  -4  938.21   34.50
  -3   1  -4  959.10   33.40
  -3   1  -4  984.00   33.60
   3   1   4  958.50   32.90
   3   1   4  936.71   33.70
   3   1   4  978.00   33.50
  -3   1  -4  962.50   33.90
  -3   1  -4  955.70   33.90
   3   1   4  981.60   34.00
   4  -1   4  412.56   16.30
   4  -1   4  423.26   18.10
  -4  -1  -4  441.36   16.30
   4  -1   4  420.16   16.70
  -4  -1  -4  421.86   16.40
   4  -1   4  422.16   17.20
   4  -1   4  436.36   16.90
  -4  -1  -4  425.96   15.80
  -4  -1  -4  433.86   15.60
  -4   1  -4  410.86   16.00
   4   1   4  423.56   16.70
  -4   1  -4  462.65   16.50
   4   1   4  436.16   16.60
   4   1   4  409.76   16.10
  -4   1  -4  405.46   16.50
  -4   1  -4  440.46   17.50
  -4   1  -4  409.66   17.60
   4   1   4  433.76   16.30
   4   1   4  419.76   15.60
  -5  -1  -4   48.40    3.30
   5  -1   4   52.79    6.10
   5  -1   4   49.20    4.40
   5  -1   4   45.30    4.80
   5  -1   4   36.40    4.70
   5  -1   4   44.50    4.10
  -5  -1  -4   48.20    4.00
  -5  -1  -4   46.60    3.50
  -5   1  -4   45.40    5.10
   5   1   4   39.30    4.00
   5   1   4   43.20    3.30
  -5   1  -4   42.60    4.00
   5   1   4   45.70    4.30
   5   1   4   48.60    5.50
   5   1   4   46.50    4.40
  -5   1  -4   44.50    3.70
   5   1   4   42.40    4.00
   6  -1   4  261.57   12.70
   6  -1   4  271.77   12.20
   6  -1   4  257.87   11.60
  -6  -1  -4  263.47   10.60
  -6  -1  -4  274.57   11.30
   6  -1   4  253.67   14.00
   6  -1   4  273.57   12.20
  -6  -1  -4  280.27   10.60
  -6   1  -4  260.17   11.60
  -6   1  -4  249.38   11.00
  -6   1  -4  270.27   13.70
   6   1   4  259.87   11.80
   6   1   4  269.57   10.60
   6   1   4  254.07   11.40
   6   1   4  256.37   11.80
   6   1   4  285.47   14.00
   6   1   4  242.88   11.30
   7  -1   4  779.92   28.80
   7  -1   4  763.22   28.20
   7  -1   4  778.02   31.90
   7  -1   4  755.32   28.70
  -7  -1  -4  760.22   27.60
   7  -1   4  715.13   31.60
  -7  -1  -4  775.22   26.80
   7  -1   4  754.52   29.20
  -7   1  -4  774.42   31.10
   7   1   4  779.12   28.10
  -7   1  -4  755.02   28.20
   7   1   4  802.52   28.60
   7   1   4  745.83   26.90
   7   1   4  765.62   28.00
   7   1   4  810.42   31.30
  -7   1  -4  777.62   27.50
   7   1   4  764.42   28.20
   8  -1   4   46.00    5.10
   8  -1   4   47.70    7.70
   8  -1   4   47.80    6.20
   8  -1   4   47.20    5.90
   8   1   4   50.59    5.20
   8   1   4   53.79    5.00
   8   1   4   49.99    4.00
  -8   1  -4   48.30    7.20
   8   1   4   46.10    5.30
   9  -1   4  253.37   16.40
   9  -1   4  233.48   12.60
   9  -1   4  253.07   13.40
   9   1   4  256.47   12.10
   9   1   4  253.97   11.90
  10  -1   4   93.99   11.50
  10  -1   4  109.39    9.00
  10  -1   4  115.69    8.70
  10   1   4  109.49    7.60
  10   1   4  102.29    7.60
  11  -1   4   49.20   10.00
  11  -1   4   51.59    7.20
  11  -1   4   61.29    7.30
  11   1   4   59.59    6.30
  11   1   4   56.19    6.20
  12  -2  -4   49.50    9.80
  12  -2  -4   61.09    6.10
  12  -2  -4   58.29    6.20
  12   2  -4   71.99    7.20
  11  -2  -4   20.40    6.50
  11  -2  -4    9.60    3.30
  11  -2  -4   11.20    3.30
  11   2  -4    3.00    3.30
  10  -2  -4  111.59    8.10
  10  -2  -4  119.19    8.00
  10  -2  -4  116.79   11.60
  10  -2  -4  110.39    7.60
  10   2  -4  109.19    8.40
 -10   2   4  115.29    9.30
   9  -2  -4  113.69   10.90
   9  -2  -4  101.29    7.80
   9  -2  -4  123.99    6.90
   9  -2  -4  139.29   10.50
   9  -2  -4  114.39    7.50
   9   2  -4  127.39    8.90
  -9   2   4  115.19    8.90
   9   2  -4  133.49    8.70
   8  -2  -4  146.69   11.40
   8  -2  -4  130.49    7.90
   8  -2  -4  122.39    6.90
   8  -2  -4  144.39   10.10
   8  -2  -4  139.39    8.60
   8  -2  -4  143.09    7.60
   8   2  -4  123.69    5.70
   8   2  -4  125.39    6.20
   8   2  -4  133.89    6.00
   8   2  -4  124.19    6.50
  -8   2   4  140.69    9.20
  -8   2   4  116.59    6.60
  -8   2   4  133.09    6.10
   8   2  -4  128.19    8.40
   7  -2  -4   71.09    5.70
   7  -2  -4   70.09    8.30
   7  -2  -4   80.99    6.50
   7  -2  -4   70.79    5.20
   7  -2  -4   71.49    7.00
   7  -2  -4   78.69    5.10
  -7   2   4   68.99    4.80
   7   2  -4   66.69    4.70
   7   2  -4   70.99    4.20
  -7   2   4   78.99    6.70
  -7   2   4   72.49    4.30
   7   2  -4   66.89    5.70
   7   2  -4   59.89    4.50
   7   2  -4   64.99    4.10
   6  -2  -4  397.86   16.20
   6  -2  -4  425.86   19.90
   6  -2  -4  448.26   18.90
  -6  -2   4  384.06   15.30
   6  -2  -4  434.96   17.00
   6  -2  -4  452.65   17.00
   6  -2  -4  417.26   17.60
  -6  -2   4  424.16   15.10
   6   2  -4  440.56   15.60
  -6   2   4  435.66   16.50
  -6   2   4  425.06   15.80
  -6   2   4  432.36   18.20
   6   2  -4  420.46   17.40
   6   2  -4  416.76   16.00
   6   2  -4  415.96   16.00
   6   2  -4  432.46   15.70
   5  -2  -4   53.99    5.00
  -5  -2   4   43.40    3.40
   5  -2  -4   49.30    4.00
   5  -2  -4   56.39    4.40
  -5  -2   4   45.60    4.40
   5  -2  -4   64.79    4.60
   5  -2  -4   52.59    5.50
   5  -2  -4   64.29    5.90
   5  -2  -4   48.30    6.50
  -5  -2   4   47.60    3.40
   5   2  -4   62.99    5.20
   5   2  -4   53.59    4.40
  -5   2   4   52.99    5.40
   5   2  -4   56.09    3.80
   5   2  -4   54.59    3.90
   5   2  -4   55.99    4.30
  -5   2   4   62.79    4.10
  -5   2   4   53.49    4.40
  -4  -2   4  656.23   21.50
   4  -2  -4  624.84   23.90
  -4  -2   4  609.14   21.60
  -4  -2   4  577.04   22.30
  -4  -2   4  622.54   21.80
   4  -2  -4  658.03   22.90
   4  -2  -4  606.74   23.30
   4  -2  -4  628.04   22.50
   4  -2  -4  570.94   22.50
   4  -2  -4  606.84   24.70
   4  -2  -4  612.14   22.20
   4   2  -4  604.64   22.30
  -4   2   4  595.74   23.50
   4   2  -4  591.24   21.60
  -4   2   4  637.64   22.70
  -4   2   4  577.54   22.30
  -4   2   4  626.54   22.70
   4   2  -4  591.54   22.70
  -4   2   4  561.94   21.70
   4   2  -4  605.04   22.00
  -4   2   4  640.24   23.60
   4   2  -4  608.44   22.10
   4   2  -4  616.34   22.10
   3  -2  -4    8.20    2.70
   3  -2  -4    3.50    1.60
   3  -2  -4    8.80    2.20
  -3  -2   4    4.30    2.10
   3  -2  -4    6.70    2.40
  -3  -2   4    6.70    2.50
   3  -2  -4    6.50    2.70
  -3  -2   4    4.80    1.60
  -3  -2   4    5.20    1.80
   3  -2  -4    5.60    1.90
   3  -2  -4   11.30    3.60
  -3  -2   4    1.80    1.90
  -3   2   4    6.30    2.10
  -3   2   4    9.40    2.10
   3   2  -4    6.60    2.20
  -3   2   4    8.30    3.50
   3   2  -4    7.60    2.50
  -3   2   4   10.40    2.60
   3   2  -4   11.60    2.10
   3   2  -4    6.30    2.30
  -3   2   4    8.30    3.00
   3   2  -4    5.30    2.00
   3   2  -4    7.20    2.10
  -3   2   4    5.00    2.60
   2  -2  -4  379.56   14.40
   2  -2  -4  346.27   15.10
  -2  -2   4  351.96   13.70
   2  -2  -4  355.36   14.10
   2  -2  -4  364.06   14.50
  -2  -2   4  381.26   14.30
   2  -2  -4  358.96   14.50
   2  -2  -4  371.66   16.40
  -2  -2   4  349.67   14.90
  -2   2   4  356.56   15.30
  -2   2   4  372.76   16.80
   2   2  -4  359.66   13.60
  -2   2   4  384.86   14.80
   2   2  -4  365.06   14.30
  -2   2   4  352.86   14.00
   2   2  -4  369.36   14.80
  -2   2   4  352.76   14.30
  -2   2   4  377.66   16.00
  -2   2   4  346.17   14.40
   2   2  -4  342.57   14.20
   2   2  -4  366.46   14.00
   2   2  -4  351.26   14.30
   2   2  -4  360.16   15.10
  -1  -2   4   48.70    3.80
   1  -2  -4   49.10    3.90
   1  -2  -4   57.09    5.40
   1  -2  -4   47.80    4.40
  -1  -2   4   58.89    4.50
   1  -2  -4   49.70    4.20
  -1  -2   4   43.60    5.20
   1  -2  -4   46.30    5.80
  -1  -2   4   49.70    3.90
  -1  -2   4   44.90    4.70
   1  -2  -4   41.60    3.70
  -1   2   4   52.59    4.70
  -1   2   4   49.10    5.10
  -1   2   4   58.09    4.70
   1   2  -4   47.70    4.00
   1   2  -4   58.19    4.50
  -1   2   4   54.49    4.10
   1   2  -4   46.80    5.00
   1   2  -4   53.89    4.10
   1   2  -4   49.40    4.70
  -1   2   4   50.39    4.30
  -1   2   4   67.99    7.70
   1   2  -4   52.79    4.70
  -1   2   4   43.10    6.10
   1   2  -4   49.10    4.00
   0  -2  -4  262.37   10.60
   0  -2  -4  230.98   12.20
   0  -2  -4  259.37   10.50
   0  -2   4  269.87   11.10
   0  -2   4  251.67   10.90
   0  -2  -4  234.28   10.60
   0  -2   4  251.07   11.20
   0  -2   4  238.48   11.60
   0  -2   4  249.08   10.40
   0  -2  -4  241.78   10.70
   0  -2   4  247.88   10.00
   0  -2  -4  241.48   11.30
   0  -2   4  252.37   12.20
   0   2   4  262.47   11.70
   0   2  -4  252.37   10.50
   0   2   4  251.77   11.00
   0   2  -4  235.38   11.30
   0   2  -4  254.97   11.00
   0   2  -4  231.18   11.10
   0   2   4  256.87   11.00
   0   2  -4  240.98   10.00
   0   2  -4  243.58   10.40
   0   2   4  214.28   10.20
   0   2   4  248.18   10.50
   0   2  -4  239.58   10.80
  -1  -2  -4  469.05   18.30
   1  -2   4  468.65   16.80
   1  -2   4  493.55   18.30
  -1  -2  -4  471.65   17.90
  -1  -2  -4  466.85   17.70
  -1  -2  -4  473.25   17.50
   1  -2   4  445.86   18.80
  -1  -2  -4  481.35   17.60
   1  -2   4  446.76   18.20
   1  -2   4  493.15   19.40
   1  -2   4  426.36   18.00
   1  -2   4  462.45   17.60
  -1   2  -4  430.56   18.30
  -1   2  -4  439.56   17.50
  -1   2  -4  447.56   18.00
  -1   2  -4  453.65   16.70
   1   2   4  465.65   18.50
   1   2   4  471.55   17.60
   1   2   4  468.55   17.90
  -1   2  -4  483.65   18.10
   1   2   4  475.35   18.00
   1   2   4  452.75   17.50
  -1   2  -4  457.85   17.80
  -1   2  -4  460.15   18.40
  -2  -2  -4  464.85   16.70
   2  -2   4  419.16   17.90
  -2  -2  -4  437.16   17.00
   2  -2   4  435.96   16.90
   2  -2   4  420.96   17.50
   2  -2   4  401.96   18.00
   2  -2   4  474.75   17.70
  -2  -2  -4  442.96   16.80
   2  -2   4  444.96   15.70
   2  -2   4  410.16   18.40
  -2  -2  -4  442.96   17.40
  -2  -2  -4  440.26   16.70
  -2   2  -4  478.35   17.90
   2   2   4  437.46   18.90
   2   2   4  438.86   16.70
  -2   2  -4  425.96   17.20
   2   2   4  449.95   17.20
  -2   2  -4  418.56   15.60
  -2   2  -4  409.86   17.20
  -2   2  -4  427.56   16.90
   2   2   4  444.86   17.20
   2   2   4  438.76   17.70
   2   2   4  434.26   16.80
  -2   2  -4  426.26   17.90
   3  -2   4  994.30   37.30
   3  -2   4  997.60   36.70
   3  -2   4 1038.20   34.30
  -3  -2  -4 1047.10   36.40
   3  -2   4  961.70   37.40
   3  -2   4 1020.00   38.20
  -3  -2  -4 1069.79   35.90
   3  -2   4 1036.00   36.10
   3  -2   4 1100.69   36.90
   3   2   4 1034.80   36.90
  -3   2  -4 1024.40   37.40
   3   2   4  980.90   35.80
   3   2   4 1040.00   36.10
  -3   2  -4 1007.50   36.50
   3   2   4 1010.40   36.20
  -3   2  -4 1022.30   34.30
   3   2   4  995.90   35.70
  -3   2  -4 1026.20   36.20
  -3   2  -4 1043.20   36.10
  -4  -2  -4  213.18    9.70
   4  -2   4  183.38   10.10
   4  -2   4  193.98   11.30
   4  -2   4  201.98   11.00
  -4  -2  -4  195.18    9.00
   4  -2   4  215.88   10.20
  -4  -2  -4  194.58    8.80
   4  -2   4  206.08    9.50
   4  -2   4  195.88   11.40
  -4   2  -4  181.18   10.40
   4   2   4  192.68    9.50
  -4   2  -4  196.48    9.20
   4   2   4  178.08    9.00
   4   2   4  180.38    9.20
   4   2   4  188.38    9.90
  -4   2  -4  171.58    9.40
  -4   2  -4  183.08    7.20
   4   2   4  190.08    9.10
  -5  -2  -4   78.69    4.90
   5  -2   4   70.09    5.40
  -5  -2  -4   77.79    5.50
  -5  -2  -4   72.69    5.00
   5  -2   4   76.39    6.10
   5  -2   4   70.79    6.60
   5  -2   4   78.79    7.30
   5  -2   4   65.89    7.70
   5  -2   4   69.69    7.60
   5   2   4   73.99    5.80
  -5   2  -4   68.19    6.60
   5   2   4   80.29    5.50
   5   2   4   77.69    5.40
  -5   2  -4   72.99    5.70
   5   2   4   61.99    5.30
   5   2   4   70.49    5.90
   6  -2   4   97.29    7.10
   6  -2   4   78.49    8.90
   6  -2   4   81.39    7.20
  -6  -2  -4   78.99    5.80
   6  -2   4   83.19    8.40
  -6  -2  -4   86.19    5.10
   6  -2   4   87.09    6.30
   6  -2   4   88.09    7.90
  -6   2  -4   82.89    5.60
  -6   2  -4   90.19    6.40
   6   2   4   97.39    6.40
   6   2   4   86.19    6.00
   6   2   4   81.59    5.70
  -6   2  -4   78.59    7.40
   6   2   4   84.19    6.40
   6   2   4   83.09    6.60
  -7  -2  -4    9.20    2.60
   7  -2   4    8.10    4.90
   7  -2   4    7.80    3.50
   7  -2   4    9.50    3.30
   7  -2   4    9.50    4.00
   7   2   4    7.80    2.80
   7   2   4   10.60    3.00
   7   2   4   11.30    3.10
  -7   2  -4    6.80    2.60
   7   2   4    4.50    2.50
  -7   2  -4    9.10    3.90
   8  -2   4  357.06   16.70
   8  -2   4  333.87   19.70
   8  -2   4  340.47   17.30
   8   2   4  361.96   15.10
   8   2   4  345.07   14.70
   8   2   4  341.77   15.30
   9  -2   4   39.40    6.60
   9  -2   4   42.10    6.10
   9  -2   4   43.80    9.00
   9   2   4   50.19    5.10
   9   2   4   48.10    5.60
   9   2   4   42.90    5.60
  10  -2   4    3.60    4.10
  10  -2   4    4.30    5.60
  10  -2   4    3.00    4.00
  10   2   4   12.00    3.30
  10   2   4    2.50    2.90
  11  -3  -4    3.30    5.70
  11  -3  -4    5.80    3.60
  11  -3  -4   12.30    4.40
  11   3  -4   10.10    4.40
  11   3  -4   10.50    2.30
  10  -3  -4   84.09    7.80
  10  -3  -4   91.39   11.70
  10  -3  -4   92.59    8.60
  10   3  -4   84.99    5.40
  10   3  -4   85.29    8.40
  10   3  -4   89.59    7.60
  10   3  -4   77.69    5.00
   9  -3  -4   17.40    6.40
   9  -3  -4   19.30    4.70
   9  -3  -4   22.50    4.40
   9   3  -4   15.80    3.70
   9   3  -4   14.70    2.60
   9   3  -4   18.20    4.60
   9   3  -4   15.70    2.80
   8  -3  -4  374.46   16.90
   8  -3  -4  404.76   20.30
   8  -3  -4  347.57   20.40
   8  -3  -4  389.66   18.00
   8   3  -4  378.66   15.00
   8   3  -4  353.06   15.70
   8   3  -4  374.06   15.00
  -8   3   4  376.16   16.40
   8   3  -4  355.06   17.10
  -8   3   4  384.06   18.80
   7  -3  -4  169.78   10.00
   7  -3  -4  172.48   12.00
   7  -3  -4  147.89    8.70
   7  -3  -4  173.68    9.70
   7  -3  -4  154.28   10.50
   7  -3  -4  148.89   12.40
   7   3  -4  174.58   10.00
   7   3  -4  159.08    8.10
  -7   3   4  165.18   11.10
   7   3  -4  149.79    8.90
   7   3  -4  153.08   12.10
  -7   3   4  171.58    9.10
   7   3  -4  164.78    8.50
   6  -3  -4  296.87   17.10
   6  -3  -4  295.97   15.20
   6  -3  -4  305.37   14.40
   6  -3  -4  329.77   14.40
  -6  -3   4  290.97   12.00
   6  -3  -4  324.77   13.80
  -6  -3   4  287.07   13.20
   6  -3  -4  325.47   16.60
   6   3  -4  305.27   14.00
   6   3  -4  307.77   14.40
   6   3  -4  317.87   13.70
   6   3  -4  313.67   13.30
   6   3  -4  278.27   14.10
  -6   3   4  309.47   15.80
  -6   3   4  311.17   13.20
  -6   3   4  333.77   14.00
   6   3  -4  303.77   12.90
  -5  -3   4  215.28    9.90
   5  -3  -4  210.78   12.40
  -5  -3   4  216.08   11.20
   5  -3  -4  234.28   13.20
   5  -3  -4  233.88   11.50
   5  -3  -4  212.48   13.70
   5  -3  -4  236.48   11.00
   5  -3  -4  241.48   11.80
   5   3  -4  214.78   11.30
   5   3  -4  226.48   10.40
   5   3  -4  228.78   11.50
   5   3  -4  251.57   11.60
  -5   3   4  243.28   13.00
   5   3  -4  231.98   10.70
  -5   3   4  225.18   11.10
   5   3  -4  223.68   11.00
   4  -3  -4   93.99    6.20
  -4  -3   4   77.39    5.80
  -4  -3   4   72.59    6.60
   4  -3  -4   87.69    6.40
   4  -3  -4   81.69    7.60
   4  -3  -4   83.99    8.60
   4  -3  -4   88.89    6.90
   4  -3  -4   94.59    7.80
  -4   3   4   95.49    6.00
   4   3  -4   81.69    6.40
  -4   3   4   91.29    6.40
   4   3  -4   87.89    6.10
   4   3  -4   75.39    6.00
   4   3  -4   75.59    5.50
   4   3  -4   87.99    6.40
   4   3  -4   78.59    6.60
  -4   3   4   81.19    7.80
   3  -3  -4  202.98   10.50
  -3  -3   4  208.38   10.20
  -3  -3   4  205.88   11.10
   3  -3  -4  195.38   12.30
   3  -3  -4  218.38   10.90
   3  -3  -4  219.98   10.20
   3  -3  -4  223.78   11.80
   3   3  -4  201.28   10.10
   3   3  -4  186.48   10.00
  -3   3   4  210.58    9.90
  -3   3   4  210.38   12.20
  -3   3   4  223.58   10.60
   3   3  -4  201.68    9.70
   3   3  -4  207.38   10.30
  -3   3   4  187.08    9.80
   3   3  -4  213.18   10.50
   3   3  -4  205.58   11.60
   3   3  -4  196.18   10.70
  -2  -3   4   72.89    6.70
  -2  -3   4   54.39    5.50
   2  -3  -4   67.59    6.10
   2  -3  -4   57.79    7.20
  -2  -3   4   62.49    6.50
   2  -3  -4   63.89    6.70
   2  -3  -4   57.19    5.00
  -2  -3   4   63.79    5.70
   2   3  -4   61.39    6.00
  -2   3   4   59.29    5.20
   2   3  -4   60.79    5.00
   2   3  -4   60.39    5.40
   2   3  -4   64.09    5.30
  -2   3   4   68.19    6.00
   2   3  -4   46.50    6.20
   2   3  -4   47.30    5.40
  -2   3   4   63.89    5.20
  -2   3   4   61.49    5.50
   2   3  -4   58.39    5.30
   1  -3  -4  298.27   14.60
   1  -3  -4  294.47   13.70
  -1  -3   4  315.17   15.20
  -1  -3   4  307.97   13.10
  -1  -3   4  325.77   14.30
   1  -3  -4  315.97   13.40
  -1  -3   4  330.67   14.10
  -1  -3   4  308.17   14.80
   1  -3  -4  282.77   15.20
  -1   3   4  301.17   13.80
   1   3  -4  303.77   14.40
   1   3  -4  308.67   13.50
   1   3  -4  315.87   13.20
  -1   3   4  285.67   13.20
   1   3  -4  313.27   13.30
   1   3  -4  319.57   13.90
  -1   3   4  313.97   13.30
  -1   3   4  291.37   15.10
  -1   3   4  343.77   14.50
   1   3  -4  307.27   14.90
   1   3  -4  313.47   13.90
   0  -3  -4  423.46   18.50
   0  -3  -4  392.86   19.30
   0  -3   4  438.16   19.50
   0  -3   4  453.85   17.30
   0  -3  -4  461.45   17.40
   0  -3   4  416.96   18.20
   0  -3   4  437.26   18.20
   0  -3   4  442.36   17.00
   0  -3  -4  423.26   17.60
   0  -3   4  440.76   19.20
   0   3   4  439.56   18.10
   0   3   4  424.36   19.50
   0   3  -4  417.16   17.70
   0   3   4  416.56   17.40
   0   3  -4  428.46   17.90
   0   3   4  408.36   17.60
   0   3  -4  441.76   19.00
   0   3  -4  427.26   17.90
   0   3   4  443.06   17.30
   0   3  -4  435.46   17.00
   0   3  -4  421.76   17.20
   1  -3   4   71.99    6.90
   1  -3   4   75.89    5.10
  -1  -3  -4   79.49    7.00
  -1  -3  -4   80.39    5.60
   1  -3   4   74.69    7.10
   1  -3   4   84.29    5.80
   1  -3   4   73.29    7.50
   1  -3   4   73.59    7.50
  -1  -3  -4   75.49    6.00
  -1   3  -4   78.39    6.40
  -1   3  -4   71.89    5.60
   1   3   4   85.19    8.00
   1   3   4   79.59    5.80
  -1   3  -4   75.19    7.00
  -1   3  -4   76.39    5.20
  -1   3  -4   72.99    6.20
   1   3   4   74.59    6.20
   1   3   4   80.29    6.40
   1   3   4   79.49    5.90
  -1   3  -4   71.89    6.30
   2  -3   4   97.59    5.60
   2  -3   4   99.09    8.40
   2  -3   4   84.69    6.20
  -2  -3  -4   96.99    6.50
   2  -3   4   88.29    7.90
  -2  -3  -4   96.89    7.40
   2  -3   4   91.59    8.50
   2  -3   4   83.29    7.50
  -2   3  -4   87.19    7.20
   2   3   4   90.99    7.60
   2   3   4   87.49    6.80
  -2   3  -4   92.49    7.00
  -2   3  -4   91.59    7.60
   2   3   4  105.49    7.20
   2   3   4   86.69    6.30
   2   3   4   76.89    6.10
  -2   3  -4   98.69    6.40
  -2   3  -4   89.99    6.90
  -2   3  -4  103.09    5.60
   3  -3   4  123.99    9.80
   3  -3   4  126.59    9.90
  -3  -3  -4  141.29    8.80
   3  -3   4  122.59   10.10
   3  -3   4  142.49    9.40
   3  -3   4  141.19    6.80
   3   3   4  132.49    8.00
   3   3   4  127.59    8.20
   3   3   4  141.59    9.40
  -3   3  -4  132.79    6.70
  -3   3  -4  145.59    8.80
   3   3   4  132.59    8.40
   3   3   4  138.29    7.90
  -3   3  -4  128.89    9.30
  -3   3  -4  139.49    7.90
   4  -3   4  142.39    8.50
   4  -3   4  143.49   10.00
   4  -3   4  161.48    7.10
   4  -3   4  141.59   11.40
  -4  -3  -4  142.39    8.00
   4  -3   4  140.19   10.80
   4  -3   4  147.99   10.60
  -4  -3  -4  148.89    8.90
  -4   3  -4  147.39    6.90
   4   3   4  138.09    8.70
  -4   3  -4  138.59    8.20
   4   3   4  145.99    8.40
  -4   3  -4  156.58   10.30
   4   3   4  140.29    9.70
   4   3   4  147.79    9.00
   4   3   4  154.68    9.00
  -4   3  -4  141.29    9.10
  -5  -3  -4  495.05   20.50
   5  -3   4  474.45   23.80
   5  -3   4  484.65   23.50
   5  -3   4  507.15   20.60
   5  -3   4  467.15   22.30
   5  -3   4  503.85   22.00
   5  -3   4  504.75   18.10
   5   3   4  515.75   20.60
   5   3   4  509.75   20.60
  -5   3  -4  510.35   22.60
  -5   3  -4  478.85   20.90
  -5   3  -4  519.55   18.10
   5   3   4  492.35   20.60
   5   3   4  492.45   20.00
   5   3   4  516.75   21.80
  -5   3  -4  518.35   20.40
   6  -3   4   25.30    6.80
   6  -3   4   31.20    5.70
   6  -3   4   33.60    6.40
  -6  -3  -4   25.10    4.00
  -6   3  -4   29.10    6.30
   6   3   4   26.10    4.60
  -6   3  -4   34.00    5.00
   6   3   4   25.00    3.90
   6   3   4   22.20    4.30
   7  -3   4  156.08   11.20
   7  -3   4  154.48   13.20
   7  -3   4  146.39   11.60
   7   3   4  152.08    9.40
  -7   3  -4  153.38    9.60
   7   3   4  160.58    9.70
   7   3   4  139.99    9.00
   8  -3   4   67.69   10.60
   8  -3   4   63.09    9.00
   8  -3   4   82.69    9.10
   8   3   4   67.59    6.90
   8   3   4   87.59    7.40
   8   3   4   76.69    6.80
   9  -3   4  163.38   13.20
   9  -3   4  176.88   15.70
   9  -3   4  161.48   12.30
   9   3   4  163.28   10.30
   9   3   4  184.68   10.80
   9   3   4  160.38    9.90
  10  -3   4   99.99   21.80
  10  -3   4   72.39    9.20
  10  -3   4   87.39   10.80
  10   3   4   87.89    7.90
  10  -4  -4   16.00    4.90
  10  -4  -4   25.90    6.10
  10  -4  -4   21.60    8.50
  10   4  -4   10.30    3.20
  10   4  -4   17.10    5.70
  10   4  -4   12.10    3.30
   9  -4  -4   60.59    8.50
   9  -4  -4   38.70    9.40
   9  -4  -4   55.39    7.70
   9   4  -4   62.09    8.00
   9   4  -4   50.19    5.50
   9   4  -4   63.79    5.90
   8  -4  -4   61.19   10.90
   8  -4  -4   59.29    8.50
   8  -4  -4   69.29    8.10
   8   4  -4   55.69    5.70
   8   4  -4   59.59    6.10
   8   4  -4   69.79    7.50
   7  -4  -4  339.37   20.60
   7  -4  -4  356.56   17.30
   7  -4  -4  325.07   18.10
   7   4  -4  342.97   15.20
   7   4  -4  351.26   15.60
  -7   4   4  325.87   16.00
   7   4  -4  345.77   17.00
   6  -4  -4  214.68   13.60
   6  -4  -4  174.98   14.30
   6  -4  -4  197.98   11.90
   6   4  -4  186.68   11.60
  -6   4   4  179.58   13.30
   6   4  -4  184.88   10.20
   6   4  -4  184.38   10.60
  -6   4   4  183.58   10.90
   5  -4  -4  161.18   10.90
   5  -4  -4  174.08   12.20
   5  -4  -4  159.78   13.20
   5  -4  -4  165.58   14.50
  -5  -4   4  177.78   10.70
   5   4  -4  152.18   10.30
  -5   4   4  172.88   10.40
  -5   4   4  154.98   12.10
   5   4  -4  180.98   10.40
   5   4  -4  158.98   12.10
   5   4  -4  165.18    9.50
   4  -4  -4   79.89    7.80
   4  -4  -4   66.29    9.50
   4  -4  -4   61.19    7.90
   4  -4  -4   66.99    7.90
  -4  -4   4   63.59    7.50
  -4   4   4   72.69    6.20
   4   4  -4   65.29    7.60
   4   4  -4   57.79    5.90
   4   4  -4   57.99    6.20
  -4   4   4   60.69    6.60
   4   4  -4   72.19    6.70
  -4   4   4   60.99    8.40
  -4   4   4   59.39    6.40
   4   4  -4   66.59    8.50
   3  -4  -4   25.30    6.50
  -3  -4   4   19.20    5.00
   3  -4  -4   32.70    5.40
   3  -4  -4   25.80    4.10
   3  -4  -4   34.00    6.20
   3   4  -4   19.00    5.80
  -3   4   4   37.60    7.30
   3   4  -4   26.10    4.20
   3   4  -4   30.90    5.00
   3   4  -4   22.70    4.40
  -3   4   4   23.30    4.60
   3   4  -4   19.20    4.20
  -3   4   4   31.60    4.90
  -3   4   4   25.10    4.30
  -2  -4   4   96.59    8.50
   2  -4  -4  109.19    9.70
   2  -4  -4  108.89   10.40
  -2  -4   4  115.59    9.70
   2  -4  -4  112.79    7.90
   2  -4  -4  120.09    8.80
  -2  -4   4  119.59    8.40
  -2   4   4  108.69    7.70
   2   4  -4  112.29    8.60
  -2   4   4  108.89    8.30
  -2   4   4  115.09    7.80
   2   4  -4  108.79    8.20
   2   4  -4  117.89    8.00
   2   4  -4  105.09    9.70
   2   4  -4  117.89    8.20
  -2   4   4  105.59   10.10
   1  -4  -4   86.29    8.70
  -1  -4   4   65.99    7.00
  -1  -4   4   86.49    8.30
   1  -4  -4   74.19    9.20
   1  -4  -4   96.49    7.90
  -1  -4   4   83.69    9.00
   1   4  -4   88.29    8.90
  -1   4   4   75.29    6.60
  -1   4   4   75.59    7.30
   1   4  -4   82.49    6.90
  -1   4   4   78.79    6.60
   1   4  -4   83.39    6.80
   1   4  -4   87.19    7.50
  -1   4   4   78.19    8.00
   1   4  -4   82.69    7.80
  -1   4   4   63.49    9.00
   0  -4   4  357.86   16.50
   0  -4   4  307.77   17.40
   0  -4   4  340.27   17.10
   0  -4  -4  330.77   17.00
   0  -4  -4  345.87   15.80
   0  -4  -4  339.87   18.30
   0   4  -4  336.37   16.30
   0   4   4  296.07   17.70
   0   4   4  364.36   16.70
   0   4  -4  331.77   17.40
   0   4   4  326.67   15.70
   0   4   4  346.07   15.40
   0   4  -4  341.67   16.20
   0   4   4  340.07   16.10
   0   4  -4  333.87   15.10
   0   4  -4  374.16   15.90
   1  -4   4   70.99    9.00
  -1  -4  -4   75.29    6.90
   1  -4   4   67.59    8.40
  -1  -4  -4   79.59    8.50
   1  -4   4   78.19    7.80
   1  -4   4   70.99    9.40
   1  -4   4   88.19    9.80
   1  -4   4   73.49    7.70
  -1   4  -4   79.69    6.30
  -1   4  -4   76.69    6.90
  -1   4  -4   81.89    8.00
   1   4   4   81.69    6.80
  -1   4  -4   71.09    7.30
   1   4   4   80.09    7.30
   1   4   4   70.79    7.80
   1   4   4   95.49   10.30
  -1   4  -4   93.69    8.80
   1   4   4   80.49    7.00
   2  -4   4   14.30    5.30
   2  -4   4   10.80    5.30
  -2  -4  -4   15.30    3.80
   2  -4   4   21.80    5.70
  -2  -4  -4   17.00    4.60
   2  -4   4   15.90    4.70
   2  -4   4    6.30    4.60
  -2   4  -4   11.60    3.90
   2   4   4    8.50    3.60
  -2   4  -4   17.70    5.10
   2   4   4   14.80    4.00
  -2   4  -4   18.20    3.40
  -2   4  -4    9.40    3.20
   2   4   4   15.10    3.60
   2   4   4   17.80    6.10
  -3  -4  -4   17.00    4.60
   3  -4   4    8.10    4.70
   3  -4   4    7.00    4.50
   3  -4   4    9.80    5.20
   3  -4   4   16.80    5.60
  -3   4  -4    5.40    4.00
   3   4   4    9.40    3.80
  -3   4  -4    4.20    3.40
  -3   4  -4   13.30    3.00
   3   4   4   12.30    3.90
   3   4   4   13.20    3.70
  -3   4  -4    9.70    3.30
   4  -4   4  166.88   13.10
   4  -4   4  178.18   13.70
  -4  -4  -4  201.98   11.80
   4  -4   4  195.08   14.00
   4  -4   4  183.08   12.70
   4   4   4  174.18   10.90
  -4   4  -4  202.68   12.10
  -4   4  -4  198.78    9.50
   4   4   4  194.38   11.50
   4   4   4  190.48   10.80
   5  -4   4   69.29    8.80
   5  -4   4   74.79    9.70
  -5  -4  -4   67.29    7.20
   5  -4   4   79.69   10.50
   5  -4   4   76.29    9.60
  -5   4  -4   67.19    5.10
   5   4   4   70.69    7.50
   5   4   4   77.99    7.10
  -5   4  -4   70.19    7.60
   5   4   4   80.39    7.40
   6  -4   4  144.79   12.90
   6  -4   4  147.79   13.90
   6  -4   4  137.69   12.10
   6  -4   4  162.88   13.10
   6   4   4  166.08   10.60
   6   4   4  157.58   10.00
   6   4   4  177.18   11.00
  -6   4  -4  167.08   11.10
   7  -4   4   33.10    6.90
   7  -4   4   34.80    8.90
   7  -4   4   43.80    7.90
   7  -4   4   17.50    6.20
   7   4   4   21.50    5.60
   7   4   4   27.40    5.00
   7   4   4   30.70    5.30
   8  -4   4   41.00    8.50
   8  -4   4   36.50    9.30
   8  -4   4   30.10    7.00
   8  -4   4   61.49    9.40
   8   4   4   34.80    5.90
   8   4   4   49.50    6.90
   8   4   4   47.30    6.20
   8  -5  -4   19.80    5.90
   8   5  -4   24.60    5.00
   7  -5  -4   -1.70    4.00
   7  -5  -4    8.60    5.60
   7  -5  -4    2.70    5.70
   7   5  -4    3.40    3.40
   7   5  -4   -2.60    3.80
   7   5  -4    2.10    3.10
   6  -5  -4   67.19   11.70
   6  -5  -4   90.99    9.80
   6  -5  -4   97.09   11.10
   6   5  -4   74.49    8.40
   6   5  -4   74.89    7.60
   6   5  -4   93.19    8.60
  -6   5   4   83.49    8.60
   5  -5  -4    8.50    4.40
   5  -5  -4   15.20    6.60
   5  -5  -4   17.50    6.10
  -5   5   4   13.00    4.80
   5   5  -4   15.20    4.20
   5   5  -4    6.20    4.40
   5   5  -4   12.10    4.50
   4  -5  -4   60.69    8.60
   4  -5  -4   62.39    8.30
   4  -5  -4   50.99    9.60
  -4   5   4   46.60    6.60
  -4   5   4   52.99    6.90
   4   5  -4   44.10    6.20
   4   5  -4   57.39    7.50
   4   5  -4   55.09    7.80
  -3  -5   4   15.30    5.60
   3  -5  -4   26.00    6.40
   3  -5  -4   12.30    4.70
   3  -5  -4   18.60    7.10
   3   5  -4   19.60    4.80
   3   5  -4   15.70    4.70
  -3   5   4   21.90    5.20
   3   5  -4   22.60    5.30
  -3   5   4   19.70    4.80
   2  -5  -4  172.38   13.00
  -2  -5   4  134.39   12.20
   2  -5  -4  152.08   11.00
   2  -5  -4  151.28   13.80
   2   5  -4  155.78   11.10
   2   5  -4  134.89    9.80
  -2   5   4  131.49   10.10
   2   5  -4  146.79   10.20
  -2   5   4  133.39   10.50
  -1  -5   4   90.59   10.60
   1  -5  -4   86.89   10.30
  -1  -5   4   69.09    9.10
   1  -5  -4   53.49    9.60
   1   5  -4   71.49    8.30
   1   5  -4   88.79    8.10
  -1   5   4   93.89    8.90
  -1   5   4   89.89    7.90
   1   5  -4   83.89    8.10
  -1   5   4   87.09    7.80
   0  -5  -4   74.99    9.40
   0  -5   4   47.60    8.10
   0  -5   4   46.00    8.40
   0  -5  -4   41.20    7.90
   0   5   4   46.70    6.30
   0   5  -4   47.10    6.80
   0   5   4   43.00    6.70
   0   5   4   57.09    7.50
   0   5  -4   62.59    7.10
   0   5  -4   49.80    6.40
   1  -5   4  108.69   11.90
  -1  -5  -4  107.79   10.70
   1  -5   4   85.29   11.20
   1   5   4  112.79    9.70
  -1   5  -4  103.49    8.70
  -1   5  -4  112.99    9.70
  -1   5  -4   96.79    8.00
   1   5   4  111.79    8.90
   1   5   4   89.39    9.00
   2  -5   4   31.50    8.10
   2  -5   4   25.40    7.30
  -2  -5  -4   45.20    7.10
  -2   5  -4   34.20    5.30
  -2   5  -4   34.30    6.00
   2   5   4   28.70    5.50
   2   5   4   27.50    5.80
   2   5   4   41.20    6.80
   3  -5   4   89.79   11.90
  -3  -5  -4   85.29    9.50
   3  -5   4   96.69   11.90
   3   5   4   72.09    8.70
   3   5   4   80.49    8.00
  -3   5  -4   89.19    7.20
   3   5   4   88.19    9.20
   4  -5   4   18.00    5.90
   4  -5   4   16.10    6.90
   4  -5   4   23.90    8.10
  -4   5  -4   21.20    5.80
   4   5   4   20.00    5.00
  -4   5  -4   18.60    4.20
   4   5   4   19.80    4.70
   4   5   4   22.10    5.40
   5  -5   4  174.98   13.50
   5  -5   4  171.68   13.40
   5  -5   4  179.68   15.50
   5  -5   4  156.58   15.20
   5   5   4  163.68   12.00
  -5   5  -4  148.59   11.80
   5   5   4  178.78   12.10
   5   5   4  167.58   11.30
   6  -5   4   10.60    5.30
   6  -5   4   21.30   10.10
   6  -5   4   -6.50    5.90
   6  -5   4    9.50    5.30
  -6   5  -4    5.00    3.90
   6   5   4    5.00    4.30
   6   5   4    7.50    4.50
   6   5   4    7.60    4.10
   3  -6  -4   16.70   10.50
   3  -6  -4   38.20    8.20
  -3   6   4   35.00    7.40
  -3   6   4   34.60    7.00
   3   6  -4   21.50    7.80
   3   6  -4   18.20    5.50
   2  -6  -4   14.40    8.10
   2  -6  -4   44.20    8.90
   2   6  -4   22.50    5.80
   2   6  -4   34.00    6.50
  -2   6   4   27.20    6.90
  -2   6   4   27.60    6.90
  -1  -6   4  105.79   15.50
   1  -6  -4  110.99   12.70
   1  -6  -4  100.39   13.20
  -1  -6   4   94.29   12.80
  -1   6   4   89.39   10.40
   1   6  -4  120.09   13.90
  -1   6   4   89.09    9.70
   1   6  -4   85.29    9.30
   0  -6  -4   21.80    7.10
   0  -6   4   28.20    7.90
   0  -6   4   19.50    7.50
   0   6  -4   26.50    5.70
   0   6   4   30.10    7.10
   0   6  -4   35.40    7.30
   1  -6   4   44.10    9.70
  -1  -6  -4   47.20    9.10
   1  -6   4   46.90   10.40
  -1   6  -4   34.00    6.70
  -1   6  -4   61.79    9.50
  13   0  -5  164.48   13.80
  13   0  -5  162.88   10.20
  12   0  -5   53.39    5.80
  12   0  -5   60.09    8.90
  11   0  -5    3.30    4.00
  11   0  -5    4.10    3.40
  10   0  -5  102.39    9.30
  10   0  -5  102.29    8.00
   9   0  -5   75.29    7.80
   9   0  -5   93.79    7.00
   8   0  -5   79.29    5.90
   8   0  -5   67.99    6.80
   7   0  -5  253.77   11.60
   7   0  -5  249.97    9.20
   7   0  -5  255.17    9.30
   7   0  -5  278.87   12.80
   6   0  -5    4.40    1.10
   6   0  -5    1.00    1.00
   6   0  -5    0.70    2.10
   6   0  -5    1.30    1.50
   6   0  -5    2.10    1.10
   6   0  -5    2.00    0.90
   5   0  -5  345.57   13.00
  -5   0   5  333.57   12.00
   5   0  -5  359.96   14.10
   5   0  -5  323.97   12.10
   5   0  -5  349.07   12.30
   5   0  -5  333.47   12.20
  -5   0   5  343.47   12.20
   5   0  -5  327.57   12.30
   4   0  -5  372.26   13.90
  -4   0   5  375.36   13.80
  -4   0   5  410.16   14.70
   4   0  -5  368.86   13.80
   4   0  -5  378.76   13.70
  -4   0   5  377.16   13.40
   4   0  -5  378.76   13.70
   4   0  -5  389.76   14.70
  -4   0   5  395.76   13.50
   4   0  -5  367.06   13.70
  -4   0   5  380.66   13.80
   3   0  -5 2782.92   89.59
  -3   0   5 2673.13   89.49
   3   0  -5 2986.50   89.79
  -3   0   5 2845.72   89.69
   3   0  -5 2578.94   89.59
   3   0  -5 2620.64   89.29
  -3   0   5 2679.43   89.49
   3   0  -5 2658.03   89.29
  -3   0   5 2674.13   89.19
  -3   0   5 2808.02   89.29
   2   0  -5  237.48    9.90
  -2   0   5  273.77   10.10
  -2   0   5  259.37    9.90
   2   0  -5  261.57    9.70
  -2   0   5  251.67   10.20
  -2   0   5  268.57   10.30
   2   0  -5  240.38   10.20
   2   0  -5  258.97   10.20
   2   0  -5  246.78    9.90
  -1   0   5  212.58    8.70
  -1   0   5  188.18    7.10
   1   0  -5  194.28    8.40
  -1   0   5  197.08    8.60
   1   0  -5  198.68    8.60
  -1   0   5  194.78    8.20
   1   0  -5  186.08    8.10
  -1   0   5  181.98    8.20
  -1   0   5  214.28    8.30
   1   0  -5  206.68    8.30
   0   0   5  548.25   19.30
   0   0  -5  511.95   19.20
   0   0   5  547.95   19.00
   0   0   5  532.35   19.30
   0   0  -5  523.75   19.20
   0   0   5  545.85   18.90
   0   0   5  497.05   18.30
   0   0  -5  492.25   18.70
   0   0  -5  518.85   18.80
   1   0   5  113.39    6.00
  -1   0  -5  124.59    6.40
  -1   0  -5  125.09    6.10
  -1   0  -5  121.99    6.40
   1   0   5  113.59    6.00
   1   0   5  121.29    6.50
  -1   0  -5  109.19    5.80
   1   0   5  115.69    6.30
   1   0   5  121.69    6.60
   2   0   5  180.88    8.20
   2   0   5  186.38    8.70
  -2   0  -5  178.18    8.00
  -2   0  -5  194.18    8.60
  -2   0  -5  165.68    8.30
   2   0   5  177.68    8.70
  -2   0  -5  187.38    6.90
   2   0   5  173.68    8.30
  -2   0  -5  178.78    8.10
   2   0   5  180.08    8.70
   3   0   5  286.57   12.30
   3   0   5  290.47   13.10
  -3   0  -5  305.57   12.10
  -3   0  -5  300.57   12.50
  -3   0  -5  288.07   12.40
   3   0   5  295.57   12.70
  -3   0  -5  308.67   10.60
   3   0   5  307.37   12.30
   3   0   5  318.77   12.90
  -4   0  -5    4.00    1.60
   4   0   5    5.40    2.20
   4   0   5    1.40    1.80
   4   0   5    5.40    1.90
  -4   0  -5    2.80    1.70
   4   0   5    5.00    2.20
  -4   0  -5    5.00    0.90
   4   0   5   -2.40    1.90
   5   0   5  261.57   12.30
   5   0   5  281.57   13.80
   5   0   5  281.37   12.20
   5   0   5  290.57   12.50
   5   0   5  281.57   12.00
  -5   0  -5  279.87   11.50
  -5   0  -5  278.17   12.00
   6   0   5   95.09    8.00
  -6   0  -5   97.19    6.20
   6   0   5  102.99    6.30
   6   0   5  103.19    6.90
   6   0   5  103.49    6.70
   6   0   5   96.89    6.70
  -6   0  -5   90.19    5.50
  -7   0  -5  170.58    8.10
   7   0   5  178.48    9.50
   7   0   5  176.48    9.60
   7   0   5  154.58    9.50
   7   0   5  186.48   11.80
  -7   0  -5  171.58    8.70
   7   0   5  174.58    9.10
   8   0   5  419.66   18.20
   8   0   5  431.16   17.90
   9   0   5   13.10    3.90
   9   0   5   10.20    3.50
  10   0   5   55.69    6.60
  10   0   5   51.19    6.50
  11   0   5   23.00    5.60
  11   0   5   24.50    5.10
  13  -1  -5  120.39   12.70
  13   1  -5  119.49    8.90
  13   1  -5   98.39   11.10
  12  -1  -5   82.89    5.50
  12  -1  -5   92.59   10.90
  12   1  -5   92.79    9.90
  12   1  -5  100.89    7.80
  11  -1  -5    8.20    2.30
  11  -1  -5   11.20    2.10
  11  -1  -5    8.60    2.00
  11  -1  -5   10.70    5.30
  11   1  -5   14.70    4.00
  11   1  -5    6.70    3.20
  11   1  -5    8.10    4.10
  10  -1  -5   95.89    8.40
  10  -1  -5  101.59    5.60
  10  -1  -5  105.39    5.90
  10  -1  -5  106.09    5.40
  10  -1  -5  117.89   10.30
  10   1  -5  107.69    8.20
  10   1  -5   89.89    7.20
  10   1  -5  109.49    8.90
   9  -1  -5   26.30    2.80
   9  -1  -5   27.30    3.10
   9  -1  -5   26.80    6.00
   9  -1  -5   24.10    2.70
   9  -1  -5   35.90    5.30
   9  -1  -5   27.20    3.40
   9   1  -5   25.80    4.40
  -9   1   5   30.40    5.10
   9   1  -5   29.70    4.50
   9   1  -5   23.90    4.80
   8  -1  -5   16.40    2.60
   8  -1  -5   13.50    4.50
   8  -1  -5   16.70    2.70
   8  -1  -5   16.70    2.40
   8  -1  -5   22.00    4.20
   8  -1  -5   14.50    2.10
  -8   1   5   12.90    3.30
   8   1  -5   17.70    3.50
  -8   1   5   20.60    2.60
   8   1  -5   20.60    3.60
  -8   1   5   17.80    2.00
   8   1  -5   19.60    4.00
   7  -1  -5   36.80    3.10
   7  -1  -5   46.70    4.80
   7  -1  -5   40.70    6.10
   7  -1  -5   30.90    3.50
   7  -1  -5   40.20    3.80
   7  -1  -5   32.90    3.00
  -7   1   5   37.70    3.50
   7   1  -5   42.40    4.70
   7   1  -5   31.20    3.90
  -7   1   5   44.40    4.50
   6  -1  -5  885.11   31.60
   6  -1  -5  978.50   34.80
   6  -1  -5  885.81   31.40
   6  -1  -5  890.01   32.00
   6  -1  -5  890.51   31.60
   6  -1  -5  988.80   33.40
  -6   1   5  935.61   32.70
  -6   1   5  928.41   30.70
   6   1  -5  898.11   30.80
   6   1  -5  869.11   30.70
  -6   1   5  970.10   34.20
  -6   1   5  997.90   32.10
   6   1  -5  927.71   30.80
  -6   1   5  893.81   31.20
   6   1  -5  882.51   30.80
   5  -1  -5  574.54   20.50
   5  -1  -5  547.05   19.50
  -5  -1   5  550.54   18.60
   5  -1  -5  514.65   19.40
   5  -1  -5  527.15   19.80
  -5  -1   5  510.65   18.80
   5  -1  -5  540.95   19.20
   5  -1  -5  558.34   21.80
   5   1  -5  541.55   18.70
  -5   1   5  547.35   18.80
  -5   1   5  560.84   20.10
  -5   1   5  533.35   19.20
   5   1  -5  525.85   18.90
   5   1  -5  530.05   18.90
  -5   1   5  576.64   20.10
   5   1  -5  515.05   18.90
  -5   1   5  572.04   21.60
  -5   1   5  539.35   19.20
   4  -1  -5  827.92   29.30
  -4  -1   5  846.82   28.30
   4  -1  -5  850.91   30.90
  -4  -1   5  837.02   28.80
   4  -1  -5  839.22   29.60
   4  -1  -5  840.82   29.00
  -4  -1   5  828.02   29.00
   4  -1  -5  931.71   29.90
  -4  -1   5  832.82   28.60
   4  -1  -5  822.62   29.20
   4   1  -5  807.12   28.80
   4   1  -5  826.42   28.80
  -4   1   5  817.22   29.30
  -4   1   5  885.81   29.20
   4   1  -5  829.72   28.60
   4   1  -5  858.21   28.90
  -4   1   5  807.82   29.10
  -4   1   5  882.81   29.80
  -4   1   5  874.61   28.80
   4   1  -5  841.62   28.70
  -4   1   5  860.01   31.00
   3  -1  -5  371.66   14.90
   3  -1  -5  338.67   13.50
  -3  -1   5  346.87   13.30
  -3  -1   5  356.66   13.00
   3  -1  -5  373.06   13.70
   3  -1  -5  342.27   13.40
  -3  -1   5  349.47   13.70
   3  -1  -5  358.36   13.70
  -3  -1   5  351.36   13.40
   3  -1  -5  347.77   14.00
   3   1  -5  359.66   13.50
  -3   1   5  356.56   13.30
   3   1  -5  362.36   13.20
  -3   1   5  356.16   13.60
   3   1  -5  365.66   13.40
  -3   1   5  357.36   13.60
  -3   1   5  371.76   13.70
  -3   1   5  364.86   14.10
  -3   1   5  376.16   15.20
   3   1  -5  347.57   13.40
  -2  -1   5  819.22   29.40
  -2  -1   5  869.41   28.90
   2  -1  -5  852.11   30.20
   2  -1  -5  884.81   29.50
   2  -1  -5  820.02   29.00
   2  -1  -5  836.92   29.20
  -2  -1   5  827.72   29.20
   2  -1  -5  910.11   29.50
   2  -1  -5  811.52   29.50
  -2  -1   5  806.72   29.10
   2   1  -5  831.32   29.00
   2   1  -5  826.22   29.20
  -2   1   5  857.51   29.30
   2   1  -5  817.52   28.90
  -2   1   5  868.51   29.80
   2   1  -5  870.71   29.30
  -2   1   5  863.31   30.50
   2   1  -5  848.92   28.70
  -2   1   5  799.72   29.20
  -2   1   5  815.42   28.90
  -2   1   5  854.71   29.20
   1  -1  -5 1029.00   34.70
   1  -1  -5 1049.89   35.00
  -1  -1   5 1000.20   34.80
   1  -1  -5  977.00   35.10
   1  -1  -5 1018.00   34.60
   1  -1  -5  973.30   34.70
  -1  -1   5 1013.60   35.20
  -1  -1   5 1068.09   35.00
  -1  -1   5 1130.09   34.80
   1  -1  -5 1070.39   35.80
  -1  -1   5 1007.50   34.50
   1   1  -5  995.00   34.60
   1   1  -5  978.30   34.50
   1   1  -5  985.80   34.20
  -1   1   5  963.50   34.80
  -1   1   5 1036.30   35.30
   1   1  -5  951.90   34.80
  -1   1   5  986.70   34.50
   1   1  -5 1003.60   34.90
  -1   1   5  994.30   34.80
  -1   1   5 1037.10   36.00
   0  -1  -5  383.76   14.30
   0  -1   5  342.17   13.90
   0  -1  -5  367.76   13.60
   0  -1   5  370.86   14.60
   0  -1  -5  360.86   14.00
   0  -1   5  365.96   13.90
   0  -1   5  354.36   14.20
   0  -1  -5  383.66   13.90
   0  -1  -5  364.46   14.40
   0  -1   5  379.56   14.30
   0   1  -5  356.16   13.80
   0   1   5  336.17   14.00
   0   1   5  363.56   15.00
   0   1   5  366.36   14.50
   0   1  -5  356.46   13.70
   0   1   5  344.57   13.70
   0   1  -5  388.86   14.40
   0   1  -5  361.56   14.00
   0   1   5  355.86   14.00
   0   1  -5  346.67   14.10
  -1  -1  -5 6003.40  196.28
   1  -1   5 5878.51  197.18
   1  -1   5 6128.89  197.08
  -1  -1  -5 5900.21  196.68
   1  -1   5 6069.59  196.78
  -1  -1  -5 5634.24  196.98
   1  -1   5 6320.47  197.28
  -1  -1  -5 6433.86  196.78
   1  -1   5 5974.00  197.38
  -1  -1  -5 6145.58  197.08
  -1   1  -5 6063.69  196.78
   1   1   5 6246.07  196.88
   1   1   5 5899.71  196.28
  -1   1  -5 6048.69  196.68
   1   1   5 6192.38  198.08
  -1   1  -5 5893.51  196.78
   1   1   5 5867.21  196.58
  -1   1  -5 5663.93  196.98
   1   1   5 5787.52  196.88
  -1   1  -5 6276.57  197.18
   1   1   5 6427.96  197.48
  -2  -1  -5  860.51   28.80
  -2  -1  -5  821.02   28.80
   2  -1   5  823.92   29.30
  -2  -1  -5  779.32   29.10
  -2  -1  -5  848.12   29.20
   2  -1   5  827.12   28.90
   2  -1   5  793.22   29.50
  -2  -1  -5  831.42   28.20
   2  -1   5  821.62   29.80
   2  -1   5  805.92   29.20
  -2   1  -5  838.42   29.00
  -2   1  -5  806.52   29.20
   2   1   5  874.31   29.60
  -2   1  -5  770.12   29.20
   2   1   5  794.52   28.20
  -2   1  -5  811.42   29.30
  -2   1  -5  792.82   28.70
   2   1   5  775.62   28.60
  -2   1  -5  828.52   27.20
   2   1   5  858.11   29.00
   2   1   5  805.22   29.10
   3  -1   5  125.69    7.80
  -3  -1  -5  123.09    6.80
   3  -1   5  105.99    6.90
  -3  -1  -5  128.09    5.80
   3  -1   5  130.19    7.60
  -3  -1  -5  120.79    6.60
  -3  -1  -5  131.09    6.30
   3  -1   5  119.19    6.50
   3  -1   5  122.79    7.00
   3   1   5  117.59    5.80
  -3   1  -5  114.19    6.30
  -3   1  -5  120.19    7.20
   3   1   5  108.89    6.30
   3   1   5  114.19    6.70
  -3   1  -5  120.09    6.90
   3   1   5  116.39    6.50
  -3   1  -5   99.09    6.40
   3   1   5  124.09    6.90
  -3   1  -5  111.99    6.50
   4  -1   5  274.57   13.70
  -4  -1  -5  297.27   12.50
   4  -1   5  279.27   12.70
  -4  -1  -5  299.17   11.80
  -4  -1  -5  295.77   11.20
   4  -1   5  301.47   12.40
   4  -1   5  265.07   12.90
   4  -1   5  282.57   12.70
   4   1   5  282.47   12.50
   4   1   5  281.07   12.10
  -4   1  -5  275.27   12.40
   4   1   5  298.77   11.30
   4   1   5  290.17   12.30
  -4   1  -5  299.77   13.60
   4   1   5  298.47   12.80
   5  -1   5  106.09    6.50
   5  -1   5  107.79    7.60
  -5  -1  -5  102.79    5.70
   5  -1   5  100.19    6.70
   5  -1   5   90.69    8.10
  -5  -1  -5  101.69    6.40
   5  -1   5   96.79    7.00
  -5  -1  -5  106.59    5.30
  -5   1  -5  113.29    6.20
  -5   1  -5  108.89    7.80
   5   1   5  106.19    6.40
   5   1   5  105.49    6.80
  -5   1  -5  100.09    6.50
   5   1   5  113.39    6.60
   5   1   5  114.89    7.00
   5   1   5  110.09    8.00
   5   1   5  110.99    5.50
   6  -1   5  340.37   15.40
  -6  -1  -5  316.77   13.80
   6  -1   5  329.17   14.70
   6  -1   5  332.27   14.20
   6  -1   5  322.47   14.60
  -6  -1  -5  336.87   13.20
   6  -1   5  317.57   16.80
  -6  -1  -5  344.67   12.70
  -6   1  -5  321.17   13.50
   6   1   5  315.77   12.70
   6   1   5  318.17   14.00
  -6   1  -5  328.37   16.20
  -6   1  -5  335.57   14.30
   6   1   5  366.96   14.40
   6   1   5  314.77   14.30
   6   1   5  327.97   14.50
   6   1   5  347.17   16.50
   7  -1   5   72.19    6.60
   7  -1   5   83.79    6.10
   7  -1   5   70.59    7.30
   7  -1   5   79.69    8.80
  -7  -1  -5   75.59    5.50
   7  -1   5   88.99    6.70
   7   1   5   77.39    6.00
   7   1   5   66.59    6.00
  -7   1  -5   67.29    5.50
   7   1   5   75.29    4.70
   7   1   5   79.49    6.50
   7   1   5   72.39    6.30
   7   1   5   79.79    8.60
  -7   1  -5   79.59    7.70
   8  -1   5   27.80    4.80
   8  -1   5   21.60    4.60
   8  -1   5   25.30    6.40
   8   1   5   25.90    4.00
   8   1   5   29.20    3.20
   8   1   5   16.90    3.90
   9  -1   5   24.50    6.70
   9  -1   5   29.10    5.10
   9  -1   5   22.80    5.10
   9   1   5   24.00    4.40
   9   1   5   25.00    4.30
  10  -1   5   69.89    8.00
  10  -1   5   81.19    8.60
  10  -1   5   81.29   11.10
  10   1   5   81.29    7.30
  10   1   5   74.29    7.00
  11  -1   5   11.90    4.70
  11   1   5   16.10    4.20
  12  -2  -5   16.30    3.70
  12  -2  -5   13.10    3.50
  12  -2  -5   26.70    7.60
  12   2  -5   20.80    4.70
  11  -2  -5   95.89    7.00
  11  -2  -5   87.09   11.10
  11  -2  -5   92.99    7.10
  11   2  -5   92.89    7.80
  10  -2  -5   12.40    3.30
  10  -2  -5   17.60    6.00
  10  -2  -5   16.30    3.60
  10  -2  -5   17.60    5.20
  10   2  -5   20.20    4.60
 -10   2   5   15.00    4.40
  10   2  -5    9.90    3.90
   9  -2  -5  241.38   15.40
   9  -2  -5  231.08   11.50
   9  -2  -5  221.58   10.40
   9  -2  -5  224.18   13.60
   9  -2  -5  226.78   11.00
   9   2  -5  218.58   11.90
  -9   2   5  235.48   12.80
   9   2  -5  239.08   12.50
   8  -2  -5  398.06   16.20
   8  -2  -5  380.06   16.80
   8  -2  -5  408.26   20.40
   8  -2  -5  420.36   19.00
   8  -2  -5  399.86   15.80
   8  -2  -5  403.76   16.40
   8   2  -5  378.56   14.50
  -8   2   5  404.36   17.90
   8   2  -5  393.06   14.50
   8   2  -5  401.06   17.40
  -8   2   5  394.96   14.70
   8   2  -5  401.36   14.50
  -8   2   5  381.56   15.40
   8   2  -5  401.26   14.90
   7  -2  -5   94.39    8.90
   7  -2  -5  101.49    7.90
   7  -2  -5   91.59    6.20
   7  -2  -5   99.39    7.00
   7  -2  -5   95.79    6.50
   7  -2  -5   94.49    5.80
  -7   2   5   94.99    5.80
   7   2  -5  105.39    5.50
  -7   2   5   99.89    5.30
   7   2  -5  102.49    5.60
   7   2  -5   92.79    7.10
  -7   2   5   99.49    7.40
   7   2  -5   94.79    5.10
   7   2  -5   99.49    5.10
   6  -2  -5  308.17   13.10
   6  -2  -5  302.37   12.40
   6  -2  -5  299.97   15.70
   6  -2  -5  301.17   14.40
   6  -2  -5  325.27   13.00
   6  -2  -5  315.17   13.70
  -6  -2   5  326.87   11.50
  -6   2   5  283.47   12.40
   6   2  -5  260.87   13.10
   6   2  -5  278.37   11.60
   6   2  -5  297.37   12.00
   6   2  -5  290.87   11.80
  -6   2   5  298.07   13.80
   6   2  -5  305.57   12.20
  -6   2   5  300.77   11.90
   5  -2  -5  380.06   15.80
   5  -2  -5  382.06   16.40
   5  -2  -5  391.26   16.90
   5  -2  -5  404.56   15.90
   5  -2  -5  390.26   15.40
  -5  -2   5  377.46   14.40
   5  -2  -5  374.46   18.00
  -5  -2   5  396.56   15.40
  -5  -2   5  400.46   14.70
  -5   2   5  409.96   16.90
   5   2  -5  417.76   16.40
   5   2  -5  383.96   15.10
   5   2  -5  395.56   15.10
   5   2  -5  395.76   15.30
   5   2  -5  409.46   14.90
  -5   2   5  396.56   15.00
  -5   2   5  386.26   15.60
  -4  -2   5 1639.44   55.09
   4  -2  -5 1684.63   57.09
  -4  -2   5 1672.63   55.29
   4  -2  -5 1669.33   56.09
  -4  -2   5 1590.24   55.79
   4  -2  -5 1783.72   57.59
   4  -2  -5 1574.94   57.99
   4  -2  -5 1641.94   55.59
   4  -2  -5 1583.84   56.59
   4  -2  -5 1589.34   55.89
  -4   2   5 1667.63   55.89
   4   2  -5 1625.34   55.49
  -4   2   5 1712.83   56.29
   4   2  -5 1661.73   55.79
   4   2  -5 1654.43   54.89
   4   2  -5 1561.04   56.09
   4   2  -5 1618.84   55.09
  -4   2   5 1682.13   56.99
   4   2  -5 1656.93   55.49
  -4   2   5 1593.14   60.19
  -3  -2   5   10.00    2.90
   3  -2  -5   11.60    2.50
   3  -2  -5   10.10    2.70
   3  -2  -5   13.10    3.60
  -3  -2   5    8.30    2.40
   3  -2  -5   10.30    2.40
  -3  -2   5    8.40    1.90
  -3  -2   5    9.00    2.20
   3  -2  -5   12.50    3.20
   3  -2  -5    9.80    2.10
  -3   2   5   13.50    2.30
  -3   2   5   11.90    4.20
   3   2  -5   11.60    2.10
   3   2  -5   11.00    2.80
   3   2  -5    7.30    2.40
   3   2  -5    7.60    2.30
  -3   2   5   18.00    3.50
  -3   2   5   15.50    3.00
  -3   2   5   10.60    2.50
   3   2  -5    9.70    2.40
  -3   2   5    6.80    3.30
   3   2  -5   13.00    2.50
   3   2  -5   11.80    2.30
   2  -2  -5  416.06   16.50
  -2  -2   5  431.86   15.90
   2  -2  -5  414.96   16.30
   2  -2  -5  442.86   16.70
  -2  -2   5  416.06   16.30
   2  -2  -5  423.86   16.20
   2  -2  -5  395.76   17.00
  -2  -2   5  429.46   17.20
   2  -2  -5  411.06   18.00
   2   2  -5  415.36   15.00
  -2   2   5  453.65   16.90
   2   2  -5  400.46   16.30
  -2   2   5  414.16   17.30
  -2   2   5  402.86   17.20
  -2   2   5  411.06   16.50
   2   2  -5  445.16   16.40
   2   2  -5  395.86   16.50
   2   2  -5  393.26   16.20
  -2   2   5  420.46   18.40
   2   2  -5  412.66   16.00
   2   2  -5  427.26   16.80
  -2   2   5  417.96   16.10
   1  -2  -5  324.57   14.50
  -1  -2   5  356.56   14.10
   1  -2  -5  329.67   13.60
   1  -2  -5  348.37   13.80
  -1  -2   5  329.57   14.20
  -1  -2   5  334.07   14.60
   1  -2  -5  339.07   15.40
   1  -2  -5  328.17   13.90
  -1  -2   5  323.77   14.70
  -1  -2   5  366.16   13.70
   1  -2  -5  348.57   14.10
  -1  -2   5  334.57   13.10
  -1   2   5  341.77   13.80
  -1   2   5  335.67   14.80
  -1   2   5  338.57   14.80
  -1   2   5  341.97   15.80
   1   2  -5  360.36   14.40
   1   2  -5  332.57   14.00
   1   2  -5  327.47   13.80
   1   2  -5  333.27   13.40
  -1   2   5  346.57   14.10
   1   2  -5  347.47   12.80
   1   2  -5  327.37   13.50
  -1   2   5  366.36   14.30
   1   2  -5  318.37   14.10
  -1   2   5  358.66   13.70
   0  -2   5 2394.26   75.49
   0  -2   5 2112.59   75.79
   0  -2  -5 2351.26   74.99
   0  -2  -5 2346.17   75.39
   0  -2   5 2346.97   74.89
   0  -2  -5 2190.08   74.89
   0  -2  -5 2308.07   74.79
   0  -2  -5 2170.28   75.49
   0  -2   5 2166.98   74.49
   0  -2   5 2180.68   75.99
   0  -2  -5 2184.98   76.49
   0  -2   5 2136.49   75.29
   0   2   5 2146.89   74.59
   0   2   5 2223.28   75.19
   0   2  -5 2229.78   75.29
   0   2  -5 2238.58   74.19
   0   2  -5 2294.07   75.19
   0   2   5 2373.26   76.09
   0   2   5 2308.77   75.29
   0   2   5 2241.28   74.89
   0   2  -5 2136.19   75.29
   0   2  -5 2219.18   74.79
   0   2  -5 2207.18   75.49
   0   2   5 2168.98   76.89
   1  -2   5  549.65   20.30
   1  -2   5  522.45   20.60
  -1  -2  -5  545.45   20.10
  -1  -2  -5  541.85   20.30
   1  -2   5  526.65   21.50
  -1  -2  -5  530.05   20.80
  -1  -2  -5  539.85   20.50
   1  -2   5  517.55   20.80
  -1  -2  -5  527.55   20.00
   1  -2   5  591.94   21.00
   1  -2   5  517.35   21.60
  -1   2  -5  560.34   21.10
  -1   2  -5  540.15   21.00
   1   2   5  533.45   20.50
  -1   2  -5  550.24   20.60
  -1   2  -5  538.05   19.20
   1   2   5  572.14   21.40
   1   2   5  536.75   20.60
  -1   2  -5  515.65   20.60
   1   2   5  516.95   20.10
   1   2   5  512.65   22.10
  -1   2  -5  551.74   20.30
   1   2   5  494.65   19.90
   2  -2   5  888.71   33.70
  -2  -2  -5  913.41   32.80
   2  -2   5  887.61   32.90
   2  -2   5  954.10   32.50
   2  -2   5  976.90   33.20
   2  -2   5  861.31   33.10
  -2  -2  -5  873.31   31.90
  -2  -2  -5  926.11   32.10
   2  -2   5  872.41   33.80
  -2  -2  -5  914.91   32.10
   2   2   5  887.61   32.00
   2   2   5  876.11   32.50
  -2   2  -5  949.40   32.40
   2   2   5  890.21   32.40
  -2   2  -5  861.61   33.10
  -2   2  -5  930.41   30.80
  -2   2  -5  872.11   32.70
   2   2   5  953.10   33.50
   2   2   5  884.11   32.10
  -2   2  -5  919.91   32.50
   3  -2   5  160.18    9.30
   3  -2   5  163.38    8.40
  -3  -2  -5  160.88    8.70
   3  -2   5  166.18   10.10
   3  -2   5  159.08    8.90
   3  -2   5  149.29    9.60
   3  -2   5  154.98    9.80
  -3  -2  -5  158.98    7.90
   3   2   5  148.09    7.90
  -3   2  -5  162.38    6.50
   3   2   5  149.88    8.50
   3   2   5  181.28    9.40
   3   2   5  159.38    8.30
   3   2   5  174.88    8.60
  -3   2  -5  154.88    8.50
  -3   2  -5  161.48    9.30
  -3   2  -5  165.98    8.30
   4  -2   5  252.47   13.80
  -4  -2  -5  271.57   11.40
  -4  -2  -5  288.67   12.20
   4  -2   5  285.47   12.80
   4  -2   5  248.68   13.60
   4  -2   5  260.17   12.80
   4  -2   5  239.58   13.10
  -4  -2  -5  249.08   11.20
   4  -2   5  255.07   11.80
  -4   2  -5  239.58   12.00
   4   2   5  283.47   12.80
   4   2   5  249.18   11.30
  -4   2  -5  263.97    9.20
  -4   2  -5  246.58   11.60
  -4   2  -5  251.27   12.90
   4   2   5  264.67   12.20
   4   2   5  253.27   11.80
   4   2   5  249.97   11.50
   5  -2   5   39.70    5.10
   5  -2   5   35.80    5.10
  -5  -2  -5   34.80    4.40
  -5  -2  -5   34.10    3.70
   5  -2   5   37.30    4.40
   5  -2   5   33.20    5.50
   5  -2   5   45.90    6.90
   5  -2   5   36.40    6.30
  -5   2  -5   41.40    4.80
   5   2   5   41.50    4.20
   5   2   5   43.00    4.80
   5   2   5   43.10    4.70
   5   2   5   34.10    4.50
  -5   2  -5   32.40    5.10
   5   2   5   40.40    5.10
   6  -2   5   58.49    8.00
   6  -2   5   55.49    7.30
   6  -2   5   60.29    8.50
   6  -2   5   80.09    6.80
   6  -2   5   68.79    5.90
   6  -2   5   68.69    7.10
  -6  -2  -5   67.79    5.70
   6   2   5   74.69    5.40
   6   2   5   70.89    6.20
  -6   2  -5   73.89    6.10
   6   2   5   73.59    5.90
   6   2   5   66.79    6.40
  -6   2  -5   74.59    7.20
   6   2   5   75.69    6.10
   7  -2   5  333.97   16.40
   7  -2   5  316.87   18.80
   7  -2   5  356.16   17.40
   7   2   5  356.96   15.70
  -7   2  -5  339.27   15.60
   7   2   5  358.36   15.20
   7   2   5  347.47   14.60
   8  -2   5   73.79   10.60
   8  -2   5   75.99    8.60
   8  -2   5   70.59    7.80
   8   2   5   67.69    6.30
   8   2   5   66.99    6.80
   8   2   5   74.29    5.80
   9  -2   5   94.69    9.90
   9  -2   5   92.69    9.10
   9  -2   5  116.29   12.50
   9   2   5  115.89    8.20
   9   2   5  118.09    8.40
  10  -2   5    4.40    6.20
  10  -2   5    9.60    4.60
  10  -2   5    7.40    4.70
  10   2   5   10.80    3.70
  10   2   5   16.80    4.20
  11  -3  -5   15.70    6.90
  11  -3  -5   19.80    4.60
  11  -3  -5   23.00    5.00
  11   3  -5   22.00    2.90
  11   3  -5   12.00    5.00
  10  -3  -5  107.59   12.40
  10  -3  -5  113.79    9.20
  10  -3  -5  111.49    8.50
  10   3  -5  108.79    6.10
  10   3  -5  107.19    8.90
  10   3  -5   94.09    5.60
  10   3  -5   97.99    8.90
   9  -3  -5   70.09    6.90
   9  -3  -5   54.79    7.10
   9  -3  -5   70.89   10.10
   9   3  -5   62.89    4.80
   9   3  -5   71.49    7.00
   9   3  -5   53.29    4.60
  -9   3   5   43.20    6.90
   9   3  -5   49.90    5.50
   8  -3  -5   87.29    8.30
   8  -3  -5  113.09    8.00
   8  -3  -5  104.79    9.80
   8  -3  -5  107.39   11.20
   8   3  -5   93.49    6.10
   8   3  -5   77.09    6.80
  -8   3   5   91.59    8.60
   8   3  -5   93.09    7.70
   8   3  -5   87.69    5.80
  -8   3   5   94.09    8.50
   7  -3  -5  115.79    8.30
   7  -3  -5  125.99    7.90
   7  -3  -5  108.09    7.80
   7  -3  -5  118.59   11.30
   7  -3  -5  121.49   10.10
   7  -3  -5  124.69    9.30
   7   3  -5  111.39    7.40
   7   3  -5  108.39    8.20
   7   3  -5  113.69    6.70
   7   3  -5  107.89    6.90
   7   3  -5  125.79    8.30
  -7   3   5  117.79    9.30
  -7   3   5  113.29    7.50
   6  -3  -5  162.28   10.80
   6  -3  -5  174.48    9.80
   6  -3  -5  180.68   12.80
   6  -3  -5  175.58   11.40
  -6  -3   5  169.28    9.10
   6  -3  -5  166.48    9.90
   6  -3  -5  175.28    9.20
  -6  -3   5  153.18    7.70
   6   3  -5  172.88    9.20
   6   3  -5  158.38    8.40
   6   3  -5  174.88    8.90
  -6   3   5  176.28    9.40
   6   3  -5  163.88    9.30
   6   3  -5  156.28    9.60
   6   3  -5  166.28    9.30
  -6   3   5  172.48   11.10
  -6   3   5  166.38    8.60
   5  -3  -5   88.89    7.90
   5  -3  -5   98.09    7.10
  -5  -3   5  100.09    6.20
   5  -3  -5   94.79    9.40
   5  -3  -5  105.89    8.60
  -5  -3   5   92.39    7.10
   5  -3  -5  108.69    6.90
   5  -3  -5  105.09    7.60
   5   3  -5  113.59    7.50
  -5   3   5  107.59    8.70
   5   3  -5  103.69    6.40
   5   3  -5  102.89    6.80
  -5   3   5  105.99    7.20
   5   3  -5  107.29    7.10
   5   3  -5  105.49    7.50
   5   3  -5  107.59    7.00
  -4  -3   5  122.39    7.40
   4  -3  -5  122.09    9.00
   4  -3  -5  143.39    7.90
  -4  -3   5  129.69    8.50
   4  -3  -5  129.69    8.40
   4  -3  -5  129.39    9.20
   4  -3  -5  122.79   10.00
   4   3  -5  128.49    7.60
   4   3  -5  132.89    9.20
   4   3  -5  138.69    7.50
  -4   3   5  134.79    8.10
   4   3  -5  149.39    8.60
  -4   3   5  135.39    7.50
   4   3  -5  127.99    8.00
  -4   3   5  131.99    9.50
   4   3  -5  125.29    7.90
   4   3  -5  125.69    7.60
  -3  -3   5  122.29    7.50
  -3  -3   5  127.49    8.60
   3  -3  -5  114.09    7.90
   3  -3  -5  110.09    9.60
   3  -3  -5  112.89    8.70
  -3  -3   5  111.09    8.30
   3  -3  -5  130.29    7.40
   3   3  -5  122.69    7.10
   3   3  -5  117.59    8.60
   3   3  -5  124.69    7.70
   3   3  -5  111.79    8.00
   3   3  -5  124.79    7.40
  -3   3   5  128.69    7.30
   3   3  -5  125.39    7.20
  -3   3   5  118.89    9.20
  -3   3   5  114.49    7.20
   3   3  -5  119.89    7.50
  -3   3   5  130.69    7.90
   2  -3  -5  228.88   11.80
  -2  -3   5  233.58   11.80
   2  -3  -5  223.78   13.40
   2  -3  -5  260.17   11.50
   2  -3  -5  244.48   12.80
  -2  -3   5  235.08   11.20
  -2  -3   5  253.17   12.80
  -2   3   5  246.98   11.30
   2   3  -5  231.78   11.70
   2   3  -5  242.88   12.70
  -2   3   5  254.97   11.90
   2   3  -5  241.98   11.70
  -2   3   5  238.48   12.20
  -2   3   5  227.68   13.20
   2   3  -5  250.97   11.10
  -2   3   5  244.08   11.40
   2   3  -5  254.47   12.40
   2   3  -5  257.67   11.40
   2   3  -5  241.88   11.30
   1  -3  -5  297.67   14.10
   1  -3  -5  303.97   16.00
  -1  -3   5  306.17   15.40
  -1  -3   5  328.57   14.30
  -1  -3   5  316.77   14.70
   1  -3  -5  359.36   14.20
   1  -3  -5  336.67   15.50
   1   3  -5  318.57   15.30
  -1   3   5  305.87   15.80
  -1   3   5  333.77   13.90
   1   3  -5  323.27   13.90
   1   3  -5  334.57   13.80
   1   3  -5  329.37   14.60
   1   3  -5  317.57   14.90
  -1   3   5  337.37   14.90
  -1   3   5  318.87   14.20
   1   3  -5  309.67   14.30
  -1   3   5  317.47   14.40
   1   3  -5  321.67   13.70
   0  -3  -5   34.80    4.50
   0  -3   5   30.20    5.30
   0  -3   5   24.30    3.40
   0  -3  -5   29.90    4.80
   0  -3   5   36.40    4.90
   0  -3   5   35.10    3.80
   0  -3  -5   35.50    5.90
   0  -3  -5   26.70    3.60
   0  -3   5   30.20    5.30
   0  -3   5   28.90    4.80
   0   3   5   35.70    4.50
   0   3  -5   39.60    5.50
   0   3   5   25.70    4.20
   0   3   5   34.40    4.70
   0   3  -5   34.40    4.50
   0   3  -5   27.30    3.90
   0   3  -5   24.40    3.40
   0   3   5   25.40    4.10
   0   3  -5   22.90    4.00
   0   3  -5   28.90    4.50
  -1  -3  -5  852.71   31.30
   1  -3   5  874.01   31.30
  -1  -3  -5  847.22   32.20
   1  -3   5  822.42   32.00
   1  -3   5  840.92   32.30
   1  -3   5  870.31   30.40
   1  -3   5  808.32   33.30
   1  -3   5  874.21   33.30
  -1   3  -5  831.92   32.70
  -1   3  -5  863.61   30.40
   1   3   5  848.12   31.70
  -1   3  -5  849.72   31.40
   1   3   5  847.92   31.80
   1   3   5  834.82   31.30
  -1   3  -5  839.02   31.70
  -1   3  -5  879.91   31.40
   1   3   5  860.51   31.10
  -1   3  -5  872.01   32.00
   2  -3   5   52.29    6.70
   2  -3   5   57.39    7.30
  -2  -3  -5   65.49    5.60
   2  -3   5   58.39    4.40
  -2  -3  -5   58.89    6.30
   2  -3   5   62.79    7.10
   2  -3   5   69.89    7.50
   2  -3   5   57.39    5.30
  -2   3  -5   53.29    5.80
   2   3   5   47.40    5.10
   2   3   5   57.69    5.70
   2   3   5   54.19    5.70
  -2   3  -5   54.09    6.30
  -2   3  -5   53.29    4.20
  -2   3  -5   60.09    5.40
   2   3   5   64.79    6.20
  -2   3  -5   60.59    6.20
   3  -3   5  186.58   10.00
   3  -3   5  188.48   11.50
   3  -3   5  193.18    8.50
   3  -3   5  192.78   12.80
  -3  -3  -5  197.68    9.80
   3  -3   5  195.98   12.20
  -3  -3  -5  198.28   10.80
   3  -3   5  187.68   11.90
  -3   3  -5  184.58   10.60
   3   3   5  188.28    9.90
  -3   3  -5  194.98   10.10
   3   3   5  194.78   10.30
  -3   3  -5  179.68    8.40
  -3   3  -5  197.58   11.60
   3   3   5  204.78   10.80
   3   3   5  177.28   10.30
   4  -3   5  228.08   13.90
  -4  -3  -5  219.08   11.90
  -4  -3  -5  222.58   10.90
   4  -3   5  225.48   12.80
   4  -3   5  230.48   11.70
   4  -3   5  219.98   14.20
   4  -3   5  199.08   13.20
  -4   3  -5  220.68   12.10
  -4   3  -5  242.18    9.50
   4   3   5  236.08   11.60
   4   3   5  241.98   13.00
  -4   3  -5  247.38   13.40
   4   3   5  235.48   12.00
   4   3   5  217.28   11.20
   4   3   5  217.48   11.80
  -4   3  -5  240.88   11.50
  -5  -3  -5   47.50    5.70
   5  -3   5   34.70    7.00
   5  -3   5   40.90    6.20
   5  -3   5   48.90    7.20
  -5   3  -5   29.80    5.60
   5   3   5   33.20    4.60
   5   3   5   39.10    5.40
   5   3   5   38.10    5.20
   5   3   5   42.40    6.20
  -5   3  -5   45.90    3.10
  -5   3  -5   41.40    5.70
   6  -3   5   53.99    9.00
   6  -3   5   48.20    7.20
  -6  -3  -5   47.70    7.30
   6  -3   5   46.50    6.60
  -6   3  -5   56.99    6.50
   6   3   5   53.69    6.00
   6   3   5   50.09    5.70
   6   3   5   42.40    5.60
   7  -3   5    4.10    5.40
   7  -3   5   20.20    5.50
   7  -3   5   21.70    5.20
   7   3   5   15.60    4.20
   7   3   5   19.90    4.30
  -7   3  -5   18.20    4.20
   7   3   5   13.70    3.50
   8  -3   5   15.50    5.10
   8  -3   5   13.50    7.00
   8  -3   5   18.90    6.10
   8   3   5   14.30    3.70
   8   3   5   11.20    4.00
   8   3   5   12.70    3.80
   9  -3   5   44.60    7.90
   9  -3   5   32.50    6.60
   9  -3   5   48.30   10.20
   9   3   5   47.60    9.40
   9   3   5   51.89    6.50
   9   3   5   45.60    6.20
  10  -4  -5   13.70    5.20
  10  -4  -5   25.10    8.80
  10  -4  -5   33.10    6.30
  10   4  -5   21.40    4.60
  10   4  -5   25.10    5.90
  10   4  -5   27.50    4.10
   9  -4  -5   65.09   10.90
   9  -4  -5   56.59    8.60
   9  -4  -5   53.69    7.50
   9   4  -5   69.59    6.30
   9   4  -5   64.69    6.00
   9   4  -5   76.99    8.20
   8  -4  -5   95.79   10.10
   8  -4  -5   82.79    8.70
   8  -4  -5   98.09   12.00
   8   4  -5  110.29    9.60
   8   4  -5  115.19    7.80
   8   4  -5   91.49    7.00
   7  -4  -5  142.49   11.30
   7  -4  -5  118.49   12.70
   7  -4  -5  151.68   10.50
   7   4  -5  135.19    8.80
   7   4  -5  126.89    8.40
  -7   4   5  134.59    9.20
   7   4  -5  133.99   10.20
   6  -4  -5    8.40    5.60
   6  -4  -5    6.30    3.80
   6  -4  -5   12.00    4.80
   6   4  -5    3.70    3.10
   6   4  -5   10.20    4.00
   6   4  -5    7.10    3.00
  -6   4   5    4.90    3.10
   6   4  -5   11.50    5.00
  -6   4   5    5.40    4.50
  -5  -4   5   78.59    7.90
   5  -4  -5   89.19    9.20
   5  -4  -5   92.99    8.60
   5  -4  -5  102.29   11.10
  -5   4   5   96.69    7.80
   5   4  -5  101.89    7.80
   5   4  -5   89.89    7.10
   5   4  -5  101.39    9.70
   5   4  -5   81.89    7.50
  -5   4   5   85.69    9.50
   4  -4  -5  224.58   12.60
  -4  -4   5  197.88   12.40
   4  -4  -5  191.08   14.20
   4  -4  -5  218.68   13.30
   4   4  -5  201.58   11.80
   4   4  -5  199.98   11.80
  -4   4   5  229.78   12.20
  -4   4   5  212.58   13.60
   4   4  -5  217.48   11.80
   4   4  -5  221.88   11.40
   4   4  -5  216.18   13.70
  -4   4   5  208.58   13.90
   4   4  -5  210.68   14.70
  -3  -4   5   21.00    5.20
   3  -4  -5   14.00    5.90
   3  -4  -5   18.60    3.80
   3  -4  -5   15.50    4.30
   3  -4  -5   16.20    4.60
   3   4  -5   14.40    3.60
  -3   4   5    8.30    5.10
   3   4  -5   20.80    6.00
  -3   4   5    9.60    3.50
   3   4  -5   14.40    3.80
  -3   4   5   15.30    3.50
   3   4  -5   15.90    4.10
  -3   4   5   12.90    3.80
   3   4  -5   15.10    4.20
   2  -4  -5  142.19   11.00
   2  -4  -5  156.28   12.70
   2  -4  -5  154.78    9.50
   2  -4  -5  146.89   10.00
  -2  -4   5  159.48   11.60
  -2  -4   5  128.49    9.80
  -2  -4   5  143.39    9.70
  -2   4   5  161.58    9.40
   2   4  -5  147.29    9.60
  -2   4   5  173.58   12.70
   2   4  -5  164.98    9.60
  -2   4   5  163.08    9.60
   2   4  -5  159.68   10.20
  -2   4   5  140.59    9.80
   2   4  -5  169.78   12.00
   2   4  -5  164.58   10.20
   2   4  -5  166.58    9.50
  -1  -4   5  484.35   21.20
   1  -4  -5  457.15   23.20
  -1  -4   5  499.05   22.70
  -1  -4   5  489.25   21.50
   1  -4  -5  494.55   22.20
   1  -4  -5  515.35   21.10
  -1   4   5  460.65   23.40
   1   4  -5  484.35   20.40
   1   4  -5  488.85   21.20
   1   4  -5  512.15   22.10
  -1   4   5  473.15   20.50
  -1   4   5  462.05   27.30
  -1   4   5  493.15   20.30
   1   4  -5  473.05   22.50
   1   4  -5  477.35   20.10
   1   4  -5  502.95   21.20
  -1   4   5  494.75   21.10
   0  -4   5  182.58   12.70
   0  -4  -5  156.88   12.60
   0  -4   5  182.28   12.70
   0  -4   5  187.98   12.50
   0  -4  -5  179.28   12.00
   0  -4   5  172.68   11.20
   0  -4   5  180.28   11.40
   0  -4  -5  168.58   10.60
   0   4   5  201.98   10.60
   0   4   5  176.18   10.40
   0   4   5  175.18   13.40
   0   4  -5  178.48    9.80
   0   4  -5  175.48   12.00
   0   4   5  194.48   11.30
   0   4  -5  179.68   11.10
   0   4  -5  186.38   11.10
   0   4   5  217.38   12.20
   0   4  -5  197.18   10.70
   1  -4   5  117.79   10.80
  -1  -4  -5   94.89    7.90
   1  -4   5  110.49   10.10
   1  -4   5  120.99    9.60
  -1  -4  -5  102.89    9.30
   1  -4   5  108.29   10.50
   1  -4   5  111.19   10.20
  -1   4  -5  111.49    8.00
  -1   4  -5  108.69    7.20
  -1   4  -5  125.59   10.00
   1   4   5  114.19    9.10
   1   4   5   99.29    8.30
   1   4   5  120.09    8.20
  -1   4  -5  111.49    9.60
  -1   4  -5   97.99    8.40
   1   4   5  118.49   10.80
   1   4   5  121.39    8.90
   2  -4   5   33.10    6.00
  -2  -4  -5   31.00    5.70
   2  -4   5   31.00    6.50
   2  -4   5   34.10    6.70
   2  -4   5   40.00    9.80
  -2   4  -5   29.60    4.10
   2   4   5   33.10    5.60
  -2   4  -5   35.80    5.60
   2   4   5   36.10    5.80
   2   4   5   33.70    5.00
  -2   4  -5   34.50    6.40
  -2   4  -5   48.30    5.90
   3  -4   5  444.86   22.20
   3  -4   5  472.95   21.50
  -3  -4  -5  443.96   20.30
   3  -4   5  418.36   21.60
  -3   4  -5  456.65   17.90
   3   4   5  456.25   19.30
   3   4   5  431.16   19.60
  -3   4  -5  438.86   19.30
  -3   4  -5  441.26   21.80
   3   4   5  426.56   19.70
  -3   4  -5  431.16   20.10
   4  -4   5    9.50    4.80
  -4  -4  -5   18.30    4.40
   4  -4   5    9.90    5.40
   4  -4   5   26.20    6.40
   4   4   5   12.10    4.50
  -4   4  -5   12.30    2.80
  -4   4  -5   19.60    4.60
   4   4   5   24.90    5.10
   4   4   5   13.70    4.00
   5  -4   5   20.60    5.70
   5  -4   5   30.00    7.60
   5  -4   5   30.20    7.20
   5   4   5   24.80    5.30
  -5   4  -5   16.90    4.50
   5   4   5   16.70    4.40
   5   4   5   22.20    4.40
   6  -4   5   28.90    7.60
   6  -4   5   26.50    6.60
   6  -4   5   36.70    7.70
   6   4   5   25.40    4.90
   6   4   5   22.60    5.10
  -6   4  -5   35.50    6.10
   6   4   5   28.10    5.60
   7  -4   5   65.09    9.30
   7  -4   5   66.49    9.70
   7  -4   5   43.20    9.50
   7   4   5   63.99    7.80
   7   4   5   44.90    6.30
   7   4   5   62.89    7.30
   8  -4   5   31.20    7.30
   8  -4   5   43.70   10.20
   8   4   5   44.40    6.50
   8   4   5   35.70    6.30
   8   4   5   29.00    6.00
   7  -5  -5   12.30    7.50
   7  -5  -5    7.70    4.90
   7  -5  -5   11.50    5.90
   7   5  -5    6.70    4.80
   7   5  -5    8.30    3.70
   7   5  -5    8.60    3.90
   6  -5  -5   65.59   11.40
   6  -5  -5   86.89    9.60
   6  -5  -5   85.09   10.40
   6   5  -5   96.59    8.20
  -6   5   5   95.19    9.00
   6   5  -5   66.09    8.10
   6   5  -5   70.49    8.10
   5  -5  -5    9.50    6.70
   5  -5  -5   15.00    5.20
   5  -5  -5   17.40    6.00
   5   5  -5   12.60    4.70
   5   5  -5   14.30    4.60
  -5   5   5   13.40    4.50
   5   5  -5   21.60    4.70
   4  -5  -5   42.50    7.40
   4  -5  -5   45.40    7.10
   4  -5  -5   28.10    7.70
  -4   5   5   44.00    6.80
  -4   5   5   38.50    6.10
   4   5  -5   42.20    6.10
   4   5  -5   41.00    6.40
   4   5  -5   39.10    6.70
   3  -5  -5  212.78   16.40
   3  -5  -5  227.48   14.00
   3  -5  -5  245.58   15.70
  -3  -5   5  239.58   15.20
   3   5  -5  228.08   13.30
  -3   5   5  230.58   13.80
   3   5  -5  218.58   13.50
  -3   5   5  219.08   12.80
   3   5  -5  233.48   13.10
   2  -5  -5   35.80    8.30
   2  -5  -5   39.80    7.50
   2  -5  -5   29.10    6.60
  -2  -5   5   30.80    7.20
  -2   5   5   39.10    6.40
   2   5  -5   34.70    6.00
   2   5  -5   36.70    5.80
  -2   5   5   35.90    6.50
   2   5  -5   35.30    5.70
   1  -5  -5   79.09    9.90
   1  -5  -5   53.69    9.20
  -1  -5   5   70.79    9.60
  -1  -5   5   59.59    8.30
   1   5  -5   60.19    8.10
   1   5  -5   76.29    7.40
   1   5  -5   61.79    7.40
  -1   5   5   67.89    7.30
  -1   5   5   81.19    8.40
  -1   5   5   58.99    7.00
   0  -5   5   52.19    8.70
   0  -5  -5   45.90    7.80
   0  -5  -5   29.70    7.50
   0  -5   5   47.30    8.00
   0   5  -5   52.19    6.90
   0   5  -5   56.59    7.70
   0   5   5   30.80    6.00
   0   5   5   35.40    6.10
   0   5   5   58.29    6.90
   0   5  -5   37.40    5.80
   1  -5   5   92.39   11.40
   1  -5   5   79.19   10.80
  -1  -5  -5  102.99   10.50
   1   5   5   96.59    8.50
  -1   5  -5   90.19    9.20
  -1   5  -5   92.59    8.40
   1   5   5   92.19    9.30
  -1   5  -5   94.89    7.70
   1   5   5   93.19    8.80
  -2  -5  -5  235.28   14.90
   2  -5   5  206.68   15.90
   2  -5   5  231.88   16.90
   2   5   5  237.68   13.40
   2   5   5  221.98   13.70
  -2   5  -5  294.17   15.50
   2   5   5  226.38   14.20
  -2   5  -5  238.08   12.60
   3  -5   5  185.68   15.70
  -3  -5  -5  182.68   12.90
   3  -5   5  178.28   15.20
   3   5   5  183.08   11.80
  -3   5  -5  166.58   12.40
   3   5   5  187.48   12.50
   3   5   5  183.28   12.10
  -3   5  -5  179.48   10.40
   4  -5   5   94.09   12.60
   4  -5   5  119.19   13.00
  -4   5  -5  110.19   10.20
   4   5   5  107.89    9.40
   4   5   5  112.19   10.20
   4   5   5  107.79   10.00
   5  -5   5   56.09   10.00
   5  -5   5   54.19   10.50
   5   5   5   48.90    7.80
  -5   5  -5   41.50    7.20
   5   5   5   38.90    6.50
   5   5   5   47.80    6.80
   1  -6  -5   30.60    7.90
  -1  -6   5   29.90    8.10
  -1   6   5   33.70    7.40
   1   6  -5   27.80    5.80
  13   0  -6  164.68   13.70
  13   0  -6  137.49    9.60
  12   0  -6   10.50    5.30
  11   0  -6   83.69    9.10
  11   0  -6   93.19    8.00
  10   0  -6  148.69    9.70
  10   0  -6  159.98   11.30
   9   0  -6   21.70    4.10
   9   0  -6   23.50    5.00
   8   0  -6  434.76   15.60
   8   0  -6  471.45   19.80
   8   0  -6  451.65   15.70
   8   0  -6  446.06   18.20
   7   0  -6  313.57   11.70
   7   0  -6  323.77   13.40
   7   0  -6  326.37   14.70
   7   0  -6  325.87   11.90
   7   0  -6  320.97   11.80
   7   0  -6  316.57   11.70
   6   0  -6  450.25   17.10
   6   0  -6  449.66   16.20
  -6   0   6  453.85   16.10
  -6   0   6  463.55   15.90
   6   0  -6  465.15   16.40
   6   0  -6  434.16   16.20
   6   0  -6  449.95   16.10
   6   0  -6  479.15   18.50
   5   0  -6  272.47   10.50
  -5   0   6  261.67   10.10
   5   0  -6  279.67   10.60
   5   0  -6  268.87   10.70
  -5   0   6  262.77   10.60
  -5   0   6  262.17   10.50
   5   0  -6  271.67   10.60
  -5   0   6  293.37   10.10
   5   0  -6  294.87   10.70
   5   0  -6  287.67   11.90
  -4   0   6  268.87    9.80
   4   0  -6  236.78    9.20
  -4   0   6  272.07   10.60
   4   0  -6  270.87   10.20
   4   0  -6  247.68   10.20
   4   0  -6  255.37   10.50
  -4   0   6  251.47   10.10
  -4   0   6  258.27   10.30
   4   0  -6  243.48    9.90
   4   0  -6  232.78    9.90
  -4   0   6  263.27    9.80
   3   0  -6  113.59    5.70
   3   0  -6  115.09    5.70
   3   0  -6  116.59    6.10
  -3   0   6  125.79    6.10
  -3   0   6  117.49    5.70
  -3   0   6  117.09    6.10
   3   0  -6  109.79    5.80
  -3   0   6  108.69    5.60
   3   0  -6  121.49    5.70
  -3   0   6  108.29    5.90
   2   0  -6    2.10    1.70
  -2   0   6    2.10    1.70
   2   0  -6    1.70    1.60
  -2   0   6    1.00    1.70
  -2   0   6    0.20    1.40
  -2   0   6   -1.80    1.00
  -2   0   6   -2.30    1.90
   2   0  -6   -2.00    1.30
   2   0  -6    1.80    1.40
  -1   0   6  442.86   16.10
  -1   0   6  395.26   14.30
   1   0  -6  399.76   15.70
  -1   0   6  427.26   15.60
  -1   0   6  414.96   15.50
   1   0  -6  424.06   15.60
  -1   0   6  398.36   15.80
   1   0  -6  414.86   16.00
  -1   0   6  419.26   15.60
   1   0  -6  398.26   15.40
   0   0   6  165.38    7.90
   0   0   6  151.78    7.90
   0   0   6  148.39    7.60
   0   0   6  163.38    7.50
   0   0  -6  142.99    7.20
   0   0   6  157.28    6.90
   0   0  -6  154.78    7.40
   0   0  -6  153.48    7.80
   0   0  -6  164.98    7.80
   1   0   6  214.08    9.40
   1   0   6  205.58    9.60
   1   0   6  219.78    9.50
  -1   0  -6  206.68    9.30
   1   0   6  234.38   10.10
  -1   0  -6  202.98    9.20
  -1   0  -6  207.38    9.70
  -1   0  -6  223.58    9.80
   1   0   6  204.98    9.80
   2   0   6   75.99    5.40
   2   0   6   66.39    5.50
  -2   0  -6   73.39    5.20
   2   0   6   71.59    5.00
  -2   0  -6   64.49    5.10
  -2   0  -6   82.69    4.90
   2   0   6   79.59    5.50
   2   0   6   68.59    5.30
  -2   0  -6   85.19    5.20
  -2   0  -6   73.69    3.70
  -3   0  -6 2883.41   92.89
  -3   0  -6 2871.41   92.79
  -3   0  -6 2764.32   91.09
  -3   0  -6 2754.42   93.29
   3   0   6 2721.93   93.39
   3   0   6 2751.92   92.99
   3   0   6 2852.11   93.59
   3   0   6 2801.42   93.89
   3   0   6 2761.52   92.99
   4   0   6  122.79    7.70
  -4   0  -6  124.49    7.30
  -4   0  -6  132.89    5.10
   4   0   6  126.99    7.50
   4   0   6  136.59    8.60
   4   0   6  138.59    7.80
   4   0   6  131.09    7.30
   5   0   6   52.39    5.30
   5   0   6   57.59    5.30
   5   0   6   54.49    4.90
  -5   0  -6   57.29    5.00
   5   0   6   56.79    6.20
   5   0   6   51.09    5.50
  -5   0  -6   62.39    4.50
   6   0   6   83.79    6.60
  -6   0  -6   80.89    5.30
   6   0   6   76.59    6.70
   6   0   6   66.69    7.40
   6   0   6   76.79    6.30
   6   0   6   78.09    5.90
  -6   0  -6   77.69    5.80
  -7   0  -6   21.50    3.60
   7   0   6   18.20    4.10
   7   0   6   16.20    4.00
   7   0   6   23.10    4.20
   8   0   6   54.89    6.40
   8   0   6   64.29    7.00
   9   0   6  113.79    8.90
   9   0   6  113.59    8.70
  10   0   6   17.90    4.50
  10   0   6   16.90    4.80
  13  -1  -6   29.90    7.70
  13   1  -6   27.80    5.30
  13   1  -6   17.50    6.30
  12  -1  -6   63.79   10.00
  12   1  -6   60.39    6.70
  12   1  -6   59.09    8.10
  11  -1  -6   69.69    9.40
  11  -1  -6   83.09    4.70
  11  -1  -6   77.99    4.50
  11  -1  -6   79.09    5.20
  11  -1  -6   81.19    8.20
  11   1  -6   88.39    7.70
  11   1  -6   82.69    8.50
  11   1  -6   74.49    7.00
  10  -1  -6   82.09    5.00
  10  -1  -6   99.29    8.00
  10  -1  -6   79.19    9.00
  10  -1  -6   84.99    5.40
  10  -1  -6   84.89    4.90
  10   1  -6   84.59    7.20
  10   1  -6   90.69    7.30
  10   1  -6   90.19    8.10
   9  -1  -6  154.18    9.70
   9  -1  -6  151.98    7.40
   9  -1  -6  136.39    6.80
   9  -1  -6  146.99    6.90
   9  -1  -6  158.98    7.40
   9  -1  -6  162.78   11.40
  -9   1   6  146.69    9.20
   9   1  -6  144.49    8.90
   9   1  -6  162.08    9.20
   9   1  -6  145.39    9.60
   8  -1  -6  453.75   18.00
   8  -1  -6  493.55   18.40
   8  -1  -6  468.65   17.90
   8  -1  -6  522.05   20.70
   8  -1  -6  504.55   22.10
   8  -1  -6  489.45   18.20
  -8   1   6  518.25   20.10
   8   1  -6  495.95   20.30
  -8   1   6  470.55   17.30
  -8   1   6  537.35   17.90
   8   1  -6  484.45   19.70
   7  -1  -6 1383.16   49.70
   7  -1  -6 1409.76   46.40
   7  -1  -6 1349.07   46.20
   7  -1  -6 1341.77   46.00
   7  -1  -6 1364.86   46.50
   7  -1  -6 1425.36   48.20
   7   1  -6 1325.67   45.30
   7   1  -6 1331.07   45.30
   7   1  -6 1319.07   45.30
   7   1  -6 1305.87   45.30
  -7   1   6 1449.26   46.40
  -7   1   6 1345.97   47.40
   7   1  -6 1384.86   47.60
   7   1  -6 1413.56   47.30
   6  -1  -6  147.09    7.20
   6  -1  -6  160.28    9.50
   6  -1  -6  155.18    7.20
  -6  -1   6  141.29    6.30
   6  -1  -6  167.38    8.20
   6  -1  -6  142.09    6.80
  -6  -1   6  146.79    6.10
   6  -1  -6  158.08    7.60
   6   1  -6  151.78    6.60
  -6   1   6  152.58    9.20
  -6   1   6  161.08    7.80
   6   1  -6  144.19    6.40
   6   1  -6  155.58    6.60
  -6   1   6  150.08    6.90
   6   1  -6  159.58    7.80
   6   1  -6  145.39    6.50
  -6   1   6  149.79    7.60
  -6   1   6  164.38    6.50
   6   1  -6  159.38    7.50
  -5  -1   6  641.64   22.70
  -5  -1   6  678.03   23.20
   5  -1  -6  716.53   24.40
   5  -1  -6  665.23   23.80
   5  -1  -6  645.44   23.50
  -5  -1   6  607.84   22.50
   5  -1  -6  672.83   25.80
   5  -1  -6  672.03   23.80
  -5  -1   6  660.53   23.40
   5  -1  -6  668.23   24.10
  -5   1   6  690.83   23.90
   5   1  -6  656.43   23.40
   5   1  -6  662.23   23.20
  -5   1   6  705.93   24.40
   5   1  -6  657.13   23.50
  -5   1   6  662.83   23.60
   5   1  -6  664.13   23.40
  -5   1   6  694.73   23.20
  -5   1   6  688.93   25.80
   5   1  -6  654.03   23.20
  -4  -1   6  294.07   11.10
   4  -1  -6  272.67   11.40
   4  -1  -6  280.07   11.80
   4  -1  -6  296.17   11.60
  -4  -1   6  288.27   11.20
   4  -1  -6  297.87   11.40
   4  -1  -6  292.87   11.30
  -4  -1   6  289.07   11.50
  -4  -1   6  282.17   10.70
   4  -1  -6  289.97   12.90
   4   1  -6  279.07   11.00
  -4   1   6  276.37   11.30
  -4   1   6  273.77   11.30
  -4   1   6  289.87   11.10
  -4   1   6  283.87   13.10
   4   1  -6  285.37   11.30
  -4   1   6  273.77   11.10
   4   1  -6  271.17   11.20
  -4   1   6  276.87   11.90
   4   1  -6  267.17   11.00
  -3  -1   6   74.99    5.20
   3  -1  -6   69.49    5.10
   3  -1  -6   76.99    4.90
  -3  -1   6   70.69    4.80
  -3  -1   6   66.09    4.60
  -3  -1   6   73.09    4.30
   3  -1  -6   76.99    4.90
   3  -1  -6   64.79    4.50
   3  -1  -6   72.59    5.70
   3   1  -6   76.19    4.80
  -3   1   6   86.49    5.00
  -3   1   6   77.39    5.00
  -3   1   6   78.09    5.40
   3   1  -6   72.09    4.40
   3   1  -6   76.79    4.70
  -3   1   6   76.69    5.00
   3   1  -6   81.69    4.80
  -3   1   6   92.39    7.00
   3   1  -6   74.99    4.10
   2  -1  -6  649.43   23.50
  -2  -1   6  675.83   23.20
   2  -1  -6  674.13   23.70
   2  -1  -6  599.54   23.70
   2  -1  -6  687.83   24.40
   2  -1  -6  609.34   23.30
   2  -1  -6  664.43   23.40
  -2  -1   6  671.63   23.60
  -2  -1   6  640.14   23.80
  -2   1   6  690.13   24.20
  -2   1   6  655.63   23.20
  -2   1   6  710.03   25.00
  -2   1   6  634.44   23.50
   2   1  -6  638.34   22.40
   2   1  -6  642.44   23.20
  -2   1   6  624.84   23.10
   2   1  -6  660.93   23.60
   2   1  -6  616.34   23.40
   2   1  -6  639.14   23.20
  -2   1   6  678.33   23.50
  -1  -1   6   42.10    3.90
   1  -1  -6   29.30    3.80
   1  -1  -6   34.50    3.20
  -1  -1   6   37.20    3.40
   1  -1  -6   35.90    3.60
  -1  -1   6   28.50    3.50
   1  -1  -6   34.80    4.30
   1  -1  -6   34.70    3.50
  -1  -1   6   36.30    4.00
   1  -1  -6   30.70    3.60
  -1  -1   6   32.20    3.90
   1   1  -6   36.90    3.70
  -1   1   6   36.90    5.10
  -1   1   6   29.30    3.70
   1   1  -6   33.20    3.70
  -1   1   6   25.70    3.30
  -1   1   6   26.40    3.60
  -1   1   6   29.00    3.30
   1   1  -6   29.90    2.80
   1   1  -6   34.50    3.70
   1   1  -6   28.70    3.30
   0  -1  -6  306.67   12.20
   0  -1   6  327.67   12.60
   0  -1   6  313.97   12.90
   0  -1   6  324.57   13.10
   0  -1  -6  298.87   12.50
   0  -1   6  302.57   12.50
   0  -1  -6  297.87   13.00
   0  -1   6  302.97   13.20
   0  -1  -6  333.47   12.60
   0  -1  -6  324.07   12.90
   0   1   6  301.37   12.60
   0   1   6  301.57   13.90
   0   1   6  292.37   12.40
   0   1  -6  318.17   12.70
   0   1  -6  289.67   12.00
   0   1   6  324.77   13.30
   0   1  -6  310.37   12.90
   0   1   6  292.47   12.80
   0   1  -6  311.87   12.90
   0   1  -6  308.87   12.50
   1  -1   6  129.19    7.70
   1  -1   6  130.39    6.90
   1  -1   6  146.09    7.50
  -1  -1  -6  124.69    7.20
  -1  -1  -6  129.09    6.80
  -1  -1  -6  135.39    6.80
   1  -1   6  120.59    7.30
   1  -1   6  127.89    7.20
  -1  -1  -6  136.49    7.20
  -1  -1  -6  127.39    6.20
  -1   1  -6  128.19    6.70
  -1   1  -6  124.09    6.70
  -1   1  -6  139.59    7.30
   1   1   6  141.59    8.30
   1   1   6  121.59    6.90
   1   1   6  136.49    7.60
  -1   1  -6  131.89    7.00
   1   1   6  116.49    7.00
   1   1   6  118.09    6.70
  -1   1  -6  127.29    7.20
   2  -1   6  343.77   14.10
   2  -1   6  369.36   14.70
  -2  -1  -6  325.87   14.30
  -2  -1  -6  340.57   13.20
  -2  -1  -6  321.07   13.70
   2  -1   6  326.97   14.60
  -2  -1  -6  338.77   14.20
  -2  -1  -6  364.36   13.90
   2  -1   6  321.57   14.30
   2  -1   6  328.57   14.80
   2   1   6  338.67   13.90
   2   1   6  362.36   14.50
  -2   1  -6  341.97   12.20
   2   1   6  353.46   14.20
  -2   1  -6  364.56   14.00
  -2   1  -6  344.97   14.40
   2   1   6  364.86   14.80
  -2   1  -6  367.56   14.20
  -2   1  -6  350.66   14.50
  -2   1  -6  332.37   14.30
   3  -1   6  273.77   13.00
  -3  -1  -6  258.27   12.00
   3  -1   6  267.47   12.30
   3  -1   6  259.77   12.50
  -3  -1  -6  272.47   10.70
   3  -1   6  294.87   12.50
  -3  -1  -6  272.37   11.40
   3  -1   6  264.27   11.70
  -3   1  -6  264.37    9.20
   3   1   6  264.07   10.70
   3   1   6  273.97   11.70
  -3   1  -6  249.58   11.90
   3   1   6  260.77   12.20
  -3   1  -6  256.87   12.20
  -3   1  -6  272.67   11.50
   3   1   6  252.47   11.90
   3   1   6  272.67   11.80
  -3   1  -6  273.47   11.80
   4  -1   6  173.28    8.80
  -4  -1  -6  170.08    7.50
  -4  -1  -6  173.58    9.00
   4  -1   6  170.78    9.30
   4  -1   6  160.48    9.60
   4  -1   6  180.88    9.50
  -4  -1  -6  167.58    8.20
   4  -1   6  171.98   10.30
   4   1   6  165.88    7.50
  -4   1  -6  161.68    9.60
   4   1   6  180.08    8.90
   4   1   6  166.58    8.70
   4   1   6  177.88    9.20
  -4   1  -6  184.28    8.70
   4   1   6  168.58    9.80
   4   1   6  182.48    9.40
  -4   1  -6  165.28    8.90
  -5  -1  -6  157.38    8.80
   5  -1   6  165.28    9.60
  -5  -1  -6  169.88    7.40
   5  -1   6  166.98   10.90
   5  -1   6  164.88    9.00
   5  -1   6  172.08   10.10
   5  -1   6  167.58    9.40
  -5  -1  -6  166.78    8.20
   5   1   6  189.48    9.30
  -5   1  -6  160.58   10.20
   5   1   6  173.98    9.50
   5   1   6  174.88   10.50
   5   1   6  169.58    7.60
  -5   1  -6  164.28    8.40
  -5   1  -6  157.98    8.90
   5   1   6  173.78    9.50
   5   1   6  186.98    9.20
   6  -1   6   36.10    6.50
   6  -1   6   29.80    4.20
  -6  -1  -6   30.90    2.90
   6  -1   6   37.20    5.10
  -6  -1  -6   30.60    4.10
  -6  -1  -6   29.00    3.50
   6  -1   6   37.90    5.00
   6  -1   6   22.10    4.60
   6   1   6   37.40    4.90
  -6   1  -6   31.00    5.40
   6   1   6   40.90    5.10
  -6   1  -6   35.10    4.00
   6   1   6   32.70    3.30
   6   1   6   35.60    4.50
   6   1   6   35.10    4.70
  -6   1  -6   37.30    4.50
   6   1   6   39.00    6.00
   7  -1   6  157.58   10.50
  -7  -1  -6  168.78    8.90
   7  -1   6  168.38   10.10
  -7   1  -6  146.29    8.80
   7   1   6  163.48    7.30
   7   1   6  148.99    9.10
   7   1   6  150.38    9.50
   8  -1   6  258.27   13.80
   8  -1   6  267.97   14.60
   8  -1   6  269.87   17.10
   8   1   6  280.67   13.60
   8   1   6  273.37   13.30
   9  -1   6    8.30    4.10
   9  -1   6    2.90    3.30
   9  -1   6    1.30    5.00
   9   1   6    7.90    3.30
   9   1   6    7.10    3.30
  10  -1   6  122.39    9.80
  10  -1   6  124.59   10.40
  10  -1   6  105.09   12.60
  10   1   6  109.59    9.00
  10   1   6  124.49    9.00
  12  -2  -6   36.40    8.60
  12  -2  -6   35.90    4.80
  12  -2  -6   32.50    4.60
  12   2  -6   27.00    5.50
  12   2  -6   32.40    6.50
  11  -2  -6   35.80    4.80
  11  -2  -6   49.00    9.30
  11  -2  -6   37.10    5.00
  11   2  -6   51.79    7.10
  11   2  -6   39.70    5.90
  10  -2  -6   23.10    4.10
  10  -2  -6   16.60    5.10
  10  -2  -6   17.30    3.60
  10  -2  -6   27.10    7.10
  10   2  -6   21.90    4.70
  10   2  -6   24.20    4.70
 -10   2   6   24.00    4.90
   9  -2  -6  156.08    8.90
   9  -2  -6  164.28   11.10
   9  -2  -6  163.38    8.30
   9  -2  -6  163.98   12.80
   9  -2  -6  151.88    9.30
   9   2  -6  142.79    9.50
   9   2  -6  170.88    6.70
  -9   2   6  152.28   10.00
   9   2  -6  152.08    9.60
   8  -2  -6  331.77   13.80
   8  -2  -6  361.96   16.80
   8  -2  -6  319.17   14.20
   8  -2  -6  343.17   14.20
   8  -2  -6  335.47   18.00
   8  -2  -6  317.27   14.70
   8   2  -6  323.07   12.60
  -8   2   6  334.97   12.60
   8   2  -6  315.77   12.60
   8   2  -6  332.87   12.60
   8   2  -6  325.57   12.90
   8   2  -6  333.57   15.40
  -8   2   6  346.67   15.60
  -8   2   6  318.97   13.40
   7  -2  -6  226.78   12.10
   7  -2  -6  223.48   10.10
   7  -2  -6  206.68   13.30
   7  -2  -6  215.28   11.10
  -7  -2   6  201.08    8.80
   7  -2  -6  228.98   10.50
   7  -2  -6  222.68   10.70
  -7  -2   6  225.28    8.60
   7   2  -6  227.18    9.40
   7   2  -6  227.68    9.60
  -7   2   6  229.48    9.50
  -7   2   6  217.68   10.00
   7   2  -6  225.18    9.40
   7   2  -6  226.08   11.60
  -7   2   6  242.68   11.80
   7   2  -6  217.08    9.50
  -6  -2   6  526.75   21.20
   6  -2  -6  594.34   22.40
  -6  -2   6  586.34   20.90
   6  -2  -6  565.24   25.00
   6  -2  -6  579.54   22.90
   6  -2  -6  617.84   22.40
   6  -2  -6  562.94   21.70
   6  -2  -6  601.94   23.70
  -6   2   6  582.84   21.90
   6   2  -6  601.24   21.40
   6   2  -6  567.54   23.00
   6   2  -6  605.24   21.50
   6   2  -6  589.94   21.40
  -6   2   6  588.34   21.40
   6   2  -6  579.24   21.10
  -6   2   6  630.84   23.30
  -5  -2   6  201.48    8.90
   5  -2  -6  185.88   10.30
   5  -2  -6  212.98    9.80
  -5  -2   6  194.18    9.50
   5  -2  -6  192.88   11.70
  -5  -2   6  196.18    8.60
   5  -2  -6  198.98    9.80
   5  -2  -6  207.58   10.60
   5  -2  -6  208.28    9.40
  -5   2   6  204.98    9.60
  -5   2   6  197.68   10.30
   5   2  -6  204.98    8.50
   5   2  -6  207.08    9.30
   5   2  -6  204.98   10.10
  -5   2   6  205.68    9.10
   5   2  -6  199.48    9.10
   5   2  -6  208.58    9.40
   5   2  -6  203.58    8.90
  -4  -2   6   77.69    5.70
   4  -2  -6   70.49    7.00
   4  -2  -6   66.59    4.80
   4  -2  -6   76.49    5.80
  -4  -2   6   76.29    5.30
  -4  -2   6   70.89    5.70
   4  -2  -6   78.29    5.70
   4  -2  -6   70.79    5.20
   4  -2  -6   69.49    5.90
   4   2  -6   65.49    4.70
  -4   2   6   65.29    5.10
   4   2  -6   74.79    5.30
  -4   2   6   66.79    5.90
   4   2  -6   64.19    4.90
   4   2  -6   73.89    5.40
   4   2  -6   59.29    5.30
   4   2  -6   73.19    5.20
  -3  -2   6  232.58   11.40
  -3  -2   6  244.18   12.00
   3  -2  -6  236.58   11.00
   3  -2  -6  247.58   10.70
   3  -2  -6  235.38   12.70
   3  -2  -6  275.77   11.40
  -3  -2   6  248.38   11.00
   3  -2  -6  231.78   11.50
  -3   2   6  268.67   10.80
   3   2  -6  234.68   10.80
  -3   2   6  247.88   11.20
   3   2  -6  238.58   10.80
   3   2  -6  241.78   11.00
   3   2  -6  233.38   10.70
  -3   2   6  231.48   11.70
   3   2  -6  245.38   11.10
  -3   2   6  234.08   10.90
   3   2  -6  245.88   10.50
  -2  -2   6   33.80    5.30
  -2  -2   6   31.00    4.30
   2  -2  -6   41.40    5.80
   2  -2  -6   27.40    3.60
   2  -2  -6   31.70    3.80
  -2  -2   6   33.20    3.50
   2  -2  -6   34.90    3.60
   2  -2  -6   27.80    4.10
  -2  -2   6   38.40    4.30
   2   2  -6   28.30    3.70
  -2   2   6   35.40    4.20
  -2   2   6   22.70    4.80
   2   2  -6   28.80    3.30
  -2   2   6   30.80    4.10
   2   2  -6   33.40    4.00
   2   2  -6   33.20    3.70
  -2   2   6   29.80    4.40
  -2   2   6   30.60    3.80
   2   2  -6   24.90    3.40
   2   2  -6   32.20    4.10
   1  -2  -6 1372.66   47.60
  -1  -2   6 1369.16   48.80
   1  -2  -6 1372.96   47.90
   1  -2  -6 1347.27   48.50
  -1  -2   6 1430.46   47.60
   1  -2  -6 1402.46   49.60
  -1  -2   6 1397.36   48.20
   1  -2  -6 1316.67   47.70
  -1  -2   6 1317.47   48.30
  -1  -2   6 1358.36   46.50
   1  -2  -6 1482.55   48.30
   1   2  -6 1374.76   48.10
   1   2  -6 1399.16   48.30
   1   2  -6 1384.36   47.30
  -1   2   6 1380.56   49.90
   1   2  -6 1363.06   47.60
  -1   2   6 1441.16   48.20
  -1   2   6 1462.05   49.10
   1   2  -6 1367.56   47.90
  -1   2   6 1369.46   47.60
   1   2  -6 1390.36   47.90
  -1   2   6 1418.56   48.20
   0  -2   6    3.50    2.50
   0  -2   6    5.10    3.10
   0  -2   6   10.70    2.40
   0  -2  -6    8.80    2.80
   0  -2   6   11.80    3.50
   0  -2   6   11.20    2.70
   0  -2  -6    8.80    2.30
   0  -2  -6   11.90    2.80
   0  -2  -6    7.30    2.40
   0  -2  -6    8.10    2.20
   0   2   6    5.10    2.40
   0   2  -6   11.70    2.20
   0   2   6   11.50    2.70
   0   2   6    8.40    2.30
   0   2  -6    7.80    2.60
   0   2   6   13.30    3.20
   0   2   6    7.70    2.70
   0   2   6    2.90    4.00
   0   2  -6    6.00    2.40
   0   2  -6   12.40    2.90
   0   2  -6   14.60    3.00
   0   2  -6    6.50    2.10
  -1  -2  -6  599.24   21.40
  -1  -2  -6  553.04   21.30
   1  -2   6  550.94   21.50
   1  -2   6  529.25   22.50
   1  -2   6  565.14   21.40
   1  -2   6  542.25   22.60
  -1  -2  -6  581.34   22.20
   1  -2   6  567.64   22.10
  -1  -2  -6  621.74   21.40
  -1   2  -6  526.85   21.40
  -1   2  -6  551.84   20.10
  -1   2  -6  550.04   21.80
   1   2   6  584.24   21.70
   1   2   6  524.15   20.90
  -1   2  -6  546.45   21.80
  -1   2  -6  558.64   21.30
   1   2   6  563.94   21.80
   1   2   6  592.74   22.70
   1   2   6  553.14   21.20
   2  -2   6   60.29    6.40
  -2  -2  -6   72.39    7.50
   2  -2   6   54.69    5.60
   2  -2   6   59.19    6.30
   2  -2   6   65.79    5.20
  -2  -2  -6   70.89    4.80
  -2  -2  -6   62.19    5.00
  -2  -2  -6   62.89    5.70
   2  -2   6   48.80    5.60
  -2   2  -6   53.09    5.20
   2   2   6   56.79    5.80
  -2   2  -6   62.79    5.00
  -2   2  -6   52.69    5.30
   2   2   6   46.20    5.20
   2   2   6   64.29    5.20
   2   2   6   59.49    4.90
  -2   2  -6   59.89    5.40
   2   2   6   68.29    5.50
  -2   2  -6   61.59    3.60
  -3  -2  -6  230.48   10.30
  -3  -2  -6  221.78   11.00
   3  -2   6  220.58   11.50
  -3  -2  -6  225.48   10.10
   3  -2   6  194.48   11.70
   3  -2   6  230.18   10.70
   3  -2   6  211.68   11.90
   3  -2   6  219.68   12.20
   3   2   6  228.48   11.60
  -3   2  -6  206.68   11.10
  -3   2  -6  216.68   10.40
   3   2   6  220.08   10.40
   3   2   6  223.98   10.80
  -3   2  -6  196.28   10.70
   3   2   6  213.38   10.00
  -3   2  -6  201.28    8.10
   3   2   6  211.08   10.80
   4  -2   6  389.86   18.10
   4  -2   6  391.06   18.70
   4  -2   6  388.06   16.60
  -4  -2  -6  386.26   16.00
   4  -2   6  405.26   17.70
   4  -2   6  393.76   18.80
  -4  -2  -6  383.36   16.70
  -4   2  -6  385.06   17.70
   4   2   6  402.66   16.50
   4   2   6  390.46   16.90
   4   2   6  399.96   15.90
  -4   2  -6  409.36   13.40
  -4   2  -6  384.96   16.30
   4   2   6  429.86   17.80
  -4   2  -6  376.66   16.90
   4   2   6  392.96   16.70
   5  -2   6   96.89    8.70
  -5  -2  -6   89.99    7.00
  -5  -2  -6  104.79    6.40
   5  -2   6   89.69    9.00
   5  -2   6  104.89    8.40
   5  -2   6  105.59    7.30
   5  -2   6   97.39    9.20
  -5   2  -6  106.09    6.90
   5   2   6  111.79    7.30
  -5   2  -6  103.99    7.40
   5   2   6  120.29    7.60
   5   2   6  109.49    6.70
  -5   2  -6  109.49    8.20
   5   2   6  127.29    8.40
   5   2   6   96.59    7.30
   6  -2   6  380.96   17.60
   6  -2   6  341.37   17.90
   6  -2   6  361.46   19.50
  -6  -2  -6  370.96   16.20
   6   2   6  379.76   15.50
   6   2   6  383.16   16.80
  -6   2  -6  372.76   16.80
   6   2   6  394.16   16.30
  -6   2  -6  364.56   18.20
   7  -2   6   46.20    8.10
   7  -2   6   63.09    7.60
   7  -2   6   58.69    7.70
  -7   2  -6   59.69    5.80
   7   2   6   47.60    6.30
   7   2   6   48.50    5.10
   7   2   6   55.79    6.10
   8  -2   6  130.19   10.90
   8  -2   6  110.19   12.20
   8  -2   6  119.89   10.00
   8   2   6  113.19    8.50
   8   2   6  137.19    8.00
   8   2   6  125.29    9.00
   9  -2   6  130.39   13.60
   9  -2   6  116.39   10.90
   9  -2   6  127.89   10.40
   9   2   6  119.19    8.90
   9   2   6  114.89    9.00
  10  -2   6   68.19    8.80
  10  -2   6   71.59   12.30
  10  -2   6   52.39    8.30
  10   2   6   65.79    7.60
  11  -3  -6    5.20    3.60
  11  -3  -6    0.50    3.10
  11  -3  -6   11.20    6.70
  11   3  -6    5.80    4.40
  10  -3  -6    8.20    3.90
  10  -3  -6   15.00    6.50
  10  -3  -6    8.30    3.30
  10   3  -6    5.80    2.20
  10   3  -6    8.30    4.10
  10   3  -6    8.40    2.10
   9  -3  -6   82.59   10.60
   9  -3  -6   94.39    7.80
   9  -3  -6   86.69    8.20
   9   3  -6   79.99    8.20
   9   3  -6   84.89    5.60
  -9   3   6   80.69    8.40
   9   3  -6   80.79    6.30
   9   3  -6   78.59    5.50
   8  -3  -6   88.39    9.30
   8  -3  -6   93.89    8.30
   8  -3  -6   91.59   10.80
   8  -3  -6   98.49    7.90
   8   3  -6   91.59    6.30
   8   3  -6   98.19    8.00
  -8   3   6  103.09    8.80
   8   3  -6   95.29    6.10
   8   3  -6   81.09    6.60
   7  -3  -6  206.78   12.00
   7  -3  -6  197.08   11.20
   7  -3  -6  228.98   11.50
   7  -3  -6  209.38   13.00
   7  -3  -6  197.88   14.10
   7   3  -6  204.28   10.00
   7   3  -6  194.38    9.60
   7   3  -6  205.38   11.70
  -7   3   6  198.68   10.60
   7   3  -6  203.88   10.30
  -7   3   6  202.98   12.30
   7   3  -6  189.58   13.90
  -6  -3   6   69.29    5.10
   6  -3  -6   89.99    8.10
  -6  -3   6   81.79    6.30
   6  -3  -6   78.89    6.40
   6  -3  -6   63.79    8.60
   6  -3  -6   76.69    6.00
   6  -3  -6   93.39    7.20
   6  -3  -6   74.09    7.50
   6   3  -6   60.09    5.90
   6   3  -6   71.29    5.90
  -6   3   6   73.79    7.60
  -6   3   6   72.29    6.20
  -6   3   6   69.59    6.20
   6   3  -6   71.19    5.80
   6   3  -6   71.89    6.90
   6   3  -6   72.09    6.30
   6   3  -6   84.29    5.70
   5  -3  -6  241.08   13.20
  -5  -3   6  228.78   10.90
   5  -3  -6  254.07   13.30
   5  -3  -6  250.77   13.50
   5  -3  -6  259.57   12.60
   5  -3  -6  235.68   14.60
  -5  -3   6  239.48   12.10
   5  -3  -6  238.68   11.60
   5   3  -6  232.48   10.90
   5   3  -6  255.77   12.40
   5   3  -6  240.68   11.70
   5   3  -6  231.38   11.40
   5   3  -6  251.37   11.30
   5   3  -6  243.78   12.00
  -5   3   6  254.07   12.10
   5   3  -6  246.78   13.30
  -5   3   6  244.48   13.50
  -4  -3   6   96.99    7.60
  -4  -3   6   94.89    7.60
   4  -3  -6   90.19    6.50
   4  -3  -6   93.19    7.90
   4  -3  -6   89.89    7.20
  -4  -3   6   83.59    6.30
   4  -3  -6  103.29    9.40
  -4   3   6   89.69    6.90
  -4   3   6   91.69    6.30
   4   3  -6   92.09    7.90
   4   3  -6   98.59    7.20
  -4   3   6  102.89    8.50
   4   3  -6  100.89    6.40
   4   3  -6   87.79    6.70
   4   3  -6   95.89    6.80
   4   3  -6   87.89    6.60
   4   3  -6   94.39    6.00
   3  -3  -6  372.06   18.80
  -3  -3   6  387.56   17.60
   3  -3  -6  368.96   17.60
   3  -3  -6  412.86   16.50
   3  -3  -6  387.86   16.80
  -3  -3   6  405.06   16.60
  -3  -3   6  399.96   16.60
   3   3  -6  387.36   16.10
   3   3  -6  395.06   17.70
   3   3  -6  408.06   16.80
  -3   3   6  371.96   18.10
  -3   3   6  399.26   16.30
   3   3  -6  397.76   17.10
   3   3  -6  393.36   15.30
  -3   3   6  373.16   16.70
   3   3  -6  390.76   16.60
   3   3  -6  375.26   16.40
   2  -3  -6  103.09    6.70
  -2  -3   6  100.89    8.30
   2  -3  -6  108.49    8.40
   2  -3  -6  112.39    7.50
   2  -3  -6   97.09    9.00
  -2  -3   6   96.69    6.40
  -2  -3   6   99.29    7.50
  -2   3   6  100.29    8.60
  -2   3   6  106.39    7.50
   2   3  -6  104.99    7.60
  -2   3   6  105.19    7.70
   2   3  -6  105.79    6.10
  -2   3   6  105.79    7.30
   2   3  -6  107.39    7.30
   2   3  -6  100.29    6.50
   2   3  -6   94.69    6.60
   2   3  -6   97.09    7.80
   2   3  -6   98.09    7.10
  -2   3   6  103.49    6.90
   1  -3  -6   46.80    5.40
   1  -3  -6   51.09    6.30
   1  -3  -6   63.79    5.30
  -1  -3   6   56.69    6.10
  -1  -3   6   52.69    5.70
   1  -3  -6   46.00    6.90
  -1  -3   6   43.90    6.10
  -1   3   6   65.89    5.70
  -1   3   6   47.30    5.80
   1   3  -6   55.09    6.00
  -1   3   6   63.69    5.50
  -1   3   6   52.99    5.70
   1   3  -6   49.10    4.70
   1   3  -6   63.19    5.90
  -1   3   6   56.69    6.90
   1   3  -6   50.19    4.70
   1   3  -6   65.29    6.00
   1   3  -6   52.29    5.20
   0  -3   6  263.37   14.20
   0  -3  -6  278.57   12.40
   0  -3   6  324.27   17.20
   0  -3   6  256.67   13.40
   0  -3  -6  272.67   12.70
   0  -3   6  278.77   14.40
   0  -3  -6  277.17   13.70
   0  -3   6  246.18   12.50
   0   3   6  257.07   12.40
   0   3  -6  275.97   12.10
   0   3  -6  246.28   11.60
   0   3   6  245.08   12.70
   0   3  -6  247.28   12.30
   0   3  -6  293.77   13.40
   0   3  -6  257.87   12.80
   0   3   6  288.37   13.30
   0   3   6  265.77   12.40
   0   3  -6  258.87   13.30
   1  -3   6   61.89    6.70
   1  -3   6   73.89    7.20
  -1  -3  -6   61.49    5.90
   1  -3   6   63.29    7.60
  -1  -3  -6   62.59    6.80
   1  -3   6   48.50    6.80
  -1   3  -6   73.39    5.00
   1   3   6   77.39    6.80
  -1   3  -6   75.39    6.00
  -1   3  -6   67.49    6.40
   1   3   6   70.49    6.60
   1   3   6   73.09    6.00
   1   3   6   77.39    6.10
  -1   3  -6   68.19    6.50
  -1   3  -6   76.49    6.90
  -2  -3  -6  222.48   11.80
   2  -3   6  209.58   13.20
   2  -3   6  238.28   12.70
   2  -3   6  214.18   12.20
   2  -3   6  207.78   12.90
   2  -3   6  244.38   11.40
  -2  -3  -6  217.98   10.80
  -2   3  -6  206.68   12.00
  -2   3  -6  205.78    9.50
  -2   3  -6  214.48   10.90
   2   3   6  216.48   10.90
   2   3   6  215.78   11.50
   2   3   6  215.68   11.00
  -2   3  -6  202.38   11.50
   2   3   6  199.08   11.50
   3  -3   6  111.49    9.40
   3  -3   6  127.09   10.30
  -3  -3  -6  126.09    8.70
   3  -3   6  103.29    9.50
  -3  -3  -6  116.79    7.60
   3  -3   6  119.69    9.50
   3  -3   6  115.19    8.00
  -3   3  -6  122.99    8.70
   3   3   6  136.89    8.90
   3   3   6  119.49    7.90
  -3   3  -6  119.59    6.10
  -3   3  -6  120.69    9.10
   3   3   6  122.69    7.80
   3   3   6  118.89    8.50
  -3   3  -6  111.09    7.60
   4  -3   6   78.49    8.80
   4  -3   6   77.89    7.70
   4  -3   6   76.49    8.60
   4  -3   6   78.19    9.20
   4  -3   6   75.79    8.20
  -4  -3  -6   81.89    7.10
   4   3   6   64.99    6.40
  -4   3  -6   76.09    7.30
  -4   3  -6   71.39    6.20
  -4   3  -6   64.89    7.40
  -4   3  -6   72.39    4.30
   4   3   6   82.09    7.20
   4   3   6   72.09    6.50
  -5  -3  -6   61.09    6.50
   5  -3   6   70.59    9.10
   5  -3   6   70.09    8.70
   5  -3   6   71.49    8.30
  -5   3  -6   67.29    7.70
   5   3   6   70.29    7.10
  -5   3  -6   61.59    6.80
   5   3   6   64.49    6.30
   5   3   6   64.39    6.50
   6  -3   6   66.79    9.00
   6  -3   6   59.19    9.30
   6  -3   6   59.79    7.90
   6   3   6   78.59    6.90
   6   3   6   67.19    7.20
   6   3   6   57.09    6.20
  -6   3  -6   72.19    7.30
   7  -3   6  128.99   12.50
   7  -3   6   95.39   10.80
   7  -3   6  120.89   10.80
   7   3   6  130.49    8.70
   7   3   6  125.59    9.00
   7   3   6  149.99    9.80
  -7   3  -6  122.59   10.60
   8  -3   6  129.89   11.40
   8  -3   6  136.19   12.50
   8  -3   6  154.78   14.50
   8   3   6  139.09    9.70
   8   3   6  134.39    9.20
   8   3   6  159.48   10.60
   9  -3   6  161.18   12.90
   9  -3   6  144.39   15.50
   9  -3   6  169.48   17.20
   9   3   6  154.18   10.90
  10  -4  -6   96.79    9.50
  10  -4  -6   87.39    9.80
  10  -4  -6   81.49   14.00
  10   4  -6   79.69    8.90
  10   4  -6   87.19    6.70
   9  -4  -6   58.49    7.70
   9  -4  -6   56.79   11.00
   9  -4  -6   61.79    8.40
   9   4  -6   55.79    7.70
   9   4  -6   52.49    5.60
   9   4  -6   56.49    5.90
   8  -4  -6  222.88   13.30
   8  -4  -6  198.58   16.60
   8  -4  -6  233.28   14.40
   8   4  -6  227.28   11.70
   8   4  -6  216.08   11.30
   8   4  -6  214.38   13.50
   7  -4  -6   22.30    5.10
   7  -4  -6   33.60    6.30
   7  -4  -6   22.40    7.30
  -7   4   6   24.40    4.70
   7   4  -6   19.90    4.30
   7   4  -6   17.90    5.20
   7   4  -6   22.10    4.00
   6  -4  -6   82.89    9.30
   6  -4  -6   99.89    8.90
   6  -4  -6   96.79   11.40
  -6   4   6  108.19   10.30
   6   4  -6  109.69    8.00
   6   4  -6  103.39    7.60
  -6   4   6  111.89    8.40
   6   4  -6  106.09    8.50
   6   4  -6   95.69    9.70
   5  -4  -6  104.79    8.70
  -5  -4   6   90.19    8.20
   5  -4  -6   98.19    9.40
   5  -4  -6   90.49   10.80
   5   4  -6   86.89    7.60
   5   4  -6   98.09    7.40
  -5   4   6  108.19    8.20
  -5   4   6   81.69    9.60
   5   4  -6   88.39    7.70
   5   4  -6  105.99   10.00
  -4  -4   6  174.58   11.90
   4  -4  -6  198.48   12.90
   4  -4  -6  176.08   14.10
   4  -4  -6  213.28   12.00
  -4   4   6  209.38   13.90
   4   4  -6  188.78   11.10
   4   4  -6  187.28   10.60
   4   4  -6  191.68   13.10
   4   4  -6  184.08   11.10
  -4   4   6  215.78   11.80
  -3  -4   6    7.50    4.10
   3  -4  -6    8.20    3.70
   3  -4  -6    2.50    4.70
   3  -4  -6    1.00    3.80
   3   4  -6    8.90    3.40
   3   4  -6    6.90    3.00
  -3   4   6    0.00    4.40
  -3   4   6    5.70    3.60
   3   4  -6    8.00    4.50
  -3   4   6    4.70    3.10
   3   4  -6    4.00    3.20
  -3   4   6    3.20    2.60
  -2  -4   6  485.95   22.00
  -2  -4   6  457.45   22.10
  -2  -4   6  464.95   19.70
   2  -4  -6  446.36   23.10
   2  -4  -6  526.35   20.70
   2  -4  -6  486.05   22.20
   2  -4  -6  462.95   20.60
   2   4  -6  474.95   20.10
  -2   4   6  449.16   22.50
   2   4  -6  478.95   20.10
   2   4  -6  497.95   20.90
  -2   4   6  478.35   20.90
   2   4  -6  465.65   22.10
  -2   4   6  464.15   20.20
  -2   4   6  474.15   20.00
   2   4  -6  481.35   19.90
  -1  -4   6  255.57   13.60
  -1  -4   6  257.57   13.90
   1  -4  -6  251.07   13.40
   1  -4  -6  271.27   15.10
  -1  -4   6  248.28   14.90
  -1  -4   6  256.47   13.90
  -1  -4   6  264.87   15.60
   1  -4  -6  251.97   15.80
   1   4  -6  262.07   13.10
  -1   4   6  283.97   14.20
   1   4  -6  265.07   13.90
  -1   4   6  257.07   12.90
   1   4  -6  253.37   12.70
   1   4  -6  267.17   13.10
  -1   4   6  232.88   15.50
   1   4  -6  249.88   14.70
  -1   4   6  266.07   13.60
   0  -4   6  119.59    9.90
   0  -4  -6  130.09    9.30
   0  -4   6  136.19   10.30
   0  -4  -6  132.59   10.50
   0  -4   6  165.28   11.90
   0   4  -6  143.89   11.30
   0   4   6  142.09    9.90
   0   4  -6  132.89    8.40
   0   4   6  166.48   10.90
   0   4   6  145.89    9.70
   0   4  -6  143.99   10.00
   0   4  -6  134.39    9.00
   0   4  -6  139.49   10.60
   0   4   6  136.89   11.70
   0   4   6  139.79    9.10
  -1  -4  -6  185.78   11.40
  -1  -4  -6  199.18   12.60
   1  -4   6  205.38   12.90
   1  -4   6  205.88   13.10
   1  -4   6  201.28   14.00
   1  -4   6  197.48   14.00
   1   4   6  209.78   11.90
  -1   4  -6  209.08   10.50
   1   4   6  213.18   11.60
   1   4   6  221.88   12.30
  -1   4  -6  228.98   11.80
   1   4   6  179.98   13.90
  -1   4  -6  221.98   12.60
  -1   4  -6  204.98   13.10
   2  -4   6   69.09    9.10
   2  -4   6   80.19    9.80
  -2  -4  -6   81.29    8.50
   2  -4   6   74.39    8.60
   2   4   6   82.89    7.40
  -2   4  -6   82.69    8.10
  -2   4  -6   68.99    6.70
  -2   4  -6   66.69    5.60
   2   4   6   66.09    7.20
   2   4   6   79.19    7.80
  -2   4  -6   70.29    8.10
  -3  -4  -6   46.40    6.50
   3  -4   6   45.70    7.20
   3  -4   6   54.79    8.80
   3  -4   6   54.59    8.20
  -3   4  -6   45.30    4.60
  -3   4  -6   42.90    6.40
   3   4   6   46.90    6.70
   3   4   6   40.50    5.60
   3   4   6   45.90    6.40
   4  -4   6  129.99   12.10
   4  -4   6  142.09   12.70
   4  -4   6  126.79   11.40
  -4  -4  -6  141.09   10.60
   4   4   6  148.79    9.80
   4   4   6  168.98   10.80
  -4   4  -6  156.88   11.00
   4   4   6  154.48   10.00
   5  -4   6  147.49   12.40
   5  -4   6  134.59   13.30
   5  -4   6  171.18   14.00
   5   4   6  154.78   11.20
   5   4   6  176.08   11.10
  -5   4  -6  174.98   11.80
   5   4   6  175.48   10.90
   6  -4   6   24.00    7.70
   6  -4   6   20.60    6.70
   6  -4   6   30.70    6.90
   6   4   6   23.80    5.30
   6   4   6   35.80    5.70
   6   4   6   35.10    6.20
  -6   4  -6   20.10    5.40
   7  -4   6   74.79    9.90
   7  -4   6   86.59   12.20
   7  -4   6  118.79   12.30
   7   4   6  104.69    9.10
   7   4   6   87.59    8.50
   7   4   6   93.49    9.30
   7  -5  -6  119.59   11.90
   7  -5  -6  103.59   10.50
   7  -5  -6   96.79   13.30
   7   5  -6   95.89    8.50
   7   5  -6   90.69    9.90
   7   5  -6  118.59    9.40
   6  -5  -6   56.59   10.90
   6  -5  -6   75.99    9.10
   6  -5  -6   59.19    9.20
   6   5  -6   62.99    7.80
   6   5  -6   67.29    8.00
   6   5  -6   75.59    7.60
  -6   5   6   67.29    8.10
   5  -5  -6   73.19    9.80
   5  -5  -6   51.59   10.20
   5  -5  -6   56.79    8.20
   5   5  -6   65.39    8.40
  -5   5   6   53.29    7.30
   5   5  -6   70.09    8.30
   5   5  -6   70.19    7.40
   4  -5  -6  119.49   11.80
   4  -5  -6  123.69   10.60
   4  -5  -6  101.69   12.70
   4   5  -6  121.79    9.70
   4   5  -6  136.19   10.30
   4   5  -6  117.99    9.40
  -4   5   6  124.79   10.20
  -3  -5   6   55.89    8.50
   3  -5  -6   89.29   11.40
   3  -5  -6   84.09    8.70
   3  -5  -6   65.99    9.30
  -3   5   6   69.39    7.70
   3   5  -6   74.39    8.50
   3   5  -6   83.39    8.10
  -3   5   6   85.39    8.60
   3   5  -6   70.79    8.00
  -2  -5   6    0.60    4.70
   2  -5  -6   -3.90    4.60
   2  -5  -6   -1.30    4.40
  -2   5   6    6.40    3.80
  -2   5   6    8.00    4.50
   2   5  -6   -1.00    3.30
   2   5  -6    3.40    3.60
   2   5  -6   -2.00    2.90
  -1  -5   6   19.30    5.60
  -1  -5   6   21.50    6.90
   1  -5  -6   18.90    6.40
   1  -5  -6   21.40    6.30
   1   5  -6   19.00    4.90
   1   5  -6   17.50    4.50
  -1   5   6   34.80    6.30
   1   5  -6   16.10    4.50
  -1   5   6   22.00    5.50
   0  -5   6   41.20    8.50
   0  -5  -6   38.70    7.30
   0  -5   6   31.20    6.90
   0   5   6   38.90    6.90
   0   5   6   33.40    5.90
   0   5   6   47.60    6.40
   0   5  -6   34.40    5.60
   0   5  -6   56.89    7.10
   0   5  -6   35.00    6.30
   1  -5   6  106.89   12.20
   1  -5   6   93.19   11.20
  -1  -5  -6   75.79    9.70
   1   5   6   71.69    8.80
   1   5   6   71.69    8.60
   1   5   6   97.19    8.60
  -1   5  -6   84.09    9.10
  -1   5  -6   86.29    7.40
   2  -5   6  126.89   13.20
   2  -5   6  116.79   12.10
  -2  -5  -6  135.79   11.60
   2  -5   6  111.89   12.80
   2   5   6  108.09   10.40
   2   5   6  130.09   10.10
   2   5   6  137.89   10.30
  -2   5  -6  143.89   11.30
  -2   5  -6  135.09    9.00
   3  -5   6    0.50    5.00
   3  -5   6    4.20    5.40
  -3  -5  -6   -3.30    4.10
   3  -5   6    8.60    6.30
  -3   5  -6    2.20    3.80
   3   5   6    1.80    3.50
   3   5   6    4.90    4.30
   3   5   6    4.90    4.30
   4  -5   6   47.60    9.30
   4  -5   6   52.89   10.10
   4  -5   6   41.40    9.50
   4   5   6   60.49    8.30
   4   5   6   50.59    7.80
  -4   5  -6   60.79    8.60
   4   5   6   45.50    7.00
   5  -5   6   -1.30    6.50
   5   5   6    5.00    5.20
  -5   5  -6    6.90    4.50
   5   5   6   10.10    4.60
  13   0  -7   20.60    4.80
  13   0  -7   21.00    6.20
  12   0  -7   16.30    5.70
  12   0  -7   36.20    9.60
  11   0  -7   66.09    8.00
  11   0  -7   48.30    6.20
  10   0  -7    0.40    3.30
  10   0  -7    4.20    2.70
   9   0  -7    4.50    1.20
   9   0  -7    3.00    1.30
   9   0  -7    7.40    2.60
   9   0  -7    6.20    3.50
   8   0  -7   32.30    2.60
   8   0  -7   32.40    3.00
   8   0  -7   39.50    5.40
   8   0  -7   29.10    4.00
   8   0  -7   31.40    2.90
   8   0  -7   30.70    2.70
   7   0  -7   15.90    2.80
   7   0  -7   11.70    2.10
  -7   0   7   16.80    2.20
   7   0  -7   16.20    2.20
  -7   0   7   18.90    2.20
   7   0  -7   19.40    2.40
   7   0  -7   19.20    3.90
   7   0  -7   18.80    2.30
   6   0  -7    0.50    1.20
  -6   0   7   -0.60    1.10
   6   0  -7    0.40    1.20
   6   0  -7    0.20    2.00
   6   0  -7    0.40    1.40
   6   0  -7    0.90    1.30
  -6   0   7    0.40    1.40
   6   0  -7   -1.30    1.20
   5   0  -7  245.08   10.10
   5   0  -7  247.68    9.90
  -5   0   7  242.98   10.10
  -5   0   7  243.48   10.00
   5   0  -7  225.78    9.20
  -5   0   7  263.17   10.70
  -5   0   7  265.87    9.70
   5   0  -7  240.58   10.20
   5   0  -7  248.08   10.70
   5   0  -7  228.58    9.80
  -4   0   7  104.99    5.80
  -4   0   7  100.09    5.30
   4   0  -7   99.89    5.80
  -4   0   7   98.19    5.60
   4   0  -7  100.69    5.50
  -4   0   7  104.19    5.30
   4   0  -7   99.59    5.50
  -4   0   7  103.59    5.70
   4   0  -7   97.29    5.40
   4   0  -7  100.19    5.40
  -3   0   7   85.29    5.10
   3   0  -7   73.69    4.90
  -3   0   7   80.19    5.30
  -3   0   7   81.29    4.90
  -3   0   7   69.19    4.70
   3   0  -7   83.09    4.70
   3   0  -7   79.89    4.80
   3   0  -7   73.39    5.10
  -3   0   7   81.59    5.20
   3   0  -7   72.89    4.70
   2   0  -7   41.40    3.70
   2   0  -7   42.70    3.80
  -2   0   7   53.59    4.10
  -2   0   7   43.00    3.80
   2   0  -7   38.70    3.90
   2   0  -7   47.20    4.30
  -2   0   7   43.60    4.30
  -2   0   7   43.40    4.20
  -1   0   7   22.00    3.30
  -1   0   7   18.40    2.90
   1   0  -7   15.00    2.80
  -1   0   7   19.00    2.70
   1   0  -7   22.20    2.90
  -1   0   7   20.30    3.20
  -1   0   7   18.50    2.20
   1   0  -7   20.20    3.10
   1   0  -7   22.30    2.90
  -1   0   7    1.20    3.70
   0   0  -7    7.90    2.20
   0   0  -7   10.60    2.70
   0   0   7    9.10    2.00
   0   0   7    9.60    2.30
   0   0  -7    4.60    1.90
   0   0   7   11.70    2.70
   0   0   7    7.60    2.60
   0   0  -7   11.20    2.40
   0   0   7   12.00    2.60
  -1   0  -7 1296.37   45.00
  -1   0  -7 1329.27   45.60
   1   0   7 1405.26   45.40
  -1   0  -7 1262.17   44.90
  -1   0  -7 1230.68   45.30
   1   0   7 1387.66   45.90
  -1   0  -7 1332.87   43.90
   1   0   7 1289.27   45.10
   1   0   7 1292.47   44.80
   1   0   7 1257.67   45.50
  -2   0  -7   72.49    3.80
   2   0   7   63.79    5.20
   2   0   7   74.89    5.80
   2   0   7   58.39    5.20
   2   0   7   61.89    5.40
  -2   0  -7   67.79    5.10
   2   0   7   63.69    5.80
  -2   0  -7   56.39    5.20
  -2   0  -7   68.69    4.90
   3   0   7 1151.28   42.00
   3   0   7 1127.59   41.60
  -3   0  -7 1153.98   40.90
  -3   0  -7 1212.98   39.20
  -3   0  -7 1128.39   41.50
   3   0   7 1222.68   41.40
   3   0   7 1204.28   42.00
   3   0   7 1180.08   41.40
  -4   0  -7    0.60    1.90
   4   0   7    0.00    2.40
   4   0   7    0.80    1.90
   4   0   7    3.00    2.30
  -4   0  -7   -0.20    0.80
   4   0   7    4.60    2.50
  -4   0  -7   -0.40    1.30
   4   0   7    1.20    2.30
   5   0   7  398.56   17.10
   5   0   7  388.26   16.50
  -5   0  -7  408.26   16.70
  -5   0  -7  374.46   13.20
   5   0   7  390.66   18.10
   5   0   7  397.46   16.80
  -5   0  -7  378.36   15.70
   5   0   7  390.06   17.10
   6   0   7 1436.76   50.79
   6   0   7 1438.16   50.69
   6   0   7 1533.25   51.59
   6   0   7 1406.06   51.09
  -6   0  -7 1340.87   50.29
   6   0   7 1468.75   53.19
   7   0   7    5.90    3.70
   7   0   7    5.20    3.30
  -7   0  -7    0.90    2.10
   8   0   7   62.69    7.20
   8   0   7   63.89    7.40
   9   0   7    7.20    4.00
   9   0   7   -3.40    2.90
  10   0   7   13.10    4.40
  10   0   7   13.60    4.70
  13  -1  -7   61.59   10.00
  13   1  -7   45.90    8.10
  13   1  -7   48.30    6.80
  12  -1  -7   72.89    5.00
  12  -1  -7   80.79   10.20
  12   1  -7   72.39    7.50
  12   1  -7   79.79    9.00
  11  -1  -7   85.29    4.80
  11  -1  -7   74.09    5.10
  11  -1  -7   72.79    4.70
  11  -1  -7   79.59    8.00
  11  -1  -7   83.09    9.50
  11   1  -7   72.99    8.20
  11   1  -7   79.09    7.30
  11   1  -7   80.39    7.50
  10  -1  -7   94.79    5.60
  10  -1  -7   91.59    5.30
  10  -1  -7  101.29    5.80
  10  -1  -7  109.19    9.90
  10  -1  -7   99.19    8.20
  10   1  -7   91.99    7.30
  10   1  -7   98.79    8.40
  10   1  -7   89.39    7.40
   9  -1  -7  609.44   27.30
   9  -1  -7  638.64   23.20
   9  -1  -7  616.24   23.20
   9  -1  -7  640.94   24.30
   9  -1  -7  689.33   26.10
   9  -1  -7  616.04   22.90
   9   1  -7  640.34   24.90
   9   1  -7  630.64   25.70
  -9   1   7  655.23   22.20
  -9   1   7  683.63   25.40
   8  -1  -7  523.55   21.70
   8  -1  -7  468.55   17.70
   8  -1  -7  524.75   19.80
   8  -1  -7  470.85   17.60
   8  -1  -7  464.35   17.60
   8  -1  -7  474.65   17.40
   8   1  -7  453.35   16.60
  -8   1   7  450.75   16.80
   8   1  -7  445.56   16.50
   8   1  -7  445.36   16.40
   8   1  -7  464.35   18.60
   8   1  -7  449.86   19.10
   8   1  -7  456.35   16.60
  -8   1   7  487.05   18.90
   7  -1  -7   95.09    7.90
   7  -1  -7   92.59    5.30
   7  -1  -7   93.59    6.40
   7  -1  -7   92.59    5.70
   7  -1  -7   95.69    5.40
   7  -1  -7   92.79    5.60
  -7   1   7   97.39    6.00
   7   1  -7   94.49    4.80
   7   1  -7  101.99    5.10
  -7   1   7  100.19    5.20
   7   1  -7   95.09    5.80
   7   1  -7   94.59    6.40
  -7   1   7   91.19    4.50
   7   1  -7   83.69    4.80
   7   1  -7   93.89    4.90
   6  -1  -7   29.40    3.60
   6  -1  -7   32.30    3.70
  -6  -1   7   29.40    2.80
   6  -1  -7   27.40    3.50
   6  -1  -7   30.60    3.20
   6  -1  -7   25.80    4.50
   6  -1  -7   35.30    3.20
   6   1  -7   32.00    3.10
  -6   1   7   26.00    3.30
  -6   1   7   34.10    5.10
   6   1  -7   23.90    3.50
   6   1  -7   29.20    2.90
   6   1  -7   27.30    3.00
   6   1  -7   23.40    2.90
  -6   1   7   32.10    3.30
  -6   1   7   28.40    2.90
   6   1  -7   26.00    3.00
   5  -1  -7  174.88    8.50
   5  -1  -7  175.98    9.60
  -5  -1   7  168.58    7.60
   5  -1  -7  170.48    7.80
  -5  -1   7  174.78    7.50
   5  -1  -7  168.38    8.00
   5  -1  -7  173.58    7.90
   5  -1  -7  170.48    8.00
  -5  -1   7  164.78    7.90
  -5   1   7  166.38    7.50
   5   1  -7  169.98    7.60
  -5   1   7  155.58    7.80
  -5   1   7  164.38    8.60
   5   1  -7  166.48    7.60
  -5   1   7  179.98    9.90
  -5   1   7  166.38    7.50
   5   1  -7  165.28    7.70
   5   1  -7  166.18    7.80
   4  -1  -7   47.40    4.00
   4  -1  -7   50.19    3.90
   4  -1  -7   42.20    4.00
  -4  -1   7   59.39    4.70
  -4  -1   7   51.19    4.00
  -4  -1   7   47.10    3.90
   4  -1  -7   52.79    5.10
   4  -1  -7   52.39    4.50
  -4   1   7   48.50    4.20
   4   1  -7   46.10    3.90
   4   1  -7   41.90    3.70
  -4   1   7   47.10    4.60
   4   1  -7   43.90    3.10
   4   1  -7   44.20    3.80
  -4   1   7   43.30    5.60
  -4   1   7   41.30    3.40
  -4   1   7   47.60    3.80
   4   1  -7   43.80    3.90
  -4   1   7   40.10    3.90
  -3  -1   7   68.89    4.70
  -3  -1   7   62.69    5.10
  -3  -1   7   65.39    4.70
  -3  -1   7   61.29    4.20
   3  -1  -7   63.79    4.40
   3  -1  -7   62.39    5.40
   3  -1  -7   66.89    5.10
   3  -1  -7   60.39    4.60
   3  -1  -7   56.39    4.50
   3   1  -7   62.89    4.60
   3   1  -7   54.39    4.30
   3   1  -7   65.29    4.40
  -3   1   7   63.09    6.10
  -3   1   7   56.39    4.60
   3   1  -7   58.39    4.60
   3   1  -7   60.99    3.40
  -3   1   7   65.39    5.30
  -3   1   7   68.49    4.80
  -3   1   7   63.59    4.20
   2  -1  -7   87.39    5.90
   2  -1  -7   89.09    5.60
  -2  -1   7   91.79    5.80
   2  -1  -7   94.69    5.80
   2  -1  -7   88.89    6.40
   2  -1  -7   91.79    5.50
   2  -1  -7   92.79    5.40
  -2  -1   7   87.59    5.30
  -2  -1   7   79.39    6.00
  -2  -1   7   96.59    5.80
   2   1  -7   85.09    5.40
  -2   1   7   79.39    5.10
   2   1  -7   89.69    4.30
   2   1  -7   82.39    5.60
  -2   1   7   85.19    6.90
  -2   1   7   88.69    5.80
  -2   1   7   90.69    5.50
   2   1  -7   83.29    5.60
   2   1  -7   83.59    5.30
  -2   1   7   88.19    5.80
  -2   1   7   87.59    6.10
  -1  -1   7  436.46   17.70
   1  -1  -7  426.56   17.60
   1  -1  -7  462.95   17.20
   1  -1  -7  417.06   17.00
  -1  -1   7  431.56   16.50
  -1  -1   7  457.75   17.60
   1  -1  -7  457.75   17.60
   1  -1  -7  453.85   16.90
  -1  -1   7  491.05   17.20
  -1  -1   7  465.15   17.50
   1   1  -7  424.46   17.30
   1   1  -7  414.06   16.90
  -1   1   7  437.96   18.30
  -1   1   7  432.46   17.20
  -1   1   7  429.56   16.90
   1   1  -7  430.56   17.00
   1   1  -7  456.45   16.10
  -1   1   7  474.05   18.00
  -1   1   7  417.66   17.30
   1   1  -7  470.95   17.60
   0  -1  -7   44.10    4.30
   0  -1   7   36.90    4.00
   0  -1   7   39.50    5.00
   0  -1  -7   46.00    4.70
   0  -1   7   45.70    4.60
   0  -1   7   45.40    4.30
   0  -1   7   46.90    4.90
   0  -1  -7   45.70    3.50
   0  -1  -7   43.50    4.00
   0  -1  -7   43.40    4.20
   0   1  -7   44.10    4.40
   0   1   7   41.70    4.50
   0   1   7   46.60    4.20
   0   1  -7   52.59    4.60
   0   1  -7   45.80    4.50
   0   1  -7   44.00    4.10
   0   1   7   42.00    4.80
   0   1   7   42.80    5.50
   0   1   7   40.90    4.30
   0   1  -7   43.90    3.60
   1  -1   7   23.20    3.60
  -1  -1  -7   23.70    2.70
  -1  -1  -7   18.90    2.90
   1  -1   7   20.00    3.50
  -1  -1  -7   26.30    4.50
   1  -1   7   27.40    3.50
   1  -1   7   26.90    3.80
   1  -1   7   17.00    3.60
  -1  -1  -7   20.40    3.50
  -1  -1  -7   21.20    3.20
   1   1   7   23.60    3.70
  -1   1  -7   20.50    3.10
  -1   1  -7   16.60    2.80
   1   1   7   18.00    3.10
   1   1   7   23.20    3.40
  -1   1  -7   25.50    3.70
  -1   1  -7   20.70    3.30
  -1   1  -7   20.90    3.10
   1   1   7   19.50    4.00
   1   1   7   19.10    3.10
  -2  -1  -7 1066.49   35.20
   2  -1   7  999.20   36.90
   2  -1   7 1065.09   36.90
   2  -1   7 1022.00   36.50
  -2  -1  -7 1027.60   35.90
  -2  -1  -7  989.90   36.50
  -2  -1  -7  998.40   35.80
   2  -1   7 1043.80   36.20
   2  -1   7 1015.10   36.80
  -2   1  -7 1029.20   36.60
   2   1   7 1081.79   37.00
  -2   1  -7  967.90   35.80
   2   1   7 1001.90   36.10
   2   1   7  960.00   35.80
   2   1   7  979.30   36.40
  -2   1  -7  976.20   36.20
  -2   1  -7 1045.10   36.10
  -3  -1  -7    8.60    2.00
  -3  -1  -7    8.80    2.30
   3  -1   7    8.80    3.40
   3  -1   7    5.40    3.10
   3  -1   7   12.10    2.90
  -3  -1  -7   11.80    3.10
   3  -1   7    8.20    2.90
   3  -1   7    6.70    2.90
  -3   1  -7    8.30    2.60
   3   1   7    9.80    3.00
   3   1   7    8.70    2.70
   3   1   7   11.60    3.20
   3   1   7   11.40    2.70
  -3   1  -7    6.90    1.10
  -3   1  -7    7.20    1.10
  -3   1  -7    9.60    2.40
  -3   1  -7    2.70    2.20
   3   1   7   12.10    3.30
   4  -1   7  350.86   15.90
   4  -1   7  356.96   15.60
   4  -1   7  343.27   14.80
  -4  -1  -7  353.76   13.40
   4  -1   7  349.47   15.60
  -4  -1  -7  344.07   15.00
   4  -1   7  352.66   16.50
   4   1   7  359.46   15.60
   4   1   7  332.17   14.70
  -4   1  -7  340.47   14.40
   4   1   7  329.97   15.20
  -4   1  -7  327.57   15.70
  -4   1  -7  333.47   15.10
   4   1   7  348.97   16.00
   4   1   7  334.77   14.80
   5  -1   7   43.10    5.50
  -5  -1  -7   35.00    3.90
  -5  -1  -7   44.50    3.40
  -5  -1  -7   46.20    5.20
   5  -1   7   39.10    4.80
   5  -1   7   44.30    8.10
   5  -1   7   37.30    5.70
   5  -1   7   46.50    6.80
   5   1   7   43.60    5.70
  -5   1  -7   39.30    5.90
   5   1   7   44.40    5.50
   5   1   7   48.20    5.10
   5   1   7   53.39    6.40
   5   1   7   42.80    5.40
  -5   1  -7   35.80    4.90
   6  -1   7  234.28   13.30
  -6  -1  -7  247.38   12.10
   6  -1   7  238.28   14.40
   6  -1   7  237.98   12.80
   6   1   7  240.38   14.10
   6   1   7  247.38   12.80
   6   1   7  255.87   12.90
   6   1   7  246.58   12.30
  -6   1  -7  251.97   12.30
   7  -1   7  155.18   10.90
   7  -1   7  168.28   10.60
   7   1   7  171.88   10.10
  -7   1  -7  142.39    9.20
   7   1   7  169.08   10.30
   8  -1   7    2.00    3.30
   8  -1   7    2.80    3.60
   8   1   7    7.70    3.30
   8   1   7    8.50    3.60
   9  -1   7  109.19   12.00
   9  -1   7   89.69    9.20
   9  -1   7  112.69    9.90
   9   1   7   91.99    8.50
   9   1   7  112.99    8.80
  10  -1   7    0.40    4.30
  10  -1   7    6.50    4.60
  10  -1   7    0.50    7.10
  10   1   7   -0.30    3.50
  12  -2  -7  107.89    7.30
  12  -2  -7   82.79   11.60
  12  -2  -7  106.79    7.50
  12   2  -7  124.09    9.80
  11  -2  -7   15.40    3.50
  11  -2  -7    7.50    5.40
  11  -2  -7   12.70    3.30
  11   2  -7    6.80    4.10
 -11   2   7    3.30    3.60
  11   2  -7   11.70    3.80
  11   2  -7   20.50    5.10
  10  -2  -7  267.27   12.80
  10  -2  -7  277.37   13.10
  10  -2  -7  300.87   15.90
  10  -2  -7  266.07   17.10
 -10   2   7  284.37   14.50
  10   2  -7  268.27   14.00
  10   2  -7  267.87   13.90
  10   2  -7  261.17   14.20
   9  -2  -7  242.58   11.90
   9  -2  -7  242.28   15.70
   9  -2  -7  262.27   12.60
   9  -2  -7  284.07   14.70
   9  -2  -7  254.47   11.50
   9   2  -7  264.07   10.10
   9   2  -7  251.27   10.40
   9   2  -7  264.27   12.90
  -9   2   7  249.97   13.10
   9   2  -7  237.08   13.10
   9   2  -7  254.97   12.80
   9   2  -7  241.78   10.20
   8  -2  -7  131.19    8.50
   8  -2  -7  125.59    7.70
   8  -2  -7  127.79    8.10
   8  -2  -7  138.09    9.30
   8  -2  -7  120.19    6.90
   8  -2  -7  116.09   10.30
  -8   2   7  112.69    6.60
  -8   2   7  111.39    6.10
   8   2  -7  116.49    8.30
   8   2  -7  111.39    6.40
   8   2  -7  114.29    6.10
   8   2  -7  116.49    6.10
  -8   2   7  129.79    8.30
   8   2  -7  114.79    6.00
   7  -2  -7   18.30    3.90
   7  -2  -7   19.40    3.40
  -7  -2   7   20.30    2.80
   7  -2  -7   20.60    3.10
   7  -2  -7   16.80    5.20
   7  -2  -7   19.10    3.20
   7  -2  -7   25.50    4.50
   7   2  -7   20.70    2.90
   7   2  -7   16.60    3.80
  -7   2   7   22.40    2.80
   7   2  -7   21.70    2.80
   7   2  -7   29.70    3.50
  -7   2   7   22.00    4.00
  -7   2   7   20.30    3.20
   7   2  -7   20.00    2.90
  -6  -2   7  418.26   17.10
   6  -2  -7  468.05   18.10
  -6  -2   7  447.76   16.20
   6  -2  -7  427.26   20.40
   6  -2  -7  428.76   17.40
   6  -2  -7  464.15   18.90
   6  -2  -7  425.16   18.30
   6  -2  -7  442.36   17.90
  -6   2   7  467.25   17.00
  -6   2   7  442.16   17.60
   6   2  -7  457.85   17.20
   6   2  -7  453.55   17.10
   6   2  -7  444.56   17.10
  -6   2   7  443.16   18.30
   6   2  -7  436.36   16.80
   6   2  -7  438.06   18.60
   5  -2  -7  707.43   26.20
  -5  -2   7  712.13   25.20
   5  -2  -7  702.23   26.70
   5  -2  -7  679.53   28.40
  -5  -2   7  684.63   25.90
   5  -2  -7  716.83   25.90
   5  -2  -7  676.23   26.60
   5  -2  -7  709.03   26.30
  -5   2   7  679.13   26.40
   5   2  -7  709.83   25.30
   5   2  -7  705.23   25.60
  -5   2   7  696.03   26.00
  -5   2   7  736.83   25.50
   5   2  -7  693.73   25.50
   5   2  -7  718.33   25.70
   5   2  -7  699.83   26.70
  -4  -2   7  358.76   15.80
  -4  -2   7  371.16   15.20
   4  -2  -7  383.16   16.40
   4  -2  -7  413.36   16.00
   4  -2  -7  417.46   16.10
   4  -2  -7  374.56   15.30
   4  -2  -7  366.26   17.50
   4   2  -7  366.66   15.50
   4   2  -7  367.96   15.90
  -4   2   7  357.26   15.90
   4   2  -7  404.36   15.70
  -4   2   7  372.86   15.60
   4   2  -7  375.06   15.00
   4   2  -7  381.66   15.30
   4   2  -7  393.86   15.50
   3  -2  -7  669.13   24.50
   3  -2  -7  597.54   24.60
  -3  -2   7  653.63   24.80
  -3  -2   7  640.34   24.10
   3  -2  -7  635.34   23.90
   3  -2  -7  604.04   25.60
   3  -2  -7  622.84   24.10
  -3   2   7  616.44   24.50
   3   2  -7  655.13   24.00
   3   2  -7  656.23   24.20
   3   2  -7  641.34   24.10
   3   2  -7  659.63   24.30
   3   2  -7  630.44   23.80
  -3   2   7  670.43   23.90
   3   2  -7  638.54   23.60
  -3   2   7  645.94   24.30
  -3   2   7  682.13   24.70
   2  -2  -7   93.49    6.20
  -2  -2   7   91.09    6.40
   2  -2  -7   87.09    6.30
  -2  -2   7   95.79    7.20
   2  -2  -7   88.29    5.80
   2  -2  -7  105.19    7.80
   2  -2  -7   81.59    6.70
  -2   2   7   99.49    6.10
  -2   2   7   90.69    6.60
   2   2  -7   96.59    6.00
   2   2  -7   85.09    6.30
  -2   2   7   86.09    6.40
   2   2  -7   95.09    6.20
   2   2  -7   90.89    5.80
   2   2  -7   86.59    6.20
   2   2  -7   90.79    6.00
  -2   2   7   80.49    6.60
  -1  -2   7  481.05   19.40
   1  -2  -7  492.25   19.00
  -1  -2   7  502.95   19.50
   1  -2  -7  489.15   19.60
  -1  -2   7  481.35   20.00
   1  -2  -7  487.35   20.40
   1  -2  -7  519.75   19.00
  -1  -2   7  473.85   17.40
   1   2  -7  460.55   19.20
  -1   2   7  496.05   19.30
   1   2  -7  474.25   18.30
  -1   2   7  466.25   19.20
   1   2  -7  475.25   19.30
   1   2  -7  484.65   18.70
   1   2  -7  462.75   18.70
   1   2  -7  465.95   18.90
  -1   2   7  473.45   18.70
   0  -2  -7  299.07   13.60
   0  -2  -7  307.37   12.80
   0  -2   7  281.77   13.40
   0  -2  -7  294.07   12.90
   0  -2   7  288.47   12.20
   0  -2   7  290.27   14.10
   0  -2   7  286.77   13.50
   0   2  -7  289.87   12.80
   0   2   7  298.97   12.80
   0   2  -7  284.77   13.30
   0   2   7  293.77   13.30
   0   2  -7  271.07   12.60
   0   2  -7  298.57   12.90
   0   2  -7  280.17   11.70
   0   2   7  307.77   13.30
   1  -2   7  377.96   16.50
   1  -2   7  391.86   15.90
   1  -2   7  372.36   17.10
   1  -2   7  374.56   16.80
  -1  -2  -7  405.86   15.70
   1  -2   7  359.36   15.70
  -1  -2  -7  367.56   15.70
  -1  -2  -7  356.36   16.20
  -1   2  -7  371.36   15.90
   1   2   7  412.56   16.30
  -1   2  -7  367.86   15.90
  -1   2  -7  357.96   16.10
  -1   2  -7  396.06   15.80
   1   2   7  390.26   15.60
   1   2   7  374.76   15.60
   1   2   7  360.36   16.00
  -1   2  -7  379.16   14.40
   2  -2   7   38.40    5.50
   2  -2   7   26.90    3.80
   2  -2   7   34.50    5.10
  -2  -2  -7   38.50    4.40
  -2  -2  -7   33.90    4.60
   2  -2   7   40.80    5.40
   2  -2   7   41.40    5.80
  -2   2  -7   37.40    4.90
  -2   2  -7   39.80    4.50
  -2   2  -7   37.60    2.90
   2   2   7   42.20    5.10
   2   2   7   30.30    4.00
  -2   2  -7   41.70    4.70
  -2   2  -7   42.30    4.90
   2   2   7   35.30    4.60
   2   2   7   33.20    3.90
   3  -2   7  180.68   11.50
   3  -2   7  208.38   10.30
  -3  -2  -7  191.88   10.50
  -3  -2  -7  197.28    9.80
   3  -2   7  182.38   11.40
   3  -2   7  191.48   11.20
   3  -2   7  181.18   11.20
   3   2   7  180.98   10.10
   3   2   7  184.28    9.90
   3   2   7  204.68    9.60
  -3   2  -7  178.78   10.40
   3   2   7  196.88   10.60
   3   2   7  223.68   16.30
  -3   2  -7  186.48    9.80
  -3   2  -7  184.48   10.40
  -3   2  -7  192.18    7.50
   4  -2   7   34.90    5.90
   4  -2   7   31.00    4.60
   4  -2   7   28.50    5.10
  -4  -2  -7   30.90    4.50
   4  -2   7   28.20    5.60
   4  -2   7   34.40    5.40
  -4   2  -7   27.30    4.20
   4   2   7   33.60    4.60
  -4   2  -7   29.70    4.90
   4   2   7   30.70    4.70
   4   2   7   37.80    4.40
   4   2   7   29.30    4.20
  -4   2  -7   40.50    4.70
   4   2   7   39.90    6.20
   5  -2   7  223.68   14.30
   5  -2   7  238.58   13.20
  -5  -2  -7  255.97   12.40
   5  -2   7  221.68   14.20
   5  -2   7  231.68   13.50
  -5   2  -7  226.98   12.20
   5   2   7  268.97   14.40
   5   2   7  242.68   11.00
   5   2   7  232.38   11.90
  -5   2  -7  217.88   12.80
   5   2   7  238.38   12.60
   6  -2   7    6.10    3.90
   6  -2   7    4.80    3.90
  -6  -2  -7    7.50    2.90
   6  -2   7    8.00    4.80
  -6   2  -7    7.60    3.10
   6   2   7    1.40    3.20
   6   2   7   11.60    3.00
   6   2   7    7.00    3.20
  -6   2  -7    4.00    3.40
   7  -2   7   76.79    8.50
   7  -2   7   79.59   10.20
   7  -2   7   85.29    9.30
   7   2   7   81.59    7.80
   7   2   7   91.49    6.20
   7   2   7   78.29    7.30
  -7   2  -7   75.39    6.90
   8  -2   7   81.09    9.80
   8  -2   7   72.29    8.70
   8  -2   7   74.09   10.60
   8   2   7   76.59    7.90
   8   2   7  101.59    8.20
   9  -2   7    7.40    4.40
   9  -2   7    2.30    5.40
   9  -2   7    4.40    4.80
   9   2   7    6.00    3.70
   9   2   7   15.30    4.60
  11  -3  -7    4.10    3.20
  11  -3  -7    0.80    3.30
  11  -3  -7   -4.60    4.80
  11   3  -7   -4.20    3.80
  11   3  -7    0.60    1.70
  10  -3  -7    1.60    3.30
  10  -3  -7    8.50    5.90
  10  -3  -7    6.30    3.40
  10   3  -7    1.30    3.60
  10   3  -7    5.80    2.00
  10   3  -7    5.40    2.30
   9  -3  -7    4.50    5.40
   9  -3  -7    4.40    4.10
   9  -3  -7    1.90    2.90
   9  -3  -7    3.40    3.50
   9   3  -7    0.40    2.00
   9   3  -7    8.00    4.10
   9   3  -7    5.20    2.30
  -9   3   7    4.60    3.90
   8  -3  -7  225.28   15.60
   8  -3  -7  238.28   12.50
   8  -3  -7  228.58   14.10
   8  -3  -7  227.58   13.00
   8   3  -7  227.58   10.80
   8   3  -7  226.78   10.60
  -8   3   7  235.38   13.30
   8   3  -7  217.68   11.00
   8   3  -7  233.08   13.00
   7  -3  -7  135.99   10.30
   7  -3  -7  136.59    9.10
   7  -3  -7  118.69   11.40
   7  -3  -7  118.59    9.50
   7   3  -7  135.59    7.60
   7   3  -7  136.59    8.10
  -7   3   7  128.59    9.60
   7   3  -7  134.29    9.40
   7   3  -7  132.69    7.90
  -7   3   7  125.19    8.20
  -6  -3   7   80.89    6.50
   6  -3  -7   79.29    6.40
   6  -3  -7   67.39    6.90
   6  -3  -7   71.89    7.70
  -6  -3   7   91.59    7.20
   6  -3  -7   88.39    8.00
   6  -3  -7   85.69    9.80
   6   3  -7   73.29    6.00
  -6   3   7   70.99    6.30
   6   3  -7   71.99    7.40
  -6   3   7   84.39    7.80
   6   3  -7   71.29    6.00
   6   3  -7   71.09    6.70
   6   3  -7   70.09    5.60
   6   3  -7   86.29    7.30
   6   3  -7   76.99    6.30
   5  -3  -7   96.59    8.40
   5  -3  -7  105.99   10.00
   5  -3  -7   99.19    7.60
  -5  -3   7  104.59    7.80
  -5  -3   7   99.39    7.70
   5  -3  -7  125.09    7.40
  -5  -3   7  100.79    6.70
   5   3  -7   81.99    7.10
  -5   3   7  102.29    8.60
   5   3  -7  100.09    6.60
   5   3  -7  106.59    7.60
   5   3  -7   94.89    7.00
   5   3  -7   92.29    6.90
   5   3  -7   91.89    8.00
  -5   3   7   93.99    7.30
   4  -3  -7   64.39    6.40
   4  -3  -7   67.19    8.50
  -4  -3   7   57.69    5.70
  -4  -3   7   48.90    5.60
  -4  -3   7   70.29    7.10
   4  -3  -7   69.79    5.70
   4  -3  -7   65.99    7.20
   4   3  -7   68.99    6.10
  -4   3   7   62.19    6.00
   4   3  -7   81.09    5.90
  -4   3   7   68.49    7.40
   4   3  -7   62.59    6.70
  -4   3   7   64.99    5.50
   4   3  -7   64.59    5.90
   4   3  -7   66.09    6.00
   4   3  -7   76.59    6.50
  -3  -3   7   53.79    6.50
   3  -3  -7   56.69    7.90
   3  -3  -7   63.69    5.50
   3  -3  -7   58.89    6.20
   3  -3  -7   54.19    6.60
  -3  -3   7   56.79    5.50
   3   3  -7   58.39    6.20
   3   3  -7   64.79    5.80
  -3   3   7   56.39    5.80
  -3   3   7   48.20    6.80
   3   3  -7   56.29    5.80
   3   3  -7   52.09    5.30
  -3   3   7   64.19    5.40
   3   3  -7   57.19    4.10
   3   3  -7   51.59    6.20
   3   3  -7   67.19    6.10
   2  -3  -7  348.77   15.60
   2  -3  -7  348.27   15.10
  -2  -3   7  350.46   16.80
   2  -3  -7  346.17   16.40
  -2  -3   7  312.07   13.50
  -2  -3   7  344.17   15.80
   2  -3  -7  306.17   17.00
   2   3  -7  348.47   13.30
   2   3  -7  337.77   15.30
   2   3  -7  375.76   15.30
   2   3  -7  344.57   15.00
  -2   3   7  339.37   17.00
  -2   3   7  366.46   15.80
   2   3  -7  353.86   15.60
  -2   3   7  354.26   15.00
   2   3  -7  341.27   15.80
  -1  -3   7  617.84   24.70
   1  -3  -7  577.64   25.90
   1  -3  -7  606.64   24.90
  -1  -3   7  595.44   22.90
   1  -3  -7  616.44   23.70
   1  -3  -7  636.04   24.30
  -1  -3   7  612.24   25.60
  -1   3   7  573.64   24.10
  -1   3   7  624.34   23.70
  -1   3   7  611.04   25.70
   1   3  -7  644.54   24.30
  -1   3   7  569.94   23.70
  -1   3   7  653.33   24.80
   1   3  -7  621.64   23.80
   1   3  -7  580.44   24.10
   1   3  -7  585.94   24.40
   1   3  -7  622.44   23.30
   0  -3  -7  949.11   34.30
   0  -3   7  937.91   36.00
   0  -3  -7  880.91   34.90
   0  -3   7  891.51   33.60
   0  -3   7  934.11   35.10
   0  -3   7  907.11   35.90
   0   3   7  964.20   34.90
   0   3   7  855.01   33.80
   0   3  -7  953.70   34.20
   0   3   7  935.81   34.70
   0   3  -7  912.71   34.40
   0   3  -7  936.91   33.20
   0   3  -7  928.71   34.80
   0   3   7  942.61   34.00
   0   3  -7  929.41   35.00
  -1  -3  -7   50.69    6.30
   1  -3   7   43.30    6.50
   1  -3   7   58.19    6.80
   1  -3   7   44.30    6.20
   1  -3   7   53.19    5.90
   1  -3   7   57.79    7.70
  -1  -3  -7   51.39    5.50
  -1   3  -7   57.59    6.20
   1   3   7   65.49    6.50
  -1   3  -7   59.29    5.70
   1   3   7   46.80    6.00
   1   3   7   47.00    5.50
  -1   3  -7   53.29    6.20
  -1   3  -7   51.39    4.20
   1   3   7   47.50    5.70
  -1   3  -7   52.69    6.20
   2  -3   7  122.29    8.10
   2  -3   7  131.09   10.40
  -2  -3  -7  117.29    8.90
   2  -3   7  133.79    9.60
  -2  -3  -7  112.39    7.80
   2  -3   7  128.19    9.40
   2  -3   7  109.59    9.80
   2   3   7  109.69    8.50
   2   3   7  126.79    8.20
   2   3   7  110.99    7.90
  -2   3  -7  121.59    6.50
  -2   3  -7  106.09    8.30
   2   3   7  112.59    8.60
  -2   3  -7  121.49    8.00
  -2   3  -7  123.09    8.80
   3  -3   7  100.49    9.00
   3  -3   7   97.19    9.00
   3  -3   7  113.59    9.90
   3  -3   7   83.09    9.60
   3  -3   7  101.29    7.60
  -3  -3  -7  115.29    8.60
   3   3   7   93.49    7.40
  -3   3  -7   87.79    8.10
   3   3   7  104.49    7.70
   3   3   7   98.29    8.00
  -3   3  -7   95.09    5.40
  -3   3  -7  104.09    7.50
  -3   3  -7  108.89    8.30
   4  -3   7  177.88   12.90
  -4  -3  -7  191.08   11.40
   4  -3   7  199.78   12.60
   4  -3   7  187.48   13.10
   4   3   7  192.38   11.50
   4   3   7  194.38   10.70
  -4   3  -7  190.98   11.60
   4   3   7  196.48   11.00
  -4   3  -7  203.98    9.80
  -4   3  -7  193.88   12.10
  -5  -3  -7    1.50    2.80
   5  -3   7   15.60    5.10
   5  -3   7    2.70    4.50
   5  -3   7    8.10    4.40
   5   3   7    9.20    3.90
  -5   3  -7   10.10    3.80
   5   3   7    7.80    3.30
   5   3   7    7.00    3.40
   6  -3   7   60.69    9.80
   6  -3   7   70.59    9.30
   6  -3   7   73.79    9.10
   6   3   7   76.49    6.70
   6   3   7   65.69    7.40
  -6   3  -7   70.99    7.70
   6   3   7   77.49    7.40
   7  -3   7  114.69   11.60
   7  -3   7  103.19   12.10
   7  -3   7  130.09   11.40
   7   3   7  136.89    9.00
   7   3   7  123.49    9.80
   7   3   7  128.09    9.40
   8  -3   7   32.10    8.70
   8  -3   7   35.30    7.60
   8  -3   7   36.40    7.00
   8   3   7   37.00    6.10
   8   3   7   33.70    5.70
  10  -4  -7   81.19   16.70
  10  -4  -7   91.89   10.10
  10  -4  -7   99.99    9.50
  10   4  -7   75.99    6.60
   9  -4  -7   71.79    9.30
   9  -4  -7   74.39    8.50
   9  -4  -7   65.19   11.10
   9   4  -7   80.19    8.60
   9   4  -7   73.49    6.60
   9   4  -7   75.59    6.50
   8  -4  -7   83.29   12.20
   8  -4  -7   74.89    9.40
   8  -4  -7   74.59    8.10
   8   4  -7   64.49    8.20
   8   4  -7   73.59    6.90
   8   4  -7   62.29    6.20
   7  -4  -7    1.40    5.20
   7  -4  -7   -2.40    3.20
   7  -4  -7    4.80    4.50
   7   4  -7    3.50    3.00
   7   4  -7   -0.60    2.80
   7   4  -7    6.30    4.30
   7   4  -7    5.60    4.30
  -7   4   7    7.90    4.00
   6  -4  -7   79.19   10.70
   6  -4  -7   92.19    9.50
   6  -4  -7   85.89    8.40
   6   4  -7   97.49    9.80
   6   4  -7   84.19    7.90
   6   4  -7   88.89    7.50
  -6   4   7   89.69    8.00
  -6   4   7   80.49    9.40
   6   4  -7   87.79    7.10
   5  -4  -7   30.70    7.20
   5  -4  -7   21.60    5.70
  -5  -4   7   34.90    9.10
   5  -4  -7   29.30    5.40
   5   4  -7   36.60    6.80
  -5   4   7   33.70    7.20
   5   4  -7   38.00    5.90
   5   4  -7   33.30    4.90
  -5   4   7   27.90    5.20
   5   4  -7   40.80    5.70
  -4  -4   7   58.19    7.60
   4  -4  -7   64.79    7.20
   4  -4  -7   50.89    8.70
   4  -4  -7   67.19    8.40
   4   4  -7   66.19    6.90
  -4   4   7   71.29    7.40
  -4   4   7   54.19    8.30
   4   4  -7   57.99    8.00
   4   4  -7   62.99    6.30
   4   4  -7   58.69    6.70
  -3  -4   7   64.29    8.00
   3  -4  -7   45.90    6.20
  -3  -4   7   46.40    6.90
   3  -4  -7   60.79    8.10
   3  -4  -7   49.60    8.50
   3   4  -7   51.19    6.40
  -3   4   7   55.39    8.40
   3   4  -7   52.59    6.00
   3   4  -7   50.89    6.50
  -3   4   7   62.99    7.10
  -3   4   7   55.19    6.30
   3   4  -7   46.50    7.40
   2  -4  -7   41.90    6.00
   2  -4  -7   50.89    8.30
   2  -4  -7   50.09    7.50
  -2  -4   7   55.39    7.70
  -2  -4   7   45.70    5.80
  -2  -4   7   43.70    7.20
  -2   4   7   53.79    6.80
   2   4  -7   41.30    6.70
  -2   4   7   46.40    6.40
  -2   4   7   45.80    7.90
   2   4  -7   37.80    5.20
  -2   4   7   49.90    6.10
   2   4  -7   42.80    5.30
   2   4  -7   57.29    6.60
   1  -4  -7  120.79   11.40
  -1  -4   7  119.99    9.60
  -1  -4   7  122.49   11.10
   1  -4  -7  118.09    9.10
   1  -4  -7  129.69   10.50
  -1   4   7  113.29    9.20
  -1   4   7  148.29    9.20
   1   4  -7  132.59   10.50
  -1   4   7  133.39    9.30
   1   4  -7  129.19    8.40
   1   4  -7  140.49    9.10
   1   4  -7  128.09    9.60
  -1   4   7  129.29   11.50
   0  -4  -7  240.78   13.50
   0  -4   7  264.77   16.00
   0  -4  -7  274.77   15.10
   0  -4   7  277.47   14.50
   0  -4   7  274.57   15.10
   0   4   7  244.98   15.90
   0   4   7  245.78   13.80
   0   4  -7  260.27   14.80
   0   4   7  268.97   13.40
   0   4  -7  252.27   12.50
   0   4  -7  255.17   13.30
   0   4   7  238.08   13.20
   0   4  -7  249.97   14.10
   1  -4   7  468.95   24.90
  -1  -4  -7  432.56   20.50
   1  -4   7  424.16   20.50
   1  -4   7  412.66   19.80
   1  -4   7  425.26   21.80
   1   4   7  438.06   19.00
  -1   4  -7  425.16   19.00
  -1   4  -7  408.56   17.60
  -1   4  -7  408.66   20.40
   1   4   7  397.66   18.90
  -1   4  -7  447.36   20.20
   1   4   7  441.26   20.00
  -2  -4  -7   15.40    4.70
   2  -4   7   18.80    5.80
   2  -4   7   17.60    5.10
   2  -4   7   25.30    6.70
  -2   4  -7   18.20    3.50
   2   4   7   19.40    4.40
  -2   4  -7   14.50    3.60
   2   4   7   24.40    5.20
  -2   4  -7   17.20    5.00
   2   4   7   22.00    5.20
  -2   4  -7   19.50    5.20
  -3  -4  -7  135.29   10.50
   3  -4   7  135.89   11.40
   3  -4   7  126.09   11.10
   3  -4   7  149.79   12.60
  -3   4  -7  133.99   10.50
   3   4   7  123.39    9.50
  -3   4  -7  129.49    7.30
   3   4   7  116.19    9.90
   3   4   7  106.69    9.00
   4  -4   7  141.69   12.80
   4  -4   7  106.69   11.80
   4  -4   7  147.59   12.00
  -4  -4  -7  133.29   10.40
  -4   4  -7  135.09   10.80
   4   4   7  139.39    9.90
   4   4   7  132.39    9.80
   4   4   7  146.49   11.00
   5  -4   7   59.69    9.90
   5  -4   7   56.79    9.80
   5  -4   7   39.10    7.70
   5   4   7   59.19    7.80
  -5   4  -7   52.89    7.80
   5   4   7   57.29    7.30
   5   4   7   56.79    7.20
   6  -4   7   17.90    6.10
   6  -4   7   41.80    9.10
   6  -4   7   17.80    6.90
   6   4   7   33.10    6.20
  -6   4  -7   34.80    7.00
   6   4   7   38.10    6.20
   6   4   7   28.90    5.30
   7  -5  -7   49.90    7.80
   7  -5  -7   70.59   17.20
   7  -5  -7   53.19   14.10
   7   5  -7   64.49    7.30
   7   5  -7   44.00    6.60
   6  -5  -7   50.09   10.30
   6  -5  -7   31.10    7.40
   6  -5  -7   54.39    8.20
   6   5  -7   49.40    7.10
   6   5  -7   61.19    7.70
   6   5  -7   46.40    6.30
  -6   5   7   55.29    8.30
   5  -5  -7   -2.20    4.50
   5  -5  -7   -0.90    5.90
   5  -5  -7   -1.00    3.60
   5   5  -7    5.80    4.00
   5   5  -7   -0.60    3.20
  -5   5   7    5.00    4.10
   5   5  -7    5.30    4.00
   4  -5  -7   39.40    6.50
   4  -5  -7   31.20    8.60
   4  -5  -7   41.90    7.90
   4   5  -7   30.10    5.70
   4   5  -7   40.20    6.60
   4   5  -7   38.10    6.10
  -4   5   7   29.80    6.40
   3  -5  -7   11.30    5.50
   3  -5  -7   11.60    5.40
  -3  -5   7    4.50    4.90
   3  -5  -7    4.20    5.90
   3   5  -7    8.90    4.10
   3   5  -7   15.10    4.60
  -3   5   7    5.40    4.10
   3   5  -7   19.80    5.20
  -3   5   7   13.30    5.10
   2  -5  -7   16.30    6.40
   2  -5  -7   20.50    6.40
  -2  -5   7   12.30    6.00
   2   5  -7    7.20    4.20
  -2   5   7    7.50    4.80
  -2   5   7   11.00    4.90
   2   5  -7   11.00    4.30
   2   5  -7   11.10    4.10
  -1  -5   7   20.20    6.70
   1  -5  -7    7.60    5.30
   1  -5  -7   12.70    5.60
   1   5  -7   15.70    5.10
  -1   5   7   22.40    5.90
  -1   5   7   14.70    4.70
   1   5  -7    9.60    4.50
   1   5  -7    3.40    3.50
   0  -5   7  196.28   15.30
   0  -5  -7  192.48   13.90
   0   5   7  169.38   12.40
   0   5  -7  193.58   13.20
   0   5   7  164.58   11.70
   0   5  -7  173.78   10.90
   0   5  -7  198.48   12.30
  -1  -5  -7   58.29    8.50
   1  -5   7   66.49   10.20
   1  -5   7   34.60    8.00
  -1   5  -7   53.89    8.00
   1   5   7   53.59    7.00
   1   5   7   69.49    8.70
  -1   5  -7   54.69    6.40
   1   5   7   50.89    7.60
   2  -5   7   93.99   11.80
   2  -5   7   85.59   11.60
  -2  -5  -7   76.09    9.80
   2  -5   7   91.89   11.40
  -2   5  -7   70.09    9.20
  -2   5  -7   69.59    6.60
   2   5   7   79.69    9.40
   2   5   7   84.49    8.70
   3  -5   7   28.10    7.70
  -3  -5  -7   30.70    7.00
   3  -5   7   41.50    9.40
   3  -5   7   31.70    8.40
   3   5   7   35.00    7.00
   3   5   7   29.00    6.50
  -3   5  -7   31.40    6.50
   3   5   7   36.90    6.40
   4  -5   7  161.58   14.70
   4  -5   7  130.99   14.70
   4  -5   7  160.68   15.20
  -4   5  -7  147.19   12.50
   4   5   7  159.58   11.90
   4   5   7  154.68   11.70
  13   0  -8   15.60    5.90
  12   0  -8   64.79    8.70
  11   0  -8   26.10    6.10
  11   0  -8   11.80    3.80
  10   0  -8    8.90    4.00
  10   0  -8    6.40    1.50
  10   0  -8    7.90    3.10
   9   0  -8   94.49    6.60
   9   0  -8   93.99    4.80
   9   0  -8   99.49    8.20
   9   0  -8   97.89    4.90
   9   0  -8   93.49    5.10
   9   0  -8   89.99    5.00
   8   0  -8  139.79    6.60
   8   0  -8  150.58    7.00
   8   0  -8  141.09    6.60
   8   0  -8  148.39    9.20
   8   0  -8  141.79    6.70
   8   0  -8  141.49    7.70
   7   0  -8 1119.09   40.20
   7   0  -8 1171.28   40.50
  -7   0   8 1166.88   40.20
   7   0  -8 1202.28   40.20
   7   0  -8 1182.28   40.30
   7   0  -8 1233.88   42.50
   7   0  -8 1203.78   40.60
  -6   0   8    5.90    1.70
   6   0  -8    1.50    1.40
   6   0  -8    6.00    1.70
   6   0  -8    1.60    1.60
   6   0  -8    3.00    2.20
  -6   0   8    4.50    1.90
  -6   0   8    4.60    1.90
   6   0  -8    3.30    1.50
   6   0  -8    5.30    2.00
   5   0  -8  204.78    8.90
   5   0  -8  191.48    8.90
   5   0  -8  213.28    9.30
  -5   0   8  193.08    9.20
   5   0  -8  189.68    9.20
  -5   0   8  206.68    9.20
  -5   0   8  214.58    8.80
   5   0  -8  203.98    9.40
  -5   0   8  220.78    9.50
  -4   0   8   28.60    3.40
  -4   0   8   30.10    3.80
   4   0  -8   28.00    3.20
  -4   0   8   31.90    3.80
   4   0  -8   30.40    3.40
  -4   0   8   26.90    3.40
   4   0  -8   29.20    3.40
   4   0  -8   37.90    3.40
   4   0  -8   33.90    3.90
  -3   0   8  366.46   14.60
  -3   0   8  347.37   13.80
  -3   0   8  358.56   13.80
  -3   0   8  359.96   14.40
   3   0  -8  353.86   14.30
   3   0  -8  333.57   13.90
   3   0  -8  336.17   13.80
   3   0  -8  328.17   14.20
  -2   0   8  162.08    8.70
   2   0  -8  174.18    8.60
  -2   0   8  178.18    8.30
   2   0  -8  174.38    8.30
  -2   0   8  176.48    8.90
  -2   0   8  170.08    8.30
   2   0  -8  169.08    8.20
   2   0  -8  157.98    8.50
  -2   0   8  169.08    8.60
  -1   0   8  280.67   12.10
  -1   0   8  260.77   11.90
  -1   0   8  236.48   11.10
   1   0  -8  281.87   11.90
  -1   0   8  249.78    9.90
  -1   0   8  262.37   11.50
   1   0  -8  263.37   11.30
   1   0  -8  249.48   11.20
   1   0  -8  238.78   11.50
  -1   0   8  269.97   11.40
   0   0  -8  137.09    7.40
   0   0   8  143.09    8.00
   0   0  -8  123.59    7.10
   0   0   8  129.19    6.60
   0   0  -8  136.69    7.80
   0   0   8  127.39    7.40
   0   0   8  129.59    7.90
   0   0   8  130.99    7.40
   0   0  -8  143.89    7.80
   1   0   8 2034.50   72.19
   1   0   8 2188.38   72.59
   1   0   8 2119.59   71.39
  -1   0  -8 2239.88   70.59
   1   0   8 2141.59   71.89
   1   0   8 2076.49   71.79
  -1   0  -8 2144.19   71.69
  -1   0  -8 2077.99   71.59
  -1   0  -8 2077.69   72.19
   2   0   8 1586.24   57.19
   2   0   8 1624.44   56.79
   2   0   8 1634.24   56.79
   2   0   8 1683.93   56.89
  -2   0  -8 1736.23   56.79
  -2   0  -8 1626.04   57.09
  -2   0  -8 1625.84   56.49
  -2   0  -8 1699.33   54.99
   2   0   8 1626.14   57.79
   3   0   8   12.30    3.30
  -3   0  -8   12.60    1.80
   3   0   8    8.00    3.00
   3   0   8   10.60    3.20
  -3   0  -8    9.60    2.50
  -3   0  -8    8.80    2.70
   3   0   8   11.30    2.90
   4   0   8 1291.47   48.10
   4   0   8 1337.07   48.70
   4   0   8 1387.76   47.90
  -4   0  -8 1330.37   47.80
  -4   0  -8 1352.06   44.70
   4   0   8 1343.97   47.70
  -4   0  -8 1393.06   47.20
   5   0   8   37.90    5.60
   5   0   8   32.70    4.60
   5   0   8   30.80    4.80
  -5   0  -8   32.70    4.60
   5   0   8   45.70    6.40
  -6   0  -8   96.59    7.30
   6   0   8   95.29    7.90
   6   0   8   90.89    8.20
   7   0   8   11.40    4.00
   7   0   8   15.70    4.50
   8   0   8   33.00    5.50
   8   0   8   44.80    6.50
   9   0   8   -0.60    3.50
   9   0   8   -3.80    3.10
  13  -1  -8   90.39   11.10
  13   1  -8   79.39    8.40
  12  -1  -8   82.49   10.10
  12  -1  -8   74.59    5.20
  12   1  -8   77.49    9.00
  12   1  -8   71.79    7.70
  11  -1  -8   31.40    3.70
  11  -1  -8   18.60    6.10
  11  -1  -8   25.40    5.20
  11  -1  -8   20.90    2.90
  11  -1  -8   22.00    3.00
  11   1  -8   21.20    6.20
  11   1  -8   20.00    4.60
  11   1  -8   17.70    5.20
  10  -1  -8    7.40    2.40
  10  -1  -8   12.50    2.60
  10  -1  -8   14.70    5.50
  10  -1  -8    5.20    3.20
  10  -1  -8    7.00    1.90
  10   1  -8   13.70    3.60
  10   1  -8   15.20    4.50
   9  -1  -8   96.79    6.00
   9  -1  -8   98.49    7.40
   9  -1  -8   93.39    5.90
   9  -1  -8   98.49    9.10
   9  -1  -8   88.99    5.50
   9   1  -8   98.19    4.70
   9   1  -8   93.99    5.00
   9   1  -8   98.09    7.70
   9   1  -8   99.09    4.80
   9   1  -8  101.59    6.80
   9   1  -8   90.99    5.00
   8  -1  -8  458.25   18.30
   8  -1  -8  416.66   16.70
   8  -1  -8  425.16   17.10
   8  -1  -8  442.56   16.90
   8  -1  -8  422.26   16.60
   8  -1  -8  441.26   20.10
   8   1  -8  456.25   17.30
   8   1  -8  445.46   16.10
  -8   1   8  450.45   17.50
   8   1  -8  416.66   16.00
   8   1  -8  441.16   18.10
   8   1  -8  439.86   16.10
   8   1  -8  418.36   15.90
   7  -1  -8   33.50    3.80
   7  -1  -8   26.20    3.30
   7  -1  -8   39.20    4.20
   7  -1  -8   35.50    4.10
   7  -1  -8   35.70    5.40
   7  -1  -8   37.30    3.70
  -7  -1   8   31.00    3.00
  -7  -1   8   35.20    3.30
  -7   1   8   36.10    3.80
   7   1  -8   36.90    3.40
   7   1  -8   44.00    3.60
  -7   1   8   40.70    3.20
   7   1  -8   34.30    3.30
   7   1  -8   37.70    3.60
   7   1  -8   35.30    4.30
  -7   1   8   36.00    3.60
   7   1  -8   43.00    3.60
   6  -1  -8  319.57   13.30
  -6  -1   8  313.87   11.80
   6  -1  -8  306.57   12.80
   6  -1  -8  311.17   12.60
  -6  -1   8  320.77   12.50
   6  -1  -8  311.47   12.80
  -6  -1   8  309.57   12.50
   6  -1  -8  313.97   12.70
   6  -1  -8  327.47   14.90
  -6   1   8  322.57   14.90
   6   1  -8  298.97   12.30
   6   1  -8  297.17   12.30
   6   1  -8  316.47   12.50
  -6   1   8  281.17   12.50
  -6   1   8  295.97   12.10
   6   1  -8  310.17   12.60
  -6   1   8  322.27   12.20
   6   1  -8  300.27   12.20
   6   1  -8  305.37   11.80
   5  -1  -8   22.00    4.10
   5  -1  -8   18.10    3.10
   5  -1  -8   19.30    3.00
  -5  -1   8   25.50    3.40
   5  -1  -8   18.20    2.70
  -5  -1   8   21.30    2.80
   5  -1  -8   16.30    2.90
  -5   1   8   17.30    2.70
   5   1  -8   18.30    2.20
   5   1  -8   23.40    3.10
  -5   1   8   17.20    2.90
  -5   1   8   19.70    4.20
   5   1  -8   19.20    2.70
   5   1  -8   19.40    2.70
   5   1  -8   21.30    3.00
  -5   1   8   18.80    2.50
   5   1  -8   17.90    2.00
   4  -1  -8  436.86   17.00
  -4  -1   8  431.56   16.50
   4  -1  -8  427.76   17.80
   4  -1  -8  421.36   16.70
   4  -1  -8  423.46   16.50
   4  -1  -8  419.76   17.10
  -4  -1   8  426.66   17.00
   4   1  -8  416.06   16.40
  -4   1   8  428.66   16.80
  -4   1   8  423.66   15.50
   4   1  -8  438.86   16.50
   4   1  -8  436.96   16.80
  -4   1   8  445.86   18.40
  -4   1   8  438.66   16.40
   4   1  -8  400.96   16.70
   3  -1  -8  335.87   14.00
   3  -1  -8  328.07   14.60
   3  -1  -8  338.77   13.80
  -3  -1   8  348.87   14.50
   3  -1  -8  336.47   14.20
  -3  -1   8  344.47   13.90
   3  -1  -8  337.07   14.40
   3   1  -8  346.77   14.10
   3   1  -8  348.07   14.20
  -3   1   8  314.67   12.80
  -3   1   8  341.37   13.70
  -3   1   8  370.36   14.20
   3   1  -8  348.07   13.80
  -3   1   8  361.16   15.50
  -3   1   8  321.07   14.00
   3   1  -8  325.27   13.70
   2  -1  -8  123.69    6.80
   2  -1  -8  124.49    7.40
   2  -1  -8  121.09    6.90
   2  -1  -8  104.79    7.00
   2  -1  -8  122.39    7.10
   2  -1  -8  105.19    6.50
  -2  -1   8   98.09    6.60
  -2  -1   8  109.59    7.20
  -2   1   8  123.29    7.00
   2   1  -8  117.69    6.60
   2   1  -8  116.39    6.90
   2   1  -8  117.39    5.10
  -2   1   8  128.29    8.30
  -2   1   8  116.49    7.00
  -2   1   8  118.49    6.70
   2   1  -8  119.79    6.80
   2   1  -8  107.79    6.90
  -1  -1   8  359.96   14.80
  -1  -1   8  337.97   15.10
   1  -1  -8  340.97   14.90
   1  -1  -8  337.57   14.40
  -1  -1   8  346.17   13.70
   1  -1  -8  356.26   14.50
  -1  -1   8  363.66   14.40
   1  -1  -8  356.46   14.80
   1  -1  -8  367.66   14.30
  -1   1   8  327.07   14.70
  -1   1   8  324.17   14.20
   1   1  -8  344.47   14.80
  -1   1   8  381.36   14.80
   1   1  -8  359.16   14.50
   1   1  -8  325.47   14.20
  -1   1   8  348.37   15.60
   1   1  -8  376.06   15.00
   1   1  -8  347.87   13.20
   0  -1   8  165.48    8.90
   0  -1   8  185.28    8.80
   0  -1  -8  169.08    9.10
   0  -1   8  151.78    8.10
   0  -1  -8  164.78    8.60
   0  -1  -8  163.58    8.00
   0  -1  -8  169.18    8.60
   0  -1   8  158.28    9.30
   0   1   8  164.98    8.70
   0   1  -8  153.88    8.70
   0   1   8  171.88    9.10
   0   1  -8  169.38    8.50
   0   1   8  173.78    8.60
   0   1  -8  163.28    7.80
   0   1  -8  167.98    8.90
   0   1   8  172.48    9.80
   0   1  -8  159.78    8.60
   1  -1   8  216.48   10.40
  -1  -1  -8  209.38   10.10
  -1  -1  -8  205.98   10.70
  -1  -1  -8  208.38   10.10
  -1  -1  -8  226.68    9.50
   1  -1   8  226.98   10.40
   1  -1   8  204.68   10.60
   1  -1   8  203.18   11.00
  -1   1  -8  215.28   10.70
   1   1   8  217.68   10.50
   1   1   8  201.38   10.60
  -1   1  -8  222.48   10.00
  -1   1  -8  200.28   10.10
  -1   1  -8  199.88    9.90
   1   1   8  200.98   10.10
   1   1   8  212.78   12.10
   2  -1   8  104.99    7.70
  -2  -1  -8   88.29    5.30
   2  -1   8   94.29    6.50
   2  -1   8   91.09    6.90
  -2  -1  -8   82.49    6.00
  -2  -1  -8   97.19    7.10
   2  -1   8   88.19    7.00
   2   1   8   90.69    6.60
  -2   1  -8   90.69    6.70
  -2   1  -8  102.59    6.60
   2   1   8   95.49    6.70
   2   1   8   96.39    6.60
   2   1   8   87.49    6.90
  -2   1  -8   97.29    6.60
  -2   1  -8   96.69    6.30
   3  -1   8  289.77   13.20
   3  -1   8  301.07   14.20
  -3  -1  -8  272.07   13.30
  -3  -1  -8  274.37   12.50
  -3  -1  -8  297.37   11.70
   3  -1   8  268.57   14.00
   3  -1   8  270.77   13.50
   3   1   8  279.07   13.00
  -3   1  -8  296.07   12.80
  -3   1  -8  270.07   13.30
   3   1   8  289.07   13.70
  -3   1  -8  291.37   10.30
   3   1   8  271.67   13.50
   3   1   8  281.17   13.10
  -3   1  -8  281.97   13.40
  -3   1  -8  283.07   10.20
  -4  -1  -8   33.10    4.60
  -4  -1  -8   30.90    3.20
   4  -1   8   35.10    5.90
   4  -1   8   42.60    5.10
   4  -1   8   38.10    5.50
   4  -1   8   24.60    4.70
  -4  -1  -8   31.10    3.90
   4   1   8   37.80    5.20
   4   1   8   42.30    5.10
   4   1   8   27.90    4.30
  -4   1  -8   34.90    4.30
  -4   1  -8   38.30    5.00
   4   1   8   35.90    5.60
  -4   1  -8   36.40    5.30
   5  -1   8  255.87   13.40
   5  -1   8  231.08   13.60
   5  -1   8  266.87   14.70
  -5  -1  -8  249.58   12.70
   5   1   8  257.07   12.90
  -5   1  -8  243.48   12.70
   5   1   8  266.97   14.30
   5   1   8  298.07   18.00
   5   1   8  268.07   13.50
   6  -1   8   58.99    7.00
  -6  -1  -8   43.60    5.50
   6  -1   8   46.50    6.60
   6   1   8   52.79    6.80
  -6   1  -8   46.40    5.50
   6   1   8   51.59    6.00
   7  -1   8   34.50    5.90
   7  -1   8   35.80    6.30
   7   1   8   28.50    5.50
   7   1   8   30.50    5.20
   8  -1   8  139.69   11.60
   8  -1   8  147.59   11.10
   8   1   8  168.98   10.60
   8   1   8  143.39   10.50
   9  -1   8   45.50    7.10
   9  -1   8   50.19    7.70
   9  -1   8   50.89    9.60
   9   1   8   49.20    6.60
   9   1   8   53.49    7.10
  12  -2  -8    7.10    3.00
  12  -2  -8    7.00    5.50
  12  -2  -8   -3.30    2.10
  12   2  -8    6.30    4.20
  11  -2  -8   35.70    4.70
  11  -2  -8   38.80    8.30
  11  -2  -8   33.80    4.80
  11   2  -8   32.60    5.80
  10  -2  -8    5.10    2.70
  10  -2  -8   11.80    3.30
  10  -2  -8    6.60    3.90
  10  -2  -8    8.80    5.10
  10   2  -8   11.40    3.50
  10   2  -8    7.60    2.00
  10   2  -8    8.80    2.00
  10   2  -8    5.70    3.80
 -10   2   8   10.20    3.70
  10   2  -8    9.10    1.70
  10   2  -8    1.90    3.40
   9  -2  -8   57.99    8.70
   9  -2  -8   51.09    6.50
   9  -2  -8   40.50    5.50
   9  -2  -8   46.90    5.40
   9   2  -8   48.10    5.90
   9   2  -8   56.79    4.40
   9   2  -8   46.20    5.40
   9   2  -8   46.40    3.80
   9   2  -8   53.59    4.10
  -9   2   8   54.39    6.00
   9   2  -8   44.70    6.20
   8  -2  -8  338.67   16.00
   8  -2  -8  329.17   15.00
   8  -2  -8  326.17   18.00
   8  -2  -8  332.67   14.10
   8  -2  -8  324.97   14.60
   8   2  -8  347.77   14.30
   8   2  -8  334.47   13.30
   8   2  -8  320.47   13.20
  -8   2   8  340.17   15.50
   8   2  -8  308.07   15.60
   8   2  -8  340.07   13.50
  -8   2   8  334.27   15.10
   7  -2  -8  149.39    9.30
   7  -2  -8  168.18    8.90
   7  -2  -8  159.78    8.60
   7  -2  -8  146.19   11.10
   7  -2  -8  154.28    9.10
   7  -2  -8  155.28    8.20
  -7   2   8  141.19    7.40
   7   2  -8  149.79    7.60
   7   2  -8  151.28    7.80
   7   2  -8  153.18    7.80
  -7   2   8  143.49    8.70
  -7   2   8  147.09    8.10
   7   2  -8  152.38    7.80
   7   2  -8  158.88    9.70
   6  -2  -8  251.27   11.40
   6  -2  -8  239.18   14.00
   6  -2  -8  254.67   11.80
   6  -2  -8  274.97   12.50
  -6  -2   8  235.38   11.30
   6  -2  -8  225.18   12.10
  -6  -2   8  247.58   10.50
   6  -2  -8  252.77   11.80
   6   2  -8  246.38   12.50
   6   2  -8  250.37   11.10
  -6   2   8  248.68   10.90
  -6   2   8  241.88   11.50
   6   2  -8  251.07   10.90
   6   2  -8  259.77   11.20
  -6   2   8  242.78   11.70
   6   2  -8  253.87   11.10
   5  -2  -8  553.14   20.50
  -5  -2   8  498.35   19.30
   5  -2  -8  502.75   22.30
  -5  -2   8  514.15   20.20
   5  -2  -8  487.35   20.00
   5  -2  -8  485.75   20.60
   5  -2  -8  538.15   19.80
  -5   2   8  526.95   20.10
  -5   2   8  491.15   20.00
   5   2  -8  493.75   19.40
  -5   2   8  515.25   19.40
   5   2  -8  513.85   19.80
   5   2  -8  498.85   20.50
   5   2  -8  489.05   19.20
   5   2  -8  507.35   19.70
   5   2  -8  488.95   19.70
   4  -2  -8   59.09    6.00
   4  -2  -8   65.09    7.30
  -4  -2   8   73.79    6.30
  -4  -2   8   71.39    5.70
   4  -2  -8   74.19    5.90
   4  -2  -8   57.09    5.30
   4  -2  -8   61.59    5.10
  -4   2   8   70.69    5.70
   4   2  -8   71.09    5.30
  -4   2   8   63.89    5.90
   4   2  -8   68.89    5.60
  -4   2   8   66.69    5.00
   4   2  -8   69.19    5.40
   4   2  -8   75.09    5.30
   4   2  -8   72.59    5.60
   4   2  -8   71.99    5.70
  -3  -2   8  587.04   22.60
   3  -2  -8  573.74   24.10
   3  -2  -8  587.44   22.40
  -3  -2   8  585.94   23.40
   3  -2  -8  608.34   22.80
   3  -2  -8  612.64   23.00
   3  -2  -8  537.65   22.90
  -3   2   8  562.14   22.80
   3   2  -8  569.34   22.20
   3   2  -8  601.24   22.70
   3   2  -8  594.74   22.20
  -3   2   8  596.64   22.90
  -3   2   8  634.24   22.40
   3   2  -8  576.34   22.60
   3   2  -8  576.14   22.50
   3   2  -8  574.74   21.80
   2  -2  -8  115.69    8.60
  -2  -2   8  108.29    8.10
   2  -2  -8  107.99    7.70
   2  -2  -8  107.99    7.10
  -2  -2   8  116.19    7.50
   2  -2  -8  124.59    7.10
  -2   2   8  105.59    7.30
   2   2  -8  102.49    6.40
   2   2  -8  131.69    7.10
   2   2  -8  104.89    6.60
   2   2  -8  105.49    7.20
   2   2  -8  109.89    7.30
   2   2  -8  110.69    7.00
  -2   2   8   96.39    7.40
  -2   2   8  114.69    7.50
  -2   2   8  120.49    7.00
  -1  -2   8   13.90    4.60
   1  -2  -8   11.80    3.20
  -1  -2   8   10.70    3.30
  -1  -2   8   13.10    3.70
  -1  -2   8   14.60    4.20
   1  -2  -8   16.50    3.00
   1  -2  -8   16.40    3.30
   1   2  -8   12.20    2.70
   1   2  -8    9.90    2.80
   1   2  -8   13.70    2.90
   1   2  -8   16.70    4.60
  -1   2   8   11.30    3.00
  -1   2   8   15.70    3.40
   1   2  -8   10.80    2.80
  -1   2   8   18.30    3.20
   1   2  -8   14.90    3.10
   0  -2  -8  266.57   12.20
   0  -2   8  254.87   11.80
   0  -2   8  238.98   13.10
   0  -2  -8  272.47   12.00
   0  -2   8  258.87   12.70
   0  -2  -8  264.17   12.80
   0  -2   8  235.18   11.00
   0  -2   8  251.77   12.60
   0   2  -8  247.28   12.30
   0   2   8  250.37   11.80
   0   2  -8  271.37   12.20
   0   2  -8  259.57   11.70
   0   2   8  241.18   12.20
   0   2  -8  237.78   11.70
   0   2  -8  252.57   10.80
   0   2   8  259.87   12.30
   1  -2   8  113.99    8.80
   1  -2   8  104.39    7.20
   1  -2   8  118.49    7.30
   1  -2   8   96.69    7.70
  -1  -2  -8   94.29    6.90
   1  -2   8  109.49    8.20
  -1  -2  -8  110.99    7.90
   1   2   8  100.39    7.10
  -1   2  -8  111.99    7.40
  -1   2  -8   95.89    6.90
   1   2   8  104.99    7.70
  -1   2  -8  115.09    7.20
  -1   2  -8  106.29    5.70
  -1   2  -8  111.49    7.70
   1   2   8  117.19    7.80
   2  -2   8   76.39    7.50
   2  -2   8   62.29    7.10
   2  -2   8   75.39    7.70
   2  -2   8   71.59    6.10
  -2  -2  -8   83.29    7.00
  -2  -2  -8   73.59    5.90
   2  -2   8   68.59    6.80
  -2   2  -8   67.99    6.10
  -2   2  -8   78.59    4.30
  -2   2  -8   77.59    6.10
   2   2   8   65.59    5.40
   2   2   8   72.09    6.30
   2   2   8   80.39    6.90
   2   2   8   77.69    6.70
  -2   2  -8   67.39    6.40
   3  -2   8   34.20    5.90
   3  -2   8   24.70    5.40
   3  -2   8   31.50    5.30
  -3  -2  -8   31.00    4.40
  -3  -2  -8   26.00    4.50
   3  -2   8   27.30    4.50
   3  -2   8   28.30    5.40
   3   2   8   27.30    4.50
   3   2   8   33.90    4.40
  -3   2  -8   24.70    4.20
  -3   2  -8   27.50    4.70
   3   2   8   36.90    5.20
  -3   2  -8   26.40    2.30
   3   2   8   30.30    4.40
  -3   2  -8   38.20    4.70
   4  -2   8   69.89    8.00
   4  -2   8   55.29    7.80
  -4  -2  -8   72.59    6.80
   4  -2   8   73.99    8.10
   4  -2   8   72.79    7.90
   4  -2   8   59.29    6.40
  -4   2  -8   68.69    6.00
  -4   2  -8   82.69    7.10
   4   2   8   67.99    5.50
  -4   2  -8   61.69    6.70
   4   2   8   70.59    7.10
   4   2   8   62.59    6.30
   5  -2   8    0.40    3.20
   5  -2   8    7.60    4.40
  -5  -2  -8   -0.90    2.40
   5  -2   8   -1.50    3.30
   5   2   8    3.30    2.90
   5   2   8    2.60    3.10
   5   2   8    0.60    2.60
  -5   2  -8    3.20    2.80
  -5   2  -8    0.90    2.90
  -6  -2  -8    6.30    3.70
   6  -2   8   11.40    5.50
   6  -2   8   22.70    5.60
   6  -2   8   11.10    4.50
   6   2   8   13.00    3.20
  -6   2  -8    4.00    2.90
   6   2   8    8.40    4.10
   6   2   8   12.20    3.70
   7  -2   8   54.09    9.40
   7  -2   8   89.09    9.50
   7  -2   8   69.79    8.80
   7   2   8   67.19    7.90
   7   2   8   79.09    7.80
   8  -2   8  131.49   11.50
   8  -2   8  138.99   12.40
   8  -2   8  153.28   14.30
   8   2   8  143.79   10.70
   8   2   8  158.18   10.50
  11  -3  -8   65.09    7.40
  11  -3  -8   47.50   10.30
  11  -3  -8   47.10    6.40
  11   3  -8   64.49    8.00
  11   3  -8   43.70    4.50
  10  -3  -8  178.98   11.20
  10  -3  -8  132.49   13.70
  10  -3  -8  150.78   10.10
  10   3  -8  146.59    7.70
  10   3  -8  134.19   10.70
  10   3  -8  151.78    8.10
   9  -3  -8    4.90    3.20
   9  -3  -8    7.80    4.30
   9  -3  -8    8.40    4.00
   9  -3  -8    9.90    6.10
   9   3  -8   10.40    4.70
   9   3  -8    8.50    2.70
  -9   3   8   11.20    4.40
   9   3  -8    7.20    2.60
   8  -3  -8   88.89    8.80
   8  -3  -8   83.79   10.60
   8  -3  -8   86.19    7.60
   8  -3  -8   93.49    8.40
  -8   3   8   77.19    7.90
   8   3  -8   82.49    6.10
   8   3  -8   91.29    6.50
   8   3  -8   90.19    8.60
   7  -3  -8    0.90    3.30
   7  -3  -8   13.60    4.10
   7  -3  -8    4.90    4.90
   7  -3  -8    5.30    3.30
   7   3  -8    6.50    2.70
   7   3  -8    2.20    3.20
  -7   3   8   11.80    4.10
   7   3  -8    5.30    2.40
  -7   3   8    8.10    3.10
   7   3  -8    9.30    3.80
   7   3  -8    6.30    4.90
   6  -3  -8  341.97   19.40
   6  -3  -8  364.36   16.70
   6  -3  -8  375.26   17.70
  -6  -3   8  374.36   16.90
  -6   3   8  359.26   16.40
   6   3  -8  376.36   17.20
   6   3  -8  357.76   15.50
  -6   3   8  376.56   17.60
   6   3  -8  348.77   15.80
   6   3  -8  375.86   15.90
   6   3  -8  373.06   17.30
   5  -3  -8  347.57   19.20
   5  -3  -8  353.96   16.50
  -5  -3   8  372.36   16.80
   5  -3  -8  393.76   16.50
   5  -3  -8  383.26   17.70
   5   3  -8  353.36   16.60
   5   3  -8  392.26   15.90
   5   3  -8  362.86   16.30
  -5   3   8  356.36   17.40
   5   3  -8  362.66   17.10
   5   3  -8  367.86   16.10
  -5   3   8  361.56   16.60
   5   3  -8  364.26   16.00
  -4  -3   8  579.74   23.80
   4  -3  -8  583.64   23.20
  -4  -3   8  575.24   22.80
   4  -3  -8  617.04   22.90
   4  -3  -8  540.65   23.70
   4  -3  -8  535.55   25.30
  -4   3   8  551.64   23.00
  -4   3   8  600.14   22.50
   4   3  -8  571.14   23.00
   4   3  -8  563.74   22.30
   4   3  -8  547.85   22.50
   4   3  -8  585.84   23.10
   4   3  -8  555.94   22.70
   4   3  -8  560.14   23.30
  -4   3   8  543.05   24.00
   3  -3  -8   60.69    6.30
  -3  -3   8   52.99    6.80
   3  -3  -8   74.69    6.00
   3  -3  -8   56.09    8.00
   3  -3  -8   59.79    7.00
  -3   3   8   64.09    6.40
  -3   3   8   56.89    5.50
   3   3  -8   48.40    5.40
  -3   3   8   59.69    7.20
   3   3  -8   50.49    6.20
   3   3  -8   54.99    5.40
   3   3  -8   45.80    5.80
   3   3  -8   59.69    7.70
   3   3  -8   56.59    5.90
  -2  -3   8  955.60   36.10
   2  -3  -8  999.90   35.70
  -2  -3   8  964.90   37.20
   2  -3  -8  960.40   35.90
   2  -3  -8  942.61   36.60
   2  -3  -8  945.41   38.10
   2   3  -8  925.41   35.80
   2   3  -8  976.20   36.10
   2   3  -8  960.30   35.30
   2   3  -8  951.50   35.60
  -2   3   8 1028.50   35.50
   2   3  -8  969.00   35.20
  -2   3   8  958.60   36.00
  -2   3   8  939.21   37.00
   1  -3  -8  857.11   36.50
  -1  -3   8  939.11   35.50
   1  -3  -8  934.11   34.70
  -1  -3   8  897.61   33.00
   1  -3  -8  961.40   34.60
  -1  -3   8  957.60   36.60
   1  -3  -8  903.21   35.50
   1   3  -8  942.21   35.10
   1   3  -8  905.91   35.10
  -1   3   8  934.51   35.20
  -1   3   8  955.50   34.50
   1   3  -8  935.11   34.80
   1   3  -8  944.91   34.50
  -1   3   8  989.90   37.20
  -1   3   8  918.11   36.20
   1   3  -8  926.81   33.80
   0  -3  -8   62.39    6.80
   0  -3   8   58.29    7.40
   0  -3   8   60.99    7.90
   0  -3  -8   56.49    6.00
   0  -3   8   63.59    7.10
   0  -3   8   62.59    6.20
   0   3   8   51.89    5.90
   0   3  -8   60.29    6.00
   0   3   8   45.00    5.40
   0   3   8   65.39    6.70
   0   3  -8   50.19    6.20
   0   3   8   63.49    6.90
   0   3  -8   55.19    6.20
   0   3  -8   65.49    5.10
   0   3  -8   52.29    6.10
   1  -3   8   44.60    7.20
   1  -3   8   48.10    6.20
   1  -3   8   40.70    6.60
   1  -3   8   41.30    6.30
  -1  -3  -8   49.00    6.40
  -1  -3  -8   34.00    4.70
  -1   3  -8   40.80    4.00
   1   3   8   34.20    5.20
   1   3   8   27.70    4.50
  -1   3  -8   36.80    5.60
   1   3   8   35.40    5.40
   1   3   8   35.20    4.90
  -1   3  -8   26.50    4.30
  -1   3  -8   33.60    5.10
  -1   3  -8   35.20    5.30
   2  -3   8   36.50    6.60
   2  -3   8   25.50    5.20
  -2  -3  -8   21.70    4.00
   2  -3   8   24.90    5.30
   2  -3   8   18.50    5.10
   2  -3   8   33.40    6.80
  -2  -3  -8   26.10    5.10
  -2   3  -8   19.80    3.90
   2   3   8   24.60    4.50
   2   3   8   26.50    5.10
  -2   3  -8   21.40    4.20
  -2   3  -8   23.50    4.80
  -2   3  -8   23.70    3.20
   2   3   8   23.20    4.30
   3  -3   8  113.39   10.90
  -3  -3  -8  144.99    9.90
   3  -3   8  117.19   10.10
   3  -3   8  118.19   10.50
   3  -3   8  117.19    9.90
   3   3   8  125.39    8.50
  -3   3  -8  125.59    6.30
  -3   3  -8  122.49    9.20
  -3   3  -8  117.79    8.40
   3   3   8  127.39    9.40
   3   3   8  131.59    8.90
  -3   3  -8  132.19    9.70
   4  -3   8   28.40    6.60
   4  -3   8   28.50    6.40
  -4  -3  -8   32.90    5.40
   4  -3   8   29.30    6.00
  -4   3  -8   29.50    5.20
   4   3   8   34.90    5.80
   4   3   8   24.90    4.80
   4   3   8   25.20    4.70
  -4   3  -8   38.30    6.30
   5  -3   8   80.69   10.00
  -5  -3  -8   94.29    8.00
   5  -3   8   94.29   10.20
   5  -3   8   91.59    9.80
   5   3   8   96.09    7.80
   5   3   8   93.09    8.10
   5   3   8   80.59    8.40
  -5   3  -8   78.79    8.00
   6  -3   8   25.40    7.30
   6  -3   8   20.30    6.40
   6  -3   8   37.20    6.90
   6   3   8   22.90    4.70
   6   3   8   22.60    5.20
   6   3   8   16.60    4.50
  -6   3  -8   30.30    5.70
   7  -3   8   80.59   10.60
   7  -3   8   77.59   11.30
   7  -3   8   50.79    8.10
   7   3   8   81.29    7.40
   7   3   8   79.99    8.60
   7   3   8   71.69    8.00
   9  -4  -8   35.00    6.20
   9  -4  -8   35.70    6.80
   9  -4  -8   36.90    8.90
   9   4  -8   42.50    5.50
   9   4  -8   35.30    4.70
   9   4  -8   45.40    7.50
   8  -4  -8    7.70    4.70
   8  -4  -8    3.70    3.70
   8  -4  -8    3.40    5.80
   8   4  -8    5.30    4.00
   8   4  -8    7.00    3.10
   8   4  -8    8.30    5.90
   8   4  -8    8.80    3.30
   7  -4  -8  131.59   13.40
   7  -4  -8  159.58   12.20
   7  -4  -8  137.99   10.60
   7   4  -8  144.39   10.50
   7   4  -8  159.78   10.00
   7   4  -8  160.38   12.30
   7   4  -8  145.69    9.20
  -7   4   8  134.79   15.60
   6  -4  -8   13.00    5.00
   6  -4  -8    5.30    3.70
   6  -4  -8    0.20    5.00
   6   4  -8    6.00    4.10
   6   4  -8   -0.70    4.30
  -6   4   8    0.90    3.20
  -6   4   8    0.90    4.20
   6   4  -8    8.60    3.50
   6   4  -8    4.00    2.80
   5  -4  -8   34.20    7.90
   5  -4  -8   17.00    4.60
   5  -4  -8   28.00    6.00
   5   4  -8   38.60    6.00
  -5   4   8   39.60    6.00
  -5   4   8   23.30    6.40
   5   4  -8   32.10    5.30
   5   4  -8   25.70    4.40
   5   4  -8   28.30    6.10
  -4  -4   8   39.10    6.40
  -4  -4   8   34.70    6.30
   4  -4  -8   35.90    6.40
   4  -4  -8   41.40    6.10
   4  -4  -8   31.80    7.40
  -4   4   8   41.60    6.00
  -4   4   8   47.30    7.80
   4   4  -8   33.80    5.10
   4   4  -8   34.90    5.40
   4   4  -8   34.40    5.40
   4   4  -8   36.80    6.90
   3  -4  -8  220.08   13.00
  -3  -4   8  224.68   14.50
   3  -4  -8  199.48   15.10
  -3  -4   8  226.48   14.10
   3  -4  -8  222.68   14.10
  -3   4   8  237.28   13.20
   3   4  -8  250.47   12.70
  -3   4   8  240.18   15.40
   3   4  -8  234.58   12.60
   3   4  -8  246.18   13.30
   3   4  -8  230.68   13.90
   2  -4  -8   80.49    8.90
   2  -4  -8   90.59    8.20
   2  -4  -8   85.99   10.30
  -2  -4   8  115.79   10.70
   2   4  -8   94.79    7.80
  -2   4   8   82.89   10.00
  -2   4   8   86.99    7.40
  -2   4   8   87.09    8.40
   2   4  -8   97.49    7.60
   2   4  -8   82.39    8.10
   2   4  -8   86.29    8.70
   1  -4  -8  266.47   14.60
   1  -4  -8  258.47   16.70
  -1  -4   8  275.97   13.70
  -1  -4   8  276.07   16.70
   1  -4  -8  295.57   16.10
   1   4  -8  277.47   13.50
   1   4  -8  303.77   14.60
   1   4  -8  291.47   15.70
  -1   4   8  271.37   14.30
  -1   4   8  287.27   14.20
  -1   4   8  289.77   15.20
   1   4  -8  278.67   15.00
  -1   4   8  251.27   16.50
   0  -4   8    6.70    4.50
   0  -4   8    0.80    4.50
   0  -4  -8    4.20    4.10
   0   4  -8    5.60    3.80
   0   4  -8    4.40    2.80
   0   4  -8    1.60    2.80
   0   4   8   -1.20    3.70
   0   4  -8    8.40    4.40
   0   4   8   10.10    4.20
   0   4   8   10.80    5.50
   0   4   8    0.50    2.90
   1  -4   8   57.99    9.30
   1  -4   8   65.19    8.50
  -1  -4  -8   64.69    8.20
  -1   4  -8   52.49    6.30
   1   4   8   58.69    7.70
  -1   4  -8   58.79    7.80
  -1   4  -8   53.89    5.50
  -1   4  -8   65.69    7.80
   1   4   8   55.39    7.00
   1   4   8   64.79    6.80
   2  -4   8  179.48   12.80
  -2  -4  -8  192.88   12.80
   2  -4   8  180.98   13.70
   2  -4   8  197.98   14.40
  -2   4  -8  192.08    9.70
   2   4   8  181.38   11.40
   2   4   8  182.98   12.30
   2   4   8  185.58   11.70
  -2   4  -8  187.78   12.50
   3  -4   8  111.99   10.90
   3  -4   8   89.59   11.20
   3  -4   8   96.69   10.50
  -3  -4  -8  113.89   10.10
   3   4   8  125.79    9.50
   3   4   8  115.79   10.10
   3   4   8  118.59    9.40
  -3   4  -8  101.19    9.80
   4  -4   8  158.18   13.60
  -4  -4  -8  137.19   10.90
   4  -4   8  141.79   12.80
   4  -4   8  127.49   12.10
   4   4   8  132.39   10.30
  -4   4  -8  149.39   11.40
   4   4   8  154.08   10.50
   4   4   8  144.39   11.30
   5  -4   8   10.70    6.60
   5  -4   8   18.40    6.10
   5  -4   8   25.00    6.80
   5   4   8   20.90    5.50
   5   4   8   11.10    4.90
  -5   4  -8   13.60    5.10
   5   4   8    8.50    4.10
   6  -4   8  137.59   13.20
   6  -4   8  142.89   14.40
   6   4   8  159.38   17.90
   6   4   8  165.98   11.60
   6   4   8  152.78   10.90
  -6   4  -8  180.28   14.10
   6  -5  -8   12.30    7.30
   6  -5  -8   16.50    5.30
   6  -5  -8   18.80    6.60
   6   5  -8   13.70    4.60
   6   5  -8   20.00    5.20
   6   5  -8   16.70    5.50
   5  -5  -8    9.90    4.70
   5  -5  -8   18.90    7.20
   5  -5  -8   12.00    6.00
  -5   5   8    5.90    4.50
   5   5  -8   14.60    4.90
   5   5  -8   16.10    4.70
   5   5  -8   10.60    4.40
   4  -5  -8  101.69   10.00
   4  -5  -8  101.59   11.20
   4  -5  -8   80.69   11.90
   4   5  -8   84.39    9.20
   4   5  -8  102.39    9.30
  -4   5   8   94.89    9.70
   4   5  -8  106.09    9.10
   3  -5  -8    4.10    6.20
   3  -5  -8    9.10    5.50
   3   5  -8    8.40    4.60
  -3   5   8    4.30    4.50
   3   5  -8    6.00    3.80
   3   5  -8   12.80    4.30
   2  -5  -8   47.30    8.10
   2  -5  -8   34.00    7.80
  -2  -5   8   45.90    8.60
   2   5  -8   58.39    8.10
  -2   5   8   38.60    6.50
   2   5  -8   29.60    5.60
   2   5  -8   42.20    6.00
  -2   5   8   35.10    6.40
  -1  -5   8   12.20    5.90
  -1  -5   8    4.60    5.70
   1  -5  -8    3.20    4.70
   1   5  -8    5.10    3.60
   1   5  -8    7.70    4.30
   1   5  -8    3.70    3.30
  -1   5   8    4.20    4.90
  -1   5   8    5.40    4.40
   0  -5  -8   39.20    7.50
   0  -5   8   39.00    8.30
   0  -5   8   28.20    7.20
   0   5  -8   35.80    5.70
   0   5   8   35.30    6.90
   0   5  -8   41.10    7.20
   0   5   8   33.30    6.30
   1  -5   8   95.39   12.10
  -1  -5  -8   94.99   10.70
   1  -5   8   99.09   12.60
   1   5   8   80.99    9.10
  -1   5  -8   89.69   10.00
   1   5   8   85.29    9.70
  -1   5  -8   81.59    7.60
  -2  -5  -8  149.88   12.20
   2  -5   8  132.79   14.40
   2  -5   8  138.69   13.70
   2   5   8  128.29   11.20
  -2   5  -8  135.79   11.70
   2   5   8  121.89   10.50
   2   5   8  143.99   12.10
   3  -5   8   89.49   12.70
   3  -5   8   65.19   10.80
   3   5   8   76.09    8.90
  -3   5  -8   75.99   10.10
   3   5   8   78.29    8.80
  13   0  -9    8.00    5.00
  12   0  -9   80.79    9.20
  11   0  -9   64.19    8.00
  10   0  -9   60.79    4.20
  10   0  -9   65.49    4.50
  10   0  -9   65.29    7.40
  10   0  -9   64.79    6.00
  10   0  -9   67.09    4.20
   9   0  -9  440.06   19.70
   9   0  -9  424.06   16.30
   9   0  -9  431.46   16.50
   9   0  -9  435.16   16.50
   9   0  -9  462.15   18.00
  -8   0   9   30.90    3.30
   8   0  -9   29.80    3.30
   8   0  -9   24.30    3.40
   8   0  -9   30.90    4.90
   8   0  -9   26.20    3.20
   8   0  -9   28.30    3.60
   8   0  -9   26.00    3.10
   7   0  -9    5.20    2.80
   7   0  -9    7.80    2.00
   7   0  -9    1.60    1.60
  -7   0   9    3.90    2.00
   7   0  -9    3.70    1.80
   7   0  -9    2.10    1.80
   7   0  -9    1.90    1.70
  -7   0   9    5.20    1.80
  -6   0   9  296.47   12.00
   6   0  -9  297.07   12.40
  -6   0   9  322.87   12.70
   6   0  -9  292.27   12.50
   6   0  -9  302.77   13.10
   6   0  -9  323.67   12.80
   6   0  -9  293.97   12.80
  -5   0   9    4.90    1.90
   5   0  -9    3.70    1.80
   5   0  -9   -0.10    1.60
  -5   0   9    3.90    2.40
   5   0  -9    3.60    2.00
   5   0  -9    5.40    2.30
   5   0  -9    4.10    1.90
  -5   0   9   -0.30    2.00
   4   0  -9    9.60    2.30
   4   0  -9   12.20    2.70
  -4   0   9   12.60    2.80
   4   0  -9   18.30    2.80
   4   0  -9   14.00    2.70
   4   0  -9   14.70    2.80
  -4   0   9   11.00    2.40
  -4   0   9    9.80    2.70
   3   0  -9  478.25   18.40
   3   0  -9  443.36   17.80
  -3   0   9  431.16   18.20
  -3   0   9  477.25   17.80
   3   0  -9  478.35   18.00
   3   0  -9  451.55   18.40
   2   0  -9  235.08   10.90
   2   0  -9  256.87   11.60
   2   0  -9  228.68   11.40
   2   0  -9  253.77   11.10
  -2   0   9  237.18   11.60
  -2   0   9  241.08   11.10
  -2   0   9  258.77   11.20
  -1   0   9  571.14   22.50
  -1   0   9  547.05   21.80
  -1   0   9  576.34   21.90
   1   0  -9  581.24   21.90
   1   0  -9  588.94   22.50
   1   0  -9  590.54   22.00
   1   0  -9  554.44   22.40
  -1   0   9  571.84   20.30
  -1   0   9  594.34   22.10
   0   0   9   18.30    3.30
   0   0  -9   17.50    3.70
   0   0  -9   14.10    2.90
   0   0   9   25.30    4.10
   0   0  -9   20.80    3.30
   0   0   9   17.40    2.80
   0   0   9   26.10    4.00
  -1   0  -9  116.69    7.00
  -1   0  -9  114.49    7.20
   1   0   9  111.89    6.80
  -1   0  -9  113.39    5.90
  -1   0  -9  104.49    7.40
   1   0   9  108.89    7.40
   1   0   9  114.69    8.00
  -2   0  -9  114.09    7.00
  -2   0  -9  110.29    7.60
  -2   0  -9  106.79    5.50
   2   0   9  109.49    8.00
   2   0   9   98.49    6.90
   2   0   9   95.79    7.40
   2   0   9  114.69    7.50
  -3   0  -9  246.28   13.10
  -3   0  -9  277.67   12.60
   3   0   9  271.47   13.60
   3   0   9  291.77   13.40
   3   0   9  272.07   13.70
  -3   0  -9  282.77   10.80
   3   0   9  258.57   13.10
   4   0   9  484.55   20.70
   4   0   9  475.55   21.40
  -4   0  -9  478.65   20.70
   4   0   9  498.45   21.40
  -4   0  -9  534.15   19.20
  -4   0  -9  465.85   19.80
   4   0   9  537.65   21.00
  -5   0  -9  369.46   16.40
   5   0   9  347.17   16.50
   5   0   9  346.97   17.50
   5   0   9  327.27   16.60
   6   0   9    7.00    3.90
  -6   0  -9   15.60    3.70
   6   0   9   12.80    4.20
   7   0   9    9.20    4.00
   7   0   9    2.60    4.00
   8   0   9   42.50    6.80
   8   0   9   46.90    6.70
   9   0   9   75.19    9.20
   9   0   9   64.49    8.10
  12  -1  -9   20.50    6.30
  12  -1  -9   13.40    2.90
  12   1  -9   15.10    4.50
  11  -1  -9   14.30    2.80
  11  -1  -9   18.30    5.70
  11  -1  -9   10.60    2.50
  11   1  -9   11.90    4.50
  10  -1  -9  260.57   11.50
  10  -1  -9  264.17   15.50
  10  -1  -9  267.17   13.60
  10  -1  -9  266.17   11.30
  10  -1  -9  257.57   11.50
  10   1  -9  265.67   13.90
  10   1  -9  256.77   10.40
   9  -1  -9  183.68    9.30
   9  -1  -9  191.28   10.40
   9  -1  -9  194.98    9.20
   9  -1  -9  198.78   12.50
   9  -1  -9  185.58    8.80
   9   1  -9  186.58    9.50
   9   1  -9  197.38    8.30
   9   1  -9  180.48   10.50
   9   1  -9  177.78    8.20
   9   1  -9  183.68    8.30
   8  -1  -9    0.70    1.90
   8  -1  -9    6.10    3.50
   8  -1  -9   -2.10    1.80
   8  -1  -9    0.80    1.80
  -8  -1   9   -0.20    1.60
   8  -1  -9    0.10    1.50
   8  -1  -9   -0.30    2.00
   8   1  -9    0.40    1.50
   8   1  -9    4.80    2.00
   8   1  -9    2.90    1.80
   8   1  -9    1.60    1.60
   8   1  -9   -2.00    2.30
  -8   1   9    3.30    2.20
   8   1  -9    2.20    1.80
   7  -1  -9   32.20    3.50
   7  -1  -9   23.90    3.60
   7  -1  -9   28.10    3.80
   7  -1  -9   18.50    3.20
  -7  -1   9   20.80    2.90
   7  -1  -9   28.10    5.10
   7  -1  -9   32.20    3.60
  -7   1   9   27.40    3.50
   7   1  -9   24.80    3.30
   7   1  -9   22.40    3.40
  -7   1   9   22.60    3.20
  -7   1   9   28.90    3.20
   7   1  -9   26.60    3.50
   7   1  -9   24.10    3.00
   7   1  -9   29.30    3.00
   7   1  -9   24.20    3.20
  -6  -1   9   45.30    4.60
   6  -1  -9   37.40    4.20
   6  -1  -9   38.00    5.50
   6  -1  -9   34.30    4.30
   6  -1  -9   35.20    3.80
   6  -1  -9   37.00    3.90
  -6  -1   9   37.60    3.90
   6   1  -9   33.70    3.90
  -6   1   9   46.30    5.90
   6   1  -9   39.70    4.00
  -6   1   9   37.50    4.10
  -6   1   9   39.80    3.20
   6   1  -9   35.20    2.70
  -6   1   9   40.60    3.70
   6   1  -9   39.80    4.00
   6   1  -9   42.60    4.00
   5  -1  -9  128.99    7.80
   5  -1  -9  135.69    8.70
  -5  -1   9  127.49    7.70
   5  -1  -9  136.49    7.60
  -5  -1   9  145.49    7.30
   5  -1  -9  137.99    7.60
   5  -1  -9  135.29    7.30
  -5   1   9  134.69    7.10
  -5   1   9  137.39    7.60
   5   1  -9  131.59    7.20
   5   1  -9  140.59    7.30
  -5   1   9  135.49    9.20
   5   1  -9  148.79    7.60
  -5   1   9  136.39    6.00
   5   1  -9  121.39    7.40
   4  -1  -9  568.64   22.80
   4  -1  -9  597.04   23.30
   4  -1  -9  607.44   22.80
  -4  -1   9  607.64   22.80
  -4  -1   9  601.54   22.20
   4  -1  -9  605.64   22.60
   4  -1  -9  614.74   22.40
   4   1  -9  598.84   22.60
  -4   1   9  573.54   22.00
  -4   1   9  604.84   22.70
   4   1  -9  609.14   22.40
   4   1  -9  573.24   22.60
  -4   1   9  598.94   23.90
   4   1  -9  604.44   22.20
  -4   1   9  560.34   20.50
   3  -1  -9  120.29    7.70
   3  -1  -9  137.89    8.10
  -3  -1   9  133.59    8.10
   3  -1  -9  142.79    7.90
   3  -1  -9  131.29    7.50
   3  -1  -9  130.79    7.40
  -3   1   9  130.49    7.70
  -3   1   9  130.29    8.90
  -3   1   9  123.29    6.30
   3   1  -9  143.89    7.80
   3   1  -9  124.39    7.20
   3   1  -9  128.09    7.70
  -3   1   9  137.69    7.30
   3   1  -9  127.69    7.30
  -2  -1   9   30.90    4.60
   2  -1  -9   30.50    3.90
   2  -1  -9   26.20    4.10
   2  -1  -9   24.00    3.50
  -2  -1   9   23.10    3.80
   2  -1  -9   20.80    3.60
  -2  -1   9   24.80    3.10
  -2   1   9   32.20    4.40
  -2   1   9   27.60    3.70
   2   1  -9   27.00    2.30
   2   1  -9   24.10    3.40
  -2   1   9   19.50    4.50
   2   1  -9   30.50    4.00
  -2   1   9   30.80    4.00
   2   1  -9   25.40    3.50
   2   1  -9   32.60    4.40
   1  -1  -9   91.79    6.80
   1  -1  -9  109.39    6.70
  -1  -1   9   88.99    6.80
  -1  -1   9  103.49    7.50
  -1  -1   9  115.79    6.70
  -1  -1   9   99.89    5.90
   1  -1  -9  103.79    6.60
   1   1  -9   99.89    6.50
   1   1  -9   99.59    5.20
   1   1  -9   97.49    6.90
  -1   1   9   90.69    6.40
  -1   1   9   95.09    7.80
  -1   1   9   90.19    6.60
  -1   1   9   93.89    6.90
   1   1  -9   96.29    6.40
   0  -1   9   -2.20    2.00
   0  -1  -9    1.40    1.80
   0  -1  -9    1.30    2.00
   0  -1   9   -2.70    2.40
   0  -1  -9    2.00    2.30
   0  -1   9   -0.60    2.00
   0  -1   9    1.90    1.90
   0  -1  -9    0.50    1.80
   0   1  -9    1.50    2.00
   0   1  -9    0.80    1.70
   0   1   9    0.60    2.30
   0   1   9   -0.20    2.00
   0   1  -9    2.30    2.30
   0   1  -9   -0.50    1.50
   0   1   9    0.00    3.10
   0   1   9    0.90    2.10
   1  -1   9  210.18   10.70
  -1  -1  -9  211.18   10.60
  -1  -1  -9  214.38    9.70
   1  -1   9  211.68   11.20
  -1  -1  -9  215.28   11.30
  -1  -1  -9  231.08   10.70
   1  -1   9  205.38   11.70
   1  -1   9  231.48   10.90
  -1   1  -9  201.58   11.00
   1   1   9  210.18   10.40
   1   1   9  210.78   11.30
  -1   1  -9  208.08   10.40
  -1   1  -9  211.68   10.20
  -1   1  -9  209.28   10.70
   1   1   9  200.98   10.60
   1   1   9  231.28   11.10
  -2  -1  -9   92.59    6.60
   2  -1   9   90.99    7.30
   2  -1   9  101.09    7.10
   2  -1   9   96.39    8.20
  -2  -1  -9  103.89    7.70
   2  -1   9   95.59    7.80
  -2  -1  -9   98.39    5.90
  -2   1  -9  108.89    6.90
  -2   1  -9   97.49    6.90
   2   1   9  108.69    7.90
   2   1   9  102.19    7.10
   2   1   9  100.29    7.30
  -2   1  -9   92.29    7.30
   2   1   9   92.59    6.90
   3  -1   9 1122.99   38.60
   3  -1   9 1041.00   39.40
  -3  -1  -9 1060.19   36.60
  -3  -1  -9 1039.20   37.80
   3  -1   9 1034.00   38.80
   3  -1   9 1055.09   39.20
  -3  -1  -9 1029.00   38.60
   3   1   9 1040.50   38.20
  -3   1  -9 1063.99   35.10
  -3   1  -9 1015.00   38.60
  -3   1  -9 1035.90   37.80
  -3   1  -9 1041.10   35.00
  -3   1  -9 1023.80   38.60
   3   1   9 1078.39   38.50
   3   1   9 1035.80   38.80
   3   1   9 1029.80   38.80
  -4  -1  -9  529.05   19.30
  -4  -1  -9  517.45   21.50
   4  -1   9  497.15   22.50
  -4  -1  -9  552.54   25.80
   4  -1   9  523.65   21.90
   4  -1   9  495.85   22.20
   4  -1   9  520.75   21.50
   4   1   9  481.55   21.00
   4   1   9  525.95   23.20
  -4   1  -9  503.85   20.60
   4   1   9  499.05   22.00
   4   1   9  484.25   21.60
  -4   1  -9  496.95   21.40
   5  -1   9  121.89    9.40
   5  -1   9  112.09    9.80
  -5  -1  -9  121.89    8.50
   5  -1   9  121.19    9.80
  -5   1  -9  121.29    8.60
   5   1   9  128.59   10.00
   5   1   9  108.29    9.10
   5   1   9  124.49    8.80
   6  -1   9  183.68   12.30
   6  -1   9  193.68   11.80
  -6  -1  -9  155.78   10.20
   6   1   9  167.68   11.20
  -6   1  -9  173.28   10.60
   6   1   9  172.18   10.90
   7  -1   9   48.50    7.10
   7  -1   9   51.29    7.10
   7   1   9   52.29    7.00
   7   1   9   46.70    6.40
   8  -1   9   12.20    5.10
   8  -1   9   16.10    5.00
   8   1   9    3.20    3.70
   8   1   9    3.70    4.30
  12  -2  -9   56.79    5.90
  12  -2  -9   72.29    6.70
  12  -2  -9   80.19   11.00
  12   2  -9   44.60    7.10
  11  -2  -9   39.00    5.10
  11  -2  -9   47.60    5.50
  11  -2  -9   40.80    8.30
  11   2  -9   31.30    6.40
  10  -2  -9   42.60    5.40
  10  -2  -9   40.10    5.20
  10  -2  -9   48.20    8.60
  10   2  -9   40.30    4.00
  10   2  -9   38.90    3.50
  10   2  -9   43.50    3.90
  10   2  -9   36.40    6.00
   9  -2  -9   47.70    5.50
   9  -2  -9   46.60    6.60
   9  -2  -9   49.50    8.20
   9  -2  -9   42.40    5.50
   9   2  -9   44.10    4.40
   9   2  -9   39.20    5.10
  -9   2   9   45.00    5.50
   9   2  -9   54.19    6.50
   9   2  -9   49.10    4.30
   9   2  -9   49.20    4.20
   8  -2  -9   22.10    6.20
   8  -2  -9   24.90    4.20
   8  -2  -9   27.00    4.60
   8  -2  -9   20.30    4.10
   8   2  -9   26.30    3.50
   8   2  -9   23.60    3.40
  -8   2   9   29.10    4.40
   8   2  -9   26.20    4.90
   8   2  -9   25.70    3.30
   8   2  -9   27.70    3.70
   7  -2  -9  740.23   27.30
   7  -2  -9  713.33   27.70
   7  -2  -9  746.53   27.40
   7  -2  -9  746.63   27.80
   7  -2  -9  708.13   26.80
   7  -2  -9  663.23   29.80
   7   2  -9  686.33   26.30
   7   2  -9  705.93   26.10
   7   2  -9  733.83   26.30
  -7   2   9  692.73   26.80
  -7   2   9  738.63   26.90
   7   2  -9  688.73   28.30
   6  -2  -9   58.09    7.60
  -6  -2   9   58.69    6.00
   6  -2  -9   66.49    5.30
   6  -2  -9   59.09    6.00
  -6  -2   9   71.69    5.40
   6  -2  -9   66.29    5.60
   6  -2  -9   59.59    5.90
   6   2  -9   64.79    5.10
  -6   2   9   64.09    5.60
   6   2  -9   52.89    5.80
   6   2  -9   59.09    5.30
  -6   2   9   65.39    5.10
  -6   2   9   63.09    5.60
   6   2  -9   61.99    5.50
   6   2  -9   66.69    5.50
   6   2  -9   73.89    5.70
   5  -2  -9  279.87   12.70
   5  -2  -9  251.57   14.30
  -5  -2   9  250.17   11.80
   5  -2  -9  262.87   12.00
  -5  -2   9  245.48   12.50
   5  -2  -9  250.27   12.80
   5  -2  -9  251.67   12.30
  -5   2   9  274.77   12.50
   5   2  -9  256.97   12.20
   5   2  -9  266.67   11.90
   5   2  -9  270.17   12.80
   5   2  -9  270.57   11.80
   5   2  -9  251.97   11.40
  -5   2   9  257.77   12.00
  -5   2   9  253.07   11.60
   5   2  -9  275.07   12.30
  -4  -2   9  118.29    7.70
  -4  -2   9  142.19    8.90
   4  -2  -9  130.79    7.60
   4  -2  -9  126.59    8.50
   4  -2  -9  124.39    8.00
   4  -2  -9  126.29    7.90
   4  -2  -9  124.49    9.50
   4   2  -9  129.69    7.70
  -4   2   9  133.79    7.50
   4   2  -9  135.09    8.00
   4   2  -9  136.49    7.60
  -4   2   9  114.69    7.80
   4   2  -9  125.89    7.00
  -4   2   9  129.49    8.00
   4   2  -9  138.69    8.10
   4   2  -9  139.19    8.20
   3  -2  -9  157.28    8.90
   3  -2  -9  155.48    9.40
   3  -2  -9  151.98    8.50
   3  -2  -9  153.08   10.20
  -3  -2   9  165.08   10.00
   3   2  -9  150.78    8.80
   3   2  -9  149.79    8.60
   3   2  -9  151.28    8.50
   3   2  -9  166.78    8.60
  -3   2   9  148.39    8.90
   3   2  -9  153.38    8.80
  -3   2   9  155.38    9.10
  -3   2   9  146.09    8.30
   3   2  -9  154.08    7.80
   2  -2  -9  203.38   10.20
   2  -2  -9  189.18   11.50
  -2  -2   9  183.78   11.20
   2  -2  -9  193.98   10.30
   2  -2  -9  192.48   11.00
  -2  -2   9  194.88   10.60
  -2   2   9  208.48   10.70
   2   2  -9  198.08   10.20
   2   2  -9  188.18    9.60
  -2   2   9  197.28   10.70
   2   2  -9  208.98   10.80
   2   2  -9  189.98   10.00
   2   2  -9  225.38   12.30
  -2   2   9  213.68   10.30
   2   2  -9  208.88    9.50
  -1  -2   9   30.20    4.70
   1  -2  -9   34.30    4.50
   1  -2  -9   32.60    4.20
   1  -2  -9   33.50    5.10
  -1  -2   9   42.60    6.10
  -1  -2   9   21.00    4.10
  -1   2   9   34.10    4.90
   1   2  -9   30.10    3.70
   1   2  -9   32.00    4.00
   1   2  -9   38.40    4.60
   1   2  -9   40.80    4.90
  -1   2   9   32.30    4.40
   1   2  -9   32.10    4.80
  -1   2   9   33.20    4.90
   0  -2  -9  263.57   12.00
   0  -2   9  233.58   12.30
   0  -2  -9  258.27   12.20
   0  -2   9  229.48   13.30
   0  -2   9  231.58   12.70
   0  -2  -9  239.18   12.70
   0  -2   9  233.88   11.00
   0   2   9  257.47   12.00
   0   2  -9  246.58   12.50
   0   2  -9  252.87   10.70
   0   2   9  239.88   12.50
   0   2  -9  243.98   12.00
   0   2  -9  251.47   12.00
   0   2   9  241.78   12.30
   0   2  -9  233.28   11.30
   1  -2   9  125.29    8.20
  -1  -2  -9  125.89    8.70
   1  -2   9  123.39    9.20
   1  -2   9  109.49    8.70
   1  -2   9  112.89    8.00
   1  -2   9  119.19    9.60
  -1  -2  -9  125.59    8.00
  -1   2  -9  122.39    8.10
   1   2   9  121.19    8.50
  -1   2  -9  117.89    6.30
   1   2   9  124.99    8.70
  -1   2  -9  120.59    7.70
   1   2   9  127.09    8.00
  -1   2  -9  117.89    7.80
  -1   2  -9  140.49    8.90
   2  -2   9  169.48   11.20
   2  -2   9  193.48   12.10
   2  -2   9  194.88   10.50
   2  -2   9  168.08   10.70
   2  -2   9  167.78   11.20
  -2  -2  -9  196.78   10.20
  -2  -2  -9  169.98   10.60
  -2   2  -9  178.08   10.00
   2   2   9  180.28   10.20
  -2   2  -9  188.98    8.00
   2   2   9  192.18   10.80
  -2   2  -9  183.78   10.80
  -2   2  -9  175.98   10.20
   2   2   9  193.68   11.00
   3  -2   9   20.50    4.90
  -3  -2  -9   20.50    4.10
   3  -2   9   30.10    4.80
   3  -2   9   20.80    5.40
   3  -2   9   16.90    4.70
   3  -2   9   23.00    5.30
  -3  -2  -9   20.30    4.50
  -3   2  -9   25.30    4.80
  -3   2  -9   32.70    5.00
  -3   2  -9   18.80    2.20
  -3   2  -9   23.40    3.90
   3   2   9   15.30    4.20
   3   2   9   26.40    4.50
   4  -2   9  104.29    9.70
   4  -2   9  119.49    9.70
  -4  -2  -9  101.69    8.50
   4  -2   9  112.09    9.90
   4  -2   9  100.59    9.40
   4   2   9  106.99    8.70
  -4   2  -9  116.79    8.80
  -4   2  -9  121.19    8.90
   4   2   9  116.99    8.50
   5  -2   9    7.90    4.80
   5  -2   9    8.00    4.20
   5  -2   9    5.10    4.10
  -5  -2  -9    2.50    2.90
   5   2   9    6.90    3.90
   5   2   9    7.40    3.50
  -5   2  -9    4.40    3.20
  -5   2  -9    8.30    4.00
   6  -2   9  104.69   11.50
   6  -2   9  129.89   11.30
   6  -2   9  119.09   10.70
   6   2   9  135.49   10.30
  -6   2  -9  132.99    9.70
   6   2   9  140.79    9.70
   7  -2   9  156.48   13.80
   7  -2   9  144.29   12.00
   7  -2   9  134.39   12.10
   7   2   9  154.48   10.90
   7   2   9  159.38   11.30
   8  -2   9  110.99   13.30
   8  -2   9  134.49   11.70
   8  -2   9  111.79   11.90
   8   2   9  109.79    9.80
   8   2   9  121.69   10.60
  11  -3  -9   13.20    4.40
  11  -3  -9   13.20    4.90
  11  -3  -9   10.30    7.20
  11   3  -9    3.30    2.30
  11   3  -9    3.60    5.10
  10  -3  -9  280.17   14.30
  10  -3  -9  258.27   18.50
  10  -3  -9  270.07   14.80
  10   3  -9  272.47   15.90
  10   3  -9  270.77   12.10
  10   3  -9  274.37   12.10
   9  -3  -9  117.59   10.70
   9  -3  -9  103.89   11.70
   9  -3  -9  104.09    8.90
   9  -3  -9   93.39    8.10
   9   3  -9  101.39    6.70
   9   3  -9   95.59    6.70
   9   3  -9   82.39    8.40
   8  -3  -9   98.69   11.40
   8  -3  -9  118.49    9.60
   8  -3  -9  111.29    8.60
   8  -3  -9  114.79    9.40
   8   3  -9  118.49    9.40
   8   3  -9  103.89    7.00
   8   3  -9  110.59    7.40
   8   3  -9  115.09    9.10
  -8   3   9  111.59    8.90
   7  -3  -9   15.40    5.90
   7  -3  -9   13.70    3.80
   7  -3  -9    8.20    4.20
  -7   3   9   14.30    3.80
   7   3  -9   20.90    4.80
   7   3  -9   15.30    3.60
   7   3  -9   11.20    4.10
  -7   3   9    9.30    3.80
   7   3  -9   15.20    3.40
   6  -3  -9  345.37   16.80
   6  -3  -9  326.97   15.80
   6  -3  -9  329.87   18.80
   6   3  -9  351.96   15.10
   6   3  -9  344.17   15.40
  -6   3   9  332.37   16.40
   6   3  -9  348.77   16.40
   6   3  -9  317.57   16.20
  -6   3   9  337.27   15.80
   5  -3  -9  334.47   16.70
   5  -3  -9  302.67   17.90
   5  -3  -9  350.86   15.90
  -5  -3   9  313.37   16.00
   5   3  -9  324.47   15.70
  -5   3   9  349.57   15.90
   5   3  -9  355.16   15.50
  -5   3   9  313.57   16.40
   5   3  -9  341.67   15.90
   5   3  -9  348.67   15.10
   4  -3  -9   61.49    8.70
  -4  -3   9   58.09    7.40
   4  -3  -9   65.99    7.60
   4  -3  -9   66.99    6.80
  -4   3   9   64.29    6.10
   4   3  -9   53.79    5.70
   4   3  -9   61.89    6.00
   4   3  -9   56.89    6.40
   4   3  -9   70.89    6.80
  -4   3   9   71.09    6.80
   4   3  -9   53.09    8.40
   4   3  -9   59.09    6.30
  -4   3   9   59.19    7.20
   3  -3  -9   59.59    5.90
   3  -3  -9   43.70    6.20
  -3  -3   9   56.79    7.40
   3  -3  -9   49.40    8.00
   3  -3  -9   55.19    6.40
   3   3  -9   49.30    6.20
  -3   3   9   48.20    6.30
  -3   3   9   44.30    5.60
  -3   3   9   42.30    6.50
   3   3  -9   41.70    5.70
   3   3  -9   44.50    5.50
   3   3  -9   44.70    6.00
   3   3  -9   54.89    5.70
   2  -3  -9   79.59    7.30
  -2  -3   9   68.19    8.40
   2  -3  -9   58.79    7.10
  -2  -3   9   70.09    7.20
   2  -3  -9   65.09    8.30
   2  -3  -9   83.89    6.70
  -2   3   9   72.99    6.70
   2   3  -9   81.39    6.90
   2   3  -9   72.59    6.20
  -2   3   9   74.19    7.20
  -2   3   9   70.59    8.90
   2   3  -9   79.29    7.00
   2   3  -9   72.49    6.90
   2   3  -9   68.79    6.60
  -1  -3   9   87.59    6.70
  -1  -3   9   70.79    8.30
  -1  -3   9   66.89    8.30
   1  -3  -9   73.59    6.80
  -1  -3   9   56.59    7.00
   1  -3  -9   75.69    7.70
   1   3  -9   81.19    7.00
  -1   3   9   79.79    7.50
  -1   3   9   71.99    8.40
  -1   3   9   68.19    6.70
   1   3  -9   83.59    7.00
   1   3  -9   68.29    6.90
   1   3  -9   71.29    5.80
   1   3  -9   87.69    7.50
   0  -3   9   18.70    4.00
   0  -3  -9   12.80    4.40
   0  -3  -9   17.70    4.10
   0  -3   9   18.20    4.60
   0  -3   9   16.80    5.00
   0  -3   9   16.10    5.30
   0   3   9   14.60    4.30
   0   3   9   27.00    5.20
   0   3  -9   23.50    4.10
   0   3  -9   17.00    3.20
   0   3  -9   16.00    4.20
   0   3   9   15.50    3.90
   0   3  -9   16.70    4.20
   0   3  -9   19.40    4.40
  -1  -3  -9   54.59    7.10
   1  -3   9   65.79    8.40
   1  -3   9   57.19    7.30
   1  -3   9   66.19    6.90
   1  -3   9   65.79    8.50
  -1  -3  -9   63.99    6.60
  -1   3  -9   70.99    6.90
  -1   3  -9   64.39    5.00
  -1   3  -9   78.29    6.90
  -1   3  -9   69.39    7.30
   1   3   9   71.59    7.50
   1   3   9   62.89    6.70
   2  -3   9   70.39    7.80
   2  -3   9   68.29    9.00
  -2  -3  -9   83.29    8.10
   2  -3   9   65.39    8.60
   2  -3   9   84.89    8.50
  -2   3  -9   70.19    7.60
   2   3   9   74.59    6.70
  -2   3  -9   80.09    7.00
  -2   3  -9   81.39    5.20
   2   3   9   85.59    7.50
  -2   3  -9   86.69    7.80
   2   3   9   76.69    7.90
   3  -3   9   57.19   11.00
   3  -3   9   53.99    8.00
   3  -3   9   70.39    8.60
   3  -3   9   53.79    7.90
  -3  -3  -9   61.99    7.40
   3   3   9   49.90    6.40
  -3   3  -9   62.09    7.20
   3   3   9   51.09    6.30
   3   3   9   55.89    7.40
  -3   3  -9   63.29    7.40
   4  -3   9   39.60    7.50
  -4  -3  -9   47.70    6.60
   4  -3   9   42.10    7.10
   4  -3   9   48.10    8.00
   4   3   9   40.20    5.70
  -4   3  -9   45.50    6.70
   4   3   9   48.30    6.90
   4   3   9   50.19    6.10
   5  -3   9  201.18   14.70
   5  -3   9  184.68   13.60
   5  -3   9  174.28   13.90
   5   3   9  199.58   12.70
   5   3   9  208.78   12.30
  -5   3  -9  190.08   12.50
   5   3   9  204.18   11.20
   6  -3   9   66.19   10.40
   6  -3   9   40.30    8.20
   6  -3   9   57.49    8.80
   6   3   9   63.19    6.50
   6   3   9   51.69    7.60
  -6   3  -9   64.89    8.40
   6   3   9   61.39    7.60
   7  -3   9   38.30    9.00
   7  -3   9   43.90    8.20
   7   3   9   42.40    7.30
   7   3   9   36.30    6.10
   9  -4  -9   19.90    7.70
   9  -4  -9   28.10    6.30
   9  -4  -9   17.00    4.90
   9   4  -9   21.80    5.20
   9   4  -9   31.30    7.40
   9   4  -9   26.50    4.70
   8  -4  -9   83.79   12.10
   8  -4  -9  107.39    9.40
   8  -4  -9  114.69   10.60
   8   4  -9  104.09    8.30
   8   4  -9  119.79    8.30
   8   4  -9  103.69    9.40
   7  -4  -9   21.70    7.50
   7  -4  -9   15.10    4.70
   7  -4  -9   13.00    4.90
   7   4  -9   20.20    4.40
  -7   4   9   16.40    5.80
   7   4  -9   14.00    3.80
   7   4  -9    9.80    4.20
   6  -4  -9   20.20    5.90
   6  -4  -9   23.00    5.00
   6  -4  -9   27.20    7.60
   6   4  -9   25.30    5.40
   6   4  -9   29.50    6.20
   6   4  -9   29.00    5.10
   6   4  -9   30.60    5.00
  -6   4   9   18.90    5.90
  -6   4   9   17.30    4.70
   5  -4  -9   62.89    7.60
   5  -4  -9   75.49   10.50
   5  -4  -9   68.59    8.80
   5   4  -9   64.79    7.10
  -5   4   9   51.39    8.30
   5   4  -9   47.20    6.70
   5   4  -9   75.49    7.10
  -5   4   9   52.69    6.90
   5   4  -9   53.29    7.90
   4  -4  -9   47.70    7.70
   4  -4  -9   32.00    7.70
   4  -4  -9   40.00    6.00
  -4  -4   9   43.60    7.10
  -4  -4   9   45.80    7.20
   4   4  -9   44.90    6.90
  -4   4   9   47.60    6.90
   4   4  -9   36.90    5.50
  -4   4   9   38.70    7.10
   4   4  -9   38.60    5.50
   4   4  -9   46.50    6.20
   3  -4  -9    4.60    5.30
   3  -4  -9    7.90    3.90
  -3  -4   9    1.60    4.20
   3  -4  -9   12.70    4.70
   3   4  -9   -4.10    3.10
  -3   4   9    0.20    4.50
   3   4  -9    0.60    3.70
  -3   4   9    1.80    3.60
   3   4  -9    8.20    3.30
   3   4  -9    3.60    3.00
   2  -4  -9   20.60    4.70
  -2  -4   9   23.10    6.20
   2  -4  -9   17.30    5.80
   2  -4  -9   28.30    6.20
   2   4  -9   19.20    5.20
   2   4  -9   18.60    4.20
  -2   4   9   17.90    6.50
  -2   4   9   21.70    5.00
   2   4  -9   27.70    4.70
   2   4  -9   19.20    4.70
   1  -4  -9   67.79    8.60
  -1  -4   9   76.99   10.20
   1  -4  -9   60.19    7.50
   1   4  -9   82.09    8.50
  -1   4   9   81.79    8.50
   1   4  -9   73.69    8.10
   1   4  -9   79.59    6.80
   1   4  -9   74.79    7.30
  -1   4   9   63.29    9.40
   0  -4  -9  244.08   14.70
   0  -4   9  239.78   16.00
   0   4  -9  250.67   14.40
   0   4  -9  228.78   14.00
   0   4  -9  238.58   13.30
   0   4   9  232.88   13.20
   0   4  -9  257.77   12.30
   0   4   9  245.78   13.30
   0   4   9  230.58   14.00
  -1  -4  -9  106.79   10.10
   1  -4   9   98.99   11.40
   1   4   9  115.59    9.20
  -1   4  -9  118.19   10.00
   1   4   9  110.19    9.30
   1   4   9  111.19    9.90
  -1   4  -9  110.09    8.70
  -1   4  -9   92.19    7.10
  -1   4  -9  112.49    9.80
   2  -4   9   68.79    9.30
   2  -4   9   71.39   10.20
  -2  -4  -9   79.29    8.90
   2   4   9   66.79    8.60
   2   4   9   59.29    7.60
  -2   4  -9   91.49    9.10
   2   4   9   70.49    7.90
   3  -4   9    4.30    4.80
  -3  -4  -9   -3.40    3.50
   3  -4   9   -3.50    4.30
   3   4   9    0.20    3.40
   3   4   9    4.70    3.70
  -3   4  -9   -1.40    3.40
   3   4   9    4.50    4.10
   4  -4   9  169.28   14.30
   4  -4   9  210.28   15.90
   4   4   9  204.38   13.70
  -4   4  -9  196.88   13.60
   4   4   9  211.58   12.50
   4   4   9  196.48   12.60
   5  -4   9   10.00    6.60
   5  -4   9    8.60    6.00
  -5   4  -9    5.10    4.50
   5   4   9    7.70    4.50
   5   4   9   -0.50    4.60
   5   4   9    1.80    4.10
   6  -5  -9  128.19   11.20
   6   5  -9  104.59   16.00
   6   5  -9   97.89    9.40
   6   5  -9  115.69   10.80
   5  -5  -9   37.20    6.60
   5  -5  -9   22.90    6.90
   5  -5  -9   36.60    9.30
  -5   5   9   38.50    7.30
   5   5  -9   31.80    6.40
   5   5  -9   26.90    5.60
   5   5  -9   31.50    6.00
   4  -5  -9    8.90    6.60
   4  -5  -9   18.40    6.20
   4   5  -9    8.70    4.20
   4   5  -9   10.10    4.80
  -4   5   9    3.70    4.30
   4   5  -9    1.60    4.00
   3  -5  -9   57.39   10.30
   3  -5  -9   64.49    9.10
  -3   5   9   79.09    9.70
   3   5  -9   58.49    8.10
   3   5  -9   69.29    7.80
   3   5  -9   74.39    8.30
   2  -5  -9   19.10    5.90
   2  -5  -9   15.00    6.10
  -2  -5   9    3.20    5.50
  -2  -5   9   12.10    5.80
   2   5  -9    9.40    4.50
   2   5  -9   11.20    4.30
  -2   5   9    8.70    4.90
   2   5  -9   11.60    4.70
  -1  -5   9   96.09   12.50
   1  -5  -9   98.59   11.30
  -1  -5   9  114.49   12.30
  -1   5   9   91.99   10.10
   1   5  -9   88.99    8.50
   1   5  -9   96.79   10.20
   1   5  -9  100.69    9.40
  -1   5   9  111.69    9.50
   0  -5  -9   45.80    8.10
   0  -5   9   52.69    9.60
   0  -5   9   52.39    9.40
   0   5   9   47.40    7.80
   0   5   9   42.30    7.70
   0   5  -9   48.30    8.20
   0   5  -9   41.00    6.20
   1  -5   9  176.08   15.30
  -1  -5  -9  162.78   13.30
  -1   5  -9  164.78   13.10
   1   5   9  172.38   12.70
   1   5   9  190.28   13.80
   2  -5   9   37.30    9.10
  -2  -5  -9   54.39    8.50
  -2   5  -9   47.30    8.50
   2   5   9   35.20    7.20
  12   0 -10   11.70    5.40
  11   0 -10  248.28   10.40
  11   0 -10  242.88   14.50
  11   0 -10  240.38   10.10
  11   0 -10  239.88    9.90
  10   0 -10   47.40    6.70
  10   0 -10   53.99    4.40
  10   0 -10   54.09    4.40
  10   0 -10   58.69    4.30
   9   0 -10  467.95   20.00
   9   0 -10  429.16   17.20
   9   0 -10  442.86   17.00
   9   0 -10  455.45   17.40
   8   0 -10  758.62   27.50
   8   0 -10  769.92   27.70
   8   0 -10  759.52   29.30
   8   0 -10  761.82   26.90
   8   0 -10  777.52   27.90
   7   0 -10  271.67   11.50
   7   0 -10  274.07   12.50
  -7   0  10  267.57   10.80
   7   0 -10  261.97   11.90
   7   0 -10  250.17   11.40
  -7   0  10  252.57   11.40
   7   0 -10  270.67   11.70
  -6   0  10  268.57   12.10
  -6   0  10  272.87   11.60
  -6   0  10  295.47   12.20
   6   0 -10  272.27   11.90
   6   0 -10  266.87   12.10
   6   0 -10  272.97   12.40
   6   0 -10  283.57   12.30
   6   0 -10  267.67   12.00
  -5   0  10    6.10    2.10
  -5   0  10    5.20    2.60
   5   0 -10    5.20    1.90
   5   0 -10    0.80    1.70
   5   0 -10    2.90    1.90
   5   0 -10    2.60    2.20
   5   0 -10    0.90    1.80
  -5   0  10    1.00    2.10
   4   0 -10  204.98   10.00
   4   0 -10  197.28    9.60
   4   0 -10  187.78    9.50
  -4   0  10  189.08    9.90
  -4   0  10  189.68    9.40
  -4   0  10  199.88    9.40
   4   0 -10  195.38   10.00
   3   0 -10  407.66   16.50
   3   0 -10  362.56   15.80
   3   0 -10  377.46   16.40
   3   0 -10  389.86   15.90
  -3   0  10  367.06   15.70
  -3   0  10  391.96   16.50
  -3   0  10  404.36   15.90
  -2   0  10    1.20    3.20
   2   0 -10    0.40    1.80
  -2   0  10   -1.70    2.30
   2   0 -10   -1.10    1.80
   2   0 -10    0.80    2.10
   2   0 -10    0.40    1.80
  -2   0  10    3.70    2.30
  -1   0  10  185.28    8.20
  -1   0  10  185.28    9.90
  -1   0  10  183.28   10.00
  -1   0  10  211.78   10.80
   1   0 -10  182.78   10.20
   1   0 -10  194.88    9.80
   1   0 -10  187.38    9.70
   0   0  10  241.78   12.30
   0   0  10  221.68   10.30
   0   0  10  256.17   11.80
   0   0  10  232.08   11.60
   0   0  10  248.98   11.70
   0   0 -10  220.38   11.20
   0   0 -10  223.68   11.90
   0   0 -10  224.98   11.30
   1   0  10  410.36   17.10
  -1   0 -10  408.66   18.20
   1   0  10  415.46   18.50
  -1   0 -10  420.56   17.70
   1   0  10  436.56   18.00
  -1   0 -10  413.36   17.50
   1   0  10  415.36   17.90
  -1   0 -10  435.56   16.30
   2   0  10 1107.39   41.20
  -2   0 -10 1058.49   41.30
   2   0  10 1133.09   41.00
   2   0  10 1116.29   41.80
  -2   0 -10 1121.39   40.80
  -2   0 -10 1156.98   39.00
   2   0  10 1237.88   41.60
   3   0  10    7.40    3.40
   3   0  10   10.00    3.60
  -3   0 -10    6.90    3.10
   3   0  10   19.60    4.00
  -3   0 -10   11.50    3.00
  -3   0 -10   11.40    2.20
   3   0  10    7.30    3.70
   4   0  10   -3.90    2.90
   4   0  10   -2.60    2.50
   4   0  10    1.80    3.30
  -4   0 -10    0.50    2.50
   5   0  10  394.96   18.70
  -5   0 -10  403.76   18.50
   5   0  10  426.86   19.60
   6   0  10    4.00    3.20
   6   0  10    4.70    3.90
  -6   0 -10    0.10    2.50
   7   0  10   35.50    6.70
   7   0  10   26.30    5.50
   8   0  10    2.80    3.90
   8   0  10    7.70    4.90
  12  -1 -10   29.00    7.10
  12  -1 -10   20.30    3.40
  12   1 -10   28.80    5.80
  11  -1 -10   65.79    8.60
  11  -1 -10   55.29    4.90
  11  -1 -10   53.19    5.00
  10  -1 -10  118.69   10.30
  10  -1 -10  110.69    7.00
  10  -1 -10  108.79    7.00
  10   1 -10  120.39    6.30
  10   1 -10  117.59    6.00
  10   1 -10  109.19    6.10
   9  -1 -10    1.20    2.00
   9  -1 -10    3.20    2.20
   9  -1 -10   -2.00    3.10
   9  -1 -10   -0.60    1.60
   9   1 -10    2.30    2.80
   9   1 -10    2.90    1.90
   9   1 -10    3.00    1.80
   9   1 -10    2.60    1.90
   8  -1 -10    4.10    2.00
   8  -1 -10    5.70    2.60
   8  -1 -10    5.30    2.40
   8  -1 -10    4.80    2.30
   8  -1 -10    6.00    3.60
   8   1 -10    6.50    2.00
   8   1 -10    5.40    2.10
   8   1 -10    6.40    2.20
   8   1 -10    5.60    2.40
   8   1 -10    5.80    2.50
  -7  -1  10  362.46   14.80
   7  -1 -10  361.56   15.20
   7  -1 -10  364.96   15.20
   7  -1 -10  354.36   15.40
   7  -1 -10  354.16   17.00
   7  -1 -10  364.06   14.90
  -7  -1  10  373.06   14.10
  -7   1  10  355.66   14.10
   7   1 -10  347.67   14.60
   7   1 -10  334.97   14.80
  -7   1  10  369.36   15.00
   7   1 -10  369.66   14.70
   7   1 -10  363.96   14.80
  -6  -1  10   68.19    5.10
   6  -1 -10   67.39    6.70
   6  -1 -10   73.09    6.00
  -6  -1  10   77.09    6.00
   6  -1 -10   69.19    5.70
   6  -1 -10   70.99    5.40
   6  -1 -10   65.19    5.30
  -6   1  10   70.09    3.80
   6   1 -10   80.99    5.50
   6   1 -10   67.99    5.40
  -6   1  10   60.09    4.90
   6   1 -10   66.49    5.30
   6   1 -10   71.19    5.60
  -6   1  10   73.89    5.60
  -6   1  10   75.39    7.60
   5  -1 -10  221.48   10.80
  -5  -1  10  221.08   10.30
   5  -1 -10  206.78   11.30
   5  -1 -10  193.38   10.80
   5  -1 -10  213.08   10.50
  -5  -1  10  239.48   11.10
   5  -1 -10  218.68   10.40
   5   1 -10  209.38   10.60
   5   1 -10  225.68   10.40
   5   1 -10  236.18   10.80
  -5   1  10  220.88   10.10
  -5   1  10  214.58   10.70
   5   1 -10  211.48   10.30
  -5   1  10  221.28   12.10
   4  -1 -10  160.88    8.70
   4  -1 -10  125.59    8.40
   4  -1 -10  165.08    8.50
  -4  -1  10  151.38    8.30
   4  -1 -10  144.49    8.40
  -4  -1  10  166.18    9.20
   4  -1 -10  153.08    9.00
   4   1 -10  135.89    8.00
   4   1 -10  142.19    8.50
   4   1 -10  149.99    8.20
  -4   1  10  147.59    9.80
  -4   1  10  154.78    8.70
   4   1 -10  153.18    8.50
   3  -1 -10  241.58   11.50
   3  -1 -10  255.67   12.00
   3  -1 -10  228.78   11.80
   3  -1 -10  243.88   11.50
  -3  -1  10  232.78   12.10
  -3   1  10  259.37   13.10
  -3   1  10  239.38   11.90
  -3   1  10  241.28   11.30
   3   1 -10  257.67   12.00
   3   1 -10  241.58   11.40
   3   1 -10  259.77   11.60
   3   1 -10  247.98   11.90
  -3   1  10  226.48    9.70
   2  -1 -10  199.08   11.30
   2  -1 -10  225.28   11.10
  -2  -1  10  220.28    9.30
  -2  -1  10  232.38   11.90
  -2  -1  10  233.98   11.30
   2  -1 -10  238.38   11.20
  -2   1  10  220.28   10.90
   2   1 -10  224.98   10.90
  -2   1  10  234.08   11.60
   2   1 -10  238.98   11.10
  -2   1  10  231.08   12.50
   2   1 -10  213.88   11.30
   2   1 -10  218.38   13.20
  -1  -1  10  125.99    8.10
   1  -1 -10  129.89    7.70
  -1  -1  10  107.99    6.60
   1  -1 -10  110.59    8.10
  -1  -1  10  114.69    8.50
  -1  -1  10  120.59    6.50
   1  -1 -10  120.19    7.70
   1   1 -10  130.69    7.80
   1   1 -10  124.99    7.60
  -1   1  10  130.89    9.80
  -1   1  10  122.89    8.00
   1   1 -10  112.09    8.00
  -1   1  10  128.29    8.30
  -1   1  10  116.89    7.60
   0  -1 -10  130.09    8.80
   0  -1  10  115.89    8.40
   0  -1  10  141.89    8.30
   0  -1  10  119.69    8.90
   0  -1 -10  130.29    8.10
   0  -1  10  129.89    7.50
   0  -1 -10  132.89    8.10
   0   1  10  138.89    8.50
   0   1  10  134.59    9.00
   0   1  10  128.89    8.20
   0   1 -10  123.69    8.40
   0   1 -10  136.69    8.20
   0   1  10  123.19    7.30
   0   1 -10  130.69    8.00
  -1  -1 -10  921.61   35.00
   1  -1  10  895.81   35.20
   1  -1  10  917.91   34.00
  -1  -1 -10  933.11   34.10
   1  -1  10  952.80   34.50
   1  -1  10  898.71   34.60
  -1   1 -10  918.51   34.90
   1   1  10  913.31   34.30
  -1   1 -10  923.01   34.20
   1   1  10  922.41   34.90
  -1   1 -10  961.30   34.30
   1   1  10  918.81   34.50
   1   1  10  944.91   33.80
  -2  -1 -10  338.27   14.50
   2  -1  10  319.17   15.90
  -2  -1 -10  323.77   14.40
   2  -1  10  290.67   14.70
   2  -1  10  306.47   14.70
  -2  -1 -10  276.67   14.80
   2  -1  10  320.07   15.40
   2   1  10  332.47   15.10
   2   1  10  323.07   14.70
  -2   1 -10  318.27   14.40
   2   1  10  314.67   14.80
  -2   1 -10  331.47   15.40
   2   1  10  303.27   15.30
   3  -1  10  217.78   12.90
  -3  -1 -10  215.38    9.90
   3  -1  10  205.78   12.20
   3  -1  10  216.68   11.80
  -3  -1 -10  214.48   11.10
   3  -1  10  178.88   12.00
  -3  -1 -10  210.28   12.00
  -3   1 -10  218.38    8.50
   3   1  10  230.18   13.10
  -3   1 -10  219.58   12.20
  -3   1 -10  214.08   11.20
   3   1  10  225.18   11.90
   3   1  10  219.08   12.40
   3   1  10  209.18   11.80
   4  -1  10   88.69    8.50
   4  -1  10   71.69    8.30
  -4  -1 -10  102.29    8.20
   4  -1  10   89.39    8.80
  -4   1 -10   91.29    7.80
   4   1  10   94.79    8.40
   4   1  10   85.99    7.70
   4   1  10   95.59    8.70
   5  -1  10   78.19    8.90
  -5  -1 -10   93.89    7.90
   5  -1  10   82.39    8.60
  -5   1 -10   86.29    7.90
   5   1  10   82.29    8.60
   5   1  10   89.99    8.20
   6  -1  10   84.79    8.90
   6  -1  10   85.39    9.40
   6   1  10   85.99    8.60
  -6   1 -10   93.79    8.00
   6   1  10   89.39    9.20
   7  -1  10   22.60    5.60
   7  -1  10   24.80    6.30
   7   1  10   32.80    5.80
   7   1  10   24.50    5.60
   8  -1  10   28.50    7.10
   8  -1  10   41.20    7.40
   8   1  10   46.70    7.20
   8   1  10   39.10    6.40
  12  -2 -10   92.99   11.80
  12  -2 -10   77.99    6.90
  12   2 -10  103.99    9.50
  11  -2 -10   17.70    6.40
  11  -2 -10   25.50    4.50
  11  -2 -10   23.00    4.30
  11   2 -10   17.70    2.90
  11   2 -10   15.40    5.40
  10  -2 -10   11.10    3.20
  10  -2 -10    9.50    5.20
  10  -2 -10   16.30    3.90
  10   2 -10   14.00    4.60
  10   2 -10    8.90    2.50
  10   2 -10   11.90    2.70
   9  -2 -10   37.70    4.90
   9  -2 -10   39.00    7.50
   9  -2 -10   33.00    5.20
   9   2 -10   28.20    3.70
   9   2 -10   19.70    5.00
   9   2 -10   32.70    3.80
   8  -2 -10    7.70    3.10
   8  -2 -10    4.60    4.60
   8  -2 -10    9.30    3.20
   8  -2 -10    4.60    3.10
   8   2 -10    4.60    2.30
  -8   2  10    5.00    3.90
   8   2 -10    3.80    3.40
   8   2 -10    7.00    2.40
   8   2 -10    3.30    2.30
   7  -2 -10   18.50    5.20
   7  -2 -10   13.70    3.70
   7  -2 -10   18.30    3.90
   7   2 -10   11.40    3.10
  -7   2  10   13.60    3.20
  -7   2  10   20.30    3.80
   7   2 -10   13.10    4.20
   7   2 -10   16.40    3.20
   7   2 -10   20.30    3.30
   7   2 -10   15.60    3.50
   6  -2 -10   97.79    6.90
  -6  -2  10   89.09    7.10
   6  -2 -10   87.79    6.50
   6  -2 -10   87.19    7.40
   6  -2 -10   85.29    9.00
   6  -2 -10   85.29    6.90
   6   2 -10   83.79    6.30
   6   2 -10   85.69    7.40
   6   2 -10   90.59    6.30
   6   2 -10   86.19    5.90
   6   2 -10   89.09    6.70
  -6   2  10   86.49    6.70
   6   2 -10   80.29    6.60
  -6   2  10   90.79    6.30
  -5  -2  10  495.25   20.70
   5  -2 -10  521.95   22.50
   5  -2 -10  493.45   20.30
  -5  -2  10  533.55   20.10
   5  -2 -10  489.55   19.90
   5  -2 -10  468.15   20.80
  -5   2  10  492.65   19.50
   5   2 -10  481.95   19.70
   5   2 -10  496.05   20.20
   5   2 -10  498.25   19.70
  -5   2  10  468.45   19.30
   5   2 -10  500.85   20.20
  -5   2  10  497.75   20.40
   5   2 -10  498.95   18.60
   5   2 -10  482.25   20.70
   4  -2 -10   46.90    6.70
  -4  -2  10   43.00    5.40
   4  -2 -10   38.40    5.00
   4  -2 -10   48.60    5.90
  -4  -2  10   49.60    6.40
   4  -2 -10   43.60    4.90
   4   2 -10   48.90    5.10
   4   2 -10   40.80    4.90
  -4   2  10   41.50    5.10
   4   2 -10   51.59    4.10
  -4   2  10   51.89    5.00
   4   2 -10   43.10    5.30
   4   2 -10   38.00    4.90
  -4   2  10   54.69    5.80
   4   2 -10   38.80    5.20
   3  -2 -10  120.19    7.90
  -3  -2  10  120.89    9.10
   3  -2 -10  118.99    8.60
   3  -2 -10  126.29    7.70
   3  -2 -10  117.39    9.10
   3   2 -10  111.19    9.90
   3   2 -10  113.49    8.00
   3   2 -10  118.49    7.40
   3   2 -10  109.79    7.50
   3   2 -10  112.49    7.50
  -3   2  10  112.39    8.00
  -3   2  10  104.89    7.60
  -3   2  10  106.59    7.30
   3   2 -10  117.49    6.30
   2  -2 -10  283.97   13.30
   2  -2 -10  259.17   13.70
   2  -2 -10  292.07   13.10
  -2  -2  10  263.57   14.20
  -2  -2  10  239.48   13.10
  -2   2  10  269.57   12.70
   2   2 -10  271.17   11.50
  -2   2  10  286.37   13.70
  -2   2  10  263.47   13.10
   2   2 -10  275.57   13.00
   2   2 -10  252.27   12.30
   2   2 -10  285.57   12.90
   2   2 -10  266.37   13.40
  -1  -2  10  322.67   16.20
   1  -2 -10  367.46   16.90
  -1  -2  10  345.97   17.20
   1  -2 -10  339.07   15.80
   1  -2 -10  369.86   15.80
  -1  -2  10  346.27   15.60
   1   2 -10  341.77   14.50
  -1   2  10  376.56   15.90
   1   2 -10  363.16   14.90
   1   2 -10  356.26   15.80
  -1   2  10  371.86   16.50
   1   2 -10  335.57   15.50
   0  -2  10  208.78   12.30
   0  -2 -10  200.48   12.10
   0  -2  10  217.88   13.30
   0  -2  10  206.88   10.50
   0  -2  10  215.28   11.90
   0  -2 -10  212.68   11.50
   0   2  10  227.38   11.60
   0   2 -10  224.78   11.70
   0   2 -10  229.58   10.90
   0   2  10  230.48   12.30
   0   2 -10  243.38   11.80
   0   2 -10  240.88   12.50
   0   2 -10  232.28   10.30
   0   2  10  248.68   12.50
  -1  -2 -10   24.30    4.70
   1  -2  10   28.40    5.30
  -1  -2 -10   27.00    4.40
   1  -2  10   29.40    4.60
   1  -2  10   41.50    6.20
   1  -2  10   27.20    6.00
  -1   2 -10   35.00    4.60
   1   2  10   25.70    4.80
  -1   2 -10   29.60    3.20
  -1   2 -10   26.70    4.60
   1   2  10   28.70    4.60
   1   2  10   33.40    5.70
  -1   2 -10   37.20    5.00
  -2  -2 -10   66.49    7.20
   2  -2  10   53.79    7.70
   2  -2  10   49.90    6.80
   2  -2  10   57.09    6.50
   2  -2  10   59.19    7.30
  -2  -2 -10   60.49    6.10
   2  -2  10   53.59    6.80
   2   2  10   66.29    7.30
   2   2  10   52.19    6.30
  -2   2 -10   64.99    7.10
  -2   2 -10   53.99    6.00
  -2   2 -10   64.19    4.10
  -2   2 -10   65.09    6.30
   3  -2  10  155.68   11.70
  -3  -2 -10  154.78   10.50
   3  -2  10  144.89   10.70
   3  -2  10  142.89   10.90
   3  -2  10  158.28   11.30
  -3   2 -10  178.98   10.50
  -3   2 -10  144.69   10.20
   3   2  10  154.88   10.70
   3   2  10  136.69    9.60
   4  -2  10   27.40    6.40
   4  -2  10   25.30    7.70
   4  -2  10   32.20    6.10
  -4  -2 -10   26.90    4.90
   4  -2  10   27.90    6.30
   4   2  10   27.70    5.00
   4   2  10   23.90    5.20
  -4   2 -10   27.50    5.70
  -4   2 -10   30.70    5.50
   5  -2  10   36.30    6.50
   5  -2  10   34.60    7.00
   5  -2  10   35.70    7.20
  -5  -2 -10   39.60    5.70
   5   2  10   34.80    6.20
   5   2  10   37.00    5.90
  -5   2 -10   50.19    7.20
   6  -2  10   75.29    9.40
   6  -2  10   50.69    8.10
   6  -2  10   63.29    9.60
   6   2  10   69.49    8.00
  -6   2 -10   70.99    7.80
   6   2  10   67.89    8.60
   7  -2  10  112.09   11.30
   7  -2  10  103.79   11.00
   7  -2  10  108.79   12.40
   7   2  10  113.69   10.60
   7   2  10  120.79   10.10
  10  -3 -10    9.70    6.40
  10  -3 -10   17.00    4.40
  10  -3 -10   13.10    4.50
  10   3 -10   15.50    3.30
  10   3 -10   18.90    3.60
  10   3 -10    9.10    5.20
   9  -3 -10   36.40    5.70
   9  -3 -10   40.80    8.70
   9  -3 -10   45.30    6.70
   9   3 -10   30.90    4.10
   9   3 -10   37.10    4.80
   9   3 -10   41.10    6.60
   8  -3 -10  125.29    9.20
   8  -3 -10  142.99   10.30
   8  -3 -10  107.19   11.70
   8   3 -10  110.49    7.70
   8   3 -10  112.39    8.00
   8   3 -10  118.09    9.40
   7  -3 -10   58.99    9.40
   7  -3 -10   69.59    7.10
   7  -3 -10   59.39    7.40
  -7   3  10   51.89    6.90
   7   3 -10   46.90    6.70
   7   3 -10   51.59    5.90
  -7   3  10   50.89    7.60
   7   3 -10   54.89    5.80
   6  -3 -10   20.00    6.10
   6  -3 -10   16.60    4.80
   6  -3 -10   25.70    5.00
   6   3 -10   23.00    4.10
  -6   3  10   21.90    4.50
   6   3 -10   21.70    5.00
   6   3 -10   24.50    4.50
   6   3 -10   19.60    4.50
  -6   3  10   14.50    4.40
   5  -3 -10  297.87   15.60
   5  -3 -10  289.47   14.70
  -5  -3  10  296.57   15.30
   5  -3 -10  282.67   17.30
   5   3 -10  307.97   14.10
  -5   3  10  293.87   14.80
   5   3 -10  307.67   14.40
   5   3 -10  290.77   14.50
   5   3 -10  301.97   14.80
  -5   3  10  273.07   14.80
   4  -3 -10  147.99   10.50
   4  -3 -10  138.69   11.60
   4  -3 -10  145.39    9.80
  -4  -3  10  158.68   11.20
   4   3 -10  155.48   10.00
  -4   3  10  133.79   10.30
   4   3 -10  164.78    9.60
   4   3 -10  154.38    9.40
   4   3 -10  147.59    9.20
  -4   3  10  157.08   10.20
   3  -3 -10  248.98   14.30
   3  -3 -10  269.57   13.70
   3  -3 -10  249.58   15.50
  -3  -3  10  258.47   15.00
   3   3 -10  262.77   13.80
   3   3 -10  269.87   13.10
   3   3 -10  267.37   13.30
  -3   3  10  261.57   14.00
   3   3 -10  289.07   13.50
  -3   3  10  261.87   14.60
  -3   3  10  270.77   13.40
   2  -3 -10  223.38   12.10
   2  -3 -10  205.28   12.80
  -2  -3  10  205.48   13.60
   2   3 -10  225.98   12.50
   2   3 -10  233.28   11.50
  -2   3  10  221.68   11.70
  -2   3  10  196.38   13.00
  -2   3  10  215.18   12.40
   2   3 -10  218.58   11.80
   2   3 -10  223.78   11.60
  -1  -3  10   45.20    7.00
   1  -3 -10   32.30    5.50
   1  -3 -10   39.90    5.50
  -1  -3  10   55.69   11.00
  -1  -3  10   28.30    6.00
   1   3 -10   29.30    5.20
  -1   3  10   38.50    5.20
   1   3 -10   38.20    4.70
  -1   3  10   40.30    6.10
   1   3 -10   35.60    5.20
   1   3 -10   37.40    5.40
  -1   3  10   46.70    7.30
   0  -3 -10   83.69    7.50
   0  -3  10   90.29    7.10
   0  -3  10   91.09    9.40
   0  -3  10   91.49    8.80
   0  -3  10   83.39    9.60
   0  -3 -10  103.29    8.90
   0   3  10   78.79    8.10
   0   3  10   83.79    7.50
   0   3 -10  106.89    7.80
   0   3 -10   97.19    8.40
   0   3 -10   96.59    7.90
   0   3 -10   84.19    6.10
  -1  -3 -10    5.80    3.70
   1  -3  10   -1.00    3.40
   1  -3  10    8.80    5.00
   1  -3  10    2.40    4.20
   1  -3  10    5.60    3.70
  -1   3 -10    5.10    3.50
  -1   3 -10   10.00    3.70
   1   3  10    9.00    3.50
  -1   3 -10    3.10    2.10
   1   3  10    5.60    4.00
  -1   3 -10    5.20    3.10
  -2  -3 -10  110.19    9.40
   2  -3  10  109.29   10.70
   2  -3  10   91.29   10.40
   2  -3  10  100.79    8.90
   2  -3  10  110.09   10.00
  -2   3 -10  109.79    8.90
  -2   3 -10  103.49   10.50
  -2   3 -10  108.59    6.20
   2   3  10  106.79    9.40
  -2   3 -10  112.89    9.30
   2   3  10   91.49    8.20
   3  -3  10   55.79    8.10
  -3  -3 -10   64.99    7.90
   3  -3  10   60.89    9.00
   3  -3  10   50.89    7.90
   3   3  10   74.99    8.30
  -3   3 -10   50.19    7.00
  -3   3 -10   70.79    7.90
   3   3  10   66.29    7.40
   4  -3  10   56.79    8.60
   4  -3  10   64.99    9.20
   4  -3  10   51.89    8.20
  -4  -3 -10   57.99    7.80
  -4   3 -10   70.79    8.00
   4   3  10   64.19    8.20
   4   3  10   72.59    7.70
   5  -3  10   54.69    9.20
   5  -3  10   56.19    8.80
   5  -3  10   53.19    8.60
   5   3  10   43.10    7.20
  -5   3 -10   52.59    7.60
   5   3  10   44.20    6.40
   6  -3  10   52.49    9.70
   6  -3  10   47.50    9.30
   6  -3  10   29.00    7.00
   6   3  10   50.89    7.00
   6   3  10   55.39    7.90
   8  -4 -10   33.00    6.10
   8  -4 -10   42.40    9.70
   8  -4 -10   42.20    7.50
   8   4 -10   37.00    6.60
   8   4 -10   53.09    6.20
   8   4 -10   34.60    5.40
   7  -4 -10    3.40    5.60
   7  -4 -10    4.90    4.50
   7  -4 -10   -2.50    3.10
   7   4 -10    3.40    3.80
   7   4 -10    3.00    2.90
   7   4 -10    5.90    3.40
   6  -4 -10   81.59    9.50
   6  -4 -10   94.39    9.00
   6  -4 -10   77.49   11.50
  -6   4  10   99.69    8.90
   6   4 -10  100.69    8.70
   6   4 -10  110.89    9.40
   6   4 -10   91.69    8.00
   5  -4 -10   -1.20    3.30
   5  -4 -10   -0.60    4.80
   5  -4 -10    8.30    4.30
  -5   4  10   -2.50    4.30
   5   4 -10    4.20    3.70
   5   4 -10   -1.90    3.00
   5   4 -10    5.70    3.30
  -5   4  10    4.40    3.80
   4  -4 -10  218.58   14.60
  -4  -4  10  268.27   20.60
   4  -4 -10  233.38   16.40
   4  -4 -10  243.48   14.20
  -4   4  10  246.58   15.40
   4   4 -10  244.18   13.20
   4   4 -10  251.87   14.30
   4   4 -10  236.88   13.20
   4   4 -10  240.88   13.90
  -4   4  10  239.28   14.10
   3  -4 -10   21.80    6.40
   3  -4 -10   14.50    5.10
   3  -4 -10   15.30    4.70
  -3  -4  10   21.20    6.40
   3   4 -10   20.10    4.60
   3   4 -10   22.70    5.30
  -3   4  10   17.30    6.10
   3   4 -10   20.20    4.60
  -3   4  10   21.60    5.40
   3   4 -10   12.50    4.70
  -2  -4  10  195.18   14.70
   2  -4 -10  230.38   14.30
   2  -4 -10  209.18   13.10
   2   4 -10  245.78   14.10
   2   4 -10  245.78   12.70
  -2   4  10  198.08   14.80
  -2   4  10  243.18   14.10
   2   4 -10  224.98   13.50
   2   4 -10  246.88   13.30
   1  -4 -10   37.20    6.60
  -1  -4  10   54.89    8.70
   1   4 -10   49.40    6.70
   1   4 -10   44.80    5.60
   1   4 -10   37.00    6.70
   1   4 -10   41.70    6.60
  -1   4  10   29.70    7.20
  -1   4  10   51.19    7.10
   0  -4 -10  343.87   18.20
   0  -4  10  330.07   19.40
   0   4 -10  315.57   16.30
   0   4 -10  306.97   14.80
   0   4  10  308.77   17.20
   0   4 -10  311.27   16.90
   0   4  10  317.07   17.30
   0   4 -10  355.86   17.90
   1  -4  10   32.10    7.80
  -1  -4 -10   59.79    8.50
  -1   4 -10   43.60    7.00
  -1   4 -10   56.79    5.50
   1   4  10   64.59    8.60
   1   4  10   53.09    7.10
   2  -4  10  121.19   12.70
  -2  -4 -10  103.29   10.40
   2   4  10  126.09   11.00
   2   4  10  109.59    9.60
   2   4  10  117.39    9.70
  -2   4 -10  111.29   10.60
   3  -4  10  105.99   12.60
  -3  -4 -10  112.29   10.70
  -3   4 -10  112.29   10.90
   3   4  10  108.29    9.80
   3   4  10  104.19    9.00
   3   4  10   99.39   10.40
   4  -4  10   68.09   10.90
   4   4  10   76.79    8.40
   4   4  10   57.79   11.30
   4   4  10   55.09    7.40
  -4   4 -10   62.19    8.60
   4  -5 -10    0.30    6.10
   4  -5 -10    3.30    5.00
   4   5 -10   12.30    4.60
   4   5 -10    8.90    4.30
  -4   5  10   10.50    4.90
   3  -5 -10  104.09   12.40
   3  -5 -10  130.29   12.40
  -3   5  10  101.99   10.50
   3   5 -10  118.49   13.70
   3   5 -10  102.79    9.70
   3   5 -10  101.89    9.50
  -2  -5  10   -3.00    5.50
  -2  -5  10   -1.50    4.70
   2  -5 -10   -4.10    4.30
   2   5 -10    0.30    3.60
  -2   5  10    1.80    4.60
   2   5 -10    1.10    3.60
   2   5 -10    0.40    4.60
   1  -5 -10  209.78   15.00
  -1  -5  10  201.98   16.10
  -1  -5  10  195.08   16.60
   1   5 -10  189.18   14.40
   1   5 -10  229.08   13.00
  -1   5  10  191.08   14.30
   0  -5 -10  105.79   11.50
   0  -5  10   98.59   13.00
   0   5 -10   87.39   11.50
   0   5 -10   90.79   10.80
   0   5  10  107.79   11.30
  12   0 -11   34.80    3.90
  11   0 -11   71.29    5.30
  11   0 -11   70.29    5.00
  10   0 -11   31.70    4.10
  10   0 -11   44.30    6.60
  10   0 -11   32.60    4.10
   9   0 -11  464.45   18.00
   9   0 -11  446.66   19.80
   9   0 -11  455.05   18.20
   9   0 -11  454.85   17.90
   8   0 -11   12.30    2.60
   8   0 -11   15.80    3.30
   8   0 -11   12.40    2.90
   8   0 -11   10.90    3.60
   7   0 -11   30.80    4.50
   7   0 -11   26.00    4.00
   7   0 -11   28.70    3.90
  -7   0  11   32.30    4.30
   7   0 -11   37.50    4.20
   7   0 -11   35.80    5.90
  -6   0  11  157.98    8.80
  -6   0  11  162.48    8.40
   6   0 -11  157.68    9.10
   6   0 -11  153.28    8.20
  -6   0  11  173.48    8.50
   6   0 -11  148.59    8.50
   6   0 -11  164.18    8.60
   6   0 -11  172.68    9.00
  -5   0  11  280.07   12.10
   5   0 -11  254.67   12.30
   5   0 -11  286.67   12.60
   5   0 -11  287.77   13.00
  -5   0  11  285.37   13.00
   5   0 -11  266.17   12.90
  -5   0  11  272.17   12.20
   4   0 -11   13.90    3.00
  -4   0  11   20.50    4.00
   4   0 -11   12.40    2.90
   4   0 -11   18.50    3.90
  -4   0  11   15.70    3.20
  -4   0  11   14.80    3.30
   4   0 -11   19.70    3.50
   3   0 -11   -0.70    1.80
   3   0 -11    3.50    2.30
  -3   0  11   -1.90    2.00
  -3   0  11    6.80    3.20
   3   0 -11    1.60    2.40
  -3   0  11    3.80    3.00
  -2   0  11   45.20    5.60
  -2   0  11   41.10    5.20
   2   0 -11   49.20    5.10
   2   0 -11   45.50    5.50
  -2   0  11   40.80    5.60
   2   0 -11   49.40    5.00
  -1   0  11   74.89    4.80
   1   0 -11   70.09    6.00
  -1   0  11   72.99    7.20
  -1   0  11   77.09    6.80
   1   0 -11   71.19    6.10
  -1   0  11   71.39    6.50
   1   0 -11   82.19    7.00
   0   0  11   54.49    7.70
   0   0 -11   48.10    5.40
   0   0 -11   34.00    4.60
   0   0  11   47.90    5.70
   0   0  11   50.49    6.50
   0   0  11   48.90    6.10
   0   0  11   48.90    4.50
   0   0 -11   41.20    5.60
  -1   0 -11   73.59    6.40
   1   0  11   80.69    7.80
   1   0  11   70.29    6.80
   1   0  11   73.49    6.20
  -1   0 -11   79.99    7.20
   1   0  11   89.89    7.40
  -1   0 -11   84.99    5.40
  -2   0 -11    4.10    3.20
  -2   0 -11    7.80    2.10
   2   0  11    0.50    3.00
   2   0  11   -1.80    3.00
   2   0  11   10.50    3.50
   2   0  11    6.50    3.10
  -2   0 -11    6.70    2.90
   3   0  11    3.80    3.70
   3   0  11    2.10    3.30
  -3   0 -11    4.90    3.20
   3   0  11    3.40    3.20
   4   0  11   96.49    8.70
  -4   0 -11   84.79    7.90
   4   0  11   81.29    8.80
   4   0  11   91.59    8.70
   5   0  11   37.10    6.00
  -5   0 -11   43.20    6.30
   5   0  11   35.20    6.40
   6   0  11   31.50    6.10
   6   0  11   33.70    6.30
   7   0  11  157.18   12.70
   7   0  11  152.18   11.70
  12  -1 -11  109.99    7.10
  12  -1 -11  124.29   11.60
  12  -1 -11  105.69    8.40
  11  -1 -11    7.10    2.60
  11  -1 -11    8.10    5.10
  11  -1 -11   12.80    3.00
  11   1 -11    6.40    2.20
  10  -1 -11    7.80    2.90
  10  -1 -11    2.20    3.80
  10  -1 -11    2.40    2.30
  10   1 -11    5.70    2.20
  10   1 -11    4.50    2.20
   9  -1 -11  102.59    7.00
   9  -1 -11   99.89    6.90
   9  -1 -11   97.59    9.10
   9   1 -11   87.69    6.10
   9   1 -11   88.89    6.10
   9   1 -11   94.89    6.30
   8  -1 -11   79.09    8.10
   8  -1 -11   76.29    6.20
   8  -1 -11   84.29    6.60
   8   1 -11   90.79    6.00
   8   1 -11   85.99    6.00
   8   1 -11   82.29    6.10
   7  -1 -11  437.96   18.70
   7  -1 -11  442.56   18.30
   7  -1 -11  430.56   19.70
   7  -1 -11  458.45   18.20
   7   1 -11  418.46   17.80
   7   1 -11  463.55   18.40
   7   1 -11  460.85   17.90
  -7   1  11  457.25   18.20
   6  -1 -11   29.70    4.20
  -6  -1  11   44.00    5.50
   6  -1 -11   33.60    4.30
   6  -1 -11   38.50    5.10
   6  -1 -11   38.50    5.00
  -6  -1  11   32.80    4.60
   6  -1 -11   37.20    5.50
   6   1 -11   36.90    4.50
   6   1 -11   30.80    4.40
   6   1 -11   39.60    4.60
   6   1 -11   28.50    4.00
  -6   1  11   38.90    4.90
   5  -1 -11  397.16   17.70
   5  -1 -11  421.96   17.20
   5  -1 -11  400.46   17.20
  -5  -1  11  400.66   17.60
   5  -1 -11  431.66   17.70
   5  -1 -11  412.26   18.00
  -5  -1  11  411.86   16.90
   5   1 -11  407.96   17.40
   5   1 -11  434.36   17.30
   5   1 -11  400.26   17.00
  -5   1  11  424.66   18.70
   5   1 -11  405.06   17.50
  -5   1  11  409.36   17.60
  -5   1  11  408.56   16.70
   4  -1 -11    1.90    2.70
  -4  -1  11    4.70    2.50
  -4  -1  11    2.40    3.00
   4  -1 -11    4.10    2.60
   4  -1 -11    5.70    2.50
   4  -1 -11    4.80    2.60
  -4   1  11    3.00    3.80
   4   1 -11    8.90    3.20
   4   1 -11    7.60    2.70
  -4   1  11    1.70    1.70
   4   1 -11    5.00    2.50
  -4   1  11    7.40    3.10
   4   1 -11    5.30    2.50
  -3  -1  11   28.70    4.70
  -3  -1  11   34.70    4.60
   3  -1 -11   24.80    4.10
   3  -1 -11   32.60    5.10
   3  -1 -11   43.60    4.90
  -3   1  11   29.70    3.40
  -3   1  11   26.80    3.90
  -3   1  11   32.80    4.90
   3   1 -11   33.10    4.70
   3   1 -11   25.60    4.00
   3   1 -11   38.50    4.80
  -3   1  11   35.60    6.10
   2  -1 -11  118.19    7.80
  -2  -1  11  115.59    8.00
  -2  -1  11  103.49    6.00
   2  -1 -11  121.09    7.90
   2  -1 -11  106.79    8.10
  -2  -1  11   97.29    8.20
  -2   1  11  128.69    7.90
  -2   1  11  113.99    5.80
  -2   1  11  104.69    8.20
   2   1 -11  115.19    7.60
   2   1 -11  115.99    8.20
   2   1 -11  127.79    8.00
   1  -1 -11  119.59    7.80
  -1  -1  11   95.29    6.50
   1  -1 -11  109.59    7.60
  -1  -1  11   92.59    6.40
   1  -1 -11  105.99    8.30
  -1  -1  11  110.59    8.00
  -1  -1  11   99.19    8.50
   1   1 -11  107.39    8.10
  -1   1  11  109.99    7.70
  -1   1  11  113.29    8.50
  -1   1  11  111.79    6.20
   1   1 -11  119.59    7.90
   1   1 -11  110.69    7.50
   0  -1 -11  418.16   18.10
   0  -1 -11  413.36   18.10
   0  -1 -11  402.86   18.80
   0  -1  11  407.66   18.60
   0  -1  11  414.76   17.30
   0  -1  11  423.26   19.40
   0   1 -11  449.56   18.30
   0   1  11  431.76   19.10
   0   1 -11  433.26   18.90
   0   1  11  449.86   18.40
   0   1  11  419.56   17.10
   0   1 -11  422.06   18.20
   0   1  11  407.76   18.90
  -1  -1 -11    7.70    2.80
   1  -1  11   14.60    4.60
   1  -1  11    8.00    3.50
   1  -1  11    8.40    3.30
  -1  -1 -11    5.30    3.30
   1  -1  11   -1.20    3.70
   1   1  11    8.20    3.00
  -1   1 -11    8.60    3.20
   1   1  11    2.90    3.00
   1   1  11    6.80    3.30
  -1   1 -11    9.30    3.10
   1   1  11    6.90    3.70
   2  -1  11  439.46   19.60
   2  -1  11  451.05   20.30
  -2  -1 -11  433.06   19.40
  -2  -1 -11  438.56   18.40
   2  -1  11  394.86   18.60
   2  -1  11  433.36   19.00
  -2   1 -11  408.26   19.10
  -2   1 -11  417.26   18.30
   2   1  11  423.66   18.80
   2   1  11  428.26   18.50
   2   1  11  416.56   20.80
   2   1  11  391.36   19.10
   3  -1  11   13.40    4.60
   3  -1  11   13.80    4.80
  -3  -1 -11   10.80    3.70
   3  -1  11   16.20    4.50
   3   1  11   17.90    5.10
  -3   1 -11   22.00    4.70
   3   1  11   21.90    4.80
   3   1  11   14.80    4.00
   4  -1  11  176.08   12.00
   4  -1  11  190.78   12.20
  -4  -1 -11  171.38   11.10
   4  -1  11  172.08   12.50
   4   1  11  156.58   11.00
   4   1  11  185.68   12.10
   4   1  11  176.68   11.80
  -4   1 -11  178.38   11.30
  -5  -1 -11   93.39    8.30
   5  -1  11   84.59    9.50
   5  -1  11   59.09    7.80
  -5   1 -11   77.69    7.90
   5   1  11   82.69    9.10
   5   1  11   88.59    8.50
   6  -1  11    0.60    4.10
   6  -1  11    6.50    4.30
   6   1  11   -1.30    3.40
  -6   1 -11    9.10    5.70
   6   1  11   13.00    5.00
   7  -1  11  115.19   10.90
   7  -1  11   96.59   11.10
   7   1  11  121.29   10.50
   7   1  11  114.29   10.90
  11  -2 -11   12.90    3.70
  11  -2 -11   14.00    6.50
  11  -2 -11   11.30    3.70
  11   2 -11   14.40    5.30
  11   2 -11   16.20    3.00
  10  -2 -11  148.69    9.40
  10  -2 -11  143.89    9.50
  10  -2 -11  148.29   12.80
  10   2 -11  148.59    8.00
  10   2 -11  146.39   11.30
  10   2 -11  142.79    7.90
   9  -2 -11    9.80    5.50
   9  -2 -11   10.70    3.60
   9  -2 -11   13.80    4.00
   9   2 -11   14.70    4.90
   9   2 -11   12.60    3.20
   9   2 -11   15.30    3.10
   8  -2 -11   93.09    9.70
   8  -2 -11   84.69    7.70
   8  -2 -11   95.39    7.40
   8   2 -11   94.99    6.50
   8   2 -11  100.29    8.70
   8   2 -11   90.39    6.80
   7  -2 -11   11.40    3.40
   7  -2 -11   14.20    5.00
   7  -2 -11   22.70    4.60
   7   2 -11   18.30    4.00
   7   2 -11   19.30    4.90
   7   2 -11   22.80    3.70
  -7   2  11   24.20    4.20
  -6  -2  11  363.56   16.50
   6  -2 -11  373.96   16.10
   6  -2 -11  342.27   16.60
   6  -2 -11  320.87   17.50
   6   2 -11  354.46   15.30
   6   2 -11  356.76   16.90
   6   2 -11  358.26   14.20
  -6   2  11  329.87   14.40
  -6   2  11  338.47   15.70
   6   2 -11  364.16   15.90
   5  -2 -11   43.50    6.70
  -5  -2  11   45.70    6.10
   5  -2 -11   49.20    5.80
   5  -2 -11   43.20    6.10
   5   2 -11   47.50    5.60
   5   2 -11   50.39    5.70
   5   2 -11   43.10    3.60
  -5   2  11   43.20    5.60
   5   2 -11   34.70    5.00
  -5   2  11   44.80    4.80
   5   2 -11   44.70    5.20
   4  -2 -11  385.56   18.60
  -4  -2  11  428.36   19.00
   4  -2 -11  408.56   18.80
   4  -2 -11  412.76   18.00
   4  -2 -11  407.96   19.50
  -4   2  11  413.06   18.20
   4   2 -11  434.96   15.50
   4   2 -11  427.76   17.70
   4   2 -11  429.26   18.60
  -4   2  11  389.86   18.60
  -4   2  11  386.36   16.80
   4   2 -11  404.16   17.90
   4   2 -11  418.96   18.30
  -3  -2  11   91.79    8.30
   3  -2 -11  114.89    7.70
   3  -2 -11  106.89    8.00
  -3  -2  11   99.19    8.80
   3  -2 -11  117.79    8.70
  -3   2  11  110.89    7.90
   3   2 -11   95.19    7.00
   3   2 -11  101.19    7.40
   3   2 -11   98.69    7.40
  -3   2  11   99.79    7.90
   3   2 -11   97.19    7.90
  -3   2  11   95.59    7.20
   3   2 -11   94.49    5.60
   2  -2 -11   85.29    8.20
   2  -2 -11  114.09    7.80
  -2  -2  11   98.89    9.20
  -2  -2  11   90.59    8.20
   2  -2 -11  109.19    8.00
   2   2 -11  105.79    6.20
  -2   2  11  112.19    7.90
   2   2 -11  114.19    8.10
   2   2 -11  107.69    8.30
   2   2 -11  126.69    8.10
  -2   2  11  111.09    8.50
   2   2 -11  111.79    7.30
  -2   2  11  104.99    8.30
  -1  -2  11  342.27   17.70
  -1  -2  11  328.77   15.80
  -1  -2  11  323.57   16.60
   1  -2 -11  336.67   16.10
   1  -2 -11  353.66   17.10
   1  -2 -11  392.46   16.50
  -1   2  11  342.47   15.90
   1   2 -11  357.26   16.30
   1   2 -11  353.36   15.10
   1   2 -11  376.86   14.90
   1   2 -11  367.46   16.20
  -1   2  11  359.36   16.90
   1   2 -11  354.06   16.90
   0  -2  11  119.19    9.20
   0  -2  11  108.79    7.20
   0  -2 -11  114.29    8.20
   0  -2  11  106.29    8.50
   0  -2 -11  117.89    9.00
   0  -2  11  122.79   10.20
   0   2 -11  112.29    8.10
   0   2  11  105.79    8.00
   0   2 -11  112.59    8.90
   0   2 -11  120.09    8.70
   0   2 -11  113.39    7.30
   0   2  11  114.79    9.10
   0   2 -11  110.69    6.80
   1  -2  11   38.90    6.10
   1  -2  11   51.79    6.90
   1  -2  11   53.99    6.10
  -1  -2 -11   53.29    6.90
  -1  -2 -11   55.29    6.10
   1  -2  11   50.19    7.60
  -1   2 -11   56.89    6.20
  -1   2 -11   50.59    6.70
   1   2  11   45.70    5.90
   1   2  11   51.99    6.90
  -1   2 -11   58.59    5.70
  -1   2 -11   56.89    4.50
   2  -2  11   22.00    5.00
   2  -2  11   19.50    5.40
   2  -2  11   13.40    4.70
   2  -2  11   24.60    5.50
  -2  -2 -11   15.80    4.40
  -2   2 -11   21.90    4.10
  -2   2 -11   15.10    2.60
   2   2  11   14.20    4.10
   2   2  11   21.20    5.10
  -2   2 -11    7.70    3.70
  -2   2 -11   23.20    4.50
  -3  -2 -11  262.07   14.40
   3  -2  11  254.97   15.60
   3  -2  11  233.78   14.20
   3  -2  11  253.37   14.80
   3  -2  11  224.08   14.50
   3   2  11  267.17   13.90
   3   2  11  258.77   14.50
   3   2  11  245.48   14.00
  -3   2 -11  236.08   13.90
  -3   2 -11  252.37   13.60
   4  -2  11   24.40    5.70
  -4  -2 -11   30.10    5.50
   4  -2  11   23.90    6.10
   4  -2  11   20.30    5.90
   4   2  11   48.90    7.30
  -4   2 -11   30.20    5.90
   4   2  11   29.60    5.40
  -4   2 -11   26.50    5.80
   5  -2  11  262.67   16.80
  -5  -2 -11  285.57   18.60
   5  -2  11  276.07   17.00
   5  -2  11  269.97   16.40
  -5   2 -11  262.57   15.30
   5   2  11  255.27   14.80
   5   2  11  277.87   15.80
   6  -2  11   11.40    5.60
   6  -2  11   13.40    6.20
   6  -2  11   20.60    6.10
   6   2  11   13.90    4.60
   6   2  11    5.30    4.20
  10  -3 -11   16.30    4.60
  10  -3 -11   20.30    4.70
  10  -3 -11   14.40    6.80
  10   3 -11   13.10    3.50
  10   3 -11   23.70    5.90
  10   3 -11   15.20    3.40
   9  -3 -11    1.10    3.40
   9  -3 -11   -3.70    2.60
   9  -3 -11    0.00    5.20
   9   3 -11    2.30    2.70
   9   3 -11   -4.00    3.70
   9   3 -11    0.60    2.60
   8  -3 -11   10.00    3.90
   8  -3 -11    7.50    5.50
   8  -3 -11    6.30    3.80
   8   3 -11   10.20    3.20
   8   3 -11   11.80    3.50
   8   3 -11    8.50    4.30
   7  -3 -11  355.46   16.90
   7  -3 -11  328.57   19.50
   7  -3 -11  350.96   17.50
   7   3 -11  319.97   17.00
   7   3 -11  339.77   15.70
   7   3 -11  360.16   16.20
   6  -3 -11   31.80    7.40
   6  -3 -11   32.40    5.90
   6  -3 -11   28.70    5.20
   6   3 -11   24.00    5.00
  -6   3  11   35.50    5.70
   6   3 -11   27.10    4.80
   6   3 -11   22.20    4.20
   5  -3 -11   50.29    7.00
   5  -3 -11   70.19    7.40
   5  -3 -11   81.09    9.60
  -5  -3  11   73.19   10.20
   5   3 -11   48.30    6.70
   5   3 -11   57.19    6.80
  -5   3  11   59.99    7.00
   5   3 -11   70.99    6.60
  -5   3  11   52.09    7.20
   4  -3 -11  129.79   11.50
  -4  -3  11  143.49   11.00
   4  -3 -11  135.49   10.30
   4  -3 -11  139.49    9.70
  -4   3  11  150.28   10.10
  -4   3  11  125.99   10.00
   4   3 -11  144.59    8.70
   4   3 -11  133.49    9.20
   4   3 -11  134.59    9.10
   4   3 -11  117.49    9.30
   3  -3 -11    7.70    4.50
   3  -3 -11   -2.40    3.30
  -3  -3  11   -1.90    3.90
   3  -3 -11    1.80    3.00
   3   3 -11    1.90    2.70
   3   3 -11    1.90    2.80
   3   3 -11    0.20    2.50
  -3   3  11   -2.00    3.10
   3   3 -11   -1.00    3.00
  -3   3  11    2.90    4.20
   2  -3 -11   24.90    4.80
  -2  -3  11   27.00    6.20
   2  -3 -11   28.60    5.60
   2   3 -11   32.70    5.10
  -2   3  11   25.80    5.50
   2   3 -11   25.30    4.40
  -2   3  11   30.60    6.30
   2   3 -11   25.10    5.10
   2   3 -11   26.40    4.50
   1  -3 -11    8.10    3.90
  -1  -3  11    6.50    4.80
  -1  -3  11   11.20    4.80
   1  -3 -11    8.50    3.90
  -1   3  11    3.90    4.60
   1   3 -11   14.30    3.80
   1   3 -11   17.00    3.60
   1   3 -11   11.30    3.60
  -1   3  11   13.20    3.60
   1   3 -11   11.50    3.90
  -1   3  11   19.10    4.80
   0  -3  11   50.29    7.90
   0  -3 -11   67.19    8.00
   0  -3  11   59.99    8.40
   0  -3 -11   44.70    8.00
   0   3 -11   43.00    6.70
   0   3 -11   50.09    6.20
   0   3  11   45.10    7.00
   0   3 -11   45.30    5.00
   0   3 -11   43.10    5.80
   0   3  11   39.60    5.60
  -1  -3 -11   36.00    6.50
   1  -3  11   23.60    6.30
   1  -3  11   31.80    7.00
   1   3  11   26.70    5.00
   1   3  11   32.20    5.90
  -1   3 -11   41.10    5.80
  -1   3 -11   32.00    3.90
  -1   3 -11   34.80    5.80
  -1   3 -11   31.70    5.50
   2  -3  11   71.69    9.90
   2  -3  11   74.19   10.50
  -2  -3 -11   64.89    8.30
   2   3  11   80.29    8.70
  -2   3 -11   77.29    7.80
  -2   3 -11   82.99    8.70
   2   3  11   83.59    8.10
   3  -3  11   17.30    5.90
   3  -3  11   10.70    5.30
   3  -3  11    9.80    5.60
  -3  -3 -11    8.50    4.40
   3   3  11   10.50    4.40
  -3   3 -11   16.10    4.80
   3   3  11   15.80    4.60
   4  -3  11   60.09    9.00
   4  -3  11   52.99    9.40
  -4  -3 -11   42.80    6.70
   4  -3  11   62.39    9.20
   4   3  11   67.19    8.70
  -4   3 -11   79.29    8.80
   4   3  11   65.29    8.00
   5  -3  11   19.50    6.80
   5  -3  11   18.80    7.00
   5  -3  11   20.40    6.00
  -5   3 -11   25.60    5.50
   5   3  11   15.90    6.00
   5   3  11   20.20    5.40
   8  -4 -11   52.19    9.90
   8  -4 -11   57.69    7.90
   8  -4 -11   94.59   14.60
   8   4 -11   71.89    9.00
   8   4 -11   74.59    7.70
   7  -4 -11   20.70    7.10
   7  -4 -11   21.00    5.70
   7  -4 -11    7.80    4.70
   7   4 -11   22.30    4.70
   7   4 -11   26.20    6.30
   7   4 -11   27.30    5.20
   6  -4 -11   95.39   10.00
   6  -4 -11   89.49   11.60
   6  -4 -11   80.39    9.00
  -6   4  11  114.59   12.60
   6   4 -11   78.19    8.40
   6   4 -11   95.59    8.10
   6   4 -11   80.49    8.30
   5  -4 -11   22.00    7.20
   5  -4 -11   29.80    5.80
   5  -4 -11   25.60    6.20
   5   4 -11   21.50    5.00
   5   4 -11   25.30    5.10
  -5   4  11   31.10    6.20
   5   4 -11   38.60    5.90
   4  -4 -11   75.39   10.40
   4  -4 -11   84.59    9.30
   4  -4 -11   66.19    8.30
   4   4 -11   85.99    8.00
   4   4 -11   66.39    8.10
  -4   4  11   73.59    8.60
   4   4 -11   76.29    7.60
   3  -4 -11   80.79    8.70
   3  -4 -11   97.39   10.00
  -3  -4  11   70.19    9.60
   3  -4 -11   67.09   10.00
   3   4 -11   92.09    7.60
  -3   4  11   75.79    8.80
   3   4 -11   88.09    8.30
   3   4 -11   93.49    9.10
  -3   4  11   90.89   11.00
  -2  -4  11  250.57   16.60
   2  -4 -11  248.08   15.50
   2   4 -11  235.68   14.70
   2   4 -11  250.77   13.30
  -2   4  11  255.37   15.00
   2   4 -11  248.88   14.10
   1  -4 -11   34.60    6.70
  -1  -4  11   27.20    7.00
   1   4 -11   38.40    5.30
   1   4 -11   27.90    5.70
   1   4 -11   29.50    5.80
   1   4 -11   38.00    7.50
  -1   4  11   26.60    5.90
   0  -4  11   30.70    8.00
   0  -4 -11   34.70    6.90
   0   4 -11   40.70    7.00
   0   4 -11   30.20    6.00
   0   4 -11   43.20    5.20
   0   4 -11   34.30    6.70
   0   4  11   37.60    6.70
   1  -4  11   25.70    7.90
  -1  -4 -11   14.20    5.10
  -1   4 -11   19.90    5.50
   1   4  11   27.40    6.40
  -2  -4 -11  117.39   11.10
   2  -4  11  127.59   13.30
  -2   4 -11  113.79   11.10
   2   4  11  115.59   11.30
   2   4  11  124.79   10.40
   3  -4  11    5.90    5.90
  -3  -4 -11   -0.40    4.30
  -3   4 -11   -2.50    4.10
   3   4  11    3.80    4.20
  12   0 -12    2.30    2.30
  11   0 -12    1.90    2.10
  11   0 -12    0.50    2.00
  10   0 -12   70.59    5.90
  10   0 -12   83.59    6.20
   9   0 -12  306.37   13.80
   9   0 -12  301.57   13.50
   8   0 -12    1.70    2.20
   8   0 -12    2.40    2.50
   8   0 -12    0.30    2.30
   7   0 -12  509.85   20.10
   7   0 -12  473.35   20.30
   7   0 -12  510.05   19.70
   6   0 -12  192.28   10.40
  -6   0  12  178.28   10.00
   6   0 -12  172.78    9.60
   6   0 -12  182.68    8.90
   6   0 -12  183.78   10.10
   6   0 -12  183.48   10.30
  -5   0  12   -0.40    2.60
   5   0 -12    4.70    2.30
   5   0 -12    2.70    2.40
   5   0 -12    2.90    2.40
   5   0 -12    5.90    3.00
   4   0 -12   23.60    4.00
   4   0 -12   38.20    4.90
  -4   0  12   35.30    5.00
  -4   0  12   34.10    4.90
   4   0 -12   37.40    5.10
   3   0 -12  468.25   19.90
   3   0 -12  506.15   20.20
  -3   0  12  473.15   20.00
   3   0 -12  474.75   20.70
  -3   0  12  512.05   19.90
  -3   0  12  489.55   20.80
   2   0 -12  161.78   10.20
  -2   0  12  168.48   10.40
  -2   0  12  140.49    9.30
   2   0 -12  171.18    9.50
   2   0 -12  160.48    9.40
  -2   0  12  158.18   10.00
   1   0 -12  321.17   15.40
  -1   0  12  259.97   14.60
   1   0 -12  332.87   14.70
  -1   0  12  313.37   14.70
  -1   0  12  295.87   15.30
  -1   0  12  314.07   12.50
   1   0 -12  311.17   14.50
   0   0 -12  163.98   10.30
   0   0 -12  161.78    9.50
   0   0  12  159.38   10.70
   0   0  12  144.39    9.60
   0   0 -12  161.38   10.70
   0   0  12  139.59    8.20
   1   0  12  131.99    8.10
  -1   0 -12  132.19    8.50
  -1   0 -12  125.49    9.30
   1   0  12  105.59    9.50
   1   0  12  124.19    9.10
   2   0  12   32.40    5.50
  -2   0 -12   36.30    5.80
  -2   0 -12   33.80    4.80
   2   0  12   29.70    5.70
   2   0  12   36.60    5.50
  -3   0 -12  810.32   32.50
   3   0  12  813.72   33.10
   3   0  12  825.62   32.40
   3   0  12  795.12   32.10
   4   0  12  247.78   14.40
   4   0  12  259.97   15.20
  -4   0 -12  246.58   14.20
   5   0  12   49.99    7.00
   5   0  12   47.60    7.50
  -5   0 -12   39.90    6.20
   6   0  12    9.70    4.60
   6   0  12   10.90    5.30
  11  -1 -12   82.89    6.40
  11  -1 -12   76.59    6.30
  11  -1 -12   64.49    9.00
  11   1 -12   81.89    5.50
  11   1 -12   61.79    5.40
  10  -1 -12   10.50    3.30
  10  -1 -12   11.40    3.20
  10  -1 -12    8.50    4.50
  10   1 -12    9.60    2.70
  10   1 -12   12.30    2.90
   9  -1 -12  101.99    7.40
   9  -1 -12  100.09    7.60
   9  -1 -12  112.39    9.50
   9   1 -12  107.99    7.10
   9   1 -12  114.69    7.30
   8  -1 -12  138.99    8.60
   8  -1 -12  144.39   10.20
   8  -1 -12  149.59    9.20
   8   1 -12  122.59    8.20
   8   1 -12  135.69    8.10
   7  -1 -12   27.90    5.10
   7  -1 -12   21.10    3.80
   7  -1 -12   22.40    4.30
   7   1 -12   24.40    4.00
   7   1 -12   24.60    4.10
   6  -1 -12  136.09   11.00
   6  -1 -12  131.79    9.10
  -6  -1  12  127.29    8.60
   6  -1 -12  126.19    8.80
   6  -1 -12  130.79    8.40
  -6   1  12  132.99    8.50
   6   1 -12  126.79    8.10
   6   1 -12  132.89    8.70
   5  -1 -12   73.89    6.90
   5  -1 -12   82.59    6.80
   5  -1 -12   78.69    7.30
  -5  -1  12   70.99    6.90
  -5   1  12   75.89    6.80
   5   1 -12   84.09    6.60
   5   1 -12   83.29    7.00
   5   1 -12   91.49    9.50
   5   1 -12   93.59    6.90
   4  -1 -12   44.00    5.60
   4  -1 -12   42.90    5.90
   4  -1 -12   39.40    5.10
  -4  -1  12   29.00    5.10
   4   1 -12   47.50    5.90
  -4   1  12   36.70    5.60
   4   1 -12   44.50    5.30
  -4   1  12   36.70    5.50
   4   1 -12   33.40    4.60
   3  -1 -12   63.19    6.00
   3  -1 -12   53.09    6.40
  -3  -1  12   52.89    6.70
  -3  -1  12   48.50    5.80
   3  -1 -12   53.79    5.80
   3   1 -12   52.49    5.70
   3   1 -12   53.79    5.70
  -3   1  12   42.20    5.30
  -3   1  12   51.79    6.40
   3   1 -12   46.50    6.20
   2  -1 -12  293.37   14.30
  -2  -1  12  266.27   14.20
  -2  -1  12  317.27   15.60
   2  -1 -12  304.17   14.40
   2  -1 -12  287.57   15.00
   2   1 -12  319.97   14.50
  -2   1  12  315.67   14.40
  -2   1  12  290.97   15.00
  -2   1  12  305.17   12.00
   2   1 -12  310.57   14.40
   2   1 -12  313.57   15.20
  -1  -1  12   23.80    4.70
   1  -1 -12   12.90    4.20
  -1  -1  12   16.50    4.70
   1  -1 -12   20.00    4.20
   1  -1 -12   15.80    3.90
  -1  -1  12   17.30    3.60
  -1   1  12   16.70    4.40
   1   1 -12   21.80    4.00
  -1   1  12   14.40    2.90
  -1   1  12   23.80    4.30
   1   1 -12   15.70    4.10
   1   1 -12   14.90    3.70
   0  -1  12  234.58   13.90
   0  -1 -12  237.58   13.50
   0  -1  12  244.78   13.40
   0  -1  12  222.48   11.60
   0  -1 -12  242.48   12.60
   0   1 -12  249.78   13.40
   0   1 -12  260.07   12.90
   0   1  12  249.48   11.60
   0   1  12  247.38   12.90
   0   1 -12  260.67   12.90
   0   1  12  259.07   13.90
   1  -1  12   16.10    4.80
  -1  -1 -12    8.40    3.00
   1  -1  12   10.00    3.90
  -1  -1 -12   10.90    4.00
   1  -1  12   16.80    4.10
  -1   1 -12   12.70    4.10
   1   1  12    7.90    3.40
   1   1  12   19.50    4.90
  -1   1 -12   10.00    3.20
   1   1  12   11.40    3.30
   2  -1  12  162.88   11.30
  -2  -1 -12  175.08   11.30
   2  -1  12  160.58   12.00
   2  -1  12  167.98   10.80
  -2   1 -12  163.08   11.10
   2   1  12  168.98   11.70
   2   1  12  168.68   10.80
  -2   1 -12  196.78   13.00
   2   1  12  167.28   10.20
   3  -1  12   34.70    6.70
   3  -1  12   18.50    5.10
   3  -1  12   27.20    5.80
  -3  -1 -12   35.40    6.10
   3   1  12   26.80    5.10
  -3   1 -12   32.40    5.80
   3   1  12   28.40    6.00
   3   1  12   36.40    6.00
   4  -1  12   80.89    9.20
   4  -1  12   80.39    9.60
  -4  -1 -12   73.19    7.90
   4   1  12   70.89    8.80
  -4   1 -12   68.09    8.00
   4   1  12   64.49    7.90
  -5  -1 -12   41.80    6.80
   5  -1  12   40.50    6.80
   5  -1  12   34.50    7.00
   5   1  12   40.60    6.50
   5   1  12   46.00    7.50
  -5   1 -12   49.60    7.50
   6  -1  12  125.69   12.10
   6  -1  12  135.39   11.90
   6   1  12  118.69   11.40
   6   1  12  131.79   11.00
  11  -2 -12   20.70    7.10
  11  -2 -12   25.80    5.10
  11   2 -12   29.80    5.20
  11   2 -12   26.80    7.20
  10  -2 -12    4.80    3.20
  10  -2 -12    3.10    4.70
  10  -2 -12    7.70    3.60
  10   2 -12    0.90    3.40
  10   2 -12   -0.90    2.20
  10   2 -12    4.60    2.50
   9  -2 -12    1.70    2.90
   9  -2 -12    5.50    3.00
   9  -2 -12    0.10    3.90
   9   2 -12    3.20    3.40
   9   2 -12    3.30    2.60
   9   2 -12   -2.70    2.20
   8  -2 -12   34.70    7.00
   8  -2 -12   49.20    6.10
   8  -2 -12   49.90    6.70
   8   2 -12   27.90    4.30
   8   2 -12   52.59    7.40
   8   2 -12   40.50    5.20
   7  -2 -12    1.80    3.20
   7  -2 -12    1.30    3.80
   7  -2 -12    3.50    3.00
   7   2 -12    0.20    3.50
   7   2 -12    2.90    2.90
   7   2 -12    0.40    2.50
   6  -2 -12   45.80    7.30
   6  -2 -12   56.19    7.00
   6  -2 -12   44.70    6.00
   6   2 -12   49.80    5.60
   6   2 -12   51.09    6.20
  -6   2  12   55.99    6.40
   5  -2 -12   48.20    6.70
  -5  -2  12   41.00    6.00
   5  -2 -12   35.70    5.30
   5  -2 -12   42.40    7.00
  -5   2  12   40.80    5.60
   5   2 -12   42.90    5.50
   5   2 -12   44.60    5.90
   4  -2 -12  149.59   10.70
   4  -2 -12  160.08   10.00
  -4  -2  12  140.39   10.40
   4  -2 -12  136.89   10.20
   4   2 -12  144.09    9.80
  -4   2  12  153.58   10.10
   4   2 -12  161.68    9.50
   3  -2 -12  135.29    9.20
   3  -2 -12  138.69    9.90
  -3  -2  12  132.29   10.30
  -3   2  12  116.19    8.30
   3   2 -12  120.69    6.30
   3   2 -12  134.29    8.80
  -3   2  12  125.49    9.40
   3   2 -12  136.59    8.70
   3   2 -12  133.09    9.30
   2  -2 -12   38.50    6.10
   2  -2 -12   38.10    5.70
  -2  -2  12   34.90    6.60
   2   2 -12   52.09    5.20
   2   2 -12   34.50    5.00
  -2   2  12   43.20    5.60
  -2   2  12   43.70    6.10
   2   2 -12   39.50    6.00
   2   2 -12   46.00    4.10
  -2   2  12   50.29    6.80
  -1  -2  12  150.38   11.70
   1  -2 -12  169.58   11.10
  -1  -2  12  149.99    9.70
   1  -2 -12  177.58   10.50
   1   2 -12  145.89   10.30
  -1   2  12  144.29    9.90
   1   2 -12  163.88    8.50
  -1   2  12  157.28   10.80
   1   2 -12  161.38   10.00
   1   2 -12  165.98    9.00
   0  -2 -12  164.78   11.00
   0  -2  12  152.38   10.90
   0  -2  12  151.28   11.70
   0  -2  12  133.59    9.70
   0  -2 -12  161.18   10.00
   0   2 -12  162.58   10.00
   0   2 -12  154.38    8.30
   0   2  12  127.99   10.30
   0   2  12  156.08   10.20
   0   2 -12  133.39   10.20
   0   2 -12  138.29    8.40
   1  -2  12  227.58   14.70
   1  -2  12  214.28   13.10
   1  -2  12  249.28   13.90
   1  -2  12  222.28   12.00
  -1  -2 -12  223.78   13.60
  -1   2 -12  227.38   10.40
   1   2  12  215.58   12.60
  -1   2 -12  221.28   13.40
   1   2  12  223.08   13.60
  -1   2 -12  234.48   12.00
  -1   2 -12  230.98   12.50
   2  -2  12   78.69    8.50
   2  -2  12   67.49    8.60
   2  -2  12   83.09   10.00
   2  -2  12   72.79    7.90
  -2  -2 -12   86.49    8.70
  -2   2 -12   81.79    8.50
   2   2  12   87.99    8.40
  -2   2 -12   81.69    7.30
   2   2  12   81.89    8.90
   2   2  12   73.29    7.70
   3  -2  12  127.19   12.00
   3  -2  12  120.19   11.10
   3  -2  12  132.79   11.60
   3  -2  12  121.89   10.30
  -3  -2 -12  145.49   10.90
   3   2  12  149.29   11.40
  -3   2 -12  142.99   10.20
   3   2  12  140.09   10.50
  -3   2 -12  146.29   10.90
   4  -2  12    7.20    5.80
   4  -2  12   20.70    5.90
   4  -2  12   14.40    5.50
  -4  -2 -12   15.30    4.80
   4   2  12   13.50    5.10
  -4   2 -12   10.40    4.30
   4   2  12   15.10    4.90
   5  -2  12   92.79   11.30
   5  -2  12  101.69   11.10
   5  -2  12  109.39   11.20
   5   2  12  115.69   10.40
  -5   2 -12  117.49   10.40
   5   2  12  127.49   11.40
   9  -3 -12   43.80    6.30
   9  -3 -12   54.19   10.00
   9  -3 -12   52.69    7.80
   9   3 -12   31.80    4.90
   9   3 -12   46.20    6.00
   9   3 -12   36.50    6.80
   8  -3 -12   36.00    5.90
   8  -3 -12   45.30    8.50
   8  -3 -12   62.29    8.10
   8   3 -12   49.20    6.00
   8   3 -12   53.69    7.70
   8   3 -12   46.50    6.20
   7  -3 -12   59.09    7.90
   7  -3 -12   36.50    7.90
   7  -3 -12   49.99    6.70
   7   3 -12   50.29    6.40
   7   3 -12   31.30    6.00
   7   3 -12   41.60    5.50
   6  -3 -12   31.30    5.70
   6  -3 -12   37.20    7.70
   6  -3 -12   38.30    6.80
   6   3 -12   32.60    5.80
  -6   3  12   38.60    6.40
   6   3 -12   30.20    5.30
   6   3 -12   36.30    5.30
   5  -3 -12   42.30    6.20
   5  -3 -12   40.90    6.70
   5  -3 -12   32.40    7.00
   5   3 -12   47.10    6.70
   5   3 -12   38.70    5.70
  -5   3  12   55.89    7.20
   5   3 -12   36.40    6.00
  -4  -3  12  226.38   14.30
   4  -3 -12  225.88   14.90
   4  -3 -12  218.68   13.00
   4  -3 -12  252.47   14.50
   4   3 -12  254.37   13.70
   4   3 -12  222.58   12.60
   4   3 -12  221.98   12.60
  -4   3  12  209.68   13.10
  -3  -3  12  157.08   12.20
   3  -3 -12  156.88   10.80
   3  -3 -12  144.59   11.30
   3   3 -12  157.58    9.90
   3   3 -12  169.58   10.60
  -3   3  12  167.88   11.50
   3   3 -12  154.98   11.10
   2  -3 -12  138.49   10.20
  -2  -3  12  148.49   12.30
   2  -3 -12  163.18   11.70
   2   3 -12  142.89    9.10
   2   3 -12  147.79   10.10
  -2   3  12  150.98   10.90
  -2   3  12  112.09   10.90
   2   3 -12  153.88   10.80
   1  -3 -12   23.30    5.60
  -1  -3  12   23.70    6.30
   1  -3 -12   14.40    4.40
   1   3 -12   17.90    3.80
  -1   3  12   14.10    5.40
   1   3 -12   26.50    5.80
   1   3 -12   26.20    5.20
  -1   3  12   10.60    4.70
   0  -3  12  186.98   14.40
   0  -3 -12  209.88   13.50
   0   3  12  192.88   14.90
   0   3 -12  197.08   12.20
   0   3 -12  203.68   13.20
   0   3 -12  204.98   12.10
   0   3  12  222.48   13.50
   0   3 -12  204.68   10.60
   1  -3  12  126.09   12.30
  -1  -3 -12  125.79   10.70
  -1   3 -12  121.19    9.30
  -1   3 -12  111.79   10.20
   1   3  12  104.59    9.90
   1   3  12  118.69    9.40
  -2  -3 -12   90.79    9.60
   2  -3  12   97.09   11.50
  -2   3 -12   98.79    8.80
   2   3  12   79.89    8.60
   2   3  12   93.39   10.00
  -2   3 -12  118.89   10.20
  -3  -3 -12   25.90    5.80
   3  -3  12   26.10    7.10
   3   3  12   32.60    6.60
   3   3  12   35.30    6.30
  -3   3 -12   24.50    6.10
   4  -3  12  134.79   13.50
  -4   3 -12  124.99   11.20
   4   3  12  123.59   12.50
   4   3  12  135.59   11.00
   7  -4 -12   11.20    4.50
   7  -4 -12    9.40    6.30
   7   4 -12   15.90    4.10
   7   4 -12   16.10    5.40
   7   4 -12   14.50    4.80
   6  -4 -12   76.79    9.30
   6  -4 -12   79.29   11.40
   6  -4 -12   60.19    8.30
   6   4 -12   75.39    7.80
   6   4 -12   66.99    8.20
   6   4 -12   65.49    8.30
   5  -4 -12  176.08   13.10
   5  -4 -12  161.58   14.30
   5  -4 -12  150.58   11.50
   5   4 -12  168.98   11.20
  -5   4  12  158.08   11.80
   5   4 -12  144.59   11.40
   5   4 -12  151.38   11.20
   4  -4 -12   17.30    6.10
   4  -4 -12   16.20    5.40
   4  -4 -12   21.40    5.20
   4   4 -12   25.90    5.40
   4   4 -12   31.60    5.80
  -4   4  12   24.00    5.60
   4   4 -12   25.30    5.50
  -3  -4  12  133.09   14.30
   3  -4 -12   91.29   10.60
   3   4 -12  111.49    9.70
  -3   4  12  113.79   10.40
   3   4 -12  117.29    9.00
   3   4 -12  112.89   10.40
   2  -4 -12   22.40    6.20
  -2  -4  12   15.10    6.60
   2   4 -12   17.20    5.10
   2   4 -12   21.60    4.60
   2   4 -12   27.40    6.40
  -2   4  12   16.60    5.20
   1  -4 -12   92.19   10.30
  -1  -4  12   80.79   11.30
   1   4 -12   97.99    7.90
   1   4 -12   86.09    8.90
  -1   4  12   87.99    9.90
   1   4 -12   82.59    9.60
   0  -4  12   45.60    9.00
   0  -4 -12   50.59    8.30
   0   4  12   59.99    9.00
   0   4 -12   48.60    7.80
   1  -4  12  114.59   13.50
  -1  -4 -12  122.09   11.60
   1   4  12  121.09   11.50
  -1   4 -12  119.09   11.20
  11   0 -13   53.39    5.50
  11   0 -13   49.20    5.30
  10   0 -13   20.40    4.00
  10   0 -13   19.90    3.70
   9   0 -13    2.00    2.60
   9   0 -13    2.30    2.40
   8   0 -13    0.00    2.30
   8   0 -13   -0.70    2.40
   7   0 -13   56.09    6.20
   7   0 -13   44.20    5.50
   6   0 -13   43.30    5.30
  -6   0  13   38.70    5.30
   6   0 -13   38.70    5.60
   5   0 -13  204.68   11.10
   5   0 -13  200.48   11.70
  -5   0  13  220.88   11.90
   4   0 -13   47.70    6.40
  -4   0  13   50.79    6.70
   4   0 -13   44.50    5.50
  -3   0  13   73.39    7.70
   3   0 -13   74.19    7.40
   3   0 -13   84.39    7.00
  -2   0  13   56.49    6.50
   2   0 -13   61.79    6.30
  -2   0  13   69.59    7.60
   2   0 -13   45.50    6.20
  -1   0  13  510.85   22.10
   1   0 -13  517.25   21.90
  -1   0  13  543.25   23.20
   1   0 -13  515.45   22.70
   0   0 -13   56.29    6.20
   0   0  13   60.99    7.70
   0   0  13   59.09    6.90
   0   0 -13   56.09    7.10
   0   0  13   50.79    5.20
  -1   0 -13    1.00    3.20
  -1   0 -13    1.80    2.50
   1   0  13    3.50    3.90
   1   0  13    1.30    2.60
   1   0  13   -2.00    2.80
  -2   0 -13   64.59    7.50
   2   0  13   54.59    7.50
   2   0  13   48.00    6.70
   2   0  13   54.69    6.70
   3   0  13   91.69    8.50
  -3   0 -13   83.59    8.70
   3   0  13   77.69    9.30
   3   0  13   82.99    8.90
  -4   0 -13   60.39    7.70
   4   0  13   37.80    6.80
   4   0  13   38.40    6.80
   5   0  13   26.90    6.00
   5   0  13   22.30    6.10
  -5   0 -13   18.70    5.10
  11  -1 -13   69.99    6.40
  11  -1 -13   57.79    6.20
  11   1 -13   56.79    5.40
  11   1 -13   54.19    5.40
  10  -1 -13   83.79    7.20
  10  -1 -13   93.59    7.40
  10   1 -13   85.19    6.60
  10   1 -13  103.09    7.00
   9  -1 -13  120.99   10.10
   9  -1 -13  118.39    8.50
   9  -1 -13  125.79    8.80
   9   1 -13  132.69    8.40
   9   1 -13  137.99    8.30
   8  -1 -13  186.28   11.10
   8  -1 -13  195.48   11.90
   8  -1 -13  197.98   10.90
   8   1 -13  187.38   10.30
   8   1 -13  182.28   10.50
   7  -1 -13  234.78   12.80
   7  -1 -13  215.08   12.00
   7  -1 -13  238.68   12.90
   7   1 -13  232.08   12.20
   7   1 -13  247.48   12.10
   6  -1 -13  249.08   12.70
   6  -1 -13  256.67   13.10
  -6  -1  13  227.78   17.30
   6  -1 -13  263.77   13.50
  -6   1  13  238.18   12.60
   6   1 -13  233.48   12.30
   6   1 -13  234.88   12.80
  -5  -1  13  128.09    9.20
   5  -1 -13  112.29    8.30
   5  -1 -13  105.49    8.70
   5   1 -13  114.19    8.10
   5   1 -13  109.89    8.70
  -5   1  13  127.89    8.90
   4  -1 -13  199.48   11.30
   4  -1 -13  212.08   12.20
  -4  -1  13  189.18   11.90
  -4   1  13  189.18   11.60
   4   1 -13  212.48   11.20
   4   1 -13  187.58   11.50
   3  -1 -13    4.00    2.80
   3  -1 -13    5.50    3.40
  -3  -1  13   14.70    4.60
   3   1 -13    9.10    3.50
  -3   1  13    4.70    3.50
   3   1 -13    5.80    2.90
  -2  -1  13  589.74   25.10
   2  -1 -13  568.74   23.70
   2  -1 -13  563.24   24.60
  -2   1  13  576.74   24.60
   2   1 -13  606.64   24.00
   2   1 -13  557.44   24.40
   1  -1 -13  280.57   15.10
  -1  -1  13  284.77   15.50
   1  -1 -13  260.67   13.80
   1   1 -13  296.57   14.40
  -1   1  13  263.27   14.70
  -1   1  13  279.27   15.20
   1   1 -13  290.97   15.00
  -1   1  13  269.87   14.00
   0  -1  13  126.69    9.60
   0  -1 -13  114.69    8.50
   0  -1 -13  102.69    9.30
   0  -1  13  128.79   10.50
   0   1  13  119.29    7.60
   0   1 -13  127.69    8.90
   0   1  13  120.69    9.00
   0   1  13  118.99    9.90
   0   1 -13  116.89    9.40
   1  -1  13   68.89    8.80
  -1  -1 -13   69.19    8.00
   1  -1  13   80.89    8.20
   1  -1  13   72.19    9.60
  -1   1 -13   82.09    8.20
   1   1  13   87.49    9.00
   1   1  13   77.49    7.80
   1   1  13   82.39    6.80
  -1   1 -13   73.89    7.00
   2  -1  13   -2.70    3.60
   2  -1  13    3.50    4.50
   2  -1  13    2.20    3.70
  -2  -1 -13   -1.70    3.00
   2   1  13   -0.20    3.20
   2   1  13    0.10    3.80
  -2   1 -13   -1.50    3.00
   2   1  13   -1.10    2.90
   3  -1  13  105.19   10.70
   3  -1  13   92.69   10.50
  -3  -1 -13  101.69    9.20
   3  -1  13  101.59   10.00
   3   1  13   98.79    9.20
   3   1  13   99.39    8.90
  -3   1 -13   93.79    9.40
   3   1  13   94.99   10.20
  -4  -1 -13   28.80    5.80
   4  -1  13   28.90    6.30
   4  -1  13   24.80    6.90
  -4   1 -13   53.29    7.80
   4   1  13   39.60    7.10
   4   1  13   26.40    5.50
   5  -1  13  188.98   14.80
   5  -1  13  224.98   14.80
   5   1  13  191.88   14.20
  -5   1 -13  213.68   13.70
   5   1  13  210.58   13.90
  10  -2 -13   12.50    5.80
  10  -2 -13   15.90    4.40
  10  -2 -13   11.80    4.10
  10   2 -13   20.80    5.60
  10   2 -13   13.70    3.50
  10   2 -13   17.60    3.90
   9  -2 -13   16.90    6.00
   9  -2 -13   23.60    5.00
   9  -2 -13   30.10    5.60
   9   2 -13   26.50    4.30
   9   2 -13   18.50    5.50
   9   2 -13   32.10    4.90
   8  -2 -13   62.79    8.60
   8  -2 -13   46.30    6.30
   8  -2 -13   54.59    7.00
   8   2 -13   55.79    6.00
   8   2 -13   42.90    6.90
   8   2 -13   54.49    6.40
   7  -2 -13  415.46   19.90
   7  -2 -13  430.66   21.20
   7  -2 -13  452.65   19.70
   7   2 -13  424.46   20.40
   7   2 -13  442.46   19.40
   7   2 -13  436.46   18.80
   6  -2 -13   34.30    6.40
   6  -2 -13   29.90    5.20
   6  -2 -13   31.80    5.60
   6   2 -13   29.90    5.30
   6   2 -13   32.70    5.00
  -6   2  13   29.70    5.30
   5  -2 -13  272.17   15.30
  -5  -2  13  290.87   15.30
   5  -2 -13  277.77   15.20
   5  -2 -13  283.17   14.40
   5   2 -13  277.87   14.50
  -5   2  13  261.27   14.30
   5   2 -13  275.27   13.90
   4  -2 -13  123.19    9.10
  -4  -2  13   99.89    9.70
   4  -2 -13  117.19    9.60
   4   2 -13  131.49    9.40
   4   2 -13  119.99    8.70
  -4   2  13  124.79    9.50
   3  -2 -13  133.09   10.40
   3  -2 -13  138.09    9.70
  -3  -2  13  137.39   11.10
  -3   2  13  137.19   10.30
   3   2 -13  146.79    9.50
   3   2 -13  157.58    9.50
   3   2 -13  127.29    9.90
   2  -2 -13  173.48   11.00
   2  -2 -13  188.18   11.90
  -2  -2  13  171.88   12.60
   2   2 -13  181.48   11.70
   2   2 -13  188.78   11.00
  -2   2  13  169.28   11.70
   2   2 -13  160.08    9.80
   1  -2 -13   83.49    8.60
   1  -2 -13   76.09    7.40
  -1  -2  13   68.89    9.20
   1   2 -13   75.89    6.20
  -1   2  13   89.89    8.70
   1   2 -13   81.89    7.70
   1   2 -13   76.59    8.20
   0  -2 -13  242.58   14.30
   0  -2  13  236.98   15.30
   0   2 -13  240.88   13.30
   0   2 -13  231.98   11.40
   0   2  13  222.98   14.10
   0   2 -13  250.27   14.30
   0   2  13  253.47   13.90
  -1  -2 -13   45.20    7.20
   1  -2  13   43.00    7.60
   1   2  13   34.20    6.70
  -1   2 -13   39.90    6.90
   1   2  13   29.20    6.20
   1   2  13   41.40    6.00
   2  -2  13  154.68   13.00
  -2  -2 -13  150.38   11.60
  -2   2 -13  133.49   11.20
   2   2  13  151.48   11.80
   2   2  13  161.18   12.10
   2   2  13  143.19   10.90
   3  -2  13   -0.90    4.70
  -3  -2 -13   -3.50    3.20
   3   2  13   -2.40    3.40
  -3   2 -13    0.50    3.50
   3   2  13    6.50    4.60
   4  -2  13  124.59   12.80
  -4  -2 -13  137.69   11.20
   4   2  13  138.99   12.10
   4   2  13  130.09   11.00
  -4   2 -13  116.19   11.00
   9  -3 -13   44.80    6.70
   9  -3 -13   43.60    8.70
   9  -3 -13   46.10    7.40
   9   3 -13   50.09    6.50
   8  -3 -13   15.40    4.90
   8  -3 -13   17.60    6.80
   8  -3 -13    4.90    4.60
   8   3 -13   12.30    5.10
   8   3 -13   15.00    4.10
   8   3 -13   12.90    3.90
   7  -3 -13   18.70    4.90
   7  -3 -13   17.70    5.50
   7  -3 -13   28.10    7.30
   7   3 -13   28.30    5.90
   7   3 -13   17.50    4.30
   7   3 -13   23.30    4.80
   6  -3 -13   87.49   10.40
   6  -3 -13   94.09    8.70
   6  -3 -13   94.19    9.70
   6   3 -13   94.69    8.20
   6   3 -13   91.09    8.40
   6   3 -13   90.39    8.60
   5  -3 -13   46.10    7.00
   5  -3 -13   46.40    7.90
   5  -3 -13   40.20    6.40
  -5   3  13   30.90    5.80
   5   3 -13   49.40    6.40
   5   3 -13   36.90    6.30
   5   3 -13   53.69    7.40
   4  -3 -13  204.88   13.70
   4  -3 -13  219.28   13.20
  -4  -3  13  216.08   17.30
  -4   3  13  200.98   13.10
   4   3 -13  209.38   12.50
   4   3 -13  220.98   13.30
   4   3 -13  199.48   12.10
  -3  -3  13  110.59   11.10
   3  -3 -13  107.09    9.40
   3  -3 -13  105.59   10.20
   3   3 -13  102.99    9.50
   3   3 -13  103.39    8.10
   3   3 -13  104.09    8.90
  -3   3  13   91.59    9.30
  -2  -3  13   55.29    9.00
   2  -3 -13   56.79    8.00
   2  -3 -13   61.39    7.80
   2   3 -13   61.89    8.60
  -2   3  13   59.59    7.90
   2   3 -13   50.59    6.80
   2   3 -13   50.39    6.00
  -1  -3  13   10.70    5.70
   1  -3 -13   12.90    4.80
   1   3 -13    8.60    3.50
   1   3 -13   11.00    4.10
   1   3 -13   14.10    4.90
  -1   3  13    8.40    4.90
   0  -3 -13   42.80    7.00
   0  -3  13   37.60    7.90
   0   3  13   50.09    7.80
   0   3 -13   45.70    7.00
   1  -3  13   36.70    8.10
  -1  -3 -13   55.29    8.20
   1   3  13   48.80    8.00
  -1   3 -13   48.30    7.00
   2  -3  13   40.00    8.30
  -2  -3 -13   40.30    7.70
   2   3  13   38.60    7.00
  -2   3 -13   26.60    6.80
  -3  -3 -13  145.29   12.10
   3  -3  13  140.69   14.10
   3   3  13  146.59   13.00
  -3   3 -13  148.79   12.30
   5  -4 -13   88.89   11.10
   5  -4 -13   81.89   13.60
   5  -4 -13   79.59    9.00
   5   4 -13   68.39    7.90
  -5   4  13   77.39    9.50
   5   4 -13   83.19    8.70
   5   4 -13   96.59   12.00
   4  -4 -13   29.30    7.20
   4   4 -13   22.90    5.40
   4   4 -13   23.80    5.90
   4   4 -13   32.20    6.10
  -4   4  13   32.50    6.90
   3  -4 -13   41.10    7.70
   3   4 -13   40.40    6.90
   3   4 -13   41.20    6.10
  -3   4  13   48.60    7.70
   3   4 -13   37.60    6.80
  -2  -4  13    5.90    6.20
   2  -4 -13   19.40    6.10
   2   4 -13    9.80    5.00
   2   4 -13   12.30    4.70
   2   4 -13    9.40    3.70
  -2   4  13   16.40    6.00
   1  -4 -13   36.70    7.30
  -1  -4  13   59.89   10.50
   1   4 -13   54.79    8.40
  -1   4  13   43.40    7.60
   0  -4  13   63.69   11.50
   0  -4 -13   39.30    7.60
   0   4  13   62.09    8.90
   0   4 -13   46.80    8.10
  11   0 -14   42.30    5.40
  10   0 -14   13.30    3.90
  10   0 -14   18.70    3.70
   9   0 -14  232.38   12.20
   9   0 -14  217.08   11.70
   8   0 -14    3.60    3.00
   8   0 -14   -1.40    2.40
   7   0 -14    9.20    3.20
   7   0 -14    0.70    2.80
   6   0 -14  147.19   10.30
   6   0 -14  173.38   10.00
   5   0 -14   37.40    5.20
   5   0 -14   28.90    5.20
  -5   0  14   23.90    5.10
   4   0 -14  111.49    8.30
   4   0 -14  109.59    9.00
  -4   0  14  104.89    9.00
   3   0 -14  283.97   15.10
  -3   0  14  283.07   15.20
   3   0 -14  272.47   14.10
   2   0 -14    2.40    2.70
  -2   0  14    0.10    3.50
   2   0 -14    5.80    3.60
  -1   0  14   18.50    5.00
   1   0 -14   17.00    3.80
   1   0 -14   19.30    4.80
   0   0  14   18.90    5.40
   0   0 -14   16.30    4.60
   0   0 -14   17.60    4.20
  -1   0 -14    1.70    3.30
   1   0  14    2.90    4.00
   2   0  14  172.88   12.90
  -2   0 -14  179.98   12.40
   3   0  14    6.60    4.10
  -3   0 -14   13.50    5.00
   3   0  14   14.00    5.80
   4   0  14  101.99   11.40
   4   0  14  109.89   10.60
  -4   0 -14  122.09   10.60
  10  -1 -14   78.29    7.40
  10  -1 -14   82.99    7.60
  10   1 -14   82.29    6.80
  10   1 -14   94.49    7.20
   9  -1 -14  144.59    9.70
   9  -1 -14  140.39    9.30
   9   1 -14  121.89    8.80
   9   1 -14  130.89    8.70
   8  -1 -14   26.20    4.90
   8  -1 -14   24.00    5.00
   8   1 -14   26.80    4.80
   8   1 -14   21.30    4.20
   7  -1 -14   37.00    5.80
   7  -1 -14   43.80    6.00
   7  -1 -14   51.39    6.50
   7   1 -14   51.89    6.10
   7   1 -14   57.29    6.50
   6  -1 -14   99.19    8.90
   6  -1 -14  116.79    8.60
   6   1 -14  110.59    8.30
  -6   1  14   85.79   10.10
   6   1 -14  113.79    8.70
   5  -1 -14  129.59    9.20
   5  -1 -14  131.89   10.00
  -5  -1  14  119.69    9.60
   5   1 -14  116.59    9.40
  -5   1  14  137.89    9.80
   5   1 -14  133.69    9.10
   4  -1 -14   70.99    7.20
  -4  -1  14   68.19    7.80
   4  -1 -14   72.49    7.70
  -4   1  14   69.09    7.70
   4   1 -14   63.99    7.40
   4   1 -14   72.89    7.20
   3  -1 -14  205.78   12.90
   3  -1 -14  219.48   12.30
  -3  -1  14  210.38   13.20
   3   1 -14  208.48   12.80
  -3   1  14  223.78   13.10
   3   1 -14  210.88   12.10
   2  -1 -14    1.60    3.40
   2  -1 -14    2.80    3.00
  -2  -1  14    8.00    4.40
   2   1 -14    9.10    3.90
  -2   1  14   14.40    4.80
   2   1 -14   10.20    3.60
  -1  -1  14  164.38   12.20
   1  -1 -14  166.88   11.60
   1  -1 -14  168.28   10.80
   1   1 -14  167.48   11.50
  -1   1  14  170.48   12.00
   1   1 -14  171.08   10.80
   0  -1 -14  150.58   11.20
   0  -1 -14  156.78   14.30
   0  -1  14  128.69   11.40
   0   1 -14  126.59    9.50
   0   1  14  144.49   11.30
   0   1 -14  138.99   10.70
   1  -1  14   42.90    7.20
  -1  -1 -14   45.70    7.50
  -1   1 -14   32.10    5.70
   1   1  14   42.20    7.00
   2  -1  14   32.70    6.80
  -2  -1 -14   36.40    6.70
   2   1  14   24.60    5.30
   2   1  14   38.80    7.10
  -2   1 -14   41.60    7.10
  -3  -1 -14  225.78   14.50
   3  -1  14  229.38   15.80
   3   1  14  242.58   15.60
  -3   1 -14  240.28   14.80
  -4  -1 -14   -0.30    3.70
   4  -1  14    1.10    5.20
  -4   1 -14    3.70    4.00
   4   1  14   -6.40    4.30
   4   1  14    0.90    4.00
   9  -2 -14  149.69   10.40
   9  -2 -14  149.19   12.40
   9  -2 -14  149.69   10.90
   9   2 -14  160.78   11.70
   9   2 -14  163.48    9.80
   9   2 -14  147.39    9.90
   8  -2 -14  111.89   10.70
   8  -2 -14  117.39    9.20
   8  -2 -14  120.99    9.90
   8   2 -14  119.29   10.50
   8   2 -14  129.69    8.90
   8   2 -14  131.09    9.30
   7  -2 -14   13.60    4.60
   7  -2 -14   10.10    4.00
   7  -2 -14   23.20    5.60
   7   2 -14   10.40    4.00
   7   2 -14   18.20    4.20
   6  -2 -14   64.59    7.70
   6  -2 -14   48.50    6.60
   6  -2 -14   39.50    6.90
   6   2 -14   54.99    7.00
   6   2 -14   63.39    6.80
   5  -2 -14    4.10    3.30
   5  -2 -14   -1.50    3.10
   5   2 -14   -1.00    2.70
   5   2 -14    2.90    3.40
  -5   2  14    3.60    3.80
  -4  -2  14  110.99   10.10
   4  -2 -14  108.19    9.20
   4  -2 -14  112.29    9.70
   4   2 -14   98.89    8.50
   4   2 -14  106.29    9.30
  -4   2  14   99.39    9.30
   3  -2 -14   -1.10    2.70
   3  -2 -14    5.80    4.20
  -3  -2  14    6.70    4.70
   3   2 -14    2.00    3.10
  -3   2  14    1.80    3.90
   3   2 -14   -2.70    2.70
   3   2 -14    3.80    3.50
  -2  -2  14   62.19    8.60
   2  -2 -14   64.99    7.40
   2  -2 -14   64.99    8.10
   2   2 -14   58.49    6.40
   2   2 -14   66.59    7.40
   2   2 -14   49.80    7.10
  -2   2  14   64.69    8.30
   1  -2 -14   39.30    7.20
   1  -2 -14   30.20    6.90
  -1  -2  14   29.10    6.70
   1   2 -14   40.10    6.40
   1   2 -14   42.30    5.30
   1   2 -14   37.60    6.20
  -1   2  14   32.60    6.60
   0  -2 -14   35.50    6.70
   0  -2  14   36.00    7.30
   0   2 -14   14.90    4.80
   0   2 -14   26.80    4.60
   0   2 -14   31.30    7.10
   0   2  14   37.20    6.90
   1  -2  14   79.09   10.20
  -1  -2 -14   75.99    9.10
   1   2  14   75.29    9.40
  -1   2 -14   77.89    9.00
   2  -2  14   32.40    7.90
  -2  -2 -14   25.10    6.10
   2   2  14   23.00    6.10
  -2   2 -14   21.20    6.00
   3  -2  14    5.60    5.80
  -3  -2 -14    9.70    4.80
   3   2  14    8.50    5.10
  -3   2 -14    0.30    4.40
   8  -3 -14   58.39    9.50
   8  -3 -14   71.59    8.70
   8   3 -14   82.49    8.30
   7  -3 -14   15.60    4.90
   7  -3 -14   21.00    6.00
   7  -3 -14   18.70    6.40
   7   3 -14   11.20    4.60
   7   3 -14   10.80    5.10
   7   3 -14   22.50    4.90
   6  -3 -14   81.59    8.70
   6  -3 -14   77.49    9.40
   6  -3 -14   57.19    9.30
   6   3 -14   75.19    8.50
   6   3 -14   63.29    8.10
   6   3 -14   81.49    8.10
   5  -3 -14   37.80    7.20
   5  -3 -14   16.00    5.10
   5   3 -14   26.30    5.40
  -5   3  14   32.30    6.20
   5   3 -14   23.30    5.40
   5   3 -14   26.00    5.50
   4  -3 -14   49.40    7.10
   4  -3 -14   49.99    7.70
   4   3 -14   44.50    6.70
  -4   3  14   54.19    8.00
   4   3 -14   55.49    7.30
   4   3 -14   54.89    7.60
   3  -3 -14   68.79    9.30
  -3  -3  14   72.79    9.90
   3  -3 -14   91.89    8.90
  -3   3  14   73.29    9.20
   3   3 -14   79.09    8.50
   3   3 -14   76.79    8.80
   3   3 -14   86.89    7.70
  -2  -3  14   43.60    8.50
   2  -3 -14   60.29    8.70
   2   3 -14   40.00    5.80
   2   3 -14   56.29    8.10
   2   3 -14   41.40    6.60
  -2   3  14   38.80    7.00
  -1  -3  14   64.39   10.00
   1  -3 -14   60.39    8.50
  -1   3  14   71.99    9.40
   1   3 -14   69.49    6.80
   1   3 -14   82.89    8.60
   1   3 -14   78.29    9.40
   0  -3  14   21.70    7.40
   0  -3 -14    2.60    4.20
   0   3  14   15.40    5.70
   0   3 -14    9.20    4.90
   1  -3  14  104.69   12.60
  -1  -3 -14  128.09   11.60
  -1   3 -14  110.69   11.00
   1   3  14   87.39   10.90
  10   0 -15   58.89    6.80
   9   0 -15    2.30    3.10
   9   0 -15    9.10    3.60
   8   0 -15   11.20    3.80
   8   0 -15   11.20    3.70
   7   0 -15   16.50    4.00
   7   0 -15   19.70    4.80
   6   0 -15   28.80    5.00
   6   0 -15   24.00    5.10
   5   0 -15   -1.30    3.30
  -5   0  15    7.20    3.70
   5   0 -15   -3.20    2.30
   4   0 -15   70.29    7.90
  -4   0  15   65.49    8.10
   4   0 -15   73.59    7.40
  -3   0  15   79.19    9.00
   3   0 -15   83.39    7.90
   3   0 -15   83.39    8.50
   2   0 -15  138.89   10.60
  -2   0  15  106.99   10.10
   2   0 -15  114.89    9.00
   1   0 -15   66.39    7.40
   1   0 -15   64.19    8.30
  -1   0  15   66.49    8.50
   0   0  15   28.80    6.40
   0   0 -15   31.70    6.10
  -1   0 -15   53.39    7.80
   1   0  15   21.70    5.70
   2   0  15   87.09   10.60
  -2   0 -15  102.99   10.00
  -3   0 -15   24.40    6.30
   3   0  15   27.50    7.40
   9  -1 -15   62.49    7.10
   9  -1 -15   63.69    7.30
   9   1 -15   53.59    6.60
   9   1 -15   67.09    7.00
   8  -1 -15   77.69    7.80
   8  -1 -15   90.39    8.50
   8   1 -15   89.69    7.70
   8   1 -15   84.49    8.00
   7  -1 -15  123.89    9.60
   7  -1 -15   99.49    8.60
   7   1 -15  106.29    8.40
   7   1 -15  106.19    8.90
   6  -1 -15   91.59    8.20
   6  -1 -15   85.79    8.60
   6   1 -15   93.09    8.40
   6   1 -15   80.79    7.70
   5  -1 -15  157.38   10.40
   5  -1 -15  159.58   11.30
   5   1 -15  144.49   10.20
  -5   1  15  146.09   10.70
   5   1 -15  147.29   10.70
   4  -1 -15  133.39   10.50
   4  -1 -15  118.29    9.50
  -4  -1  15  150.68   11.10
   4   1 -15  134.49   10.30
   4   1 -15  124.29    9.60
  -4   1  15  145.59   10.70
   3  -1 -15   35.70    5.90
  -3  -1  15   42.80    6.90
   3  -1 -15   45.90    7.20
   3   1 -15   58.49    7.60
   3   1 -15   58.79    7.00
  -3   1  15   68.19    8.40
   2  -1 -15   80.09    8.70
   2  -1 -15   68.89    7.60
  -2  -1  15   68.69    9.00
   2   1 -15   65.79    7.50
  -2   1  15   88.69    9.30
   2   1 -15   65.39    8.10
   1  -1 -15  102.19    9.10
  -1  -1  15  118.69   10.90
   1  -1 -15  105.29   10.00
   1   1 -15  105.89    9.90
  -1   1  15  111.69   10.50
   1   1 -15  115.99    9.20
   0  -1  15   35.00    7.00
   0  -1 -15   46.40    7.40
   0   1  15   67.19    8.70
   0   1 -15   47.60    6.90
   1  -1  15   32.20    6.80
  -1  -1 -15   25.80    5.80
  -1   1 -15   25.90    5.60
   1   1  15   40.90    7.50
  -2  -1 -15   47.80    7.80
   2  -1  15   52.49    8.70
   2   1  15   62.49    8.70
  -2   1 -15   60.49    9.00
  -3  -1 -15   72.99    9.30
   3  -1  15   69.29   10.10
  -3   1 -15   61.99    8.50
   3   1  15   71.89   12.70
   8  -2 -15   31.90    5.70
   8  -2 -15   24.30    5.70
   8   2 -15   21.10    4.80
   8   2 -15   12.10    4.10
   8   2 -15   17.80    6.00
   7  -2 -15   14.40    5.10
   7  -2 -15   16.50    5.20
   7  -2 -15   24.10    5.50
   7   2 -15   16.30    4.80
   7   2 -15   10.60    3.90
   6  -2 -15  107.09    9.90
   6  -2 -15  104.79    9.40
   6   2 -15  108.39    9.60
   6   2 -15  120.29    9.20
   5  -2 -15   12.00    4.30
   5  -2 -15   14.70    5.10
   5   2 -15   15.60    4.30
   5   2 -15   18.30    4.80
  -5   2  15   20.20    5.50
   4  -2 -15  297.67   16.00
  -4  -2  15  294.77   22.30
   4  -2 -15  298.67   16.90
  -4   2  15  310.97   16.90
   4   2 -15  293.77   15.60
   4   2 -15  284.37   16.20
   3  -2 -15    6.50    4.50
   3  -2 -15   10.40    4.30
  -3  -2  15    8.10    5.10
   3   2 -15    6.80    3.80
   3   2 -15    3.80    3.70
  -3   2  15    9.00    4.80
   3   2 -15   13.10    4.00
   2  -2 -15  353.76   18.70
   2  -2 -15  354.96   18.60
  -2  -2  15  321.07   19.20
   2   2 -15  346.87   18.30
   2   2 -15  328.17   17.20
   2   2 -15  315.57   15.80
  -2   2  15  348.57   18.60
  -1  -2  15   37.10    7.30
   1  -2 -15   48.80    7.60
   1   2 -15   29.30    6.00
  -1   2  15   25.60    6.60
   1   2 -15   38.70    5.30
   1   2 -15   45.20    7.00
   0  -2  15  108.99   12.00
   0  -2 -15  106.89   10.40
   0   2  15  120.69   11.20
   0   2 -15  115.09   10.90
  -1  -2 -15  126.99   11.70
   1  -2  15  158.38   13.90
  -1   2 -15  171.48   12.90
   1   2  15  148.69   12.60
  -2  -2 -15   47.30    8.20
   2  -2  15   19.60    6.70
   2   2  15   29.10    7.60
  -2   2 -15   32.40    6.80
   6  -3 -15    2.90    3.90
   6   3 -15   -1.10    4.50
   6   3 -15    1.60    3.60
   6   3 -15    1.60    3.90
   5  -3 -15  161.78   14.90
   5  -3 -15  158.08   11.90
   5   3 -15  159.58   12.80
   5   3 -15  140.99   10.70
   5   3 -15  155.68   11.40
   4  -3 -15  119.89   10.30
   4  -3 -15  104.49   10.70
  -4   3  15  108.29   10.50
   4   3 -15  123.79   10.10
   4   3 -15  100.49   10.40
   4   3 -15  103.99    9.20
   3  -3 -15   79.09    9.70
   3   3 -15   69.99    8.40
   3   3 -15   61.19    7.00
  -3   3  15   50.89    8.00
   3   3 -15   37.00    7.40
  -2  -3  15    0.30    5.30
   2  -3 -15   -0.40    4.50
   2   3 -15    1.10    4.10
   2   3 -15    2.00    3.20
  -2   3  15   -3.50    3.90
   2   3 -15    0.40    3.60
  -1  -3  15   51.39    9.20
   1  -3 -15   52.79    8.40
  -1   3  15   63.29    9.30
   1   3 -15   56.49    9.50
   9   0 -16    9.70    4.20
   8   0 -16  201.88   12.80
   8   0 -16  210.58   12.20
   7   0 -16   46.80    6.40
   7   0 -16   33.50    6.00
   6   0 -16  542.75   24.30
   6   0 -16  539.45   23.50
   5   0 -16  113.29    9.30
   5   0 -16  125.69   10.20
   4   0 -16   -2.40    3.50
   4   0 -16    4.20    3.40
  -4   0  16    3.90    4.10
  -3   0  16  349.47   18.70
   3   0 -16  349.96   18.60
   3   0 -16  367.66   17.80
  -2   0  16    4.10    4.60
   2   0 -16   12.10    4.10
   2   0 -16   11.20    4.90
   1   0 -16    2.40    3.90
  -1   0  16    5.60    4.70
   0   0  16    8.00    5.00
   0   0 -16    3.30    4.10
   1   0  16   -4.20    4.30
  -1   0 -16   -2.50    3.60
   8  -1 -16   30.30    5.60
   8  -1 -16   36.10    6.10
   8   1 -16   38.10    5.90
   8   1 -16   27.60    5.50
   7  -1 -16  101.39    9.40
   7  -1 -16   97.89    8.80
   7   1 -16   92.49    9.10
   7   1 -16  114.29    8.90
   6  -1 -16   15.30    4.40
   6  -1 -16   22.30    5.50
   6   1 -16   30.60    5.90
   6   1 -16   21.90    4.90
   5  -1 -16   80.09    8.90
   5  -1 -16   70.49    7.90
   5   1 -16   88.99    8.40
   5   1 -16   75.49    8.80
  -4  -1  16  124.29   10.90
   4  -1 -16  118.69   10.40
   4  -1 -16  113.09    9.50
   4   1 -16  116.29   10.10
  -4   1  16  104.09   10.30
   4   1 -16  111.49    9.40
   3  -1 -16   17.90    5.30
  -3  -1  16    7.20    4.70
   3  -1 -16   11.50    4.30
   3   1 -16   16.70    5.40
   3   1 -16   17.40    4.70
  -3   1  16   19.60    5.60
   2  -1 -16   20.50    5.90
   2  -1 -16   15.60    4.50
  -2  -1  16   11.90    5.40
   2   1 -16   10.80    4.20
   2   1 -16   17.10    5.70
  -2   1  16   23.90    6.00
  -1  -1  16   79.89   10.20
   1  -1 -16  105.69   10.40
   1   1 -16   93.49    9.80
  -1   1  16  115.89   11.00
   0  -1  16   65.99    9.90
   0  -1 -16   56.59    7.90
   0   1 -16   62.39    8.80
   0   1  16   73.39    9.60
  -1  -1 -16   -4.50    3.30
   1  -1  16    1.40    4.90
   1   1  16    8.40    5.40
  -1   1 -16    4.60    4.50
   7  -2 -16   76.09    8.60
   7   2 -16   68.59    7.80
   7   2 -16   59.09    7.80
   6  -2 -16   53.69    7.60
   6  -2 -16   60.29    8.70
   6   2 -16   57.89    7.40
   6   2 -16   45.30    7.10
   5  -2 -16   10.90    4.30
   5  -2 -16   17.90    6.00
   5   2 -16    7.10    4.30
   5   2 -16   21.10    5.20
   4  -2 -16  189.38   13.80
   4  -2 -16  193.18   13.00
   4   2 -16  193.58   13.30
   4   2 -16  190.18   12.40
   4   2 -16  217.68   13.10
  -4   2  16  207.08   13.80
   3  -2 -16   29.80    6.70
  -3  -2  16   16.40    5.70
   3  -2 -16   19.20    5.30
   3   2 -16   14.40    5.20
   3   2 -16   24.10    5.60
  -3   2  16   17.20    5.50
   3   2 -16   31.00    5.70
  -2  -2  16  105.39   11.30
   2  -2 -16   87.29   10.00
  -2   2  16   84.39   10.00
   2   2 -16   78.09    9.30
   2   2 -16   65.29    8.30
   2   2 -16   62.49    6.80
   1  -2 -16  109.69   11.00
  -1  -2  16   94.99   11.80
  -1   2  16  111.99   11.40
   1   2 -16  103.89   10.70
   0  -2 -16   20.80    6.10
   0  -2  16   24.30    7.60
   0   2  16   11.70    5.90
   0   2 -16   12.80    5.50
   7   0 -17   28.80    5.70
   7   0 -17   21.80    6.00
   6   0 -17   38.60    6.90
   6   0 -17   42.80    6.40
   5   0 -17   59.69    8.40
   5   0 -17   55.29    7.40
   4   0 -17   51.09    7.90
   4   0 -17   34.40    6.00
   3   0 -17    5.40    3.80
   3   0 -17    4.40    4.20
  -3   0  17    3.10    4.60
   2   0 -17   63.49    9.10
  -2   0  17   48.10    7.80
   1   0 -17   14.80    5.30
  -1   0  17   16.90    6.20
   6  -1 -17   27.30    5.90
   6   1 -17   18.30    5.90
   6   1 -17   42.40    6.70
   5  -1 -17   -4.50    3.80
   5  -1 -17   -1.50    3.30
   5   1 -17   -0.60    3.40
   5   1 -17    3.00    4.10
   4  -1 -17   62.69    8.90
   4  -1 -17   54.69    7.70
   4   1 -17   53.29    8.30
  -4   1  17   74.39    9.80
   4   1 -17   53.79    7.20
   3  -1 -17   36.30    6.90
   3  -1 -17   34.20    6.10
  -3  -1  17   34.00    6.80
  -3   1  17   22.00    6.50
   3   1 -17   22.10    5.50
   3   1 -17   30.10    6.00
  -2  -1  17  184.18   14.20
   2  -1 -17  165.98   13.50
  -2   1  17  178.68   13.80
   2   1 -17  199.08   14.20
   1  -1 -17    6.20    4.70
  -1  -1  17   15.90    6.10
   1   1 -17    3.70    5.40
  -1   1  17   14.30    5.90

_computing_structure_solution     'SHELXT 2014/4 (Sheldrick, 2014)'
;
_shelx_hkl_checksum              85175
_olex2_submission_special_instructions 'No special instructions were received'
loop_
_space_group_symop_operation_xyz
'x, y, z'
'-x, y+1/2, -z'
loop_
_atom_site_label
_atom_site_type_symbol
_atom_site_fract_x
_atom_site_fract_y
_atom_site_fract_z
_atom_site_U_iso_or_equiv
_atom_site_adp_type
_atom_site_occupancy
_atom_site_site_symmetry_order
_atom_site_calc_flag
_atom_site_refinement_flags_posn
S1 S 0.26849(5) 0.17557(12) 0.60557(4) 0.01585(14) Uani 1 1 d .
F1 F 0.56707(16) 1.0394(4) 0.94796(12) 0.0394(5) Uani 1 1 d .
F2 F 0.67939(16) 0.6921(4) 0.99627(11) 0.0422(4) Uani 1 1 d .
F3 F 0.71959(16) 0.9444(4) 0.88876(11) 0.0374(5) Uani 1 1 d .
O1 O 0.34250(18) -0.0383(3) 0.58303(13) 0.0239(4) Uani 1 1 d .
O2 O 0.15795(16) 0.1124(4) 0.63684(13) 0.0274(5) Uani 1 1 d .
N1 N 0.0901(2) 0.0891(5) 0.21467(16) 0.0248(5) Uani 1 1 d .
N2 N 0.04020(19) 0.3115(4) 0.24137(14) 0.0167(4) Uani 1 1 d .
C1 C 0.0111(3) 0.0347(6) 0.1264(2) 0.0290(6) Uani 1 1 d .
H1 H 0.0209 -0.1088 0.0888 0.035 Uiso 1 1 calc R
C2 C -0.0878(2) 0.2177(6) 0.09707(19) 0.0261(6) Uani 1 1 d .
H2 H -0.1541 0.2201 0.0388 0.031 Uiso 1 1 calc R
C3 C -0.0662(2) 0.3926(5) 0.17248(18) 0.0201(5) Uani 1 1 d .
H3 H -0.1155 0.5400 0.1758 0.024 Uiso 1 1 calc R
C4 C 0.1028(2) 0.4372(5) 0.33443(17) 0.0153(5) Uani 1 1 d .
H4 H 0.0540 0.5961 0.3395 0.018 Uiso 1 1 calc R
C5 C 0.1080(2) 0.2606(5) 0.42216(17) 0.0160(5) Uani 1 1 d .
H5A H 0.1271 0.0791 0.4101 0.019 Uiso 1 1 calc R
H5B H 0.0282 0.2667 0.4388 0.019 Uiso 1 1 calc R
C6 C 0.2178(2) 0.3864(5) 0.50211(16) 0.0131(5) Uani 1 1 d .
H6 H 0.1889 0.5548 0.5218 0.016 Uiso 1 1 calc R
C7 C 0.3204(2) 0.4389(5) 0.45099(17) 0.0172(5) Uani 1 1 d .
H7A H 0.3703 0.2811 0.4499 0.021 Uiso 1 1 calc R
H7B H 0.3777 0.5792 0.4833 0.021 Uiso 1 1 calc R
C8 C 0.2431(2) 0.5206(5) 0.34724(17) 0.0185(5) Uani 1 1 d .
H8A H 0.2758 0.4327 0.2994 0.022 Uiso 1 1 calc R
H8B H 0.2485 0.7099 0.3390 0.022 Uiso 1 1 calc R
C9 C 0.3720(2) 0.3729(5) 0.69714(17) 0.0144(5) Uani 1 1 d .
C10 C 0.3216(2) 0.5282(5) 0.75661(17) 0.0175(5) Uani 1 1 d .
H10 H 0.2340 0.5281 0.7489 0.021 Uiso 1 1 calc R
C11 C 0.4035(2) 0.6833(6) 0.82767(16) 0.0186(5) Uani 1 1 d .
H11 H 0.3714 0.7890 0.8681 0.022 Uiso 1 1 calc R
C12 C 0.5342(2) 0.6799(6) 0.83809(15) 0.0171(5) Uani 1 1 d .
C13 C 0.5839(2) 0.5236(5) 0.77841(18) 0.0187(5) Uani 1 1 d .
H13 H 0.6715 0.5229 0.7862 0.022 Uiso 1 1 calc R
C14 C 0.5023(2) 0.3695(5) 0.70743(18) 0.0177(5) Uani 1 1 d .
H14 H 0.5344 0.2644 0.6669 0.021 Uiso 1 1 calc R
C15 C 0.6246(3) 0.8382(6) 0.91743(18) 0.0235(6) Uani 1 1 d .
loop_
_atom_site_aniso_label
_atom_site_aniso_U_11
_atom_site_aniso_U_22
_atom_site_aniso_U_33
_atom_site_aniso_U_23
_atom_site_aniso_U_13
_atom_site_aniso_U_12
S1 0.0148(3) 0.0157(3) 0.0159(3) 0.0004(3) 0.0029(2) -0.0048(3)
F1 0.0395(10) 0.0406(10) 0.0354(10) -0.0227(8) 0.0069(8) -0.0043(8)
F2 0.0454(10) 0.0446(10) 0.0219(8) 0.0057(9) -0.0129(7) -0.0117(10)
F3 0.0347(10) 0.0505(12) 0.0290(9) -0.0164(8) 0.0129(7) -0.0248(8)
O1 0.0298(10) 0.0133(9) 0.0241(10) -0.0035(8) 0.0011(8) 0.0008(7)
O2 0.0189(9) 0.0414(14) 0.0210(9) 0.0036(8) 0.0044(7) -0.0145(8)
N1 0.0296(12) 0.0230(12) 0.0228(12) -0.0052(9) 0.0094(10) 0.0018(9)
N2 0.0166(11) 0.0175(11) 0.0160(11) -0.0010(9) 0.0048(8) -0.0007(8)
C1 0.0417(17) 0.0265(15) 0.0231(14) -0.0089(12) 0.0164(13) -0.0099(14)
C2 0.0235(13) 0.0351(18) 0.0181(12) -0.0016(12) 0.0037(10) -0.0121(12)
C3 0.0118(12) 0.0266(14) 0.0197(13) 0.0029(11) 0.0011(10) -0.0035(10)
C4 0.0118(11) 0.0177(12) 0.0159(12) -0.0015(10) 0.0032(9) -0.0007(9)
C5 0.0101(11) 0.0193(13) 0.0189(13) -0.0002(9) 0.0048(10) -0.0029(9)
C6 0.0123(11) 0.0121(12) 0.0142(12) -0.0017(9) 0.0030(9) 0.0000(9)
C7 0.0129(12) 0.0202(13) 0.0193(13) 0.0001(10) 0.0061(10) -0.0041(10)
C8 0.0133(12) 0.0246(14) 0.0188(13) 0.0026(11) 0.0064(10) -0.0022(10)
C9 0.0131(11) 0.0151(13) 0.0137(12) 0.0032(10) 0.0019(9) -0.0013(9)
C10 0.0141(12) 0.0227(13) 0.0166(12) 0.0029(11) 0.0059(10) 0.0016(10)
C11 0.0208(11) 0.0225(12) 0.0140(11) 0.0010(12) 0.0073(9) 0.0036(12)
C12 0.0196(11) 0.0174(11) 0.0132(11) 0.0015(12) 0.0030(9) -0.0025(13)
C13 0.0135(12) 0.0225(14) 0.0198(13) -0.0002(11) 0.0046(10) -0.0021(10)
C14 0.0161(12) 0.0189(13) 0.0199(13) -0.0040(10) 0.0083(10) 0.0010(10)
C15 0.0250(14) 0.0286(16) 0.0159(13) -0.0034(11) 0.0045(11) -0.0050(12)
loop_
_atom_type_symbol
_atom_type_description
_atom_type_scat_dispersion_real
_atom_type_scat_dispersion_imag
_atom_type_scat_source
C C 0.0033 0.0016 'International Tables Vol C Tables 4.2.6.8 and 6.1.1.4'
H H 0.0000 0.0000 'International Tables Vol C Tables 4.2.6.8 and 6.1.1.4'
F F 0.0171 0.0103 'International Tables Vol C Tables 4.2.6.8 and 6.1.1.4'
N N 0.0061 0.0033 'International Tables Vol C Tables 4.2.6.8 and 6.1.1.4'
O O 0.0106 0.0060 'International Tables Vol C Tables 4.2.6.8 and 6.1.1.4'
S S 0.1246 0.1234 'International Tables Vol C Tables 4.2.6.8 and 6.1.1.4'
loop_
_geom_angle_atom_site_label_1
_geom_angle_atom_site_label_2
_geom_angle_atom_site_label_3
_geom_angle
O1 S1 C6 108.73(11)
O1 S1 C9 108.21(11)
O2 S1 O1 118.57(12)
O2 S1 C6 108.01(10)
O2 S1 C9 107.80(11)
C9 S1 C6 104.66(11)
C1 N1 N2 103.8(2)
N1 N2 C4 120.3(2)
C3 N2 N1 112.2(2)
C3 N2 C4 127.5(2)
N1 C1 H1 123.9
N1 C1 C2 112.1(2)
C2 C1 H1 123.9
C1 C2 H2 127.6
C3 C2 C1 104.8(2)
C3 C2 H2 127.6
N2 C3 C2 107.0(2)
N2 C3 H3 126.5
C2 C3 H3 126.5
N2 C4 H4 108.0
N2 C4 C5 113.0(2)
N2 C4 C8 114.18(19)
C5 C4 H4 108.0
C5 C4 C8 105.48(18)
C8 C4 H4 108.0
C4 C5 H5A 111.4
C4 C5 H5B 111.4
C4 C5 C6 101.65(19)
H5A C5 H5B 109.3
C6 C5 H5A 111.4
C6 C5 H5B 111.4
S1 C6 H6 109.3
C5 C6 S1 110.87(16)
C5 C6 H6 109.3
C5 C6 C7 103.69(18)
C7 C6 S1 114.28(16)
C7 C6 H6 109.3
C6 C7 H7A 111.0
C6 C7 H7B 111.0
C6 C7 C8 103.83(18)
H7A C7 H7B 109.0
C8 C7 H7A 111.0
C8 C7 H7B 111.0
C4 C8 H8A 110.4
C4 C8 H8B 110.4
C7 C8 C4 106.49(19)
C7 C8 H8A 110.4
C7 C8 H8B 110.4
H8A C8 H8B 108.6
C10 C9 S1 119.55(18)
C14 C9 S1 118.93(19)
C14 C9 C10 121.5(2)
C9 C10 H10 120.5
C11 C10 C9 119.0(2)
C11 C10 H10 120.5
C10 C11 H11 120.3
C10 C11 C12 119.5(2)
C12 C11 H11 120.3
C11 C12 C15 120.0(2)
C13 C12 C11 121.1(2)
C13 C12 C15 118.8(2)
C12 C13 H13 120.3
C14 C13 C12 119.4(2)
C14 C13 H13 120.3
C9 C14 H14 120.3
C13 C14 C9 119.4(2)
C13 C14 H14 120.3
F1 C15 C12 112.8(2)
F2 C15 F1 106.4(2)
F2 C15 F3 106.8(2)
F2 C15 C12 112.0(2)
F3 C15 F1 106.0(2)
F3 C15 C12 112.3(2)
loop_
_geom_bond_atom_site_label_1
_geom_bond_atom_site_label_2
_geom_bond_distance
S1 O1 1.4446(19)
S1 O2 1.4428(18)
S1 C6 1.778(2)
S1 C9 1.768(2)
F1 C15 1.338(3)
F2 C15 1.336(3)
F3 C15 1.336(3)
N1 N2 1.355(3)
N1 C1 1.333(3)
N2 C3 1.348(3)
N2 C4 1.454(3)
C1 H1 0.9300
C1 C2 1.391(4)
C2 H2 0.9300
C2 C3 1.364(4)
C3 H3 0.9300
C4 H4 0.9800
C4 C5 1.531(3)
C4 C8 1.548(3)
C5 H5A 0.9700
C5 H5B 0.9700
C5 C6 1.532(3)
C6 H6 0.9800
C6 C7 1.533(3)
C7 H7A 0.9700
C7 H7B 0.9700
C7 C8 1.535(3)
C8 H8A 0.9700
C8 H8B 0.9700
C9 C10 1.388(3)
C9 C14 1.387(3)
C10 H10 0.9300
C10 C11 1.385(4)
C11 H11 0.9300
C11 C12 1.392(3)
C12 C13 1.389(4)
C12 C15 1.500(3)
C13 H13 0.9300
C13 C14 1.380(4)
C14 H14 0.9300
