#------------------------------------------------------------------------------
#$Date: 2017-03-09 01:58:24 +0200 (Thu, 09 Mar 2017) $
#$Revision: 194102 $
#$URL: file:///home/coder/svn-repositories/cod/cif/4/12/58/4125853.cif $
#------------------------------------------------------------------------------
#
# This file is available in the Crystallography Open Database (COD),
# http://www.crystallography.net/
#
# All data on this site have been placed in the public domain by the
# contributors.
#
data_4125853
loop_
_publ_author_name
'Pan, Qiang'
'Liu, Zhi-Bo'
'Tang, Yuan-Yuan'
'Li, Peng-Fei'
'Ma, Rong-Wei'
'Wei, Ru-Yuan'
'Zhang, Yi'
'You, Yu-Meng'
'Ye, Heng-Yun'
'Xiong, Ren-Gen'
_publ_section_title
;
 A Three-Dimensional Molecular Perovskite Ferroelectric:
 (3-Ammoniopyrrolidinium)RbBr3.
;
_journal_name_full               'Journal of the American Chemical Society'
_journal_paper_doi               10.1021/jacs.7b00492
_journal_year                    2017
_chemical_formula_sum            'C4 H9 Br3 N2 Rb'
_chemical_formula_weight         410.33
_space_group_crystal_system      cubic
_space_group_IT_number           221
_space_group_name_Hall           '-P 4 2 3'
_space_group_name_H-M_alt        'P m -3 m'
_symmetry_space_group_name_Hall  '-P 4 2 3'
_symmetry_space_group_name_H-M   'P m -3 m'
_audit_creation_method           SHELXL-2014/7
_cell_angle_alpha                90
_cell_angle_beta                 90
_cell_angle_gamma                90
_cell_formula_units_Z            1
_cell_length_a                   6.7999(18)
_cell_length_b                   6.7999(18)
_cell_length_c                   6.7999(18)
_cell_measurement_reflns_used    268
_cell_measurement_temperature    453(2)
_cell_measurement_theta_max      27.3048
_cell_measurement_theta_min      2.9952
_cell_volume                     314.42(14)
_computing_structure_refinement  'SHELXL-2014/7 (Sheldrick, 2014)'
_diffrn_ambient_temperature      453(2)
_diffrn_measured_fraction_theta_full 1.000
_diffrn_measured_fraction_theta_max 1.000
_diffrn_measurement_device_type  'Rigaku saturn 724'
_diffrn_radiation_type           MoK\a
_diffrn_radiation_wavelength     0.71073
_diffrn_reflns_av_R_equivalents  0.0519
_diffrn_reflns_av_unetI/netI     0.0509
_diffrn_reflns_Laue_measured_fraction_full 1.000
_diffrn_reflns_Laue_measured_fraction_max 1.000
_diffrn_reflns_limit_h_max       8
_diffrn_reflns_limit_h_min       -8
_diffrn_reflns_limit_k_max       8
_diffrn_reflns_limit_k_min       -6
_diffrn_reflns_limit_l_max       3
_diffrn_reflns_limit_l_min       -8
_diffrn_reflns_number            1116
_diffrn_reflns_point_group_measured_fraction_full 1.000
_diffrn_reflns_point_group_measured_fraction_max 1.000
_diffrn_reflns_theta_full        25.242
_diffrn_reflns_theta_max         27.296
_diffrn_reflns_theta_min         2.996
_exptl_absorpt_coefficient_mu    13.419
_exptl_absorpt_correction_T_max  1.0000
_exptl_absorpt_correction_T_min  0.6833
_exptl_absorpt_correction_type   multi-scan
_exptl_crystal_colour            COLORLESS
_exptl_crystal_density_diffrn    2.167
_exptl_crystal_description       PRISM
_exptl_crystal_F_000             189
_exptl_crystal_size_max          0.35
_exptl_crystal_size_mid          0.25
_exptl_crystal_size_min          0.2
_refine_diff_density_max         0.523
_refine_diff_density_min         -0.527
_refine_diff_density_rms         0.103
_refine_ls_extinction_method     none
_refine_ls_goodness_of_fit_ref   1.279
_refine_ls_hydrogen_treatment    undef
_refine_ls_matrix_type           full
_refine_ls_number_parameters     8
_refine_ls_number_reflns         103
_refine_ls_number_restraints     0
_refine_ls_restrained_S_all      1.279
_refine_ls_R_factor_all          0.0935
_refine_ls_R_factor_gt           0.0827
_refine_ls_shift/su_max          0.000
_refine_ls_shift/su_mean         0.000
_refine_ls_structure_factor_coef Fsqd
_refine_ls_weighting_details
'w=1/[\s^2^(Fo^2^)+(0.0654P)^2^+0.9075P] where P=(Fo^2^+2Fc^2^)/3'
_refine_ls_weighting_scheme      calc
_refine_ls_wR_factor_gt          0.1899
_refine_ls_wR_factor_ref         0.1967
_reflns_Friedel_coverage         0.000
_reflns_number_gt                85
_reflns_number_total             103
_reflns_threshold_expression     'I > 2\s(I)'
_cod_data_source_file            ja7b00492_si_003.cif
_cod_data_source_block           shelxl
_cod_depositor_comments
;
The following automatic conversions were performed:

'_exptl_absorpt_correction_type' value 'Multi-scan' changed to
'multi-scan' according to
/home/data/users/saulius/crontab/automatic-downloads/rss-feeds/ACS/lib/dictionaries/cif_core.dic
dictionary named 'cif_core.dic' version 2.4.2 from 2011-04-26.

Automatic conversion script
Id: cif_fix_values 4973 2017-02-22 13:04:09Z antanas 
;
_cod_original_cell_volume        314.4(2)
_cod_database_code               4125853
_shelx_shelxl_version_number     2014/7
_shelx_space_group_comment
;
The symmetry employed for this shelxl refinement is uniquely defined
by the following loop, which should always be used as a source of
symmetry information in preference to the above space-group names.
They are only intended as comments.
;
_shelx_res_file
;

    shelxl.res created by SHELXL-2014/7


TITL shelxl in Pm-3m
CELL 0.71073   6.7999   6.7999   6.7999  90.000  90.000  90.000
ZERR    1.00   0.0018   0.0018   0.0018   0.000   0.000   0.000
LATT  1
SYMM -X, -Y, Z
SYMM -X, Y, -Z
SYMM X, -Y, -Z
SYMM Z, X, Y
SYMM Z, -X, -Y
SYMM -Z, -X, Y
SYMM -Z, X, -Y
SYMM Y, Z, X
SYMM -Y, Z, -X
SYMM Y, -Z, -X
SYMM -Y, -Z, X
SYMM Y, X, -Z
SYMM -Y, -X, -Z
SYMM Y, -X, Z
SYMM -Y, X, Z
SYMM X, Z, -Y
SYMM -X, Z, Y
SYMM -X, -Z, -Y
SYMM X, -Z, Y
SYMM Z, Y, -X
SYMM Z, -Y, X
SYMM -Z, Y, X
SYMM -Z, -Y, -X
SFAC C H N BR RB
UNIT 4 9 2 3 1

L.S. 4
BOND
ACTA
TEMP 180
FMAP 2
PLAN 20

WGHT    0.065400    0.907500
FVAR       9.98692   0.13804
RB1   5   -1.000000    0.000000    0.000000    10.02083    0.08434    0.08434 =
         0.08434    0.00000    0.00000    0.00000
BR1   4   -1.000000    0.000000   -0.500000    10.06250    0.26257    0.26257 =
         0.08222    0.00000    0.00000    0.00000
N1    3    0.500000    0.500000    1.309799    10.12500    0.38534    0.38534 =
         0.33864    0.00000    0.00000    0.00000
HKLF 4

REM  shelxl in Pm-3m
REM R1 =  0.0827 for      85 Fo > 4sig(Fo)  and  0.0935 for all     103 data
REM      8 parameters refined using      0 restraints

END

WGHT      0.0649      0.9111

REM Highest difference peak  0.523,  deepest hole -0.527,  1-sigma level  0.103
Q1    1  -1.0000  0.1021  0.0000  10.12500  0.05    0.52
Q2    1  -0.8524  0.1476 -0.5000  10.25000  0.05    0.38
Q3    1   0.5000  0.5000  1.0000  10.06250  0.05    0.28
Q4    1   0.3632  0.3632  1.3632  10.16667  0.05    0.24
Q5    1   0.4378  0.2654  1.2654  10.50000  0.05    0.17
Q6    1  -1.0000  0.0000  0.2397  10.12500  0.05    0.17
Q7    1   0.4027  0.4027  1.1552  10.50000  0.05    0.15
Q8    1   0.5000  0.3209  1.3209  10.25000  0.05    0.14
Q9    1   0.3983  0.5000  1.1697  10.50000  0.05    0.14
Q10   1  -1.0000  0.1978  0.1978  10.25000  0.05    0.13
Q11   1  -0.9274  0.0726 -0.7412  10.50000  0.05    0.12
Q12   1  -0.8419  0.1581 -0.6385  10.50000  0.05    0.06
Q13   1   0.2282  0.2282  1.2282  10.16667  0.05    0.01
Q14   1   0.3122  0.2692  1.1424  11.00000  0.05    0.01
;
_shelx_res_checksum              97523
_shelx_hkl_file
;
  -1   0   0110467.9 1439.66   1-0.05226-0.05226 0.90013-0.90013-0.43247 0.43247
   1   0   0106850.5 1372.73   1 0.05240 0.05240 0.92350-0.92350-0.37999 0.37999
   0   0  -1108094.0 1377.29   1 0.64134-0.64134 0.76546-0.76546-0.05230-0.05230
   0   0   1111034.2 1420.52   1 0.63175-0.63175 0.77340-0.77340 0.05230 0.05230
   0  -1  -127785.09  543.80   1-0.62825 0.62825 0.49538-0.59990-0.59990 0.49538
  -1  -1   028206.67  605.38   1-0.61580 0.51127 0.51127-0.61580-0.59947 0.59947
   1   1   027677.99  532.53   1-0.51687 0.62140 0.62140-0.51687-0.58880 0.58880
   1   0  -127832.06  423.37   1-0.47695 0.58148 0.65907-0.65907-0.58148 0.47695
   0   1   127625.94  461.24   1-0.45225 0.45225 0.68075-0.57622-0.57622 0.68075
  -1   0  -127974.10 1227.45   1 0.19455-0.29937 0.93408-0.93408-0.29937 0.19455
   1   0   126156.79  909.77   1 0.32203-0.21722 0.92146-0.92146-0.21722 0.32203
   0   1   126979.70  679.91   1 0.59218-0.59218 0.61969-0.51507-0.51507 0.61969
   1   0   129224.85  630.72   1 0.59831-0.49369 0.63109-0.63109-0.49369 0.59831
   1   0  -128191.98 1108.54   1 0.53500-0.43038 0.72700-0.72700 0.43038-0.53500
   0   1  -126511.45  554.60   1 0.46989-0.46989 0.67429-0.56967 0.56967-0.67429
  -1   0   128630.75  811.29   1 0.46819-0.57280 0.67281-0.67281 0.57280-0.46819
   0  -1   127936.87  563.17   1 0.38615-0.38615 0.59785-0.70246 0.70246-0.59785
   1   1  -1242029.1 2966.57   1-0.74507 0.84960 0.31277-0.20824-0.58909 0.48456
  -1  -1  -1243465.9 3222.67   1-0.35823 0.25370 0.75316-0.85769-0.55172 0.44719
   1   1   1238591.1 3185.76   1-0.19506 0.29959 0.84676-0.74223-0.49491 0.59943
   1  -1   1239766.9 2940.69   1 0.56815-0.46353 0.74997-0.85458 0.33874-0.23412
   1   1  -1240465.8 3073.29   1 0.34779-0.24317 0.56062-0.45600 0.75149-0.85610
  -2   0   0999998.6214106.9   1-0.10452-0.10452 0.88350-0.88350-0.45661 0.45661
   2   0   0935019.3200189.2   1 0.10481 0.10481 0.93028-0.93028-0.35155 0.35155
   0   0  -2926418.2198356.0   1 0.64347-0.64347 0.75828-0.75828-0.10461-0.10461
   0   0   2915426.5196002.2   1 0.62429-0.62429 0.77414-0.77414 0.10461 0.10461
  -2   0   1227131.2 2949.83   1-0.41422 0.20517 0.71187-0.71187-0.56713 0.67166
   0  -1  -2218956.8 2839.73   1-0.28858 0.28858 0.79770-0.90223-0.52951 0.32045
   2   0  -1227622.4 2906.38   1-0.09564 0.30470 0.88655-0.88655-0.45261 0.34809
  -2   0  -1224008.4 2976.56   1 0.05760-0.26722 0.92432-0.92432-0.37723 0.27242
   0   1   2223437.9 2791.09   1 0.13363-0.13363 0.93259-0.82778-0.33528 0.54490
   0  -1  -2228590.7 3006.52   1 0.60809-0.60809 0.64999-0.75461-0.45576 0.24653
   0   1  -2224508.3 3054.54   1 0.59361-0.59361 0.76445-0.65983 0.25145-0.46069
   2   0  -1226484.9 2855.82   1 0.44091-0.23168 0.64871-0.64871 0.62029-0.72491
  -2  -1   0220982.3 2844.57   1-0.46536 0.25630 0.66940-0.77393-0.57908 0.57908
  -1   0  -2226058.1 3021.28   1 0.25774-0.36255 0.93060-0.93060-0.25988 0.05026
  -2   1   0227894.4 3108.97   1 0.32904-0.53866 0.92011-0.81530-0.21241 0.21241
  -1   0  -2219392.8 2859.35   1 0.61244-0.71705 0.65875-0.65875-0.43699 0.22775
   1   0   2224562.7 2860.33   1 0.64304-0.53842 0.74169-0.74169-0.19075 0.39998
   1   0  -2226040.3 2911.47   1 0.61143-0.50681 0.77171-0.77171 0.17494-0.38417
  -1  -2  -115740.28  625.84   1-0.64894 0.54442 0.46772-0.67678-0.60008 0.49555
   2   1  -115609.30  449.52   1-0.46692 0.67598 0.66802-0.56349-0.57941 0.47488
  -2  -1  -115655.58  885.63   1-0.29015 0.08109 0.79677-0.90130-0.53005 0.42552
  -1  -1  -215153.10 1073.80   1-0.18419 0.07966 0.85172-0.95624-0.49055 0.28149
  -2   1   115667.91  833.38   1 0.14503-0.35466 0.93322-0.82841-0.32871 0.43353
  -2   1  -115093.41  902.02   1 0.38332-0.59295 0.90707-0.80225-0.17401 0.06920
  -1   2   114276.09  575.98   1 0.61821-0.72283 0.67084-0.46160-0.40961 0.51422
   2  -1   116397.56  614.95   1 0.64070-0.43147 0.73016-0.83477-0.23740 0.34201
   1  -1  -215569.19  936.38   1 0.64249-0.53787 0.73839-0.84301-0.20487-0.00436
   2  -1  -116725.69  617.71   1 0.61695-0.40772 0.77316-0.87778 0.14689-0.25151
   1  -1   215093.41 1054.85   1 0.59611-0.49149 0.76565-0.87027 0.24169-0.03246
   1   1  -214796.27  931.94   1 0.52172-0.41710 0.71692-0.61231 0.46240-0.67163
  -1   2  -114648.91  695.51   1 0.47176-0.57638 0.67590-0.46667 0.56619-0.67081
  -2   1   116239.37  494.86   1 0.46663-0.67587 0.67147-0.56685 0.57565-0.47103
   2   1  -117081.94  934.27   1 0.30137-0.09213 0.51413-0.40951 0.80302-0.90763
   0  -2  -2363502.877830.67   1-0.70250 0.70250 0.38772-0.59678-0.59678 0.38772
  -2  -2   0363480.577835.07   1-0.66055 0.45149 0.45149-0.66055-0.59985 0.59985
   0   2   2344631.3 4377.49   1-0.35050 0.35050 0.75847-0.54941-0.54941 0.75847
   2   0  -2361935.5 4522.97   1-0.33589 0.54495 0.76824-0.76824-0.54495 0.33589
  -2   0  -2381936.981816.83   1 0.12855-0.33818 0.93225-0.93225-0.33818 0.12855
   2   0  -2360433.5 5438.52   1 0.56314-0.35390 0.74674-0.74674 0.35390-0.56314
   2   1  -2148727.5 1925.68   1-0.61840 0.82745 0.50801-0.40348-0.59958 0.39052
  -1   2   2148898.8 1848.67   1-0.59602 0.49149 0.53549-0.32644-0.59832 0.80738
  -2  -2  -1148167.0 2163.53   1-0.53857 0.32951 0.59944-0.80850-0.59212 0.48759
  -1  -2  -2148955.6 2043.85   1-0.52252 0.41800 0.61579-0.82484-0.58971 0.38065
  -2   1   2150447.2 1835.31   1-0.50642 0.29736 0.63160-0.52707-0.58703 0.79609
  -2  -1  -2150206.6 2280.49   1-0.17577-0.03327 0.85545-0.95998-0.48713 0.27807
  -2   1  -2149833.9 3478.53   1 0.38781-0.59743 0.90578-0.80097-0.17074-0.03887
   1  -2  -2148453.2 2102.97   1 0.58238-0.47777 0.60203-0.81127-0.54623 0.33699
  -2   1  -2147388.5 2102.05   1 0.59140-0.80064 0.61827-0.51365-0.51766 0.30842
  -2   2  -1150471.6 1868.96   1 0.63138-0.84061 0.70150-0.49227-0.33052 0.22590
   2  -1   2145978.6 1985.73   1 0.63907-0.42984 0.76890-0.87351-0.01923 0.22847
   2  -1  -2153419.0 2288.48   1 0.63600-0.42676 0.77154-0.87616 0.01484-0.22407
  -2   2   1150799.7 2227.53   1 0.61526-0.82450 0.77277-0.56354 0.15576-0.05114
  -1   2  -2149971.3 2282.76   1 0.59850-0.70311 0.76675-0.55752 0.23211-0.44135
   2   1  -2150765.3 2695.76   1 0.46929-0.26005 0.67377-0.56915 0.57078-0.78002
   1   2  -2149922.0 2254.64   1 0.43648-0.33186 0.64470-0.43547 0.62756-0.83679
   1  -2   2147449.7 2273.98   1 0.41925-0.31463 0.62894-0.83818 0.65471-0.44547
  -2  -2  -2181269.7 2655.46   1-0.43574 0.22669 0.69458-0.90364-0.57242 0.36336
  -2   2  -2175805.4 2506.14   1 0.64169-0.85092 0.73438-0.52514-0.22116 0.01192
   2  -2   2178118.4 2335.29   1 0.49839-0.28916 0.69831-0.90754 0.51376-0.30453
   2   2  -2173208.6 2956.92   1 0.39584-0.18660 0.60705-0.39782 0.68904-0.89828
   0   0  -329689.99  782.10   1 0.40618-0.40618 0.90016-0.90016-0.15721-0.15721
   0   0  -331156.48 1172.34   1 0.64380-0.64380 0.74892-0.74892-0.15692-0.15692
  -3   0   1  363.68  194.34   1-0.35811 0.04452 0.75325-0.75325-0.55168 0.65621
   0  -1  -3  245.22   94.53   1-0.12601 0.12601 0.87570-0.98023-0.46611 0.15252
  -3   0  -1  497.13  416.03   1-0.03353-0.28090 0.90529-0.90529-0.42346 0.31865
   0  -1  -3 -341.39  667.60   1 0.62020-0.62020 0.67514-0.77976-0.39941 0.08555
   0   1  -3  305.23  255.26   1 0.62749-0.62749 0.77410-0.66949 0.08367-0.39752
   3   0  -1  355.68  189.29   1 0.40140-0.08755 0.61230-0.61230 0.68113-0.78575
  -3   0   233848.33  776.75   1-0.62638 0.31279 0.49780-0.49780-0.59985 0.80891
   3   0  -234875.17  727.83   1-0.06623 0.37982 0.89600-0.89600-0.43907 0.23001
  -3   0  -235219.92 1423.63   1 0.03300-0.34744 0.92016-0.92016-0.39014 0.18052
   0   2   335671.59  908.19   1 0.03894-0.03894 0.92123-0.71160-0.38705 0.70149
  -2   3   035922.25  701.74   1 0.59368-0.80292 0.62246-0.30861-0.50997 0.50997
   3   0  -233257.58 1207.82   1 0.52686-0.21300 0.72087-0.72087 0.45028-0.65952
  -3  -1   0   78.09  481.12   1-0.41207 0.09848 0.71356-0.81809-0.56658 0.56658
  -3   1   0  175.28  391.39   1 0.13622-0.45066 0.93275-0.82793-0.33379 0.33379
  -1   0  -3  765.05  436.67   1 0.25701-0.36182 0.93067-0.93067-0.26035-0.05407
  -1   0  -3  787.42  527.78   1 0.62336-0.72798 0.68218-0.68218-0.38215 0.06829
   1   0  -3   -1.18  592.63   1 0.63361-0.52900 0.77276-0.77276 0.03684-0.35069
  -3  -1   112932.53  822.17   1-0.57657 0.26299 0.55815-0.66268-0.59667 0.70120
   1  -1  -313341.19  376.38   1-0.41351 0.51804 0.71243-0.81696-0.56695 0.25336
  -3  -1  -113209.80 2620.56   1-0.28281-0.03076 0.80107-0.90560-0.52753 0.42300
  -1  -1  -313317.32 1938.37   1-0.09860-0.00592 0.88555-0.99008-0.45395 0.14036
  -3   1   112876.16  763.10   1-0.03089-0.28354 0.90598-0.80116-0.42218 0.52700
  -3   1  -113224.55 1368.90   1 0.21470-0.52914 0.93354-0.82873-0.28703 0.18222
  -1   1  -312991.74  973.77   1 0.64380-0.74842 0.74895-0.64434-0.15674-0.15710
   1   1  -312227.15 2085.27   1 0.59142-0.48680 0.76336-0.65874 0.25979-0.57364
   3  -1  -113331.61  983.97   1 0.56061-0.24675 0.74507-0.84969 0.36136-0.46597
  -1   3  -115228.38 1335.46   1 0.34550-0.45012 0.55837-0.24452 0.75421-0.85883
  -3  -1   2 3337.46  550.05   1-0.74274 0.42916 0.31720-0.42173-0.58966 0.79872
  -2  -3  -1 2972.21  566.32   1-0.68642 0.47736 0.41318-0.72677-0.59841 0.49388
  -1  -2  -3 3978.42  837.20   1-0.42615 0.32162 0.70239-0.91145-0.57011 0.25652
  -3   1   2 2714.06  733.55   1-0.36247 0.04888 0.75022-0.64569-0.55297 0.76202
  -3  -1  -2 2948.54  721.43   1-0.19587-0.11771 0.84639-0.95091-0.49523 0.28617
  -1   2   3 2261.08  508.15   1 0.14314-0.24795 0.93313-0.72350-0.32980 0.64424
  -3   1  -2 2923.91  814.53   1 0.24479-0.55923 0.93175-0.82693-0.26817 0.05854
   1  -2  -3 2748.93  821.56   1 0.60432-0.49970 0.64257-0.85181-0.47105 0.15719
   3  -1   2 1867.32  274.44   1 0.64120-0.32735 0.73223-0.83685-0.22953 0.43876
  -2   3   1 1469.07  465.20   1 0.64267-0.85191 0.73941-0.42556-0.20056 0.30518
  -1   2  -3 2240.10  634.57   1 0.63057-0.73519 0.77368-0.56445 0.06149-0.37534
   3  -1  -2 4011.55  690.21   1 0.61299-0.29914 0.77217-0.87679 0.16724-0.37648
  -2   3  -1 2683.17  440.01   1 0.55356-0.76279 0.74030-0.42645 0.38147-0.48608
   1   2  -3 3878.35  714.18   1 0.53843-0.43382 0.72953-0.52030 0.42173-0.73558
  -3  -2   035447.98 1243.04   1-0.58901 0.27542 0.54379-0.75285-0.59778 0.59778
   2   0  -336387.00  586.49   1-0.55096 0.76001 0.58639-0.58639-0.59378 0.28020
  -2   0  -336389.55 1761.56   1 0.14899-0.35861 0.93340-0.93340-0.32642 0.01198
  -3   2   038383.59 2191.42   1 0.37851-0.69295 0.90841-0.69878-0.17750 0.17750
   2   0  -338855.75 2314.01   1 0.61033-0.40109 0.77137-0.77137 0.18021-0.49406
   0   3  -237457.84 2557.12   1 0.43665-0.43665 0.64486-0.33100 0.62728-0.83652
  -1  -3  -2 2724.00  475.43   1-0.70229 0.59776 0.38807-0.70165-0.59680 0.38775
  -1   3   2 2988.52  305.13   1-0.68568 0.58115 0.41432-0.10073-0.59847 0.80753
  -3  -2  -1 2218.67  734.91   1-0.48443 0.17084 0.65228-0.86133-0.58297 0.47844
  -2  -1  -3 2372.87  970.32   1-0.11436-0.09469 0.88000-0.98453-0.46099 0.14740
  -3   2   1 2862.51  777.00   1 0.29419-0.60863 0.92614-0.71651-0.23602 0.34083
  -2   1  -3 2867.19  716.82   1 0.36725-0.57688 0.91141-0.80660-0.18559-0.12884
  -3   2  -1 2403.34  877.47   1 0.40739-0.72183 0.89977-0.69014-0.15631 0.05150
  -2   1  -3 2892.92  848.98   1 0.61336-0.82260 0.66065-0.55603-0.43280 0.11895
   3  -2  -1 3052.32  414.38   1 0.63883-0.32497 0.72324-0.93248-0.26231 0.15769
   2  -1  -3 3918.49  617.85   1 0.64227-0.43304 0.76323-0.86785-0.07033-0.24351
   2   1  -3 2946.94  581.94   1 0.55619-0.34696 0.74210-0.63749 0.37405-0.68791
  -1   3  -2 3100.61  578.71   1 0.52638-0.63100 0.72051-0.40666 0.45141-0.66064
  -3   2   1 3170.87  533.72   1 0.38915-0.70300 0.60070-0.39147 0.69836-0.59374
   1   3  -2 3581.43  678.53   1 0.37968-0.27507 0.59166-0.27780 0.71117-0.92041
  -2  -3  -229030.00 1151.60   1-0.61440 0.40534 0.51304-0.82663-0.59941 0.39035
  -3  -2  -228335.67 1328.71   1-0.40145 0.08786 0.72175-0.93081-0.56382 0.35476
  -2  -2  -327153.78 1148.85   1-0.36366 0.15460 0.74939-0.95844-0.55331 0.23973
  -3   2   228860.41 1186.94   1 0.07616-0.39060 0.92698-0.71736-0.36727 0.57690
  -3   2  -226413.72 1403.08   1 0.40721-0.72165 0.89983-0.69020-0.15644-0.05317
   2  -2  -331451.54 1182.59   1 0.62984-0.42060 0.69758-0.90682-0.34157 0.02772
  -2   2  -328757.90 1201.65   1 0.64075-0.84999 0.73035-0.52111-0.23668-0.07716
   3  -2  -230671.52 1034.85   1 0.64190-0.32805 0.73539-0.94462-0.21715 0.00791
  -2   3  -225185.35 1264.02   1 0.62655-0.83578 0.77415-0.46030 0.09005-0.29929
   3  -2   226645.37  864.12   1 0.56650-0.25265 0.74892-0.95815 0.34378-0.13455
   2   2  -328045.95 1369.40   1 0.50213-0.29289 0.70136-0.49212 0.50591-0.81976
   3   2  -230390.49 2070.55   1 0.37826-0.06441 0.59029-0.38105 0.71306-0.92230
   2   3  -232674.82 1983.47   1 0.34979-0.14056 0.56260-0.24875 0.74907-0.95831
  -3  -3   0 1866.50  638.44   1-0.70205 0.38846 0.38846-0.70205-0.59683 0.59683
  -3   0  -3 1717.78  583.95   1 0.06099-0.37543 0.92484-0.92484-0.37543 0.06099
   3   0  -3 1894.06  818.59   1 0.58763-0.27378 0.76139-0.76139 0.27378-0.58763
   0   3  -3 2922.65  779.04   1 0.54027-0.54027 0.73088-0.41702 0.41702-0.73088
  -1  -3  -3  604.27  592.39   1-0.63848 0.53395 0.48190-0.79549-0.60008 0.28649
  -3  -3  -1 1071.61  574.15   1-0.62745 0.31387 0.49641-0.81000-0.59988 0.49536
  -1   3   3  447.36  201.74   1-0.34255 0.23802 0.76383-0.45024-0.54700 0.86059
  -3  -1  -3 1013.17  474.60   1-0.14574-0.16784 0.86804-0.97257-0.47461 0.16102
  -3   1  -3  268.21  920.18   1 0.24602-0.56046 0.93165-0.82683-0.26738-0.04705
   3  -1  -3  440.11  407.06   1 0.63279-0.31894 0.77307-0.87769 0.04381-0.35766
  -1   3  -3  408.31  418.19   1 0.59757-0.70219 0.76633-0.45248 0.23585-0.54970
  -3   3   1  694.28  206.27   1 0.53878-0.85263 0.72979-0.41594 0.42084-0.31622
   3   1  -3  -58.83  640.72   1 0.53079-0.21694 0.72385-0.61923 0.44078-0.75464
   1   3  -3  625.64  389.19   1 0.49236-0.38774 0.69333-0.37948 0.52617-0.84002
  -3  -3  -2 2681.28  916.68   1-0.56152 0.24793 0.57496-0.88855-0.59507 0.38601
  -2  -3  -3 3317.24  679.94   1-0.55555 0.34649 0.58145-0.89504-0.59436 0.28077
  -2   3   3 2184.16  209.28   1-0.50410 0.29504 0.63383-0.32024-0.58662 0.90021
  -3  -2  -3 2392.88  812.95   1-0.34422 0.03064 0.76271-0.97176-0.54751 0.23393
  -3   2  -3 2479.84  860.49   1 0.38910-0.70353 0.90540-0.69578-0.16980-0.14462
   3  -2  -3 3576.10  662.59   1 0.64115-0.32729 0.73199-0.94123-0.23044-0.08340
  -2   3  -3 2587.21  452.65   1 0.64087-0.85010 0.76635-0.45250-0.04448-0.26936
   3   2  -3 2495.51  661.68   1 0.47968-0.16583 0.68268-0.47345 0.55121-0.86506
   2   3  -3 4602.19 1160.17   1 0.45965-0.25041 0.66537-0.35152 0.58821-0.90206
   3   3  -2 2814.97  851.37   1 0.33920-0.02535 0.55214-0.23828 0.76162-0.97086
  -3  -3  -3 1143.02  969.01   1-0.51040 0.19681 0.62774-0.94133-0.58772 0.27413
  -3   3   3  176.51  111.31   1 0.11131-0.42575 0.93089-0.61645-0.34792 0.66235
   3  -3  -3  223.97  496.78   1 0.59609-0.28224 0.62693-0.94078-0.50161 0.18776
  -3   3  -3 -210.84  331.08   1 0.61595-0.92981 0.66604-0.35218-0.42069 0.10684
   3   3  -3  273.04  626.75   1 0.44132-0.12747 0.64907-0.33522 0.61962-0.93347
  -4   0   0132298.2 3714.88   1-0.20905-0.20905 0.84016-0.84016-0.50041 0.50041
   0   0  -4126826.2 3371.58   1 0.33308-0.33308 0.91930-0.91930-0.20962-0.20962
   0   0  -4135734.5 3845.12   1 0.64229-0.64229 0.73734-0.73734-0.20923-0.20923
  -4   0   172042.34 2989.70   1-0.36019-0.05791 0.75180-0.75180-0.55230 0.65683
  -4   0  -175067.24 2421.84   1-0.10762-0.31049 0.88241-0.88241-0.45800 0.35347
   0  -1  -471223.96 1988.46   1-0.07923 0.07923 0.89196-0.99649-0.44511 0.02699
   0  -1  -468889.57 1761.22   1 0.62161-0.62161 0.67825-0.78287-0.39187-0.02659
   0   1  -470761.57 2863.32   1 0.63991-0.63991 0.76784-0.66322-0.03035-0.38811
   4   0  -171840.91 2061.64   1 0.39490 0.02356 0.60617-0.60617 0.69036-0.79498
  -4   0   267780.97 1372.65   1-0.55869 0.14057 0.57805-0.57805-0.59473 0.80379
   0  -2  -469865.64 1206.38   1-0.49129 0.49129 0.64593-0.85499-0.58428 0.16617
  -4   0  -271003.28 3740.35   1-0.04646-0.37164 0.90177-0.90177-0.42970 0.22064
   0   2  -471187.79 2877.80   1 0.62084-0.62084 0.77384-0.56460 0.12537-0.54384
   4   0  -272351.80 2361.92   1 0.50809-0.08962 0.70617-0.70617 0.49310-0.70233
   0  -3  -415994.79  722.73   1-0.72103 0.72103 0.35659-0.67018-0.59409 0.17598
  -4   0  -316412.04 2625.86   1-0.01625-0.40299 0.90965-0.90965-0.41504 0.10060
   0   3  -416929.53 2076.80   1 0.59480-0.59480 0.76503-0.45118 0.24684-0.66531
   4   0  -315158.64  937.65   1 0.57199-0.15352 0.75237-0.75237 0.32674-0.64060
  -4  -1   075888.92 2926.38   1-0.40238-0.01572 0.72104-0.82557-0.56407 0.56407
  -4   1   069788.21 2181.66   1 0.00596-0.42521 0.91475-0.80993-0.40397 0.40397
  -1   0  -468722.35 2099.83   1 0.22690-0.33171 0.93296-0.93296-0.27945-0.13979
  -1   0  -475729.12 2156.28   1 0.62403-0.72865 0.68370-0.68370-0.37832-0.04014
   1   0  -465490.28 3662.52   1 0.64186-0.53724 0.76431-0.76431-0.06184-0.35662
   4  -1   070267.44 1533.66   1 0.36721 0.05125 0.57962-0.68424 0.72745-0.72745
  -4  -1   128396.79 1227.42   1-0.53407 0.11596 0.60408-0.70861-0.59147 0.69600
  -4  -1  -126861.74 1765.35   1-0.29965-0.11846 0.79110-0.89563-0.53325 0.42872
  -4   1   128063.09 1446.42   1-0.13452-0.28358 0.87245-0.76792-0.46980 0.57433
  -1  -1  -427863.98 1390.11   1-0.07072-0.03380 0.89463-0.99916-0.44116 0.02305
  -4   1  -129825.79 2217.86   1 0.08664-0.50589 0.92830-0.82349-0.36157 0.25676
  -1  -1  -427532.49 1671.45   1 0.58629-0.69090 0.60899-0.71361-0.53421 0.11574
   1  -1  -427950.27 1475.09   1 0.63928-0.53467 0.72482-0.82944-0.25677-0.16169
  -1   1  -429478.05 1669.88   1 0.64217-0.74679 0.73672-0.63210-0.21175-0.20671
   1   1  -430531.97 2034.91   1 0.62280-0.51818 0.77405-0.66943 0.11382-0.53229
   4  -1  -125135.76 1496.65   1 0.52779-0.10932 0.72158-0.82620 0.44804-0.55266
   4   1  -123925.10 2225.43   1 0.30549 0.11297 0.51832-0.41370 0.79875-0.90337
  -4  -1   234556.07 1182.47   1-0.67970 0.26159 0.42342-0.52795-0.59892 0.80797
  -1  -2  -434855.93 1233.47   1-0.36909 0.26457 0.74555-0.95461-0.55489 0.13677
  -4   1   235370.00 1339.25   1-0.36371-0.05439 0.74935-0.64482-0.55333 0.76239
  -4  -1  -236828.19 2160.19   1-0.22818-0.18992 0.83072-0.93525-0.50776 0.29870
  -4   1  -234687.57 3356.69   1 0.12734-0.54659 0.93217-0.82736-0.33886 0.12924
   1  -2  -433264.78 1569.81   1 0.60974-0.50512 0.65327-0.86251-0.44882 0.03035
  -1   2  -434542.44 1943.03   1 0.64133-0.74595 0.76547-0.55624-0.05221-0.36625
   4  -1  -235641.30 3043.77   1 0.59284-0.17437 0.76407-0.86869 0.25440-0.46364
   1   2  -434405.96 2340.17   1 0.59255-0.48794 0.76393-0.55470 0.25548-0.67395
  -2   4  -135269.56 1593.97   1 0.44268-0.65192 0.65030-0.23183 0.61735-0.72197
   4   1  -234876.08 1434.40   1 0.43192-0.01345 0.64057-0.53595 0.63490-0.84413
  -3  -4  -1 6185.28  890.68   1-0.72389 0.41030 0.35159-0.76971-0.59360 0.48907
  -4   1   3 5164.14  367.84   1-0.68466 0.26654 0.41589-0.31136-0.59855 0.91214
  -1  -3  -4 6003.80  864.50   1-0.59110 0.48657 0.54134-0.85493-0.59795 0.17983
  -4  -1  -3 6928.29 1347.45   1-0.18457-0.23354 0.85155-0.95607-0.49070 0.17712
  -4   1  -3 5144.64 1367.89   1 0.14092-0.56018 0.93301-0.82820-0.33108 0.01664
  -1   3  -4 6570.29 1253.03   1 0.62749-0.73211 0.77410-0.46025 0.08370-0.50217
   4  -1  -3 6640.98 1372.68   1 0.62208-0.20361 0.77399-0.87860 0.11810-0.43196
   1   3  -4 6180.90 1328.46   1 0.56126-0.45664 0.74550-0.43165 0.35944-0.77791
   4   1  -3 7157.12 1579.79   1 0.51688-0.09841 0.71315-0.60853 0.47354-0.78740
   2   0  -468534.81  938.61   1-0.67571 0.88476 0.42941-0.42941-0.59917 0.18106
  -2   0  -467174.48 1945.32   1 0.13962-0.34924 0.93294-0.93294-0.33184-0.08740
  -4   2   071939.09 3901.23   1 0.20490-0.62415 0.93387-0.72425-0.29306 0.29306
   2   0  -466490.10 2481.29   1 0.63151-0.42228 0.77346-0.77346 0.05421-0.47268
   0   4  -267743.35 2864.33   1 0.39524-0.39524 0.60649-0.18802 0.68989-0.89912
  -4  -2   135061.00 1432.50   1-0.65444 0.23632 0.46010-0.66916-0.60000 0.70453
  -4  -2  -140605.08 1604.65   1-0.46466 0.04654 0.67001-0.87907-0.57893 0.47440
  -2  -1  -436127.59 2641.27   1-0.09139-0.11766 0.88799-0.99251-0.45068 0.03257
  -4   2   135135.44 1966.44   1 0.10149-0.52074 0.92995-0.72032-0.35339 0.45821
  -4   2  -135428.35 2088.61   1 0.25559-0.67484 0.93081-0.72118-0.26127 0.15646
  -2   1  -434917.74 1708.42   1 0.33129-0.54091 0.91966-0.81485-0.21086-0.20838
  -2   1  -436240.16 1882.37   1 0.61691-0.82615 0.66806-0.56344-0.41606-0.00240
   2  -1  -435167.63 1600.74   1 0.64389-0.43466 0.75206-0.85668-0.14068-0.27778
   2   1  -434968.56 1851.27   1 0.60182-0.39258 0.76820-0.66358 0.21834-0.63681
  -1   4  -238847.83 1888.91   1 0.47160-0.57622 0.67577-0.25730 0.56649-0.77573
   1   4  -238622.94 2592.63   1 0.34931-0.24469 0.56212-0.14365 0.74966-0.95889
  -2  -4  -234807.62 1241.08   1-0.72685 0.51779 0.34636-0.76448-0.59305 0.38400
  -4  -2  -238587.81 1399.93   1-0.39556-0.02254 0.72621-0.93527-0.56225 0.35319
  -2  -2  -436096.35 1340.14   1-0.32255 0.11350 0.77688-0.98594-0.54074 0.12263
  -4   2   238336.39 2102.30   1-0.09725-0.32086 0.88601-0.67695-0.45334 0.66240
  -4   2  -237916.44 3724.80   1 0.27447-0.69372 0.92878-0.71916-0.24903 0.03941
   2  -2  -437450.92 1660.64   1 0.62903-0.41979 0.69557-0.90480-0.34712-0.07134
  -2   2  -439328.09 1793.69   1 0.63791-0.84715 0.72020-0.51096-0.27271-0.14575
   4  -2  -237617.87 1924.14   1 0.64335-0.22488 0.75900-0.96824-0.09999-0.10924
   4  -2   235966.79 1092.79   1 0.61091-0.19244 0.77155-0.98079 0.17743 0.03179
  -2   4  -235122.74 1918.22   1 0.57827-0.78750 0.75615-0.33768 0.30632-0.51556
   2   2  -441451.69 2025.85   1 0.56648-0.35725 0.74890-0.53967 0.34384-0.76231
   4   2  -237770.94 2157.59   1 0.37685 0.04161 0.58893-0.37970 0.71493-0.92417
   2   4  -236612.58 4067.20   1 0.32609-0.11686 0.53908-0.12061 0.77656-0.98579
  -3  -4  -210741.59 1211.24   1-0.67659 0.36301 0.42809-0.84620-0.59912 0.39006
  -2  -3  -410336.16  946.05   1-0.51525 0.30620 0.62300-0.93658-0.58853 0.17042
  -4   2   3 8913.41  387.39   1-0.49862 0.08050 0.63905-0.42999-0.58564 0.89923
  -4  -2  -3 9435.68 2640.66   1-0.34768-0.07043 0.76038-0.96944-0.54856 0.23498
  -4   2  -310263.55 1986.94   1 0.27237-0.69162 0.92903-0.71941-0.25040-0.06403
   2  -3  -4 9970.01 1102.19   1 0.58410-0.37487 0.60509-0.91894-0.54100 0.12253
   4  -2  -3 8614.26 3134.77   1 0.64388-0.22541 0.75074-0.95998-0.14764-0.16621
  -2   3  -4 8039.04 1781.57   1 0.64389-0.85312 0.75282-0.43897-0.13656-0.28190
   2   3  -4 8969.81 1886.88   1 0.53412-0.32488 0.72634-0.41249 0.43258-0.85105
   4   2  -310704.89 2120.77   1 0.46970-0.05123 0.67412-0.46488 0.57003-0.88388
   3   4  -2 9166.37 2074.01   1 0.31909-0.00524 0.53205-0.11358 0.78427-0.99351
  -4  -3   015307.25 1270.61   1-0.66283 0.24471 0.44823-0.76182-0.59978 0.59978
  -3   0  -413338.92 3684.82   1 0.06266-0.37710 0.92509-0.92509-0.37453-0.04471
  -4   3   013881.27 3412.07   1 0.35779-0.77704 0.91377-0.59934-0.19233 0.19233
   3   0  -416101.08 3159.77   1 0.61875-0.30490 0.77351-0.77351 0.13713-0.55560
   0   4  -315765.89 2747.15   1 0.50421-0.50421 0.70304-0.28457 0.50149-0.81534
  -4  -3   1 7342.88 1160.27   1-0.73554 0.31742 0.33066-0.64424-0.59130 0.69583
  -4  -3  -1 6780.79 1173.45   1-0.59379 0.17568 0.53815-0.85174-0.59815 0.49363
  -3  -1  -4 6627.67 1508.40   1-0.12446-0.18911 0.87628-0.98081-0.46543 0.04732
  -3   1  -4 5233.98 1465.79   1 0.22825-0.54269 0.93288-0.82807-0.27860-0.14064
  -4   3   1 4705.98 1326.24   1 0.29500-0.71425 0.92602-0.61158-0.23547 0.34029
  -4   3  -1 6142.71 2236.21   1 0.38321-0.80246 0.90710-0.59266-0.17410 0.06928
   3  -1  -4 5125.53 2144.81   1 0.64123-0.32738 0.76567-0.87029-0.05049-0.36797
   3   1  -4 6530.07 1252.73   1 0.58374-0.26989 0.75928-0.65466 0.28762-0.70609
  -1   4  -3 5682.10 1201.95   1 0.56294-0.66756 0.74661-0.32814 0.35449-0.66834
   1   4  -3 6039.82 1423.91   1 0.46001-0.35539 0.66568-0.24721 0.58757-0.90143
  -2  -4  -3 7919.92  730.84   1-0.68646 0.47740 0.41312-0.83123-0.59841 0.28482
  -4  -3  -210934.08 1270.70   1-0.53525 0.11713 0.60287-0.91646-0.59164 0.38258
  -3  -2  -4 9133.76 2037.57   1-0.31152-0.00205 0.78382-0.99288-0.53718 0.11906
  -4   3   2 7528.43 1698.60   1 0.16060-0.57985 0.93382-0.61939-0.31963 0.52926
  -3   2  -4 9544.77 2449.97   1 0.35838-0.67282 0.91363-0.70401-0.19191-0.22733
  -4   3  -210392.38 1918.27   1 0.38588-0.80513 0.90634-0.59190-0.17215-0.03747
  -3   2  -4 9484.55 1337.81   1 0.59266-0.90651 0.62057-0.41134-0.51344 0.09497
   4  -3  -211283.50  695.55   1 0.59491-0.17644 0.62473-0.93858-0.50574 0.29651
   3  -2  -4 8854.28  930.85   1 0.63887-0.32502 0.72339-0.93263-0.26178-0.15668
  -2   4  -3 8915.99 1468.73   1 0.62327-0.83250 0.77409-0.35562 0.11095-0.42480
   3   2  -4 9924.84 1911.30   1 0.54713-0.23328 0.73581-0.52657 0.39902-0.81749
   2   4  -311096.85 1904.97   1 0.43149-0.22226 0.64018-0.22171 0.63559-0.94944
   4   3  -2 9578.55 1907.78   1 0.34210 0.07636 0.55501-0.24115 0.75824-0.96747
  -3  -4  -3 3781.03 1377.08   1-0.63715 0.32357 0.48367-0.90179-0.60007 0.28648
  -4  -3  -3 1981.73  806.43   1-0.49085 0.07273 0.64634-0.95993-0.58420 0.27061
  -3  -3  -4 1794.24  780.05   1-0.47655 0.16297 0.65943-0.97302-0.58140 0.16329
  -4   3  -3 2232.63  830.92   1 0.37305-0.79230 0.90989-0.59545-0.18144-0.13299
   3  -3  -4 1778.76  623.05   1 0.60383-0.28997 0.64162-0.95548-0.47297 0.05450
   4  -3  -3 2142.74  864.66   1 0.61282-0.19435 0.65953-0.97338-0.43526 0.12141
  -3   3  -4 1758.33  658.84   1 0.61927-0.93312 0.67311-0.35926-0.40424-0.01422
  -3   4  -3 2181.91  765.61   1 0.63820-0.95206 0.72114-0.30267-0.26951-0.04434
   3   3  -4  842.08  689.11   1 0.51567-0.20182 0.71220-0.39835 0.47628-0.89475
   4   3  -3 3725.61 1297.46   1 0.43485-0.01638 0.64323-0.32937 0.63020-0.94405
   3   4  -3 2659.45 1414.83   1 0.41650-0.10265 0.62640-0.20793 0.65888-0.97274
  -4  -4   014987.17 1502.31   1-0.74017 0.32205 0.32205-0.74017-0.59027 0.59027
  -4   0  -411064.95 2446.60   1-0.00819-0.41105 0.91157-0.91157-0.41105-0.00819
   4   0  -415703.53 2864.60   1 0.60828-0.18981 0.77068-0.77068 0.18981-0.60828
   0   4  -414753.10 3106.96   1 0.57009-0.57009 0.75119-0.33272 0.33272-0.75119
  -1  -4  -4 8048.03 1943.22   1-0.72835 0.62383 0.34367-0.76179-0.59277 0.17465
  -4  -4  -1 6568.39 1774.34   1-0.68972 0.27160 0.40807-0.82618-0.59812 0.49359
  -4  -1  -4 6147.62 2081.95   1-0.16401-0.25409 0.86051-0.96504-0.48229 0.06417
  -4   1  -4 7679.50 2401.95   1 0.13520-0.55445 0.93268-0.82787-0.33438-0.08487
   4  -1  -4 6709.44 2112.11   1 0.63629-0.21782 0.77135-0.87596 0.01191-0.43038
  -1   4  -4 5805.27 1753.07   1 0.60886-0.71348 0.77088-0.35241 0.18712-0.60559
   4   1  -4 6337.30 2113.46   1 0.57157-0.15310 0.75211-0.64749 0.32805-0.74652
   1   4  -4 5190.01 1737.74   1 0.53534-0.43072 0.72725-0.30878 0.42954-0.84801
  -2  -4  -4 9765.72 2339.96   1-0.65617 0.44711 0.45767-0.87579-0.59997 0.18185
  -4  -4  -2 9610.31 2443.58   1-0.64434 0.22622 0.47401-0.89213-0.60010 0.39104
  -4  -2  -4 7235.62 2276.32   1-0.31982-0.09829 0.77862-0.98768-0.53987 0.12175
  -4   2  -410560.37 3091.60   1 0.25525-0.67450 0.93084-0.72121-0.26149-0.15776
  -4   4   2 6237.06 1867.86   1 0.34434-0.76359 0.91690-0.49764-0.20179 0.41142
   4  -2  -4 8340.58 2677.54   1 0.64278-0.22431 0.74001-0.94925-0.19800-0.22046
  -2   4  -4 5768.03 1812.98   1 0.63927-0.84851 0.76867-0.35020-0.02174-0.39672
   4   2  -4 7702.90 2533.62   1 0.53569-0.11722 0.72751-0.51827 0.42866-0.84714
   2   4  -4 9245.00 2615.84   1 0.50914-0.29990 0.70701-0.28854 0.49081-0.90928
   4   4  -2 8598.17 2680.39   1 0.32370 0.09476 0.53668-0.11821 0.77922-0.98845
  -4  -4  -3 4265.11 1579.13   1-0.60772 0.18961 0.52132-0.93943-0.59907 0.28548
  -3  -4  -4 2152.54  831.54   1-0.60879 0.29520 0.52001-0.93812-0.59913 0.18101
  -4  -3  -4 4468.00 1485.94   1-0.46178 0.04367 0.67253-0.98611-0.57832 0.16020
  -4   3  -4 1975.66 1044.17   1 0.34860-0.76785 0.91594-0.60150-0.19881-0.22043
   4  -3  -4 1284.02  804.06   1 0.61613-0.19766 0.66641-0.98026-0.41984 0.00137
  -3   4  -4 2019.87  785.86   1 0.63503-0.94888 0.71142-0.29295-0.30100-0.11746
   4   3  -4 2880.85 1238.80   1 0.50585-0.08738 0.70437-0.39052 0.49796-0.91643
   3   4  -4 3105.25 1132.90   1 0.49229-0.17843 0.69327-0.27480 0.52632-0.94479
   4   4  -3 1596.01  799.98   1 0.41238 0.00608 0.62258-0.20411 0.66507-0.97892
  -4  -4  -4  558.04  697.54   1-0.58197 0.16385 0.55198-0.97009-0.59717 0.17906
  -4   4  -4 2543.02 1140.15   1 0.41692-0.83617 0.89661-0.47736-0.14918-0.27006
   4   4  -4 3512.72 1212.92   1 0.48405-0.06558 0.68638-0.26791 0.54273-0.96120
  -5   0   0 -189.68  647.97   1-0.26132-0.26132 0.81322-0.81322-0.51997 0.51997
   0   0  -5  291.36  535.76   1 0.25440-0.25440 0.93092-0.93092-0.26203-0.26203
   0   0  -5 1053.58  912.83   1 0.63889-0.63889 0.72346-0.72346-0.26154-0.26154
  -5   0   1  331.24  476.36   1-0.38357-0.13907 0.73512-0.73512-0.55898 0.66351
  -5   0  -1  619.96  399.90   1-0.17445-0.34818 0.85603-0.85603-0.48659 0.38206
   0  -1  -5  923.07  420.21   1-0.08887 0.08887 0.88882-0.99335-0.44954-0.07310
   0  -1  -5 -407.92  889.64   1 0.61884-0.61884 0.67218-0.77680-0.40644-0.11664
   0   1  -5 1584.62  772.50   1 0.64377-0.64377 0.75560-0.65099-0.12088-0.40220
   5   0  -1 -437.41  590.97   1 0.40670 0.11638 0.61727-0.61727 0.67347-0.77809
  -5   0   2 2401.49  717.62   1-0.54006 0.01742 0.59789-0.59789-0.59232 0.80138
  -5   0  -2 2150.26  717.48   1-0.11807-0.40456 0.87864-0.87864-0.46263 0.25357
   0  -2  -5 1684.47 1263.24   1 0.58293-0.58293 0.60300-0.81223-0.54459 0.02150
   0   2  -5 2099.11  990.98   1 0.63697-0.63697 0.77087-0.56163 0.00495-0.52804
   5   0  -2 2629.10  547.98   1 0.50409 0.01899 0.70295-0.70295 0.50174-0.71098
  -5   0   3  290.06  299.02   1-0.71265 0.19001 0.37092-0.37092-0.59542 0.90901
   0  -3  -5  415.99  235.44   1-0.69222 0.69222 0.40416-0.71774-0.59789 0.07525
  -5   0  -3 1517.98  848.42   1-0.08636-0.43628 0.88965-0.88965-0.44839 0.13480
   0   3  -5 -836.83  948.73   1 0.62363-0.62363 0.77411-0.46026 0.10876-0.63185
   5   0  -3  705.31  544.73   1 0.56489-0.04180 0.74788-0.74788 0.34865-0.66251
  -5   0  -4  911.87  884.81   1-0.07430-0.44834 0.89352-0.89352-0.44283 0.02471
   0   4  -5 2220.42 1256.50   1 0.60873-0.60873 0.77084-0.35237 0.18774-0.71083
   5   0  -4 2038.32 1070.41   1 0.60222-0.07914 0.76837-0.76837 0.21662-0.63509
  -5  -1   0  966.33  609.19   1-0.41416-0.10848 0.71193-0.81646-0.56711 0.56711
  -5   1   0  980.11  628.10   1-0.09437-0.42826 0.88698-0.78246-0.45204 0.45204
  -1   0  -5 1042.01  338.50   1 0.17953-0.28434 0.93415-0.93415-0.30842-0.21564
   1   0  -5  263.00  359.46   1 0.34063-0.23581 0.91771-0.91771-0.20438-0.31967
  -1   0  -5   48.09  885.28   1 0.62081-0.72543 0.67648-0.67648-0.39616-0.12691
   1   0  -5 -455.28  795.69   1 0.64389-0.53927 0.75158-0.75158-0.14322-0.37986
   5  -1   0  387.29  203.24   1 0.39285 0.13023 0.60422-0.70884 0.69324-0.69324
  -5  -1   1  626.28  789.66   1-0.52321 0.00056 0.61510-0.71963-0.58982 0.69435
  -5  -1  -1 1041.47  802.98   1-0.32834-0.19430 0.77316-0.87769-0.54258 0.43805
  -5   1   1  657.89  640.85   1-0.21538-0.30726 0.83709-0.73256-0.50286 0.60739
  -1  -1  -5 1224.43  673.75   1-0.07876-0.02576 0.89211-0.99664-0.44489-0.07774
  -5   1  -1  770.19  626.23   1-0.01797-0.50609 0.90924-0.80442-0.41588 0.31107
  -1   1  -5   44.08  404.93   1 0.37901-0.48382 0.90827-0.80346-0.17714-0.34692
  -1  -1  -5 1784.59  883.31   1 0.58966-0.69427 0.61508-0.71970-0.52341 0.00032
   1  -1  -5 1005.47  833.29   1 0.63537-0.53076 0.71243-0.81705-0.29787-0.22520
  -1   1  -5  734.36  880.23   1 0.63854-0.74315 0.72225-0.61763-0.26572-0.25736
   1   1  -5 -105.47  404.18   1 0.63751-0.53289 0.77043-0.66582-0.00087-0.52221
   5  -1  -1  641.45  334.55   1 0.51913 0.00395 0.71491-0.81952 0.46840-0.57302
   5   1  -1  664.08  379.62   1 0.32881 0.19427 0.54179-0.43718 0.77352-0.87814
  -5  -1   2 1642.88  883.64   1-0.64755 0.12490 0.46964-0.57417-0.60009 0.80915
  -5   1   2  435.10  296.69   1-0.39243-0.13020 0.72856-0.62403-0.56141 0.77047
  -1  -2  -5 1056.02  526.06   1-0.34721 0.24268 0.76070-0.96976-0.54842 0.02578
  -5  -1  -2  358.36  413.52   1-0.26684-0.25580 0.81016-0.91469-0.52194 0.31288
  -5   1  -2  497.68  731.62   1 0.02671-0.55078 0.91898-0.81416-0.39339 0.18377
   1  -2  -5 1332.59 1355.13   1 0.60883-0.50421 0.65146-0.86070-0.45267-0.07041
  -1   2  -5  454.18  550.03   1 0.64389-0.74851 0.75183-0.54260-0.14189-0.38119
   1   2  -5 1643.56  935.16   1 0.62175-0.51713 0.77395-0.56471 0.12007-0.64316
   5  -1  -2 1142.96  555.22   1 0.58243-0.05934 0.75854-0.86316 0.29218-0.50142
   5   1  -2 1656.95  708.90   1 0.43618 0.08690 0.64443-0.53982 0.62804-0.83728
  -2   5  -1  143.06  150.29   1 0.39939-0.60863 0.61041-0.08732 0.68401-0.78863
  -5   1   3  731.51  386.70   1-0.62613 0.10349 0.49812-0.39359-0.59985 0.91343
  -1  -3  -5 -216.15  399.87   1-0.56506 0.46054 0.57105-0.88464-0.59547 0.07282
  -5  -1  -3  -28.13  914.06   1-0.22754-0.29509 0.83105-0.93557-0.50752 0.19393
  -5   1  -3-1133.98  982.14   1 0.04729-0.57136 0.92266-0.81785-0.38268 0.06824
  -1   3  -5  -94.80  830.68   1 0.64015-0.74477 0.76750-0.45365-0.03368-0.48939
   5  -1  -3  865.22  745.75   1 0.61499-0.09190 0.77270-0.87732 0.15715-0.47100
   1   3  -5  390.39  560.26   1 0.60250-0.49789 0.76848-0.45463 0.21543-0.73852
   5   1  -3  617.47  418.21   1 0.51320 0.00988 0.71025-0.60563 0.48182-0.79567
  -1  -4  -5  490.30  464.58   1-0.71108 0.60655 0.37356-0.79167-0.59565 0.07301
  -5  -1  -4 2273.74  981.12   1-0.20739-0.31524 0.84096-0.94549-0.49976 0.08165
  -5   1  -4 1247.87 1091.04   1 0.04958-0.57364 0.92304-0.81823-0.38148-0.03776
   5  -1  -4  989.60  647.67   1 0.63231-0.10922 0.77323-0.87785 0.04783-0.46630
  -1   4  -5 2293.18  955.91   1 0.63166-0.73628 0.77342-0.35495 0.05301-0.57610
   1   4  -5 1526.74  968.44   1 0.58443-0.47981 0.75966-0.34119 0.28522-0.80831
   5   1  -4  736.19  437.21   1 0.56598-0.04289 0.74858-0.64396 0.34538-0.76385
  -5  -2   0 1651.53  630.30   1-0.54163 0.01899 0.59625-0.80531-0.59254 0.59254
  -5   2   0 2161.08 1064.48   1 0.06629-0.59035 0.92562-0.71599-0.37259 0.37259
  -2   0  -5  817.41  499.10   1 0.11072-0.32035 0.93083-0.93083-0.34824-0.17581
  -2   0  -5  365.01  849.62   1 0.58524-0.79447 0.60712-0.60712-0.53748 0.01440
   2   0  -5 1612.40  508.97   1 0.64102-0.43179 0.76607-0.76607-0.04698-0.47610
   5  -2   0  241.37  126.66   1 0.61216-0.08907 0.77193-0.98117 0.17136-0.17136
   0   5  -2  702.81  755.40   1 0.37714-0.37714 0.58921-0.06612 0.71455-0.92379
  -5  -2   1  712.24  651.56   1-0.63054 0.10789 0.49240-0.70146-0.59996 0.70449
  -5  -2  -1  997.90  693.80   1-0.46548-0.05716 0.66929-0.87835-0.57910 0.47458
  -2  -1  -5 1037.78  594.29   1-0.09567-0.11338 0.88655-0.99108-0.45262-0.07001
  -5   2   1  508.47  528.47   1-0.03790-0.48616 0.90413-0.69450-0.42557 0.53038
  -5   2  -1  353.05 1139.98   1 0.12629-0.65035 0.93210-0.72247-0.33946 0.23465
  -2   1  -5  292.40  529.52   1 0.28423-0.49386 0.92754-0.82273-0.24262-0.28144
  -2   1  -5  519.94  875.91   1 0.61461-0.82384 0.66323-0.55861-0.42705-0.09603
   2  -1  -5 1550.17  801.13   1 0.64251-0.43327 0.73847-0.84309-0.20454-0.31854
   2   1  -5 1208.20  795.01   1 0.62633-0.41709 0.77416-0.66954 0.09151-0.61460
   5  -2   1  -68.33   56.38   1 0.46898 0.05410 0.67350-0.88274 0.57135-0.46673
   1   5  -2 2052.88  879.76   1 0.33831-0.23369 0.55125-0.02816 0.76266-0.97190
  -5  -2   2 1861.52  925.04   1-0.72340 0.20075 0.35245-0.56151-0.59368 0.80274
  -5  -2  -2 2746.12 1074.03   1-0.40617-0.11646 0.71814-0.92719-0.56506 0.35600
  -2  -2  -5 2183.63 1186.36   1-0.30812 0.09906 0.78593-0.99499-0.53606 0.01342
  -5   2   2  870.45  409.04   1-0.20903-0.31360 0.84017-0.63111-0.50041 0.70946
  -5   2  -2 2192.93  942.56   1 0.15643-0.68049 0.93369-0.72407-0.32208 0.11246
  -2   2  -5 3518.54 1356.73   1 0.41317-0.62280 0.89787-0.68825-0.15200-0.37206
   2  -2  -5  233.44  777.52   1 0.62546-0.41623 0.68701-0.89625-0.36985-0.15322
  -2   2  -5 1412.24 1162.44   1 0.63326-0.84250 0.70650-0.49727-0.31594-0.20714
   5  -2  -2 2593.06  865.59   1 0.63996-0.11687 0.76778-0.97701-0.03096-0.17826
   2   2  -5 2287.89  953.69   1 0.60501-0.39577 0.76948-0.56025 0.20456-0.72765
  -2   5  -2 1720.74  633.21   1 0.53826-0.74750 0.72941-0.20632 0.42216-0.63140
   5   2  -2 2750.79  758.38   1 0.38663 0.13645 0.59831-0.38907 0.70180-0.91104
   2   5  -2 2631.70 1110.04   1 0.31868-0.10945 0.53165-0.00856 0.78471-0.99395
  -2  -3  -5  396.90  536.72   1-0.49474 0.28569 0.64270-0.95629-0.58493 0.06229
  -5  -2  -3   12.35  877.62   1-0.36456-0.15807 0.74875-0.95781-0.55358 0.23999
  -5   2  -3  499.40 1177.18   1 0.16538-0.68945 0.93395-0.72432-0.31682 0.00238
   2  -3  -5 1194.57 1118.27   1 0.58779-0.37855 0.61170-0.92555-0.52945 0.00636
  -2   3  -5  628.39  657.74   1 0.64214-0.85137 0.73654-0.42269-0.21247-0.31061
   5  -2  -3 1099.40  501.24   1 0.64327-0.12018 0.75949-0.96873-0.09679-0.21706
   2   3  -5 1509.03  881.06   1 0.58282-0.37358 0.75876-0.44491 0.29084-0.81393
   5   2  -3 -111.59  705.14   1 0.46978 0.05329 0.67420-0.46496 0.56986-0.88372
   3   5  -2   92.49  496.04   1 0.31308 0.00076 0.52600-0.00291 0.79076-0.99999
  -4  -5  -2  687.06  636.70   1-0.72606 0.30795 0.34775-0.87040-0.59320 0.38414
  -2  -4  -5  575.52  483.92   1-0.63877 0.42971 0.48152-0.89963-0.60008 0.07744
  -5  -2  -4 -823.37  741.42   1-0.33974-0.18289 0.76570-0.97475-0.54614 0.12802
  -5   2  -4  549.32  775.77   1 0.15853-0.68259 0.93376-0.72414-0.32085-0.09839
   5  -2  -4 2045.37  884.46   1 0.64379-0.12070 0.74869-0.95792-0.15807-0.26039
  -2   4  -5 1348.38  618.85   1 0.64381-0.85304 0.75502-0.33655-0.12428-0.39880
   2   4  -5 2510.50 1346.47   1 0.56366-0.35442 0.74708-0.32861 0.35235-0.87543
   5   2  -4  759.21  510.10   1 0.53173-0.00864 0.72456-0.51532 0.43847-0.85694
   4   5  -2  822.65  723.20   1 0.31782 0.10064 0.53078-0.00769 0.78565-0.99489
  -5  -3   0  951.45 1132.03   1-0.64184 0.11919 0.47740-0.79099-0.60010 0.60010
  -3   0  -5 2264.98  983.49   1 0.04546-0.35990 0.92236-0.92236-0.38364-0.14041
  -5   3   0  661.54  663.76   1 0.20397-0.72804 0.93390-0.61946-0.29363 0.29363
   3   0  -5 1329.94  707.76   1 0.63491-0.32106 0.77216-0.77216 0.02524-0.54833
   0   5  -3 1090.40  506.24   1 0.48155-0.48155 0.68426-0.16118 0.54761-0.86146
  -5  -3   1 1371.96 1236.25   1-0.71011 0.18747 0.37518-0.68876-0.59579 0.70032
  -5  -3  -1  114.75  742.97   1-0.57941 0.05677 0.55492-0.86850-0.59694 0.49241
  -3  -1  -5 -370.67  836.04   1-0.12535-0.18823 0.87595-0.98048-0.46582-0.05681
  -5   3   1 -233.89  442.72   1 0.12419-0.64825 0.93194-0.61750-0.34066 0.44547
  -3   1  -5  262.11  259.95   1 0.19671-0.51115 0.93405-0.82924-0.29806-0.22600
  -5   3  -1  267.12  594.05   1 0.24568-0.76974 0.93167-0.61724-0.26760 0.16279
   3  -1  -5   43.80  405.20   1 0.64386-0.33001 0.75390-0.85852-0.13062-0.39246
   3   1  -5 2341.03 1289.89   1 0.61495-0.30110 0.77270-0.66808 0.15735-0.68044
  -1   5  -3 -741.10  592.99   1 0.53715-0.64176 0.72859-0.20550 0.42499-0.73885
   1   5  -3 1199.49  796.73   1 0.44160-0.33698 0.64933-0.12624 0.61915-0.93300
  -5  -3  -2  231.59  716.35   1-0.52749 0.00484 0.61079-0.92438-0.59048 0.38143
  -3  -2  -5 1154.40  641.53   1-0.30016-0.01342 0.79079-0.99985-0.53342 0.01078
  -5   3   2 1538.98  981.79   1-0.01968-0.50437 0.90881-0.59437-0.41672 0.62635
  -5   3  -2  213.15  790.89   1 0.26251-0.78657 0.93012-0.61568-0.25681 0.04718
  -3   2  -5  325.71  446.77   1 0.31783-0.63227 0.92224-0.71262-0.22009-0.30397
  -3   2  -5 1000.78  994.19   1 0.59525-0.90911 0.62537-0.41613-0.50455-0.01853
   3  -2  -5 1752.93  926.09   1 0.63502-0.32116 0.71140-0.92063-0.30109-0.22199
  -2   5  -3  375.65  318.88   1 0.60224-0.81147 0.76837-0.24529 0.21655-0.53040
   3   2  -5-1183.70  916.79   1 0.59079-0.27694 0.76304-0.55381 0.26214-0.78523
   2   5  -3  978.03  969.55   1 0.41644-0.20721 0.62635-0.10326 0.65897-0.97283
   5   3  -2  978.73  660.60   1 0.35452 0.16855 0.56724-0.25339 0.74332-0.95256
  -3  -5  -3  280.00  595.61   1-0.72856 0.41498 0.34330-0.86594-0.59273 0.27914
  -5  -3  -3  191.17  742.41   1-0.48840-0.03423 0.64862-0.96220-0.58373 0.27015
  -3  -3  -5 -290.40  545.50   1-0.45999 0.14640 0.67409-0.98767-0.57793 0.05528
  -5   3  -3-1046.25 1156.36   1 0.26179-0.78585 0.93020-0.61576-0.25727-0.05715
  -3   3  -5  814.48  951.13   1 0.40807-0.72251 0.89955-0.58511-0.15580-0.36825
   3  -3  -5  -48.66  644.51   1 0.60392-0.29007 0.64181-0.95567-0.47258-0.05049
  -3   3  -5 1383.12  880.47   1 0.61617-0.93002 0.66649-0.35264-0.41966-0.10342
   5  -3  -3  -53.39  315.30   1 0.62159-0.09850 0.67821-0.99206-0.39198 0.07812
   3   3  -5 1036.36  571.54   1 0.56759-0.25373 0.74961-0.43576 0.34046-0.86355
   5   3  -3 1753.47 1019.37   1 0.43770 0.08538 0.64581-0.33196 0.62556-0.93942
   3   5  -3  246.15  658.70   1 0.40364-0.08979 0.61441-0.09132 0.67791-0.99176
  -4  -5  -3  -23.51  680.02   1-0.69836 0.28025 0.39440-0.91705-0.59726 0.28367
  -3  -4  -5 1237.83  742.98   1-0.59301 0.27942 0.53908-0.95719-0.59810 0.07545
  -5  -3  -4  869.71  819.86   1-0.46280-0.05984 0.67164-0.98523-0.57853 0.16042
  -5   3  -4 1338.93  477.38   1 0.24782-0.77189 0.93150-0.61706-0.26624-0.15301
   5  -3  -4  139.36  467.89   1 0.62268-0.09959 0.68064-0.99449-0.38599-0.03247
   3   4  -5 1048.99  760.60   1 0.54847-0.23462 0.73676-0.31829 0.39541-0.91849
   5   3  -4  227.51  454.17   1 0.50366 0.01942 0.70260-0.38875 0.50266-0.92113
   4   5  -3  916.63 1523.04   1 0.40076 0.01770 0.61170-0.08861 0.68205-0.99590
  -5  -4   0 1393.77  815.79   1-0.71801 0.19537 0.36180-0.77992-0.59460 0.59460
  -4   0  -5 1520.49  921.65   1-0.01756-0.40168 0.90933-0.90933-0.41568-0.10838
  -5   4   0 -361.87  776.51   1 0.30926-0.83333 0.92375-0.50450-0.22590 0.22590
   4   0  -5 1455.50  699.90   1 0.62885-0.21038 0.77397-0.77397 0.07415-0.59724
   0   5  -4 1970.67 1054.11   1 0.55142-0.55142 0.73882-0.21574 0.38737-0.80584
  -5  -4  -1  281.29  787.96   1-0.66972 0.14708 0.43825-0.85637-0.59949 0.49497
  -4  -1  -5 1041.98  725.84   1-0.16218-0.25593 0.86129-0.96582-0.48153-0.04111
  -4   1  -5 -136.55  959.39   1 0.11491-0.53416 0.93120-0.82639-0.34590-0.17816
  -5   4   1  805.98  507.83   1 0.25198-0.77604 0.93114-0.51189-0.26358 0.36840
  -5   4  -1 1522.70 1003.14   1 0.33620-0.86026 0.91865-0.49940-0.20746 0.10265
   4  -1  -5 1519.76  795.44   1 0.64260-0.22413 0.76224-0.86686-0.07775-0.44532
   4   1  -5 1565.34  817.55   1 0.60615-0.18768 0.76991-0.66530 0.19951-0.72259
  -1   5  -4 1730.47  615.01   1 0.59206-0.69668 0.76369-0.24060 0.25735-0.67582
   1   5  -4 1238.40  858.35   1 0.51748-0.41287 0.71362-0.19054 0.47216-0.89063
  -5  -4  -2 1742.46 1278.09   1-0.62750 0.10486 0.49635-0.91446-0.59989 0.39083
  -4  -2  -5  897.91  495.00   1-0.30971-0.10840 0.78495-0.99400-0.53658 0.01394
  -4   2  -5 1820.18  750.10   1 0.22652-0.64578 0.93298-0.72335-0.27968-0.24437
  -5   4  -2  591.40  959.80   1 0.34313-0.86719 0.91716-0.49791-0.20264-0.00698
   4  -2  -5  272.26  687.13   1 0.63984-0.22137 0.72683-0.93606-0.24963-0.27344
  -2   5  -4   85.32  250.77   1 0.63030-0.83953 0.77374-0.25065 0.06355-0.48202
   4   2  -5  -24.21  542.77   1 0.58100-0.16253 0.75773-0.54849 0.29711-0.82020
   2   5  -4  907.29  912.73   1 0.49286-0.28363 0.69375-0.17066 0.52515-0.94362
   5   4  -2   97.41  377.66   1 0.33677 0.18631 0.54972-0.13125 0.76444-0.97368
  -3  -5  -4 -172.03  571.38   1-0.70785 0.39426 0.37895-0.90159-0.59610 0.17798
  -5  -4  -3  399.02  724.23   1-0.59403 0.07139 0.53787-0.95598-0.59817 0.28459
  -4  -3  -5 1952.50 1127.64   1-0.44773 0.02962 0.68459-0.99817-0.57520 0.05256
  -4   3  -5  964.79  733.36   1 0.31475-0.73400 0.92280-0.60836-0.22218-0.30187
  -5   4  -3 -766.08 1064.32   1 0.33565-0.85972 0.91876-0.49951-0.20784-0.10659
   4  -3  -5  -30.69  679.26   1 0.61416-0.19569 0.66230-0.97615-0.42913-0.09395
   4   3  -5 -645.31 1106.79   1 0.55790-0.13943 0.74326-0.42941 0.36919-0.89228
   3   5  -4  643.90  821.88   1 0.47752-0.16367 0.68084-0.15776 0.55534-0.97381
   5   4  -3 1376.84 1023.80   1 0.41680 0.10628 0.62668-0.20821 0.65843-0.97229
  -4  -5  -4 1269.53  769.62   1-0.67808 0.25996 0.42587-0.94851-0.59902 0.18091
  -5  -4  -4 1156.71  881.51   1-0.57074 0.04809 0.56474-0.98285-0.59608 0.17796
  -4  -4  -5 2259.57 1365.63   1-0.56792 0.14981 0.56789-0.98600-0.59578 0.07314
  -5   4  -4  677.83  968.98   1 0.31700-0.84107 0.92239-0.50314-0.22065-0.19859
  -4   4  -5 1037.57 1094.88   1 0.38080-0.80005 0.90778-0.48853-0.17584-0.34821
   4   4  -5 1413.81 1295.13   1 0.53937-0.12089 0.73022-0.31175 0.41935-0.94244
   5   4  -4 -223.67 1071.73   1 0.48323 0.03985 0.68569-0.26722 0.54433-0.96281
   4   5  -4 2189.45 1191.01   1 0.47048-0.05201 0.67480-0.15171 0.56858-0.98705
  -5   0  -5 1471.25  837.20   1-0.07806-0.44457 0.89233-0.89233-0.44457-0.07806
  -5   5   0  474.05  860.43   1 0.38307-0.90714 0.90714-0.38307-0.17419 0.17419
   5   0  -5  510.16  930.99   1 0.62476-0.10167 0.77416-0.77416 0.10167-0.62476
   0   5  -5 2765.90 1245.50   1 0.59591-0.59591 0.76556-0.24247 0.24247-0.76556
  -5  -5  -1  786.88  713.09   1-0.73908 0.21644 0.32409-0.84673-0.59052 0.48599
  -5  -1  -5 2044.16  756.15   1-0.20344-0.31920 0.84284-0.94737-0.49822-0.02442
  -5   1  -5 2000.03  652.48   1 0.03747-0.56153 0.92097-0.81615-0.38782-0.13623
  -5   5   1 1281.83  598.47   1 0.34216-0.86623 0.91737-0.39331-0.20331 0.30812
  -5   5  -1  610.66  993.85   1 0.39995-0.92401 0.90213-0.37806-0.16183 0.05702
   5  -1  -5 -375.44  635.27   1 0.64095-0.11786 0.76620-0.87082-0.04583-0.47725
  -1   5  -5  247.72  471.30   1 0.62244-0.72705 0.77402-0.25093 0.11598-0.63907
   5   1  -5 -391.87  881.35   1 0.60114-0.07806 0.76791-0.66330 0.22118-0.74427
   1   5  -5  975.61  991.36   1 0.57036-0.46574 0.75136-0.22827 0.33188-0.85497
  -2  -5  -5  437.77  438.80   1-0.74025 0.53119 0.32190-0.84454-0.59025 0.06760
  -5  -5  -2 -594.75  797.00   1-0.70674 0.18409 0.38078-0.90343-0.59625 0.38719
  -5  -2  -5-1117.68  813.56   1-0.33011-0.19252 0.77201-0.98107-0.54314 0.02050
  -5   2  -5 -157.34 1123.00   1 0.13924-0.66330 0.93292-0.72329-0.33206-0.19200
  -5   5  -2 1839.11 1603.55   1 0.40052-0.92459 0.90195-0.37789-0.16141-0.04821
   5  -2  -5 2426.13 1152.93   1 0.64190-0.11881 0.73538-0.94461-0.21718-0.30590
   5   2  -5  621.57  443.89   1 0.57618-0.05309 0.75491-0.54568 0.31321-0.83630
   2   5  -5  185.91  360.38   1 0.54957-0.34034 0.73753-0.21444 0.39243-0.91552
   5   5  -2 -680.08  978.44   1 0.33033 0.19275 0.54331-0.02023 0.77180-0.98103
  -3  -5  -5  587.27  859.29   1-0.69590 0.38231 0.39834-0.92099-0.59752 0.07488
  -5  -5  -3  397.83  754.38   1-0.68014 0.15750 0.42276-0.94540-0.59889 0.28530
  -5  -3  -5 1118.97  925.57   1-0.45034-0.07229 0.68237-0.99596-0.57580 0.05315
  -5   3  -5 1070.66  817.35   1 0.22323-0.74730 0.93315-0.61872-0.28174-0.24232
  -5   5  -3 2355.22 1578.73   1 0.38898-0.91304 0.90544-0.38137-0.16989-0.14454
   5  -3  -5 1061.16  877.29   1 0.61971-0.09662 0.67407-0.98792-0.40197-0.12111
   5   3  -5 -762.93  937.48   1 0.55379-0.03070 0.74046-0.42661 0.38082-0.90391
   3   5  -5  594.45  781.17   1 0.53490-0.22105 0.72693-0.20384 0.43063-0.95372
   5   5  -3 -172.08 1074.13   1 0.40575 0.11732 0.61639-0.09330 0.67484-0.98870
  -4  -5  -5  176.75  586.04   1-0.66649 0.24838 0.44295-0.96559-0.59964 0.07699
  -5  -5  -4 -432.18  733.39   1-0.66094 0.13830 0.45093-0.97357-0.59984 0.18172
  -5  -4  -5 1013.82 1029.08   1-0.55814 0.03549 0.57865-0.99677-0.59467 0.07202
  -5   4  -5 1400.24 1065.84   1 0.28912-0.81318 0.92687-0.50762-0.23938-0.28467
  -5   5  -4 1043.86  914.88   1 0.36773-0.89179 0.91129-0.38722-0.18525-0.23399
   5   4  -5  726.02  685.28   1 0.53604-0.01295 0.72777-0.30930 0.42778-0.95087
   4   5  -5  868.47  720.40   1 0.52645-0.10798 0.72056-0.19747 0.45125-0.97434
   5   5  -4 1340.34 1293.08   1 0.47050 0.05258 0.67481-0.15172 0.56855-0.98702
  -5  -5  -5 2331.14 1300.91   1-0.65007 0.12742 0.46617-0.98882-0.60007 0.07742
  -5   5  -5 1817.05  949.91   1 0.33820-0.86227 0.91823-0.39416-0.20607-0.31799
   5   5  -5 -893.06 1065.30   1 0.52376-0.00067 0.71850-0.19541 0.45763-0.98072
  -6   0   015596.90 6984.41   1-0.31358-0.31358 0.78254-0.78254-0.53785 0.53785
   0   0  -617356.87 6943.76   1 0.63352-0.63352 0.70720-0.70720-0.31385-0.31385
   6   0   013303.87 3889.84   1 0.31385 0.31385 0.52677-0.52677 0.78993-0.78993
  -6   0   112030.86 3791.60   1-0.41693-0.21023 0.70975-0.70975-0.56782 0.67234
  -6   0  -1 9248.08 2786.89   1-0.23711-0.39006 0.82615-0.82615-0.51111 0.40658
   0   1  -6 7399.30 2778.16   1 0.38593-0.38593 0.90632-0.80151-0.17211-0.45675
   0  -1  -611342.69 2891.69   1 0.61339-0.61339 0.66070-0.76532-0.43268-0.19501
   0   1  -612846.88 3834.44   1 0.64273-0.64273 0.73971-0.63510-0.19928-0.42842
   6   0  -1 6507.01 2014.52   1 0.42913 0.19857 0.63802-0.63802 0.63935-0.74397
  -6   0   2 7202.92 1809.52   1-0.54614-0.08102 0.59150-0.59150-0.59315 0.80221
  -6   0  -2 8137.45 2910.37   1-0.18482-0.44234 0.85143-0.85143-0.49080 0.28175
   0  -2  -6 6387.48 1943.97   1 0.58150-0.58150 0.60047-0.80971-0.54888-0.07882
   0   2  -6 8439.90 2750.01   1 0.64323-0.64323 0.75969-0.55045-0.09549-0.53221
   6   0  -2 7873.12 2068.65   1 0.51098 0.11672 0.70848-0.70848 0.48676-0.69600
  -6   0  -3 4172.89 1640.59   1-0.15311-0.47405 0.86505-0.86505-0.47773 0.16414
   0   3  -6 3334.39 1536.30   1 0.63809-0.63809 0.76992-0.45607-0.00735-0.62035
   6   0  -3 2525.44 1002.39   1 0.56559 0.06211 0.74833-0.74833 0.34655-0.66040
  -6   0  -4 1154.87 1069.09   1-0.13858-0.48858 0.87087-0.87087-0.47155 0.05344
   0   4  -6 -434.98 1079.87   1 0.63044-0.63044 0.77371-0.35524 0.06246-0.69017
   6   0  -4  436.75  755.61   1 0.60105 0.02664 0.76787-0.76787 0.22157-0.64004
  -6   0  -5 3242.86 1568.43   1-0.13844-0.48872 0.87093-0.87093-0.47149-0.05115
   6   0  -5 1083.85  654.95   1 0.62343 0.00426 0.77410-0.77410 0.10995-0.63304
   0   5  -6 2536.79 1381.09   1 0.62289-0.62289 0.77406-0.25097 0.11324-0.74095
  -6  -1   011783.42 2967.59   1-0.43778-0.18939 0.69291-0.79743-0.57290 0.57290
  -6   1   0 9093.51 2912.49   1-0.18003-0.44713 0.85357-0.74904-0.48887 0.48887
  -1   0  -6 8398.05 2758.29   1 0.11980-0.22462 0.93161-0.93161-0.34314-0.28573
  -1   0  -610853.00 2713.70   1 0.61503-0.71965 0.66410-0.66410-0.42507-0.20262
   1   0  -6 8797.46 2450.03   1 0.64198-0.53737 0.73578-0.73578-0.21557-0.41213
  -6  -1   1 8106.12 2099.21   1-0.53075-0.09642 0.60748-0.71201-0.59098 0.69551
  -6  -1  -1 8620.88 2380.34   1-0.36368-0.26348 0.74937-0.85390-0.55332 0.44879
  -6   1   1 6263.25 2112.12   1-0.28589-0.34128 0.79928-0.69475-0.52859 0.63312
  -6   1  -1 8929.21 2948.92   1-0.10760-0.51956 0.88241-0.77789-0.45799 0.35346
  -1   1  -6 5288.65 1901.25   1 0.30513-0.40995 0.92444-0.81962-0.22869-0.40018
  -1  -1  -6 8004.49 2467.34   1 0.58731-0.69193 0.61083-0.71545-0.53098-0.09672
   1  -1  -6 8040.09 2147.23   1 0.62970-0.52508 0.69723-0.80185-0.34254-0.28516
  -1   1  -6 9805.87 2789.52   1 0.63285-0.73747 0.70540-0.60079-0.31919-0.30850
   1   1  -6 7220.56 2185.92   1 0.64329-0.53867 0.75938-0.65476-0.09750-0.53019
   6   1  -1 6617.55 1766.29   1 0.35899 0.26871 0.57161-0.46699 0.73782-0.84244
  -6  -1   2 6607.83 1740.99   1-0.63766 0.01049 0.48300-0.58753-0.60007 0.80913
  -6   1   2 3367.47 1514.03   1-0.43120-0.19597 0.69831-0.59378-0.57133 0.78039
  -1  -2  -6 2684.83 1367.10   1-0.35357 0.24904 0.75638-0.96544-0.55033-0.07683
  -6  -1  -2 4886.05 1787.19   1-0.30920-0.31796 0.78526-0.88979-0.53642 0.32736
  -6   1  -2 8921.27 2921.99   1-0.06190-0.56526 0.89730-0.79278-0.43703 0.22798
   1  -2  -6 4485.64 1524.53   1 0.60435-0.49973 0.64263-0.85187-0.47093-0.15677
  -1   2  -6 4834.11 1437.00   1 0.64178-0.74640 0.73480-0.52557-0.21947-0.40823
   1   2  -6 5740.63 1636.40   1 0.63690-0.53228 0.77092-0.56168 0.00568-0.63338
  -6  -1   3 1705.23  834.85   1-0.74666 0.11949 0.30972-0.41425-0.58869 0.90228
  -1  -3  -6  791.38  333.48   1-0.56094 0.45641 0.57559-0.88918-0.59500-0.03216
  -6  -1  -3 3104.59  984.52   1-0.27306-0.35410 0.80666-0.91119-0.52413 0.21055
  -6   1  -3 1729.07  972.66   1-0.03824-0.59063 0.90403-0.79922-0.42573 0.11129
  -1   3  -6  823.17  739.12   1 0.64387-0.74848 0.75375-0.43990-0.13146-0.49623
   1   3  -6 1176.03 1183.49   1 0.62649-0.52187 0.77415-0.46030 0.09046-0.71816
   6  -1  -3 1975.83  824.25   1 0.61310 0.01460 0.77220-0.87682 0.16673-0.48058
   6   1  -3 2554.71  871.59   1 0.51779 0.10991 0.71386-0.60924 0.47147-0.78532
  -6  -1  -4 2255.67  989.83   1-0.25323-0.37393 0.81763-0.92216-0.51705 0.09893
  -6   1  -4 -121.16 1049.67   1-0.03056-0.59831 0.90606-0.80125-0.42202 0.00277
  -1   4  -6 3241.49 1276.69   1 0.64172-0.74634 0.76463-0.34616-0.05925-0.56844
   6  -1  -4 -103.61  572.76   1 0.63080-0.00310 0.77363-0.87825 0.05971-0.47818
   1   4  -6 2073.06 1004.76   1 0.61528-0.51066 0.77278-0.35431 0.15567-0.78337
   6   1  -4  987.58  614.67   1 0.56648 0.06122 0.74890-0.64428 0.34385-0.76232
  -6  -1  -5 -556.37  902.97   1-0.24765-0.37951 0.82062-0.92515-0.51501-0.00762
  -6   1  -5 1985.56 1263.52   1-0.03664-0.59222 0.90446-0.79965-0.42496-0.09909
   6  -1  -5 1267.20  802.47   1 0.64017-0.01246 0.76748-0.87210-0.03392-0.48916
  -1   5  -6 1712.91 1066.03   1 0.63789-0.74250 0.77010-0.24702-0.00508-0.62262
   1   5  -6 -807.15 1140.87   1 0.60562-0.50100 0.76972-0.24663 0.20184-0.82955
   6   1  -5  983.25  569.91   1 0.60020 0.02750 0.76751-0.66289 0.22511-0.74820
  -6  -2   010155.31 2569.88   1-0.54574-0.08143 0.59193-0.80099-0.59310 0.59310
  -6   2   0 7408.04 2246.31   1-0.04798-0.57919 0.90134-0.69229-0.43042 0.43042
  -2   0  -6 1959.11  773.73   1 0.06758-0.27721 0.92580-0.92580-0.37190-0.25697
  -2   0  -6 5390.53 1805.65   1 0.58339-0.79262 0.60381-0.60381-0.54318-0.08451
   2   0  -6 6986.09 2117.73   1 0.64388-0.43465 0.75327-0.75327-0.13409-0.49360
   0   6  -210050.61 2541.27   1 0.37550-0.37550 0.58763 0.04007 0.71672-0.92595
  -6  -2   1 5583.98 1653.50   1-0.62404-0.00312 0.50081-0.70987-0.59978 0.70431
  -6  -2  -1 8206.12 2341.76   1-0.47917-0.14799 0.65707-0.86613-0.58193 0.47740
  -6   2   1 2129.87  944.06   1-0.14719-0.47998 0.86746-0.65840-0.47522 0.57975
  -2  -1  -6 2907.40 1138.64   1-0.11997-0.08907 0.87795-0.98248-0.46347-0.16370
  -6   2  -1 2851.03 1769.63   1 0.01402-0.64290 0.91645-0.70682-0.39989 0.29507
  -2   1  -6 3535.82 1214.41   1 0.22814-0.43777 0.93289-0.82807-0.27867-0.35020
  -2   1  -6 4667.50 1682.19   1 0.60903-0.81827 0.65187-0.54725-0.45181-0.17589
   2  -1  -6 4857.99 1635.92   1 0.63860-0.42937 0.72247-0.82708-0.26498-0.36271
   2   1  -6 3495.16 1312.99   1 0.63884-0.42960 0.76916-0.66454-0.01630-0.61140
  -1   6  -2 5371.93 1477.56   1 0.43231-0.53693 0.64092-0.01321 0.63428-0.84352
   1   6  -2 6752.97 1976.29   1 0.34091-0.23629 0.55383 0.07387 0.75963-0.96886
   6   2  -1 5453.56 1696.43   1 0.31362 0.31408 0.52654-0.31731 0.79018-0.89479
  -6  -2   2 4454.10 1354.51   1-0.70812 0.08095 0.37849-0.58755-0.59606 0.80512
  -6  -2  -2 5950.64 1827.80   1-0.42705-0.20011 0.70167-0.91073-0.57033 0.36127
  -2  -2  -6 2452.13  966.38   1-0.31559 0.10653 0.78129-0.99034-0.53850-0.08866
  -6   2   2 3428.71 1368.29   1-0.29626-0.33090 0.79314-0.58408-0.53211 0.74117
  -6   2  -2 4011.80 1839.59   1 0.05042-0.67930 0.92318-0.71355-0.38103 0.17141
  -2   2  -6 3313.22 1345.11   1 0.35184-0.56147 0.91519-0.70556-0.19653-0.43234
   2  -2  -6 6753.46 2171.03   1 0.61975-0.41052 0.67417-0.88340-0.40173-0.22596
  -2   2  -6 4046.68 1778.33   1 0.62665-0.83589 0.68982-0.48059-0.36254-0.26516
   2   2  -6 3427.81 1290.96   1 0.62750-0.41827 0.77410-0.56487 0.08360-0.71131
   6   2  -2 4159.19 1337.17   1 0.40426 0.22343 0.61499-0.40576 0.67701-0.88624
   2   6  -2 4427.41 1515.17   1 0.32297-0.11373 0.53595 0.09175 0.78002-0.98926
  -2  -3  -6 1698.35  703.00   1-0.49305 0.28400 0.64429-0.95787-0.58461-0.04255
  -6  -2  -3  832.83  509.06   1-0.38993-0.23723 0.73043-0.93948-0.56073 0.24714
  -6   2  -3 1313.88 1073.86   1 0.06675-0.69563 0.92568-0.71606-0.37235 0.05791
   2  -3  -6 -260.18  824.16   1 0.58573-0.37650 0.60800-0.92185-0.53594-0.09175
  -2   3  -6 2408.89 1252.47   1 0.63716-0.84640 0.71780-0.40395-0.28067-0.34703
   2   3  -6 1059.61  614.12   1 0.61373-0.40449 0.77238-0.45852 0.16357-0.79128
   6   2  -3  977.20  581.99   1 0.47770 0.15000 0.68099-0.47175 0.55502-0.86887
   3   6  -2 1874.25 1164.98   1 0.31749-0.00364 0.53044 0.09725 0.78601-0.99525
  -2  -4  -6  349.73  431.77   1-0.63536 0.42630 0.48605-0.90417-0.60004-0.02712
  -6  -2  -4 2557.68 1465.96   1-0.36720-0.25996 0.74690-0.95595-0.55434 0.13623
  -6   2  -4 1457.38 1098.58   1 0.06745-0.69633 0.92578-0.71616-0.37197-0.04727
  -2   4  -6 1021.63  609.55   1 0.64221-0.85145 0.73690-0.31843-0.21101-0.41668
   6  -2  -4  882.89  482.21   1 0.64389-0.01619 0.75175-0.96098-0.14235-0.27611
   2   4  -6 1937.04 1228.52   1 0.60053-0.39130 0.76765-0.34918 0.22373-0.85144
   6   2  -4   24.43  458.05   1 0.53424 0.09345 0.72644-0.51720 0.43227-0.85074
   4   6  -2 3397.05 1786.71   1 0.32147 0.09699 0.53445 0.09325 0.78167-0.99090
  -6  -2  -5-1519.43  884.29   1-0.35772-0.26944 0.75352-0.96258-0.55157 0.02893
  -6   2  -5  437.19  560.24   1 0.05554-0.68441 0.92400-0.71437-0.37833-0.14573
   6  -2  -5  302.19  420.46   1 0.64251-0.01481 0.73850-0.94774-0.20439-0.31869
   2   5  -6  473.50  833.95   1 0.58990-0.38067 0.76259-0.23950 0.26544-0.89315
   6   2  -5  264.18  383.89   1 0.57615 0.05155 0.75489-0.54566 0.31332-0.83641
   5   6  -2 1098.57  737.81   1 0.33275 0.19033 0.54573 0.08197 0.76905-0.97829
  -6  -3   0 2967.17 1074.19   1-0.63515 0.00797 0.48633-0.79992-0.60004 0.60004
  -3   0  -6 3558.12 1219.74   1 0.01385-0.32829 0.91642-0.91642-0.39997-0.22890
  -6   3   0 1965.42  836.07   1 0.07002-0.69890 0.92615-0.61171-0.37059 0.37059
   3   0  -6 2382.76 1149.44   1 0.64231-0.32846 0.76312-0.76312-0.07115-0.55654
   0   6  -3 2673.14  935.24   1 0.47149-0.47149 0.67567-0.04796 0.56671-0.88056
  -6  -3   1 5295.85 1647.54   1-0.69785 0.07068 0.39522-0.70881-0.59731 0.70184
  -6  -3  -1 1038.54  870.12   1-0.57894-0.04823 0.55546-0.86904-0.59689 0.49237
  -3  -1  -6  301.67  480.11   1-0.14360-0.16997 0.86889-0.97342-0.47370-0.15346
  -6   3   1 1269.52  600.54   1-0.01609-0.61278 0.90969-0.59525-0.41496 0.51977
  -6   3  -1 2230.99  955.31   1 0.12113-0.75001 0.93171-0.61727-0.34238 0.23757
  -3   1  -6  631.38  574.32   1 0.15430-0.46874 0.93362-0.82880-0.32333-0.30554
   3  -1  -6 1665.82  729.08   1 0.64258-0.32872 0.73886-0.84348-0.20288-0.42481
   3   1  -6 2925.21  943.23   1 0.63275-0.31890 0.77309-0.66847 0.04419-0.67189
  -1   6  -3 1279.30  532.59   1 0.52300-0.62761 0.71791-0.09020 0.45942-0.77327
   1   6  -3 2637.76 1015.82   1 0.43508-0.33046 0.64343-0.01573 0.62983-0.94368
  -6  -3  -2  451.76  788.11   1-0.53256-0.09461 0.60563-0.91922-0.59125 0.38219
  -3  -2  -6 1184.98  673.28   1-0.30684-0.00674 0.78672-0.99577-0.53564-0.09152
  -6   3  -2 1635.86  854.95   1 0.14773-0.77661 0.93335-0.61891-0.32714 0.11752
  -3   2  -6 2764.14 1021.94   1 0.26893-0.58337 0.92943-0.71980-0.25264-0.37623
  -3   2  -6 1904.66  881.39   1 0.59167-0.90552 0.61876-0.40952-0.51677-0.11093
   3  -2  -6 2247.44 1435.33   1 0.62939-0.31554 0.69647-0.90571-0.34464-0.28305
   3   2  -6 -225.21 1036.87   1 0.61828-0.30442 0.77343-0.56419 0.13976-0.76746
   2   6  -3 2489.20 1633.37   1 0.41222-0.20299 0.62243 0.00527 0.66531-0.97916
   6   3  -2 1518.13  908.77   1 0.37382 0.25388 0.58601-0.27216 0.71891-0.92815
  -6  -3  -3  -94.59  880.57   1-0.49763-0.12953 0.63998-0.95357-0.58546 0.27188
  -3  -3  -6  401.66  623.95   1-0.45955 0.14597 0.67447-0.98805-0.57783-0.04933
  -6   3  -3 1911.44 1326.94   1 0.15627-0.78515 0.93369-0.61925-0.32217 0.00773
  -3   3  -6 1581.40 1187.29   1 0.35679-0.67122 0.91402-0.59958-0.19304-0.43583
   3  -3  -6 -150.63  892.09   1 0.59990-0.28605 0.63410-0.94795-0.48787-0.13982
  -3   3  -6 1154.67 1020.80   1 0.60969-0.92354 0.65317-0.33932-0.44903-0.17866
   3   3  -6 1438.93  832.09   1 0.60265-0.28879 0.76854-0.45469 0.21481-0.84252
   6   3  -3 1011.28  833.46   1 0.44776 0.17993 0.65485-0.34099 0.60882-0.92268
   3   6  -3  187.04 1337.66   1 0.40063-0.08678 0.61158 0.01612 0.68224-0.99609
  -3  -4  -6 1386.52  730.93   1-0.59018 0.27659 0.54242-0.96053-0.59787-0.02929
  -6  -3  -4 1079.37  913.40   1-0.47461-0.15256 0.66119-0.97477-0.58100 0.16289
  -6   3  -4  830.92  747.03   1 0.15084-0.77971 0.93348-0.61904-0.32534-0.09390
   3   4  -6 1425.31 1056.54   1 0.58856-0.27471 0.76188-0.34341 0.27040-0.89810
   6   3  -4  884.53  517.95   1 0.50786 0.11983 0.70599-0.39214 0.49359-0.91206
   4   6  -3 1271.69  768.88   1 0.39816 0.02030 0.60924 0.01845 0.68577-0.99962
  -5  -6  -3  509.66  907.86   1-0.74776 0.22512 0.30759-0.93476-0.58841 0.27482
  -3  -5  -6 -703.37  440.76   1-0.69370 0.38012 0.40182-0.92446-0.59775-0.02942
  -6  -3  -5 -848.27  773.08   1-0.46320-0.16396 0.67129-0.98487-0.57862 0.05598
  -6   3  -5  683.36  569.40   1 0.13408-0.76296 0.93262-0.61818-0.33502-0.18904
   3   5  -6  962.05  620.19   1 0.57765-0.26380 0.75578-0.23270 0.30838-0.93608
   6   3  -5  962.91  628.84   1 0.55477 0.07293 0.74113-0.42728 0.37808-0.90117
   5   6  -3  -16.74 1117.93   1 0.40302 0.12006 0.61382 0.01387 0.67881-0.99266
  -6  -4   0 2249.46 1219.63   1-0.70677 0.07960 0.38073-0.79884-0.59624 0.59624
  -4   0  -6 2047.26  941.35   1-0.04082-0.37842 0.90334-0.90334-0.42697-0.20190
  -6   4   0  821.93  612.61   1 0.16849-0.79736 0.93401-0.51476-0.31499 0.31499
   4   0  -6  -89.30  829.05   1 0.63966-0.22119 0.76818-0.76818-0.02689-0.60080
   0   6  -4  793.83  958.16   1 0.54047-0.54047 0.73102-0.10331 0.41652-0.83499
  -6  -4  -1 1563.57 1234.57   1-0.66164 0.03447 0.44992-0.86804-0.59982 0.49529
  -4  -1  -6 1995.99  873.55   1-0.17571-0.24240 0.85548-0.96001-0.48710-0.14006
  -6   4   1  255.09  755.48   1 0.09749-0.72637 0.92953-0.51028-0.35560 0.46042
  -4   1  -6  429.79  610.88   1 0.08296-0.50221 0.92785-0.82304-0.36358-0.26528
  -6   4  -1 2105.41  910.22   1 0.20811-0.83699 0.93378-0.51453-0.29109 0.18628
   4  -1  -6 1796.02  716.81   1 0.64379-0.22532 0.74877-0.85339-0.15765-0.47004
   4   1  -6 1920.59  995.03   1 0.62728-0.20881 0.77412-0.66950 0.08514-0.71285
  -1   6  -4  667.82  516.83   1 0.58071-0.68533 0.75757-0.12986 0.29808-0.71655
   1   6  -4 2442.34 1098.42   1 0.50806-0.40345 0.70615-0.07845 0.49316-0.91163
  -6  -4  -2  572.55  813.62   1-0.62281-0.00435 0.50239-0.92051-0.59974 0.39069
  -4  -2  -6 1285.61  752.60   1-0.31503-0.10308 0.78163-0.99069-0.53832-0.08884
  -4   2  -6  757.87  522.94   1 0.18820-0.60745 0.93415-0.72452-0.30321-0.32566
  -6   4  -2 1064.95  776.45   1 0.22617-0.85505 0.93300-0.51375-0.27990 0.07028
   4  -2  -6 -693.68  946.83   1 0.63492-0.21645 0.71111-0.92035-0.30197-0.32573
   4   2  -6  567.93  826.82   1 0.61112-0.19265 0.77162-0.56238 0.17641-0.80411
   2   6  -4 1779.37 1103.36   1 0.48498-0.27574 0.68716-0.05946 0.54091-0.95938
   6   4  -2 2527.51 1507.52   1 0.35612 0.27157 0.56881-0.15034 0.74136-0.95060
  -6  -4  -3 1096.48  932.58   1-0.59229-0.03488 0.53993-0.95805-0.59804 0.28445
  -4  -3  -6 2886.25 1646.49   1-0.44769 0.02958 0.68462-0.99821-0.57520-0.05197
  -6   4  -3 1389.85 1010.57   1 0.22838-0.85726 0.93287-0.51362-0.27852-0.03591
  -4   3  -6 1034.52  670.79   1 0.27276-0.69202 0.92898-0.61455-0.25015-0.37872
   4  -3  -6 -562.11  828.11   1 0.60906-0.19059 0.65191-0.96576-0.45172-0.17598
   4   3  -6 -551.11 1009.44   1 0.59471-0.17624 0.76499-0.45114 0.24717-0.87487
   3   6  -4 -874.42 1163.21   1 0.47079-0.15694 0.67507-0.04736 0.56800-0.98647
   6   4  -3  908.40  800.51   1 0.42788 0.19982 0.63688-0.21841 0.64132-0.95517
  -4  -6  -4   36.03  608.92   1-0.75150 0.33339 0.30028-0.92746-0.58741 0.16930
  -6  -4  -4   22.16  740.75   1-0.57112-0.05604 0.56431-0.98243-0.59612 0.17800
  -4  -4  -6 1230.85  909.31   1-0.56563 0.14751 0.57043-0.98855-0.59553-0.03163
  -6   4  -4 -398.70 1075.45   1 0.21822-0.84710 0.93339-0.51414-0.28485-0.13439
  -4   4  -6 -114.96  999.84   1 0.33741-0.75667 0.91839-0.49914-0.20662-0.42225
   4   4  -6 1324.00  896.47   1 0.58043-0.16196 0.75740-0.33893 0.29905-0.92676
   6   4  -4  803.69  608.30   1 0.48857 0.13912 0.69018-0.27171 0.53379-0.95226
   4   6  -4 2549.66 1419.81   1 0.46446-0.04599 0.66958-0.04187 0.57959-0.99806
  -5  -6  -4  988.80 1001.25   1-0.73325 0.21060 0.33484-0.96201-0.59179 0.17367
  -4  -5  -6  686.43  567.39   1-0.66424 0.24613 0.44620-0.96884-0.59973-0.02744
  -6  -4  -5 -328.57  717.68   1-0.55967-0.06750 0.57698-0.99510-0.59485 0.07221
  -6   4  -5 3836.46 2281.05   1 0.19791-0.82679 0.93403-0.51478-0.29733-0.22673
  -4   5  -6  -71.07 1023.17   1 0.38443-0.80368 0.90675-0.38269-0.17321-0.45566
  -5   6  -4  881.94 1141.07   1 0.40250-0.92656 0.90133-0.27245-0.15994-0.25930
   4   5  -6  -51.95 1028.21   1 0.56962-0.15115 0.75089-0.22780 0.33419-0.96190
   6   4  -5 -427.89  900.63   1 0.53786 0.08983 0.72911-0.31064 0.42318-0.94626
   5   6  -4  703.49  720.01   1 0.46482 0.05825 0.66989-0.04219 0.57893-0.99740
  -5   0  -6 1567.62 1532.79   1-0.09489-0.42775 0.88681-0.88681-0.45227-0.17489
  -6   5   0  260.08  381.03   1 0.24372-0.87260 0.93183-0.40776-0.26885 0.26885
   5   0  -6 1176.84  671.34   1 0.63748-0.11439 0.77046-0.77046-0.00056-0.62713
   0   6  -5 1744.16  795.98   1 0.58722-0.58722 0.76118-0.13347 0.27525-0.79833
  -6  -5  -1  992.06  953.72   1-0.72807 0.10090 0.34418-0.86682-0.59282 0.48829
  -5  -1  -6  584.64  545.79   1-0.21325-0.30939 0.83813-0.94266-0.50204-0.12512
  -5   1  -6 1264.64  862.99   1 0.01357-0.53764 0.91636-0.81154-0.40011-0.22875
  -6   5  -1  549.88  553.07   1 0.27404-0.90292 0.92883-0.40477-0.24931 0.14450
   5  -1  -6 -532.78  811.29   1 0.64386-0.12077 0.75407-0.85869-0.12965-0.49805
   5   1  -6  523.76 1037.46   1 0.62371-0.10062 0.77412-0.66950 0.10825-0.73596
   1   6  -5 1413.80  812.10   1 0.56157-0.45695 0.74571-0.11800 0.35853-0.88162
  -6  -5  -2    0.37  761.26   1-0.69724 0.07007 0.39620-0.91885-0.59738 0.38832
  -5  -2  -6  -11.82  532.54   1-0.33399-0.18864 0.76948-0.97854-0.54436-0.08281
  -5   2  -6 2018.30 1193.40   1 0.10964-0.63370 0.93074-0.72111-0.34885-0.28002
  -6   5  -2 -974.01 1089.31   1 0.28563-0.91450 0.92735-0.40329-0.24170 0.03207
   5  -2  -6 1324.98 1190.47   1 0.63769-0.11461 0.71948-0.92872-0.27509-0.35261
   5   2  -6 1157.63  801.79   1 0.60696-0.08387 0.77021-0.56098 0.19586-0.82356
   2   6  -5  377.48  534.99   1 0.54128-0.33204 0.73161-0.10390 0.41443-0.93752
   6   5  -2 1640.21  845.92   1 0.34877 0.27892 0.56160-0.03851 0.75030-0.95954
  -6  -5  -3 -510.27  709.07   1-0.67222 0.04504 0.43458-0.95723-0.59937 0.28578
  -5  -3  -6 -432.12  707.28   1-0.45024-0.07239 0.68246-0.99605-0.57577-0.05139
  -5   3  -6  720.77  885.13   1 0.18962-0.71368 0.93414-0.61970-0.30235-0.32651
  -6   5  -3 -316.13 1036.34   1 0.28328-0.91215 0.92767-0.40360-0.24325-0.07118
   5  -3  -6 2135.40 1393.45   1 0.61406-0.09097 0.66209-0.97594-0.42959-0.19811
   5   3  -6  162.82  782.03   1 0.59049-0.06740 0.76289-0.44904 0.26325-0.89096
   3   6  -5  965.44 1024.61   1 0.52723-0.21337 0.72115-0.09344 0.44940-0.97249
   6   5  -3 -885.34 1023.31   1 0.41698 0.21072 0.62684-0.10375 0.65817-0.97202
  -4  -6  -5  660.65  815.04   1-0.74333 0.32521 0.31609-0.94327-0.58952 0.06688
  -6  -5  -4  566.39  689.38   1-0.65430 0.02713 0.46029-0.98294-0.60000 0.18189
  -5  -4  -6  817.08  689.89   1-0.55617 0.03353 0.58078-0.99890-0.59443-0.03273
  -5   4  -6 -798.11 1078.17   1 0.25316-0.77722 0.93103-0.51178-0.26283-0.36604
  -6   5  -4 -410.51 1186.40   1 0.26989-0.89877 0.92932-0.40525-0.25202-0.16723
   5   4  -6 1756.24 1061.85   1 0.57642-0.05333 0.75506-0.33659 0.31243-0.94013
   4   6  -5  879.96  725.51   1 0.51932-0.10085 0.71505-0.08735 0.46797-0.99105
   6   5  -4 1488.15 1226.46   1 0.47639 0.15130 0.67988-0.15679 0.55750-0.97597
  -6   0  -6 1415.01  832.05   1-0.15052-0.47664 0.86611-0.86611-0.47664-0.15052
   6   0  -6  704.89  719.89   1 0.63659-0.00888 0.77114-0.77114 0.00888-0.63659
   0   6  -6  788.22  718.06   1 0.61721-0.61721 0.77321-0.14551 0.14551-0.77321
  -6  -1  -6  513.39 1013.67   1-0.25452-0.37265 0.81694-0.92147-0.51751-0.10965
  -6   1  -6  207.87  491.75   1-0.05305-0.57412 0.89990-0.79537-0.43284-0.19432
  -6   6  -1 1426.54  907.07   1 0.32051-0.94939 0.92175-0.29287-0.21826 0.11344
   6  -1  -6-1155.08  646.17   1 0.64374-0.01603 0.75598-0.86060-0.11867-0.50902
   6   1  -6  638.37  718.51   1 0.62257 0.00512 0.77403-0.66941 0.11516-0.74286
   1   6  -6  534.39 1131.84   1 0.59893-0.49431 0.76695-0.13924 0.23035-0.85805
  -6  -2  -6 1057.51  936.91   1-0.36027-0.26689 0.75175-0.96081-0.55232-0.07484
  -6   2  -6 1275.19 1123.33   1 0.03303-0.66191 0.92016-0.71054-0.39013-0.23874
  -6   6  -2  828.89  895.48   1 0.32768-0.95656 0.92038-0.29150-0.21334 0.00372
   6   2  -6 -695.47  883.46   1 0.60602 0.02167 0.76987-0.56063 0.20007-0.82777
   2   6  -6  685.66 1037.20   1 0.58291-0.37367 0.75881-0.13110 0.29054-0.91824
   6   6  -2 2292.61 1080.66   1 0.34974 0.27796 0.56254 0.06515 0.74914-0.95837
  -7   0   0  268.38  841.51   1-0.36585-0.36585 0.74785-0.74785-0.55395 0.55395
   0   0  -7  101.12 1081.60   1 0.62607-0.62607 0.68844-0.68844-0.36616-0.36616
   7   0   0 -466.74  435.36   1 0.36616 0.36616 0.57859-0.57859 0.72880-0.72880
  -7   0   1 -217.56  657.96   1-0.45574-0.27595 0.67776-0.67776-0.57700 0.68153
  -7   0  -1  394.49  625.93   1-0.29725-0.43444 0.79255-0.79255-0.53245 0.42792
   0   1  -7  -73.29  412.03   1 0.28541-0.28541 0.92738-0.82257-0.24184-0.49184
   0  -1  -7 1403.44 1419.73   1 0.60564-0.60564 0.64515-0.74977-0.46579-0.26652
   0   1  -7 1512.53 1547.64   1 0.63810-0.63810 0.72080-0.61619-0.27066-0.46166
   7   0  -1 -191.81  424.55   1 0.45806 0.27425 0.66397-0.66397 0.59102-0.69564
  -7   0   2 -511.35  480.54   1-0.56587-0.16582 0.57016-0.57016-0.59556 0.80461
  -7   0  -2 -444.97  829.41   1-0.24848-0.48321 0.82018-0.82018-0.51531 0.30626
   0   2  -7 -937.47 1106.48   1 0.64326-0.64326 0.74327-0.53404-0.18368-0.54863
   7   0  -2 1574.05  748.62   1 0.52557 0.20674 0.71989-0.71989 0.45334-0.66257
  -7   0  -3 1721.78 1026.39   1-0.21722-0.51447 0.83619-0.83619-0.50358 0.18999
   0   3  -7  604.95  761.67   1 0.64356-0.64356 0.75762-0.44377-0.10871-0.62360
   7   0  -3  306.20  367.05   1 0.57260 0.15971 0.75275-0.75275 0.32478-0.63863
  -7   0  -4 2019.10 1414.45   1-0.20113-0.53056 0.84393-0.84393-0.49731 0.07919
   0   4  -7 -210.04 1069.24   1 0.64109-0.64109 0.76596-0.34749-0.04803-0.68429
   7   0  -4  334.20  440.10   1 0.60433 0.12799 0.76922-0.76922 0.20756-0.62603
  -7   0  -5 -466.75 1010.30   1-0.19813-0.53356 0.84534-0.84534-0.49612-0.02651
   0   5  -7 -677.08  822.09   1 0.63768-0.63768 0.77029-0.24720-0.00277-0.72955
   7   0  -5 1261.23  613.13   1 0.62491 0.10740 0.77416-0.77416 0.10071-0.62380
  -7  -1   0  487.29  801.74   1-0.46854-0.26315 0.66659-0.77112-0.57975 0.57975
  -7   1   0 1054.45  696.94   1-0.25678-0.47491 0.81571-0.71118-0.51833 0.51833
  -1   0  -7  953.67  598.48   1 0.04968-0.15449 0.92306-0.92306-0.38142-0.35226
  -1   0  -7 2209.84 1093.21   1 0.60698-0.71160 0.64780-0.64780-0.46034-0.27197
   1   0  -7 1036.89 1384.18   1 0.63697-0.53235 0.71720-0.71720-0.28263-0.44968
  -7  -1   1  700.94  650.13   1-0.54956-0.18213 0.58788-0.69241-0.59360 0.69813
  -7  -1  -1 1497.77 1437.84   1-0.40310-0.32859 0.72049-0.82502-0.56425 0.45973
  -7   1   1    3.03  356.77   1-0.35098-0.38071 0.75814-0.65361-0.54956 0.65409
  -7   1  -1 1240.35  720.42   1-0.18906-0.54263 0.84951-0.74499-0.49251 0.38798
  -1   1  -7 1150.08  569.74   1 0.22496-0.32978 0.93306-0.82825-0.28066-0.45302
  -1  -1  -7 -574.09 1035.84   1 0.58118-0.68580 0.59991-0.70453-0.54983-0.18248
   1  -1  -7 -221.79 1108.61   1 0.62208-0.51747 0.67931-0.78393-0.38928-0.34304
  -1   1  -7 -473.13 1040.36   1 0.62504-0.72966 0.68603-0.58141-0.37239-0.35992
   1   1  -7 1969.57 1251.23   1 0.64328-0.53867 0.74343-0.63881-0.18300-0.54931
   7   1  -1 1342.64  926.42   1 0.39357 0.33874 0.60491-0.50029 0.69222-0.79684
  -7  -1   2  442.25  519.34   1-0.64268-0.08902 0.47627-0.58080-0.60010 0.80916
  -7  -1  -2 -694.85  985.05   1-0.35393-0.37777 0.75613-0.86066-0.55044 0.34138
  -7   1  -2  772.45 1136.59   1-0.14370-0.58799 0.86885-0.76432-0.47374 0.26468
  -1   2  -7  782.25  529.25   1 0.35563-0.46045 0.91429-0.70467-0.19385-0.53983
   1  -2  -7  167.74 1072.21   1 0.59714-0.49252 0.62889-0.83813-0.49790-0.23442
  -1   2  -7  273.64  982.00   1 0.63620-0.74082 0.71487-0.50564-0.29016-0.44216
   1   2  -7  689.09 1035.88   1 0.64320-0.53858 0.75983-0.55060-0.09454-0.63778
   7   1  -2 -824.59  634.21   1 0.46993 0.26238 0.67432-0.56971 0.56959-0.77883
  -7  -1  -3 -328.22  861.46   1-0.32027-0.41143 0.77833-0.88286-0.54001 0.22642
  -7   1  -3 2463.12 1461.79   1-0.11688-0.61481 0.87908-0.77455-0.46210 0.14852
  -1   3  -7  522.61 1092.54   1 0.64189-0.74651 0.73531-0.42146-0.21745-0.51487
   1   3  -7  944.85  889.99   1 0.63914-0.53452 0.76882-0.45497-0.02008-0.71223
   7   1  -3  761.65  575.71   1 0.52874 0.20357 0.72230-0.61768 0.44576-0.75961
  -7  -1  -4  461.50 1189.70   1-0.30076-0.43093 0.79043-0.89495-0.53362 0.11551
  -7   1  -4  472.55  785.74   1-0.10545-0.62625 0.88317-0.77864-0.45703 0.03891
  -1   4  -7 1153.49  871.59   1 0.64380-0.74842 0.74885-0.33038-0.15724-0.57507
   1   4  -7-1265.98 1072.78   1 0.63337-0.52876 0.77286-0.35439 0.03892-0.77124
   7   1  -4 1675.66  846.84   1 0.57214 0.16018 0.75246-0.64784 0.32626-0.74473
  -7  -1  -5  480.36  645.03   1-0.29395-0.43774 0.79452-0.89905-0.53133 0.00869
  -7   1  -5  350.52  703.96   1-0.10695-0.62474 0.88264-0.77812-0.45770-0.06494
  -1   5  -7  -16.71  756.15   1 0.64362-0.74824 0.75716-0.23407-0.11156-0.62075
   1   5  -7  807.59  742.86   1 0.62772-0.52310 0.77409-0.25100 0.08214-0.81446
   7   1  -5  476.79  391.81   1 0.60300 0.12931 0.76869-0.66407 0.21331-0.73639
  -7  -2   0 1008.20 1096.73   1-0.56035-0.17134 0.57624-0.78529-0.59493 0.59493
  -7   2   0  663.35  652.45   1-0.14795-0.58374 0.86715-0.65809-0.47555 0.47555
  -2   0  -7 -100.59  623.18   1 0.01288-0.22250 0.91621-0.91621-0.40047-0.33321
   2   0  -7 1077.12 1162.17   1 0.64213-0.43290 0.73652-0.73652-0.21258-0.51973
   0   7  -2  761.34  546.68   1 0.38534-0.38534 0.59707 0.13524 0.70357-0.91280
  -7  -2   1 1222.14  886.75   1-0.62983-0.10186 0.49332-0.70237-0.59994 0.70447
  -7  -2  -1  658.70  889.33   1-0.50130-0.23039 0.63650-0.84556-0.58613 0.48160
  -7   2   1 1287.04  505.74   1-0.24092-0.49077 0.82417-0.61511-0.51253 0.61706
  -2  -1  -7  724.00  423.87   1-0.16002-0.04903 0.86219-0.96672-0.48063-0.25107
  -7   2  -1  614.70  871.83   1-0.08489-0.64680 0.89013-0.68107-0.44772 0.34319
  -2   1  -7  437.16  410.88   1 0.16391-0.37353 0.93391-0.82910-0.31769-0.41599
  -2   1  -7 1504.95  969.70   1 0.60085-0.81008 0.63590-0.53128-0.48435-0.24796
   2  -1  -7  359.80  929.78   1 0.63231-0.42308 0.70396-0.80858-0.32342-0.40889
   2   1  -7 1286.07  754.41   1 0.64362-0.43438 0.75718-0.65256-0.11146-0.62085
   1   7  -2  544.70 1070.94   1 0.35317-0.24855 0.56592 0.16640 0.74498-0.95421
   7   2  -1  441.37  720.31   1 0.34979 0.38252 0.56259-0.35336 0.74908-0.85370
  -7  -2   2  230.19  608.32   1-0.70541-0.02629 0.38298-0.59203-0.59642 0.80548
  -7  -2  -2 -110.03  956.65   1-0.45469-0.27700 0.67866-0.88772-0.57677 0.36771
  -7   2  -2  905.89  809.66   1-0.04523-0.68647 0.90211-0.69306-0.42911 0.22005
  -2   2  -7 1288.81  695.85   1 0.28391-0.49354 0.92758-0.71796-0.24283-0.49085
   2  -2  -7  -20.03  965.59   1 0.61198-0.40274 0.65781-0.86705-0.43903-0.29328
  -2   2  -7 1549.13 1141.12   1 0.61794-0.82717 0.67024-0.46101-0.41099-0.32132
   2   2  -7 1080.08 1032.52   1 0.63942-0.43018 0.76848-0.55925-0.02368-0.70864
   7   2  -2  956.90  698.83   1 0.42749 0.30483 0.63652-0.42728 0.64194-0.85117
   2   7  -2   86.43  430.48   1 0.33578-0.12654 0.54874 0.18357 0.76559-0.97482
  -7  -2  -3  782.59  927.05   1-0.42099-0.31070 0.70653-0.91559-0.56883 0.25525
  -7   2  -3 -934.18 1128.25   1-0.02515-0.70853 0.90745-0.69782-0.41940 0.10496
  -2   3  -7   76.01  822.15   1 0.37362-0.58324 0.90974-0.59530-0.18103-0.55265
  -2   3  -7 -504.88  814.81   1 0.62939-0.83863 0.69647-0.38262-0.34464-0.38767
   2   3  -7 1023.82  722.20   1 0.63220-0.42296 0.77327-0.45941 0.04872-0.78104
   7   2  -3 3089.54 1440.26   1 0.49158 0.24074 0.69268-0.48345 0.52776-0.84161
   3   7  -2  845.91  882.79   1 0.32972-0.01587 0.54270 0.18961 0.77249-0.98173
  -7  -2  -4 1388.80  861.00   1-0.39981-0.33188 0.72300-0.93206-0.56339 0.14527
  -7   2  -4   44.19  717.33   1-0.01894-0.71474 0.90900-0.69937-0.41636-0.00289
  -2   4  -7  370.37  697.70   1 0.63636-0.84559 0.71534-0.29687-0.28866-0.44365
   2   4  -7 1704.65  912.71   1 0.62422-0.41498 0.77414-0.35567 0.10510-0.83742
   7   2  -4 1870.90  988.98   1 0.54207 0.19025 0.73218-0.52295 0.41238-0.83085
   4   7  -2 -471.15 1118.77   1 0.33247 0.08599 0.54545 0.18687 0.76937-0.97861
  -7  -3   0  162.05  872.71   1-0.63918-0.09252 0.48097-0.79456-0.60008 0.60008
  -7   3   0 1161.34  882.13   1-0.04791-0.68577 0.90138-0.58694-0.43036 0.43036
  -3   0  -7 -103.70  779.28   1-0.02957-0.28486 0.90632-0.90632-0.42155-0.31214
   3   0  -7 2756.80 1448.30   1 0.64380-0.32994 0.74880-0.74880-0.15750-0.57482
   0   7  -3  662.37  723.39   1 0.47186-0.47186 0.67599 0.05632 0.56601-0.87986
  -7  -3   1 1005.07 1072.37   1-0.69631-0.03539 0.39769-0.71128-0.59748 0.70201
  -7  -3  -1  256.89  890.16   1-0.58845-0.14324 0.54444-0.85803-0.59773 0.49321
  -3  -1  -7 -197.18  729.36   1-0.17605-0.13752 0.85533-0.95985-0.48725-0.24445
  -7   3  -1-1237.50  916.37   1 0.00807-0.74176 0.91520-0.60076-0.40290 0.29809
  -3   1  -7   47.08  597.33   1 0.10256-0.41700 0.93005-0.82524-0.35280-0.38088
   3  -1  -7 -175.27  984.78   1 0.63812-0.32427 0.72088-0.82550-0.27038-0.46193
   3   1  -7   -1.76  677.15   1 0.64158-0.32773 0.76495-0.66033-0.05664-0.67568
   1   7  -3 1085.21  654.41   1 0.43807-0.33345 0.64614 0.08617 0.62496-0.93881
   7   3  -1  760.90  511.73   1 0.32275 0.40956 0.53573-0.22188 0.78026-0.88488
  -7  -3  -2  764.43 1271.81   1-0.54668-0.18502 0.59094-0.90453-0.59323 0.38417
  -3  -2  -7 -331.59  514.90   1-0.32889 0.01530 0.77281-0.98186-0.54276-0.18894
  -7   3  -2 -198.43 1065.52   1 0.04107-0.77476 0.92160-0.60716-0.38594 0.17632
  -3   2  -7 1537.29  873.18   1 0.21241-0.52685 0.93363-0.72401-0.28845-0.44523
  -3   2  -7 1256.81  889.21   1 0.58418-0.89804 0.60523-0.39600-0.54074-0.19157
   3  -2  -7  766.24  930.33   1 0.62182-0.30797 0.67872-0.88795-0.39073-0.34159
   3   2  -7 -599.89 1015.13   1 0.63447-0.32061 0.77239-0.56315 0.02929-0.76161
   2   7  -3    4.09 1167.41   1 0.41665-0.20742 0.62654 0.10577 0.65866-0.97251
   7   3  -2 -913.22  721.63   1 0.39814 0.33417 0.60923-0.29538 0.68579-0.89502
  -7  -3  -3  541.92  900.59   1-0.51509-0.21660 0.62316-0.93674-0.58851 0.27492
  -3  -3  -7 -489.68  500.87   1-0.47382 0.16023 0.66189-0.97548-0.58084-0.15085
  -7   3  -3 1412.66 1061.85   1 0.05640-0.79009 0.92413-0.60969-0.37787 0.06343
  -3   3  -7 1647.89  924.37   1 0.29871-0.61315 0.92546-0.61102-0.23300-0.50069
   3  -3  -7  536.02  867.54   1 0.59288-0.27903 0.62097-0.93483-0.51271-0.21961
  -3   3  -7  514.11  661.01   1 0.60046-0.91432 0.63516-0.32131-0.48579-0.24652
   3   3  -7 3168.01 1855.16   1 0.62517-0.31132 0.77417-0.46031 0.09905-0.83137
   7   3  -3  328.70  340.96   1 0.46336 0.26895 0.66862-0.35477 0.58158-0.89543
   3   7  -3  572.80  809.94   1 0.40555-0.09170 0.61620 0.11611 0.67514-0.98899
  -7  -3  -4  337.50  912.28   1-0.49405-0.23764 0.64335-0.95694-0.58480 0.16669
  -7   3  -4  959.05  748.13   1 0.05767-0.79136 0.92433-0.60989-0.37719-0.04205
  -3   4  -7 -514.92 1005.92   1 0.36337-0.67781 0.91240-0.49315-0.18836-0.54532
   3   4  -7 1711.12 1071.42   1 0.61587-0.30201 0.77292-0.35445 0.15263-0.88495
   7   3  -4 1573.59  926.88   1 0.51728 0.21503 0.71346-0.39961 0.47263-0.89110
   4   7  -3 -155.79 1263.64   1 0.40291 0.01555 0.61372 0.11859 0.67896-0.99282
  -7  -4   0 -247.88  695.46   1-0.70476-0.02693 0.38404-0.80215-0.59650 0.59650
  -4   0  -7 1262.70  934.02   1-0.07432-0.34379 0.89351-0.89351-0.44284-0.28885
  -7   4   0  507.92  648.17   1 0.03988-0.77357 0.92139-0.50214-0.38657 0.38657
   4   0  -7 2068.15 1121.53   1 0.64373-0.22526 0.75611-0.75611-0.11787-0.61444
   0   7  -4  636.84  483.83   1 0.53714-0.53714 0.72858 0.00373 0.42501-0.84348
  -7  -4   1 -367.06  716.92   1-0.75001 0.01831 0.30321-0.72132-0.58782 0.69235
  -7  -4  -1  111.73  772.09   1-0.66305-0.06865 0.44792-0.86603-0.59977 0.49524
  -4  -1  -7 -164.46  661.47   1-0.20219-0.21592 0.84343-0.94796-0.49773-0.23397
  -4   1  -7  719.33  398.86   1 0.04108-0.46034 0.92160-0.81679-0.38593-0.34775
  -7   4  -1 1825.12 1241.63   1 0.08798-0.82167 0.92846-0.50921-0.36084 0.25603
   4  -1  -7  706.62  913.87   1 0.64109-0.22262 0.73174-0.83636-0.23139-0.50092
   4   1  -7  911.15  686.24   1 0.63899-0.22052 0.76899-0.66437-0.01820-0.71412
   1   7  -4  681.56 1130.47   1 0.50636-0.40174 0.70478 0.02753 0.49686-0.91533
   7   4  -1 1889.00  908.21   1 0.30875 0.42357 0.52162-0.10315 0.79535-0.89997
  -7  -4  -2  504.01 1166.72   1-0.62745-0.10424 0.49642-0.91453-0.59988 0.39083
  -4  -2  -7  954.55  524.04   1-0.33382-0.08429 0.76960-0.97866-0.54430-0.18739
  -7   4  -2-1136.77 1148.10   1 0.11442-0.84811 0.93116-0.51191-0.34617 0.13654
  -4   2  -7 1511.14  801.17   1 0.14141-0.56067 0.93304-0.72341-0.33080-0.40288
   4  -2  -7 1701.73 1084.13   1 0.62788-0.20941 0.69275-0.90199-0.35475-0.37756
   4   2  -7  765.28  851.62   1 0.63004-0.21157 0.77379-0.56455 0.06549-0.79781
   2   7  -4  -73.21 1052.39   1 0.48453-0.27529 0.68678 0.04553 0.54181-0.96028
   7   4  -2  882.81  630.77   1 0.38022 0.35210 0.59217-0.17370 0.71046-0.91970
  -7  -4  -3  643.85  798.40   1-0.59955-0.13214 0.53126-0.94938-0.59856 0.28498
  -4  -3  -7  875.56  714.00   1-0.46052 0.04241 0.67362-0.98721-0.57804-0.15365
  -7   4  -3  898.43  958.10   1 0.12447-0.85816 0.93196-0.51271-0.34050 0.02606
  -4   3  -7 2445.03 1265.06   1 0.22331-0.64256 0.93315-0.61871-0.28169-0.45199
   4  -3  -7 -224.51  768.61   1 0.60140-0.18293 0.63694-0.95080-0.48229-0.25002
   4   3  -7  496.48 1188.97   1 0.61956-0.20109 0.77365-0.45980 0.13262-0.86495
   3   7  -4 1676.12 1126.11   1 0.47109-0.15724 0.67533 0.05699 0.56744-0.98591
   7   4  -3  -84.78  787.06   1 0.44415 0.28816 0.65162-0.23315 0.61490-0.92876
  -5   0  -7 1491.16  737.83   1-0.12287-0.39977 0.87687-0.87687-0.46474-0.26695
   5   0  -7  500.53  669.88   1 0.64317-0.12008 0.75998-0.75998-0.09356-0.63875
   0   7  -5 1433.24  802.37   1 0.58346-0.58346 0.75912-0.02680 0.28860-0.81169
  -7  -5  -1  260.33  723.49   1-0.72497-0.00672 0.34968-0.87232-0.59340 0.48887
  -5  -1  -7 1028.13  656.80   1-0.23497-0.28766 0.82726-0.93179-0.51031-0.22138
  -5   1  -7 -349.51  893.10   1-0.02043-0.50362 0.90863-0.80382-0.41709-0.31659
  -7   5  -1 -322.39  964.24   1 0.15170-0.88539 0.93352-0.40945-0.32484 0.22002
   5  -1  -7 -172.11  806.03   1 0.64240-0.11931 0.73788-0.84249-0.20700-0.52531
   5   1  -7 1333.46  969.89   1 0.63699-0.11391 0.77085-0.66623 0.00466-0.73699
   1   7  -5 1608.84  993.25   1 0.55832-0.45370 0.74354-0.01122 0.36799-0.89108
   7   5  -1 1777.01 1239.56   1 0.30487 0.42744 0.51769 0.00539 0.79940-0.90402
  -8   0   0 1286.99  878.08   1-0.41811-0.41811 0.70881-0.70881-0.56811 0.56811
   0   0  -8 2112.97 1332.43   1 0.61642-0.61642 0.66701-0.66701-0.41847-0.41847
  -8   0   1  647.12  864.30   1-0.49783-0.33839 0.63980-0.63980-0.58550 0.69003
  -8   0  -1  649.17  686.17   1-0.35577-0.48045 0.75487-0.75487-0.55099 0.44646
   0  -1  -8 2585.34 1851.41   1 0.59562-0.59562 0.62605-0.73067-0.50326-0.33367
   0   1  -8 1640.04 1767.94   1 0.63040-0.63040 0.69899-0.59438-0.33763-0.49930
  -8   0  -2  312.62  785.40   1-0.31007-0.52615 0.78473-0.78473-0.53670 0.32764
   0   2  -8  252.96 1089.72   1 0.63869-0.63869 0.72277-0.51354-0.26393-0.57301
  -8   0  -3 1792.27 1051.32   1-0.27951-0.55671 0.80298-0.80298-0.52639 0.21280
   0   3  -8 1417.40  778.68   1 0.64270-0.64270 0.73955-0.42570-0.19998-0.63695
  -8  -1   0  229.28  807.37   1-0.50390-0.33232 0.63402-0.73855-0.58659 0.58659
  -8   1   0 1919.26 1236.14   1-0.32797-0.50825 0.77340-0.66887-0.54246 0.54246
  -1   0  -8 2256.55 1717.40   1 0.59667-0.70128 0.62800-0.62800-0.49959-0.33734
   1   0  -8 1284.89 1794.85   1 0.62914-0.52452 0.69585-0.69585-0.34636-0.49057
  -8  -1   1 1208.37 1056.83   1-0.57565-0.26057 0.55920-0.66373-0.59658 0.70111
  -8  -1  -1 1453.06 1017.08   1-0.44519-0.39103 0.68673-0.79126-0.57462 0.47010
  -8   1   1 1161.59  586.37   1-0.41291-0.42331 0.71290-0.60837-0.56680 0.67133
  -8   1  -1 2053.01 1116.32   1-0.26461-0.57161 0.81141-0.70688-0.52114 0.41661
   1  -1  -8 3596.43 2254.91   1 0.61236-0.50775 0.65859-0.76321-0.43732-0.39961
  -1   1  -8  687.95 1081.89   1 0.61496-0.71957 0.66395-0.55933-0.42542-0.41151
   1   1  -8  968.43 1164.10   1 0.63892-0.53430 0.72355-0.61893-0.26123-0.57570
  -8  -1  -2 3224.87 1593.53   1-0.40024-0.43599 0.72268-0.82721-0.56350 0.35444
  -8   1  -2 1117.25  714.34   1-0.22025-0.61597 0.83469-0.73016-0.50474 0.29568
  -1   2  -8 -365.75  508.10   1 0.26816-0.37298 0.92951-0.71989-0.25314-0.58535
   1  -2  -8  912.56 1080.78   1 0.58746-0.48284 0.61110-0.82034-0.53050-0.30643
  -1   2  -8 1491.84 1162.98   1 0.62759-0.73221 0.69207-0.48283-0.35659-0.48034
   1   2  -8  262.56  930.16   1 0.64322-0.53861 0.74298-0.53374-0.18501-0.65192
  -8  -1  -3 -287.03  587.67   1-0.36864-0.46758 0.74588-0.85041-0.55476 0.24117
  -8   1  -3 -949.97  965.56   1-0.19226-0.64396 0.84805-0.74352-0.49379 0.18020
  -1   3  -8  589.23  531.52   1 0.36373-0.46854 0.91231-0.59787-0.18811-0.65039
  -1   3  -8  640.37 1106.40   1 0.63559-0.74021 0.71306-0.39921-0.29590-0.54103
   1   3  -8 1256.66  753.21   1 0.64376-0.53914 0.75576-0.44191-0.11997-0.71696
   8   1  -3 -308.30  514.72   1 0.54443 0.29250 0.73389-0.62927 0.40618-0.72003
  -8  -2   0  584.34  831.47   1-0.58218-0.25404 0.55174-0.76079-0.59719 0.59719
  -8   2   0  617.08  683.39   1-0.23779-0.59843 0.82580-0.61674-0.51137 0.51137
   2   0  -8  910.61 1167.23   1 0.63669-0.42745 0.71633-0.71633-0.28545-0.55148
   8   2   0  425.78  760.64   1 0.31311 0.52382 0.52603-0.31679 0.79072-0.79072
  -8  -2   1 1315.81  811.78   1-0.64430-0.19192 0.47406-0.68312-0.60010 0.70463
  -8  -2  -1 -104.29  776.09   1-0.52920-0.30702 0.60906-0.81812-0.59074 0.48622
  -8   2  -1 1537.26  956.55   1-0.17604-0.66019 0.85533-0.64628-0.48724 0.38271
  -2   1  -8 1271.53  631.57   1 0.09168-0.30130 0.92889-0.82408-0.35881-0.47968
  -2   1  -8 1282.75 1122.67   1 0.59018-0.79942 0.61603-0.51142-0.52170-0.31523
   2  -1  -8 3047.36 1933.11   1 0.62363-0.41440 0.68280-0.78741-0.38060-0.45633
   2   1  -8 1012.35  894.75   1 0.64278-0.43354 0.74002-0.63541-0.19796-0.63897
   8   2  -1  925.28  674.74   1 0.38853 0.44840 0.60012-0.39088 0.69921-0.80382
   1   8  -2 2074.25 1160.40   1 0.37251-0.26789 0.58475 0.25218 0.72062-0.92985
  -8  -2   2 1031.82 1012.44   1-0.71218-0.12404 0.37172-0.58077-0.59549 0.80455
  -8  -2  -2  407.48  937.34   1-0.48699-0.34923 0.64992-0.85898-0.58346 0.37440
  -8   2  -2  679.63  740.39   1-0.13480-0.70142 0.87234-0.66329-0.46993 0.26087
  -2   2  -8 -452.02  576.93   1 0.20909-0.41872 0.93375-0.72412-0.29049-0.54800
   2  -2  -8 -976.52  899.25   1 0.60205-0.39282 0.63820-0.84743-0.47981-0.35712
  -2   2  -8 -956.07  876.84   1 0.60692-0.81616 0.64768-0.43844-0.46059-0.37634
   2   2  -8 1902.50 1046.61   1 0.64377-0.43453 0.75559-0.54636-0.12093-0.71600
   8   2  -2  -46.71  607.16   1 0.45473 0.38220 0.66104-0.45180 0.59686-0.80609
   2   8  -2  453.88 1078.45   1 0.35500-0.14576 0.56771 0.26922 0.74274-0.95198
  -8  -2  -3 -485.63  906.02   1-0.45602-0.38020 0.67752-0.88657-0.57706 0.26347
  -8   2  -3 -357.76 1078.91   1-0.11046-0.72576 0.88140-0.67234-0.45926 0.14568
  -2   3  -8  -44.31  359.51   1 0.29969-0.50932 0.92530-0.61087-0.23234-0.60615
  -2   3  -8  726.90  832.98   1 0.61891-0.82815 0.67234-0.35849-0.40607-0.43086
   2   3  -8 1674.40  940.69   1 0.64156-0.43232 0.76500-0.45115-0.05620-0.78073
   8   2  -3 -148.92  611.04   1 0.50994 0.32699 0.70766-0.49842 0.48904-0.80289
   3   8  -2 1029.57  757.20   1 0.34796-0.03411 0.56080 0.27613 0.75127-0.96051
  -8  -3   0  887.65  802.87   1-0.65116-0.18506 0.46466-0.77825-0.60005 0.60005
  -8   3   0  997.09  699.79   1-0.15240-0.68382 0.86534-0.55176-0.47743 0.47743
  -3   0  -8 1142.36  697.08   1-0.08172-0.23185 0.89116-0.89116-0.44626-0.38996
   3   0  -8  162.83  935.12   1 0.64073-0.32687 0.73025-0.73025-0.23704-0.59989
  -8  -3   1  -49.90  674.71   1-0.70308-0.13314 0.38679-0.70037-0.59671 0.70124
  -8  -3  -1 -888.83  786.36   1-0.60522-0.23100 0.52439-0.83797-0.59892 0.49439
  -8   3  -1  822.64  986.69   1-0.09431-0.74191 0.88701-0.57342-0.45201 0.34748
  -3   1  -8 -139.84  611.29   1 0.04219-0.35663 0.92180-0.81698-0.38535-0.45314
   3  -1  -8 1279.56 1100.68   1 0.63079-0.31694 0.70000-0.80461-0.33480-0.50213
   3   1  -8 1651.12 1143.51   1 0.64387-0.33002 0.75056-0.64594-0.14858-0.68835
   1   8  -3 1332.32  942.07   1 0.44857-0.34396 0.65557 0.18136 0.60744-0.92130
   8   3  -1 2107.64 1147.52   1 0.36079 0.47615 0.57337-0.25951 0.73557-0.84019
  -8  -3  -2 -445.31  833.89   1-0.56732-0.26890 0.56855-0.88214-0.59572 0.38666
  -8   3  -2 3018.88 1580.64   1-0.05732-0.77890 0.89866-0.58507-0.43487 0.22581
  -3   2  -8  772.05  782.76   1 0.14845-0.46289 0.93338-0.72375-0.32673-0.51176
   3  -2  -8 -386.92  881.20   1 0.61211-0.29826 0.65808-0.86731-0.43844-0.39849
   3   2  -8  -56.25  928.39   1 0.64234-0.32849 0.76303-0.55380-0.07183-0.76510
   2   8  -3 2241.05 1129.83   1 0.42794-0.21871 0.63694 0.19999 0.64122-0.95507
   8   3  -2 -247.13  672.55   1 0.42620 0.41073 0.63534-0.32149 0.64395-0.85319
;
_shelx_hkl_checksum              96734
loop_
_space_group_symop_operation_xyz
'x, y, z'
'-x, -y, z'
'-x, y, -z'
'x, -y, -z'
'z, x, y'
'z, -x, -y'
'-z, -x, y'
'-z, x, -y'
'y, z, x'
'-y, z, -x'
'y, -z, -x'
'-y, -z, x'
'y, x, -z'
'-y, -x, -z'
'y, -x, z'
'-y, x, z'
'x, z, -y'
'-x, z, y'
'-x, -z, -y'
'x, -z, y'
'z, y, -x'
'z, -y, x'
'-z, y, x'
'-z, -y, -x'
'-x, -y, -z'
'x, y, -z'
'x, -y, z'
'-x, y, z'
'-z, -x, -y'
'-z, x, y'
'z, x, -y'
'z, -x, y'
'-y, -z, -x'
'y, -z, x'
'-y, z, x'
'y, z, -x'
'-y, -x, z'
'y, x, z'
'-y, x, -z'
'y, -x, -z'
'-x, -z, y'
'x, -z, -y'
'x, z, y'
'-x, z, -y'
'-z, -y, x'
'-z, y, -x'
'z, -y, -x'
'z, y, x'
loop_
_atom_site_label
_atom_site_type_symbol
_atom_site_fract_x
_atom_site_fract_y
_atom_site_fract_z
_atom_site_U_iso_or_equiv
_atom_site_adp_type
_atom_site_occupancy
_atom_site_site_symmetry_order
_atom_site_calc_flag
_atom_site_refinement_flags_posn
_atom_site_refinement_flags_adp
_atom_site_refinement_flags_occupancy
Rb1 Rb -1.0000 0.0000 0.0000 0.084(2) Uani 1 48 d S T P
Br1 Br -1.0000 0.0000 -0.5000 0.202(4) Uani 1 16 d S T P
N1 N 0.5000 0.5000 1.310(7) 0.37(4) Uani 1 8 d S T P
loop_
_atom_site_aniso_label
_atom_site_aniso_U_11
_atom_site_aniso_U_22
_atom_site_aniso_U_33
_atom_site_aniso_U_23
_atom_site_aniso_U_13
_atom_site_aniso_U_12
Rb1 0.084(2) 0.084(2) 0.084(2) 0.000 0.000 0.000
Br1 0.263(5) 0.263(5) 0.082(3) 0.000 0.000 0.000
N1 0.39(4) 0.39(4) 0.34(6) 0.000 0.000 0.000
loop_
_atom_type_symbol
_atom_type_description
_atom_type_scat_dispersion_real
_atom_type_scat_dispersion_imag
_atom_type_scat_source
C C 0.0033 0.0016 'International Tables Vol C Tables 4.2.6.8 and 6.1.1.4'
H H 0.0000 0.0000 'International Tables Vol C Tables 4.2.6.8 and 6.1.1.4'
N N 0.0061 0.0033 'International Tables Vol C Tables 4.2.6.8 and 6.1.1.4'
Br Br -0.2901 2.4595 'International Tables Vol C Tables 4.2.6.8 and 6.1.1.4'
Rb Rb -0.9393 2.9676 'International Tables Vol C Tables 4.2.6.8 and 6.1.1.4'
loop_
_geom_angle_atom_site_label_1
_geom_angle_atom_site_label_2
_geom_angle_atom_site_label_3
_geom_angle
_geom_angle_site_symmetry_1
_geom_angle_site_symmetry_3
Br1 Rb1 Br1 90.0 9_466 .
Br1 Rb1 Br1 90.0 9_466 1_556
Br1 Rb1 Br1 180.0 . 1_556
Br1 Rb1 Br1 90.0 9_466 5_465
Br1 Rb1 Br1 90.0 . 5_465
Br1 Rb1 Br1 90.0 1_556 5_465
Br1 Rb1 Br1 90.0 9_466 5_565
Br1 Rb1 Br1 90.0 . 5_565
Br1 Rb1 Br1 90.0 1_556 5_565
Br1 Rb1 Br1 180.0 5_465 5_565
Br1 Rb1 Br1 180.0 9_466 9_456
Br1 Rb1 Br1 90.0 . 9_456
Br1 Rb1 Br1 90.0 1_556 9_456
Br1 Rb1 Br1 90.0 5_465 9_456
Br1 Rb1 Br1 90.0 5_565 9_456
Rb1 Br1 Rb1 180.0 1_554 .
N1 N1 N1 60.000(10) 33_677 29_767
N1 N1 N1 60.000(10) 33_677 5_456
N1 N1 N1 90.001(5) 29_767 5_456
N1 N1 N1 90.001(4) 33_677 9_546
N1 N1 N1 60.000(9) 29_767 9_546
N1 N1 N1 60.000(7) 5_456 9_546
loop_
_geom_bond_atom_site_label_1
_geom_bond_atom_site_label_2
_geom_bond_distance
_geom_bond_site_symmetry_2
Rb1 Br1 3.3999(9) 9_466
Rb1 Br1 3.3999(9) .
Rb1 Br1 3.3999(9) 1_556
Rb1 Br1 3.3999(9) 5_465
Rb1 Br1 3.3999(9) 5_565
Rb1 Br1 3.3999(9) 9_456
Br1 Rb1 3.3999(9) 1_554
N1 N1 1.83(6) 33_677
N1 N1 1.83(6) 29_767
N1 N1 1.83(6) 5_456
N1 N1 1.83(6) 9_546
