#------------------------------------------------------------------------------
#$Date: 2017-03-04 07:21:01 +0200 (Sat, 04 Mar 2017) $
#$Revision: 193155 $
#$URL: file:///home/coder/svn-repositories/cod/cif/4/12/57/4125781.cif $
#------------------------------------------------------------------------------
#
# This file is available in the Crystallography Open Database (COD),
# http://www.crystallography.net/
#
# All data on this site have been placed in the public domain by the
# contributors.
#
data_4125781
loop_
_publ_author_name
'Mailman, Aaron'
'Leitch, Alicea A.'
'Yong, Wenjun'
'Steven, Eden'
'Winter, Stephen M.'
'Claridge, Robert C. M.'
'Assoud, Abdeljalil'
'Tse, John S.'
'Desgreniers, Serge'
'Secco, Richard A.'
'Oakley, Richard T.'
_publ_section_title
;
 The Power of Packing: Metallization of an Organic Semiconductor.
;
_journal_issue                   6
_journal_name_full               'Journal of the American Chemical Society'
_journal_page_first              2180
_journal_page_last               2183
_journal_paper_doi               10.1021/jacs.6b12814
_journal_volume                  139
_journal_year                    2017
_chemical_formula_moiety         'C6 N2 O2 S4'
_chemical_formula_sum            'C6 N2 O2 S4'
_chemical_formula_weight         260.32
_chemical_name_systematic
;
 ?
;
_space_group_crystal_system      orthorhombic
_space_group_IT_number           36
_space_group_name_Hall           'C 2c -2'
_space_group_name_H-M_alt        'C m c 21'
_symmetry_space_group_name_Hall  'C 2c -2'
_symmetry_space_group_name_H-M   'C m c 21'
_audit_creation_method           SHELXL-2014
_cell_angle_alpha                90
_cell_angle_beta                 90
_cell_angle_gamma                90
_cell_formula_units_Z            4
_cell_length_a                   6.3278(15)
_cell_length_b                   7.8999(19)
_cell_length_c                   15.744(4)
_cell_measurement_reflns_used    361
_cell_measurement_temperature    296(2)
_cell_measurement_theta_max      30
_cell_measurement_theta_min      1.5
_cell_volume                     787.0(3)
_computing_cell_refinement       'SMART, 'Bruker APEX II'
_computing_data_collection       'Bruker Kappa APEX II'
_computing_data_reduction        'SAINT, 'Bruker APEX II'
_computing_molecular_graphics    Mercury
_computing_structure_refinement  'SHELXL-2014 (Sheldrick, 2014)'
_computing_structure_solution    'SHELXL-2014 (Sheldrick, 2014)'
_diffrn_ambient_temperature      296(2)
_diffrn_measured_fraction_theta_full 0.995
_diffrn_measured_fraction_theta_max 0.996
_diffrn_measurement_device_type  'BRUKER SMART APEX II'
_diffrn_measurement_method       'Omega scan'
_diffrn_radiation_monochromator  graphite
_diffrn_radiation_source         'fine-focus sealed tube'
_diffrn_radiation_type           MoK\a
_diffrn_radiation_wavelength     0.71073
_diffrn_reflns_av_R_equivalents  0.0431
_diffrn_reflns_av_unetI/netI     0.0464
_diffrn_reflns_Laue_measured_fraction_full 0.995
_diffrn_reflns_Laue_measured_fraction_max 0.996
_diffrn_reflns_limit_h_max       8
_diffrn_reflns_limit_h_min       -6
_diffrn_reflns_limit_k_max       8
_diffrn_reflns_limit_k_min       -10
_diffrn_reflns_limit_l_max       19
_diffrn_reflns_limit_l_min       -20
_diffrn_reflns_number            2408
_diffrn_reflns_point_group_measured_fraction_full 0.996
_diffrn_reflns_point_group_measured_fraction_max 0.997
_diffrn_reflns_theta_full        25.242
_diffrn_reflns_theta_max         27.985
_diffrn_reflns_theta_min         4.126
_diffrn_standards_decay_%        0
_diffrn_standards_interval_time  3
_diffrn_standards_number         3
_exptl_absorpt_coefficient_mu    1.170
_exptl_absorpt_correction_T_max  0.7460
_exptl_absorpt_correction_T_min  0.5745
_exptl_absorpt_correction_type   multi-scan
_exptl_absorpt_process_details   SADABS
_exptl_crystal_colour            'dark red'
_exptl_crystal_density_diffrn    2.197
_exptl_crystal_description       Plate
_exptl_crystal_F_000             520
_exptl_crystal_size_max          0.100
_exptl_crystal_size_mid          0.080
_exptl_crystal_size_min          0.016
_refine_diff_density_max         0.422
_refine_diff_density_min         -0.302
_refine_diff_density_rms         0.088
_refine_ls_abs_structure_details
;
 Refined as an inversion twin.
;
_refine_ls_abs_structure_Flack   0.4(3)
_refine_ls_extinction_expression Fc^*^=kFc[1+0.001xFc^2^\l^3^/sin(2\q)]^-1/4^
_refine_ls_goodness_of_fit_ref   1.181
_refine_ls_hydrogen_treatment    undef
_refine_ls_matrix_type           full
_refine_ls_number_parameters     87
_refine_ls_number_reflns         991
_refine_ls_number_restraints     1
_refine_ls_restrained_S_all      1.180
_refine_ls_R_factor_all          0.0368
_refine_ls_R_factor_gt           0.0330
_refine_ls_shift/su_max          0.000
_refine_ls_shift/su_mean         0.000
_refine_ls_structure_factor_coef Fsqd
_refine_ls_weighting_details
'w=1/[\s^2^(Fo^2^)+(0.0249P)^2^+2.1466P] where P=(Fo^2^+2Fc^2^)/3'
_refine_ls_weighting_scheme      calc
_refine_ls_wR_factor_gt          0.0758
_refine_ls_wR_factor_ref         0.0952
_reflns_Friedel_coverage         0.930
_reflns_Friedel_fraction_full    0.997
_reflns_Friedel_fraction_max     0.998
_reflns_number_gt                935
_reflns_number_total             991
_reflns_threshold_expression     'I > 2\s(I)'
_cod_data_source_file            ja6b12814_si_003.cif
_cod_data_source_block           c6n2o2s4_0m
_cod_database_code               4125781
_shelx_space_group_comment
;
The symmetry employed for this shelxl refinement is uniquely defined
by the following loop, which should always be used as a source of
symmetry information in preference to the above space-group names.
They are only intended as comments.
;
_shelx_estimated_absorpt_t_min   0.892
_shelx_estimated_absorpt_t_max   0.982
_shelxl_version_number           2014-3
_shelx_res_file
;
TITL C6N2O2S4_0m in Cmc2(1)
CELL 0.71073   6.3278   7.8999  15.7443  90.000  90.000  90.000
ZERR    4.00   0.0015   0.0019   0.0037   0.000   0.000   0.000
LATT -7
SYMM -X, -Y, 0.5+Z
SYMM X, -Y, 0.5+Z
SYMM -X, Y, Z
SFAC C  N  O  S
UNIT 24  8  8  16
OMIT -3 56
L.S. 10
ACTA
BOND $H
FMAP 2
PLAN 2
SIZE 0.016 0.080 0.100
TWIN
TEMP 23.000
WGHT    0.024900    2.146600
BASF   0.43505
FVAR       0.28798
S1    4    1.000000    0.375076    0.387329    10.50000    0.03801    0.02410 =
         0.02112    0.00713    0.00000    0.00000
S2    4    1.000000    0.631008    0.419333    10.50000    0.03608    0.02879 =
         0.01431    0.00073    0.00000    0.00000
S3    4    1.000000    1.012226    0.040287    10.50000    0.04695    0.02745 =
         0.01831    0.00530    0.00000    0.00000
S4    4    1.000000    1.098326    0.165661    10.50000    0.02996    0.01782 =
         0.02398    0.00127    0.00000    0.00000
N1    2    1.000000    0.397417    0.285758    10.50000    0.02941    0.02107 =
         0.02538    0.00183    0.00000    0.00000
N2    2    1.000000    0.809032    0.057946    10.50000    0.04705    0.02318 =
         0.01851    0.00204    0.00000    0.00000
O1    3    1.000000    0.468923    0.111006    10.50000    0.04232    0.02522 =
         0.02090   -0.00923    0.00000    0.00000
O2    3    1.000000    0.983899    0.346052    10.50000    0.04180    0.02424 =
         0.01968   -0.00588    0.00000    0.00000
C6    1    1.000000    0.581297    0.163935    10.50000    0.02347    0.02461 =
         0.01596   -0.00398    0.00000    0.00000
C5    1    1.000000    0.766584    0.139267    10.50000    0.01734    0.02215 =
         0.01270   -0.00405    0.00000    0.00000
C4    1    1.000000    0.893339    0.203619    10.50000    0.02616    0.01907 =
         0.01989    0.00051    0.00000    0.00000
C3    1    1.000000    0.867546    0.292315    10.50000    0.02109    0.01952 =
         0.01949   -0.00053    0.00000    0.00000
C2    1    1.000000    0.689528    0.314623    10.50000    0.01863    0.02263 =
         0.01247    0.00279    0.00000    0.00000
C1    1    1.000000    0.552923    0.256367    10.50000    0.02690    0.02032 =
         0.01520   -0.00171    0.00000    0.00000
HKLF 4

REM  C6N2O2S4_0m in Cmc2(1)
REM R1 =  0.0330 for     935 Fo > 4sig(Fo)  and  0.0368 for all     991 data
REM     87 parameters refined using      1 restraints

END

WGHT      0.0249      2.1473

REM Highest difference peak  0.422,  deepest hole -0.302,  1-sigma level  0.088
Q1    1   0.7435  0.7475  0.0390  11.00000  0.05    0.42
Q2    1   1.1064  0.9015  0.0476  11.00000  0.05    0.41
;
_shelx_res_checksum              35714
_shelx_hkl_file
;
   2   0   0 9999.99  316.25   1
   4   0   0 3237.83  103.45   1
   6   0   0 949.167  34.146   1
   8   0   0 301.169  14.634   1
   1  -1   0 -0.2809  0.4557   1
   1   1   0 0.37215 0.25672   1
   3  -1   0 -0.4380  0.3110   1
   3   1   0 0.19242 0.36551   1
   5  -1   0 0.39629 0.62475   1
   5   1   0 0.31926 0.54778   1
   7  -1   0 -0.7258  0.6417   1
   7   1   0 1.62151 0.56608   1
   0  -2   0 781.184  25.326   1
   2  -2   0 472.970  16.902   1
   2  -2   0 465.367  16.498   2
   2   2   0 494.857  16.159   1
   4  -2   0 166.244   8.004   1
   4   2   0 151.706   7.050   1
   6  -2   0 42.0816  4.2859   1
   6   2   0 51.3747  3.8067   1
   8  -2   0 10.2745  2.2326   1
   1  -3   0 335.396  12.349   1
  -1  -3   0 331.624  11.866   1
   3  -3   0 176.699   6.901   2
   3  -3   0 183.678   8.525   1
   5  -3   0 72.8141  5.5809   1
   5   3   0 67.2367  4.3517   1
   7  -3   0 20.6969  3.8955   1
   7   3   0 17.6300  3.0320   1
   0  -4   0 282.194  10.816   1
  -2  -4   0 229.198   9.157   1
   2  -4   0 228.539   9.414   2
   2  -4   0 226.624   9.870   1
   6  -4   0 63.7453  5.8132   1
   6   4   0 68.9657  4.6442   1
   8  -4   0 20.4592  4.2304   1
  -1  -5   0 167.409   7.481   1
   1  -5   0 166.473   7.923   2
   1  -5   0 164.659   7.913   1
   3  -5   0 95.6728  6.2455   1
  -3  -5   0 93.2712  5.1577   1
   3  -5   0 99.2455  5.0667   2
   5  -5   0 28.2670  4.5355   1
   7  -5   0 4.65482 1.67317   1
   0  -6   0 0.82298 0.80519   1
   2  -6   0 1.55044 0.64570   2
  -2  -6   0 -0.5202  0.5127   1
   2  -6   0 -0.5927  0.8678   1
   4  -6   0 0.54411 1.45066   1
  -6  -6   0 2.18099 0.97097   2
   6  -6   0 0.93402 1.03173   1
   1  -7   0 5.11612 1.70256   1
  -1  -7   0 6.76434 1.71096   1
   1  -7   0 8.79906 1.86637   2
   3  -7   0 5.55260 1.98839   1
  -5  -7   0 2.64406 1.20455   2
   5  -7   0 1.10035 1.26188   1
   0  -8   0 232.733  10.997   1
   0  -8   0 224.660  12.118   2
   2  -8   0 169.570   9.462   1
  -2  -8   0 178.201  10.449   2
   2  -8   0 172.020   9.412   2
   4  -8   0 89.0768  6.9566   1
  -4  -8   0 93.5467  7.2590   2
   6  -8   0 31.3062  4.7458   1
  -6  -8   0 35.7964  3.7336   2
   1  -9   0 28.5531  4.2254   2
   1  -9   0 33.1076  4.4609   1
  -1  -9   0 27.6596  4.3664   2
   3  -9   0 15.9342  3.0707   1
  -3  -9   0 19.5945  3.9120   2
  -5  -9   0 11.7706  2.2794   2
   5  -9   0 14.1518  2.8805   1
   0 -10   0 55.2631  5.4765   2
  -2 -10   0 50.4163  5.3695   2
   2 -10   0 39.9185  3.9472   1
  -1 -11   0 55.9519  5.7130   2
   1 -11   0 50.8976  5.0032   2
   8   0  -1 -0.4647  0.7226   1
   6   0  -1 0.72937 0.78020   1
   4   0  -1 0.12883 0.48528   1
   2   0  -1 0.73243 0.65283   1
   2   0  -1 -0.2381  0.4136   2
   2   0   1 -0.1883  0.5065   1
   4   0   1 0.44387 0.41504   1
   6   0   1 1.52793 0.66415   1
   8   0   1 -0.3553  0.7863   1
   7  -1  -1 -0.7568  0.7656   1
   7   1  -1 -0.0793  0.7186   1
   5  -1  -1 4.82375 1.49984   1
   5   1  -1 5.43618 1.40626   1
   3  -1  -1 21.4726  2.0694   1
   3   1  -1 19.4133  1.7870   1
   3   1  -1 16.5171  1.4778   2
   1  -1  -1 74.5095  3.5116   1
   1   1  -1 86.4691  3.6945   2
   1   1  -1 80.1295  3.3939   1
  -1  -1  -1 88.5931  3.7201   2
   1  -1   1 80.3150  3.7305   1
   3  -1   1 18.0096  2.2330   1
   3   1   1 19.1575  1.6447   1
   5  -1   1 2.07268 1.00105   1
   5   1   1 3.07696 0.93924   1
   7  -1   1 1.63276 0.89538   1
   7   1   1 2.02001 0.71077   1
   8  -2  -1 1.14747 1.00534   1
   8   2  -1 1.03055 0.76225   1
   6  -2  -1 6.81118 2.11644   1
   6   2  -1 3.96588 1.07590   1
   4  -2  -1 7.35245 1.80825   1
   4   2  -1 8.15118 1.55348   1
   2  -2  -1 11.0508  1.1176   2
   2  -2  -1 9.38815 1.56481   1
   2   2  -1 10.4382  1.3789   1
   2   2  -1 10.2468  1.5007   2
   0  -2  -1 13.3966  1.3131   1
   0  -2   1 15.3332  1.6512   1
   0  -2  -1 12.9474  1.5642   2
   0   2  -1 12.3117  1.5102   2
   2  -2   1 9.03081 1.55571   1
   2   2   1 7.66235 1.03437   1
   4  -2   1 8.70421 1.86666   1
  -4  -2  -1 4.99283 0.99509   2
   4   2   1 7.68676 1.34830   1
   6  -2   1 4.01040 1.63499   1
   6   2   1 3.51361 1.19165   1
   8  -2   1 1.56644 0.78525   1
   7  -3  -1 11.6764  2.7869   1
   7   3  -1 22.2532  3.4504   1
   5  -3  -1 51.7135  4.5114   1
   5   3  -1 46.7730  3.5583   1
   3  -3  -1 114.466   6.547   1
   3  -3  -1 128.784   5.369   2
   3   3  -1 133.493   5.821   1
   1  -3  -1 259.224   9.949   1
  -1  -3   1 254.820   9.715   1
   1  -3  -1 261.487  10.265   2
   1   3  -1 256.695  10.661   2
  -1  -3  -1 247.573   9.036   1
   1  -3   1 255.847   9.911   1
   3  -3   1 121.181   4.959   2
   3  -3   1 131.271   6.599   1
   3   3   1 126.047   5.398   1
   5  -3   1 52.2437  4.3804   1
  -5  -3  -1 42.0123  3.3027   2
   7  -3   1 15.7621  3.3511   1
   8  -4  -1 3.79924 1.77502   1
   6  -4  -1 22.3536  3.9581   1
   6   4  -1 19.4003  2.9956   1
   4  -4  -1 60.2489  5.1540   1
   4   4  -1 69.7438  4.0288   1
  -2  -4   1 124.045   6.039   1
   2  -4  -1 127.651   5.963   2
   2  -4  -1 129.504   6.551   1
   0  -4  -1 183.159   8.273   2
   0  -4   1 181.291   7.807   1
   0  -4  -1 178.906   7.472   1
   2  -4   1 132.507   6.791   1
  -2  -4  -1 122.650   5.516   1
   4  -4   1 67.3940  5.0607   1
   4   4   1 74.7246  3.9871   1
   6  -4   1 24.5928  4.2337   1
   8  -4   1 3.52076 1.48435   1
   7  -5  -1 -0.3565  0.8403   1
   5  -5  -1 2.30192 1.56793   1
   5   5  -1 3.68539 0.93790   1
   3  -5  -1 7.70418 1.30092   2
   3  -5  -1 5.88438 1.97057   1
  -3  -5   1 5.69154 1.44472   1
  -1  -5   1 10.8711  1.9299   1
   1  -5  -1 9.06652 1.88391   1
   1  -5  -1 10.7740  1.9116   2
  -1  -5  -1 10.5065  1.6289   1
   1  -5   1 12.2764  2.2046   1
  -3  -5  -1 7.40544 1.31735   1
   3  -5   1 3.84598 1.76133   1
   3  -5   1 3.85190 0.85990   2
   5  -5   1 2.39488 1.34086   1
  -5  -5  -1 1.73223 0.89248   2
   7  -5   1 1.55778 0.99264   1
  -6  -6   1 4.73616 1.47467   2
   6  -6  -1 4.18132 1.75106   1
  -4  -6   1 5.83156 1.41123   1
   4  -6  -1 6.71813 2.28781   1
   2  -6  -1 13.5593  2.1137   2
  -2  -6   1 11.7500  2.1933   1
   2  -6  -1 9.85061 2.34534   1
   0  -6  -1 9.06549 2.01505   2
   0  -6  -1 11.3897  2.0340   1
   0  -6   1 10.0108  2.0996   1
   2  -6   1 7.40757 2.07084   1
  -2  -6  -1 9.85398 1.68599   1
  -2  -6  -1 7.81296 2.16802   2
   2  -6   1 11.6473  1.9258   2
  -4  -6  -1 7.56828 2.07746   2
   4  -6   1 7.91120 2.52697   1
  -6  -6  -1 6.89572 1.34230   2
   6  -6   1 3.19606 1.43231   1
  -5  -7   1 15.2439  3.0679   2
   5  -7  -1 16.5809  3.6526   1
  -3  -7   1 43.2129  3.6966   1
   3  -7  -1 39.5730  5.1293   1
  -1  -7   1 55.9711  4.2733   1
   1  -7  -1 61.3157  4.7001   2
   1  -7  -1 49.9820  4.2573   1
  -1  -7  -1 53.9513  3.8617   1
  -1  -7  -1 51.3068  4.8234   2
   1  -7   1 51.2437  4.1142   2
   1  -7   1 56.6497  4.7115   1
  -3  -7  -1 29.0185  4.4925   2
   3  -7   1 31.7061  4.5584   1
  -5  -7  -1 14.9208  2.9950   2
   5  -7   1 15.5542  3.3621   1
   6  -8  -1 5.03771 1.34369   1
  -6  -8   1 1.92098 0.85409   2
  -4  -8   1 4.15424 1.88906   2
   4  -8  -1 6.88273 2.18785   1
   2  -8  -1 9.55739 2.13513   2
  -2  -8   1 9.10752 2.06806   1
   2  -8  -1 11.8437  2.5126   1
   0  -8  -1 9.09193 2.44620   2
   0  -8  -1 12.8080  2.3885   1
   0  -8   1 13.0469  2.6643   1
   0  -8   1 11.8649  2.7502   2
   2  -8   1 9.71055 2.59108   1
   2  -8   1 10.3169  2.0390   2
  -2  -8  -1 10.0371  2.5837   2
  -4  -8  -1 6.99435 2.03469   2
   4  -8   1 4.70288 1.73195   1
   6  -8   1 1.72117 1.21887   1
  -6  -8  -1 5.51461 1.50001   2
   5  -9  -1 6.25632 1.96468   1
  -5  -9   1 2.48218 1.00358   2
   3  -9  -1 9.18316 2.53419   1
  -3  -9   1 7.65161 2.24004   2
   1  -9  -1 18.4820  3.1693   1
   1  -9  -1 18.7388  3.3703   2
  -1  -9   1 22.1211  3.4798   1
  -1  -9   1 14.1974  3.1196   2
  -1  -9  -1 16.7728  3.4369   2
   1  -9   1 19.9551  3.5106   1
   1  -9   1 20.3920  3.4569   2
  -3  -9  -1 11.1923  2.7811   2
   3  -9   1 13.3259  3.0560   1
   5  -9   1 6.31335 1.89779   1
  -5  -9  -1 4.02665 1.44851   2
  -2 -10   1 25.8270  4.5923   2
   2 -10  -1 26.5399  4.1233   1
   0 -10   1 26.8785  3.9327   1
   0 -10  -1 26.9456  4.3161   2
   0 -10   1 26.1896  4.3350   2
   2 -10   1 20.2243  3.5601   1
  -2 -10  -1 25.1762  4.5423   2
   1 -11  -1 10.5369  2.4384   2
  -1 -11   1 10.5455  2.2361   2
   1 -11   1 12.6897  2.2896   1
  -1 -11  -1 10.1462  2.5159   2
   1 -11   1 6.64943 1.73666   2
   8   0  -2 2.44685 1.00255   1
   6   0  -2 4.71033 1.50176   1
   4   0  -2 10.8263  1.0327   2
   4   0  -2 12.1945  2.1094   1
   2   0  -2 45.8355  2.8751   1
   2   0  -2 45.0146  2.4495   2
   2   0   2 47.1373  2.5543   1
   4   0   2 10.1868  1.6630   1
  -4   0  -2 8.21362 0.71132   2
   6   0   2 5.06582 1.29389   1
   8   0   2 3.14976 0.90788   1
   7  -1  -2 46.5106  4.6062   1
   7   1  -2 43.3936  4.0942   1
   5  -1  -2 129.706   7.333   1
   5   1  -2 130.818   7.004   1
   3  -1  -2 255.576  10.020   1
   3  -1  -2 240.552   9.046   2
   3   1  -2 240.829   9.649   2
   3   1  -2 250.846   9.770   1
   1  -1  -2 641.930  22.308   1
   1   1  -2 702.191  22.333   1
   1   1  -2 706.943  23.718   2
   1  -1   2 658.114  22.668   1
  -1  -1  -2 727.743  23.994   2
  -3  -1  -2 264.681  10.288   2
   3  -1   2 276.058  10.614   1
   5  -1   2 128.887   6.873   1
   5   1   2 118.534   6.340   1
   7  -1   2 38.7548  3.8122   1
   7   1   2 39.0970  3.6154   1
   8  -2  -2 1.64311 0.82792   1
   8   2  -2 0.38479 0.72521   1
   6  -2  -2 8.65375 2.31381   1
   6   2  -2 5.33767 1.62909   1
   4  -2  -2 26.0521  3.3298   1
   4   2  -2 23.0119  2.2279   1
   2  -2  -2 43.6164  3.0759   1
   2  -2  -2 48.3434  2.6600   2
   2   2  -2 53.8113  3.1612   2
   2   2  -2 47.5012  2.8654   1
   0  -2  -2 69.0741  3.7572   2
   0  -2   2 72.1219  3.6318   1
   0  -2  -2 77.2573  3.1660   1
   0   2  -2 69.2363  3.7071   2
  -2  -2  -2 59.2745  3.3694   2
   2  -2   2 53.9423  3.4389   1
   2   2   2 52.1532  2.4307   1
  -2   2  -2 49.0019  2.3931   2
   4  -2   2 24.2904  2.5133   1
  -4  -2  -2 19.1187  1.8242   2
   4   2   2 25.9996  1.9382   1
   6  -2   2 10.4435  2.4316   1
   6   2   2 7.43566 1.43299   1
   8  -2   2 1.13798 0.84317   1
   7  -3  -2 52.8491  5.3141   1
   7   3  -2 65.9373  5.1117   1
   5  -3  -2 169.437   9.301   1
   5   3  -2 179.717   8.652   1
   3  -3  -2 458.012  17.310   2
   3  -3  -2 484.038  18.132   1
   3   3  -2 492.109  18.437   2
   3   3  -2 483.953  17.178   1
   1  -3  -2 980.418  32.572   1
  -1  -3   2 979.810  32.734   1
   1  -3  -2 983.803  34.515   2
   1   3  -2 1007.58   35.02   2
   1  -3   2 956.077  32.421   1
  -1  -3  -2 963.314  34.426   2
  -1  -3  -2 957.134  31.263   1
  -1   3  -2 1016.30   34.00   2
   3  -3   2 463.740  17.975   1
  -3  -3  -2 526.523  18.725   2
   3  -3   2 461.822  16.734   2
   3   3   2 476.365  16.448   1
  -5  -3  -2 173.031   8.472   2
   5  -3   2 177.215   9.377   1
   5   3   2 178.181   8.114   1
   7  -3   2 62.3541  5.6311   1
   8  -4  -2 12.8677  2.8325   1
   6  -4  -2 64.3859  5.6537   1
   6   4  -2 52.4730  4.2640   1
   4  -4  -2 150.459   8.439   1
   4   4  -2 157.454   7.306   1
   2  -4  -2 320.532  12.733   1
  -2  -4   2 312.205  12.399   1
   2  -4  -2 324.668  12.676   2
   2   4  -2 304.108  13.257   2
   0  -4   2 448.849  16.639   1
   0  -4  -2 446.096  15.911   1
   0  -4  -2 455.987  17.694   2
   0   4  -2 460.592  17.712   2
  -2  -4  -2 300.016  10.756   1
  -2  -4  -2 281.948  12.600   2
   2  -4   2 304.229  12.248   1
  -4  -4  -2 167.072   8.460   2
   4  -4   2 152.805   8.486   1
   4   4   2 162.932   6.900   1
   6  -4   2 50.7073  5.0695   1
   8  -4   2 10.9097  2.6737   1
   7  -5  -2 38.7287  5.6044   1
   5  -5  -2 116.048   8.132   1
   5   5  -2 129.010   6.783   1
  -3  -5   2 256.842  11.237   1
   3  -5  -2 248.397  11.723   1
   3  -5  -2 263.825  11.036   2
   1  -5  -2 392.618  16.276   2
  -1  -5   2 413.129  15.823   1
   1  -5  -2 402.483  15.387   1
  -1  -5  -2 389.106  15.981   2
   1  -5   2 374.404  14.908   1
  -1  -5  -2 370.379  13.697   1
   3  -5   2 234.318   9.736   2
  -3  -5  -2 248.880   9.520   1
   3  -5   2 241.814  11.210   1
  -3  -5  -2 216.646  11.178   2
  -5  -5  -2 131.723   7.778   2
   5  -5   2 120.020   7.992   1
   7  -5   2 40.5752  5.9135   1
   6  -6  -2 45.4192  6.1834   1
   4  -6  -2 94.4859  7.0634   1
  -4  -6   2 107.911   6.494   1
   2  -6  -2 174.529   8.917   2
  -2  -6   2 187.680   8.927   1
   2  -6  -2 183.978   9.216   1
   0  -6   2 220.782  10.330   1
   0  -6  -2 227.896  11.055   2
   0  -6  -2 219.819   9.531   1
  -2  -6  -2 158.271   9.252   2
  -2  -6  -2 174.593   7.502   1
   2  -6   2 173.426   8.972   1
   4  -6   2 98.8619  7.0052   1
  -4  -6  -2 97.1615  6.8408   2
  -6  -6  -2 55.4708  4.6402   2
   6  -6   2 42.9021  5.9671   1
   5  -7  -2 4.68621 1.62567   1
  -3  -7   2 24.6545  3.4875   1
   3  -7  -2 11.9699  2.8679   1
  -1  -7   2 32.2543  4.0867   1
   1  -7  -2 26.3399  2.9316   2
   1  -7  -2 28.9860  3.7686   1
  -1  -7  -2 30.0531  2.5239   1
   1  -7   2 28.1905  4.0720   1
  -1  -7  -2 23.7496  3.9534   2
   3  -7   2 16.8728  3.3042   1
  -3  -7  -2 22.4992  3.9474   2
  -5  -7  -2 6.09278 1.89152   2
   5  -7   2 8.41442 2.45351   1
  -6  -8   2 10.7124  2.0863   2
   6  -8  -2 14.4700  2.9475   1
   4  -8  -2 32.9801  5.0641   1
  -2  -8   2 55.3940  4.5511   1
   2  -8  -2 51.5309  4.4662   1
   2  -8  -2 51.7332  4.5094   2
   0  -8  -2 63.7843  4.5780   1
   0  -8   2 66.2447  5.2033   1
   0  -8  -2 67.6067  5.7651   2
  -2  -8  -2 47.8085  5.0465   2
   2  -8   2 54.9907  5.1335   1
   2  -8   2 44.4875  3.9394   2
   4  -8   2 30.5648  4.6888   1
  -4  -8  -2 26.1149  4.4298   2
  -6  -8  -2 8.88372 1.85819   2
   6  -8   2 8.66624 2.29007   1
  -5  -9   2 28.5936  4.5302   2
   5  -9  -2 38.1915  3.9087   1
   3  -9  -2 61.0394  5.2850   1
   1  -9  -2 97.4861  6.3621   1
   1  -9  -2 90.2738  6.8608   2
  -1  -9   2 103.791   6.767   1
   1  -9   2 93.2109  6.7427   2
   1  -9   2 81.7072  6.2424   1
  -1  -9  -2 90.6505  7.2225   2
   3  -9   2 63.7671  5.6457   1
  -3  -9  -2 67.2023  6.2757   2
   5  -9   2 28.5553  4.5482   1
  -5  -9  -2 21.4187  3.6035   2
   2 -10  -2 17.2294  2.6817   2
   2 -10  -2 16.5755  2.8347   1
  -2 -10   2 14.4263  3.3444   2
   0 -10   2 23.4317  3.8491   1
   0 -10   2 18.8157  3.4960   2
   0 -10  -2 21.1125  3.8432   2
   2 -10   2 10.3911  2.4269   1
  -2 -10  -2 16.9122  3.7527   2
  -1 -11   2 5.84390 1.30216   2
   1 -11  -2 5.31594 1.70521   2
   1 -11   2 6.87962 1.43739   1
  -1 -11  -2 5.66557 1.65049   2
   1 -11   2 5.21280 1.36114   2
   8   0  -3 0.19009 0.69193   1
   6   0  -3 0.62959 0.89559   1
   4   0  -3 0.04891 0.25411   2
   4   0  -3 0.20081 0.44869   1
   2   0  -3 -0.2280  0.1167   2
   2   0  -3 -0.0694  0.5070   1
   0   0  -3 -0.1072  0.3357   1
   0   0  -3 -0.2726  0.5205   2
   2   0   3 -0.0351  0.2209   1
  -2   0  -3 0.30352 0.35202   2
   4   0   3 0.90267 0.37385   1
  -4   0  -3 0.11568 0.19244   2
   6   0   3 -0.3407  0.4168   1
   8   0   3 1.80700 0.74122   1
   7  -1  -3 -0.1584  0.8720   1
   7   1  -3 0.18279 0.78456   1
   5  -1  -3 0.44147 0.51940   1
   5   1  -3 0.26072 0.42081   2
   5   1  -3 0.74935 0.61390   1
   3  -1  -3 5.06627 1.25836   1
   3  -1  -3 2.38085 0.56736   2
   3   1  -3 4.27953 1.05361   1
   1  -1  -3 12.9295  1.5052   1
   1  -1  -3 12.2577  1.5132   2
   1   1  -3 15.1672  1.7050   2
   1   1  -3 14.4403  1.5646   1
   1  -1   3 14.6843  1.6019   1
  -1  -1  -3 13.3857  1.5633   2
  -1   1  -3 11.8387  1.2911   2
   3  -1   3 4.50603 1.11890   1
  -3  -1  -3 2.65350 0.60082   2
   3   1   3 5.88044 1.02262   1
   5  -1   3 2.82360 0.82731   1
   5   1   3 -0.3651  0.3441   1
   7  -1   3 1.62119 0.72606   1
   7   1   3 1.14662 0.58680   1
   8  -2  -3 15.8824  3.3057   1
   8   2  -3 20.0735  3.7004   1
   6  -2  -3 53.9706  4.9187   1
   6   2  -3 53.8980  4.4717   1
   4  -2  -3 139.725   5.839   2
   4  -2  -3 146.052   7.495   1
   4   2  -3 144.048   7.050   1
   4   2  -3 138.375   6.778   2
   2  -2  -3 364.914  13.829   1
   2  -2  -3 357.773  13.906   2
   2   2  -3 393.150  14.436   2
   2   2  -3 388.167  13.570   1
   0  -2   3 580.037  19.438   1
   0  -2  -3 552.104  20.504   2
   0  -2  -3 570.267  18.490   1
   0   2  -3 577.768  20.472   2
  -2  -2  -3 432.540  15.099   2
   2  -2   3 384.266  14.368   1
  -2   2  -3 377.727  14.003   2
   2   2   3 382.038  12.882   1
  -4  -2  -3 140.485   6.856   2
   4  -2   3 161.100   7.626   1
   4   2   3 148.001   6.450   1
   6  -2   3 57.4241  4.8010   1
   6   2   3 59.4843  4.0183   1
   8  -2   3 17.7502  3.0760   1
   7  -3  -3 6.47695 2.12131   1
   5  -3  -3 16.7338  3.2813   1
   5   3  -3 22.8799  2.3708   1
   3  -3  -3 40.6060  3.6641   1
   3  -3  -3 46.4329  2.9230   2
   3   3  -3 58.7935  3.7638   2
   3   3  -3 52.0176  3.3091   1
   1  -3  -3 97.5165  5.0197   2
   1  -3  -3 101.729   4.760   1
  -1  -3   3 96.7240  4.9894   1
   1   3  -3 98.1252  5.2817   2
   1  -3   3 93.2624  4.9665   1
  -1  -3  -3 93.3903  3.7446   1
  -1  -3  -3 97.6783  5.2692   2
  -1   3  -3 101.140   4.909   2
   3  -3   3 53.8197  3.8202   1
  -3  -3  -3 52.0575  3.7903   2
   3   3   3 49.9174  2.5698   1
  -5  -3  -3 18.6900  1.9623   2
   5  -3   3 22.1837  3.5705   1
   5   3   3 17.3883  1.7770   1
   7  -3   3 5.12656 1.65356   1
   8  -4  -3 3.73865 1.31564   1
   6  -4  -3 9.40270 2.76945   1
   6   4  -3 12.1581  2.4871   1
   4  -4  -3 26.6835  3.9242   1
   4   4  -3 28.1878  2.4883   1
  -2  -4   3 50.1675  3.6069   1
   2  -4  -3 49.4909  3.7176   1
   2   4  -3 49.5226  3.7968   2
   0  -4  -3 67.0085  3.4916   1
   0  -4   3 64.9140  4.3200   1
   0  -4  -3 69.4464  4.3670   2
   0   4  -3 67.2112  4.4714   2
  -2  -4  -3 52.0294  2.6537   1
  -2  -4  -3 50.4274  4.1414   2
   2  -4   3 47.6548  4.0080   1
   4  -4   3 31.5331  3.2301   1
  -4  -4  -3 28.3948  3.0528   2
   6  -4   3 11.3291  2.7989   1
   8  -4   3 4.55933 1.16110   1
   7  -5  -3 3.00350 1.03948   1
   5  -5  -3 9.25898 2.91563   1
   5   5  -3 7.55974 1.55140   1
   3  -5  -3 19.0439  3.2597   1
   3  -5  -3 22.4245  2.1994   2
  -3  -5   3 21.7099  3.1665   1
   1  -5  -3 42.9603  3.4028   2
  -1  -5   3 38.1180  3.5723   1
   1  -5  -3 35.2440  2.9587   1
   1   5  -3 39.0923  3.8535   2
  -1  -5  -3 35.8524  3.3691   2
  -1  -5  -3 36.4165  2.3211   1
   1  -5   3 35.7848  3.5017   1
  -3  -5  -3 19.6231  3.2822   2
   3  -5   3 21.1498  3.4444   1
  -5  -5  -3 8.03050 1.89132   2
   5  -5   3 8.84851 2.42754   1
   7  -5   3 1.73204 0.97406   1
   6  -6  -3 39.4834  5.5546   1
  -4  -6   3 110.871   6.920   1
   4  -6  -3 106.881   7.518   1
   2  -6  -3 190.662   9.319   2
   2  -6  -3 178.692   9.133   1
  -2  -6   3 178.918   8.972   1
   0  -6   3 218.753  10.661   1
   0  -6  -3 240.880  11.441   2
   0  -6  -3 225.872   9.644   1
   2  -6   3 168.364   9.053   1
  -2  -6  -3 172.068   9.647   2
  -4  -6  -3 97.6224  6.9499   2
   4  -6   3 90.7243  6.8330   1
  -6  -6  -3 47.9359  4.2810   2
   6  -6   3 44.8498  4.7025   1
   5  -7  -3 0.74611 1.00424   1
  -3  -7   3 6.91080 1.69527   1
   3  -7  -3 6.19319 2.09641   1
   1  -7  -3 15.5874  2.6877   2
  -1  -7   3 16.0818  2.9411   1
   1  -7  -3 12.6797  2.3446   1
  -1  -7  -3 12.6646  2.8794   2
   1  -7   3 13.6887  2.9433   1
  -3  -7  -3 6.51951 2.36885   2
   3  -7   3 9.42783 2.62100   1
  -5  -7  -3 0.76813 0.95461   2
   5  -7   3 -0.0532  0.9070   1
   6  -8  -3 8.72324 1.93977   1
  -6  -8   3 8.24394 1.80680   2
   4  -8  -3 17.7157  3.6256   1
  -2  -8   3 37.6960  3.8425   1
   2  -8  -3 34.7150  3.6394   2
   2  -8  -3 38.7109  3.7698   1
   0  -8   3 46.3710  4.4103   1
   0  -8  -3 44.4259  4.5019   2
   0  -8  -3 44.3969  3.5327   1
   2  -8   3 36.7188  5.0980   1
   2  -8   3 38.2750  3.4724   2
  -2  -8  -3 31.0839  4.8717   2
   4  -8   3 18.6839  3.7294   1
  -4  -8  -3 19.2092  3.7112   2
  -6  -8  -3 8.75329 1.44994   2
   5  -9  -3 11.2186  2.2487   1
  -5  -9   3 5.57004 1.57734   2
   3  -9  -3 20.3829  3.5260   1
  -1  -9   3 30.1318  4.2695   1
   1  -9  -3 26.1949  4.3073   2
   1  -9  -3 29.1002  2.9163   1
   1  -9   3 26.2708  3.9842   2
  -1  -9  -3 27.9402  4.5972   2
   1  -9   3 33.0256  4.6645   1
  -3  -9  -3 16.3525  3.6148   2
   3  -9   3 19.6192  3.6886   1
  -5  -9  -3 6.43441 1.80021   2
   5  -9   3 11.0412  2.3120   1
   2 -10  -3 1.96569 0.83355   2
  -2 -10   3 2.19454 1.31841   2
   0 -10   3 2.10566 0.98821   2
   0 -10  -3 4.42188 1.54009   2
   0 -10   3 4.45702 1.23227   1
  -2 -10  -3 1.36173 1.22377   2
   2 -10   3 1.97635 0.71496   1
   8   0  -4 12.8780  2.8257   1
   6   0  -4 65.6972  5.2595   1
   4   0  -4 165.933   7.994   1
   4   0  -4 160.556   7.079   2
   2   0  -4 377.146  14.342   2
   2   0  -4 407.710  14.171   1
   0   0  -4 834.229  28.382   1
   0   0  -4 947.979  30.928   2
  -2   0  -4 444.147  16.118   2
   2   0   4 452.796  15.203   1
  -4   0  -4 159.326   6.558   2
   4   0   4 171.645   7.392   1
   6   0   4 69.7378  4.8052   1
   7  -1  -4 6.60897 2.02573   1
   7   1  -4 11.5716  2.7700   1
   5  -1  -4 49.2281  4.1291   1
   5   1  -4 50.1441  3.3272   2
   5   1  -4 50.7110  3.9875   1
   3  -1  -4 140.880   6.693   1
   3  -1  -4 135.059   5.891   2
   3   1  -4 128.405   6.143   2
   1  -1  -4 342.363  13.325   2
   1  -1  -4 355.522  12.437   1
   1   1  -4 366.375  12.511   1
  -1  -1  -4 412.933  14.286   2
   1  -1   4 373.622  13.282   1
  -1   1  -4 357.655  13.933   2
   3  -1   4 154.914   6.874   1
  -3  -1  -4 146.615   6.692   2
  -3   1  -4 157.970   6.080   2
   3   1   4 161.213   6.260   1
   5  -1   4 61.4016  4.3102   1
   5   1   4 55.7607  3.6903   1
   7  -1   4 11.2763  2.1459   1
   8  -2  -4 0.15677 0.70001   1
   8   2  -4 2.64143 0.83664   1
   6  -2  -4 5.58984 1.98725   1
   6   2  -4 3.46543 1.32734   1
   4  -2  -4 11.1904  1.0917   2
   4  -2  -4 11.2412  2.5399   1
   4   2  -4 11.0760  2.0339   1
   4   2  -4 9.01260 1.62745   2
   2  -2  -4 32.3796  2.6635   1
   2   2  -4 37.4203  2.5524   1
   2   2  -4 37.4630  2.7240   2
   0  -2  -4 50.2003  3.3655   2
   0  -2  -4 53.5279  2.3561   1
   0  -2   4 51.9919  3.2330   1
   0   2  -4 51.6684  3.2891   2
   2  -2   4 35.8173  2.6616   1
  -2  -2  -4 38.7932  2.8109   2
  -2   2  -4 35.0081  2.2061   2
  -4  -2  -4 12.5355  1.3978   2
   4  -2   4 12.6666  2.1641   1
   4   2   4 12.5549  1.2647   1
   6  -2   4 5.76885 1.67104   1
   8  -2   4 -0.3010  0.7786   1
   7  -3  -4 -0.1370  0.9730   1
   7   3  -4 3.08669 0.84981   1
   5  -3  -4 10.9251  2.7516   1
   5   3  -4 11.4285  2.2325   1
   5   3  -4 11.7373  2.0835   2
   3  -3  -4 24.3115  1.9974   2
   3  -3  -4 20.5205  2.9963   1
   3   3  -4 29.7246  2.6113   2
   3   3  -4 25.1926  2.2747   1
   1  -3  -4 39.2395  2.6234   1
   1  -3  -4 41.4281  2.9932   2
  -1  -3   4 39.3184  3.0910   1
   1   3  -4 41.1529  3.1917   2
   1  -3   4 44.5473  3.1791   1
  -1  -3  -4 44.6107  3.4157   2
  -1   3  -4 41.8418  2.9353   2
   3  -3   4 21.4277  2.8822   1
  -3  -3  -4 29.2909  2.7995   2
   3   3   4 23.4267  1.4616   1
  -3   3  -4 22.5130  1.5720   2
  -5  -3  -4 6.80213 1.52928   2
   5  -3   4 10.6047  2.3659   1
   7  -3   4 4.05557 1.31566   1
   8  -4  -4 35.7746  5.6776   1
   8   4  -4 33.5990  3.5228   1
   6  -4  -4 116.762   8.241   1
   6   4  -4 109.186   7.083   1
   4  -4  -4 318.851  14.570   1
   4   4  -4 337.461  13.665   1
   4   4  -4 349.228  14.683   2
   2  -4  -4 618.679  22.683   2
   2  -4  -4 615.645  21.752   1
  -2  -4   4 581.089  21.716   1
   2   4  -4 589.763  23.184   2
   0  -4   4 858.439  29.358   1
   0  -4  -4 827.831  30.916   2
   0  -4  -4 839.037  27.835   1
   0   4  -4 840.622  30.825   2
  -2  -4  -4 589.637  23.618   2
   2  -4   4 622.092  22.585   1
  -2  -4  -4 616.444  20.211   1
  -2   4  -4 640.639  22.805   2
   4  -4   4 331.557  14.607   1
  -4  -4  -4 349.243  14.861   2
   6  -4   4 119.184   8.012   1
   8  -4   4 34.6828  3.5599   1
   7  -5  -4 5.29047 1.72717   1
   7   5  -4 5.21905 1.10671   1
   5  -5  -4 25.6877  4.2559   1
   5   5  -4 25.8219  3.5668   1
   3  -5  -4 56.0418  4.7757   1
  -3  -5   4 53.4032  4.4228   1
   3  -5  -4 56.0164  3.8184   2
   3   5  -4 52.5857  4.3441   2
   1  -5  -4 98.9740  5.3784   1
   1  -5  -4 107.784   6.233   2
  -1  -5   4 99.4246  6.0145   1
   1   5  -4 102.078   6.533   2
  -1  -5  -4 104.533   4.672   1
  -1  -5  -4 109.085   6.427   2
   1  -5   4 94.1668  5.9960   1
  -1   5  -4 98.9406  6.0075   2
   3  -5   4 59.6794  4.6853   1
  -3  -5  -4 62.1821  5.1807   2
  -5  -5  -4 24.3319  3.5745   2
   7  -5   4 5.52006 1.47015   1
  -6  -6   4 54.6399  4.5437   1
   6  -6  -4 48.9364  5.0907   1
  -4  -6   4 121.214   7.538   1
   4  -6  -4 116.563   7.890   1
  -2  -6   4 205.586  10.229   1
   2  -6  -4 218.528  10.156   1
   2  -6  -4 204.555  10.211   2
   0  -6  -4 241.500  11.928   2
   0  -6  -4 250.276  10.154   1
   0  -6   4 241.046  11.440   1
  -2  -6  -4 188.045  10.557   2
   2  -6   4 205.802  10.296   1
   4  -6   4 119.483   7.612   1
  -4  -6  -4 97.2678  7.1289   2
   6  -6   4 49.6328  5.1210   1
  -6  -6  -4 45.9988  4.3547   2
   5  -7  -4 86.0784  7.1597   1
  -5  -7   4 95.5502  6.6924   1
   3  -7  -4 187.191  10.099   1
  -3  -7   4 184.758   9.972   1
   1  -7  -4 271.146  13.397   2
   1  -7  -4 280.365  12.041   1
  -1  -7   4 270.389  12.901   1
  -1  -7  -4 250.997  12.894   2
   1  -7   4 250.288  12.226   1
   3  -7   4 171.999   9.904   1
  -3  -7  -4 160.618  10.031   2
   5  -7   4 77.4435  6.5630   1
  -5  -7  -4 82.4629  6.3770   2
   4  -8  -4 26.9690  4.2416   1
  -4  -8   4 28.7225  4.0885   1
  -2  -8   4 56.6385  4.8285   1
   2  -8  -4 41.6277  4.1071   2
   2  -8  -4 44.0948  4.0640   1
   0  -8  -4 54.1454  5.2382   2
   0  -8   4 52.1637  4.8199   1
   2  -8   4 40.2015  5.3704   1
  -2  -8  -4 40.8402  5.5439   2
   4  -8   4 24.7410  4.1554   1
  -4  -8  -4 26.6745  4.3579   2
  -3  -9   4 3.58772 1.30417   1
   3  -9  -4 0.04069 0.94498   1
   1  -9  -4 6.18486 1.81095   2
  -1  -9   4 7.66939 1.95856   1
  -1  -9  -4 6.61961 1.97264   2
   1  -9   4 7.81374 2.27539   1
  -3  -9  -4 2.87883 1.44237   2
   3  -9   4 4.57927 1.72425   1
  -5  -9  -4 1.88286 0.87436   2
   2 -10  -4 1.63426 0.98218   2
  -2 -10   4 -0.9014  0.7783   1
   0 -10   4 1.83912 0.72754   1
   0 -10  -4 0.33138 0.93680   2
  -2 -10  -4 1.77725 1.02314   2
   2 -10   4 0.02428 0.75189   1
   8   0  -5 -0.1681  0.8245   1
   6   0  -5 -0.2104  0.8535   1
   4   0  -5 -0.2372  0.3038   2
   4   0  -5 0.21626 0.45671   1
   2   0  -5 0.97689 0.54029   2
   2   0  -5 -0.4461  0.4682   1
   0   0  -5 0.42911 0.42846   1
   0   0  -5 -0.5333  0.6822   2
   2   0   5 0.48844 0.33121   1
  -2   0  -5 1.36620 0.47872   2
   4   0   5 0.10212 0.25822   1
  -4   0  -5 0.51976 0.25677   2
   6   0   5 1.10198 0.51966   1
   7  -1  -5 8.94658 2.42709   1
   7   1  -5 10.4033  2.6063   1
   5  -1  -5 34.8481  3.5848   1
   5   1  -5 34.0460  3.3105   1
   5   1  -5 33.7727  2.7233   2
   3  -1  -5 77.4452  4.2324   2
   3  -1  -5 85.6739  5.0215   1
   3   1  -5 80.5329  4.4968   2
   3   1  -5 83.1404  4.6843   1
   1  -1  -5 181.772   8.042   2
   1  -1  -5 176.998   7.246   1
   1   1  -5 190.597   7.475   1
   1   1  -5 198.894   8.121   2
   1  -1   5 195.763   7.804   1
  -1  -1  -5 208.786   8.528   2
  -1   1  -5 195.539   8.306   2
  -3  -1  -5 82.2370  4.4596   2
   3  -1   5 95.3867  4.7350   1
  -3   1  -5 88.2606  4.1414   2
   3   1   5 87.8062  3.9490   1
   5  -1   5 39.7901  3.2407   1
   5   1   5 36.8362  2.7628   1
   7  -1   5 12.5117  2.3484   1
   8  -2  -5 0.16983 0.75677   1
   8   2  -5 1.75447 0.88516   1
   6  -2  -5 5.23304 1.97341   1
   6   2  -5 7.96615 2.14426   1
   4  -2  -5 24.6290  2.0669   2
   4  -2  -5 29.0503  3.7857   1
   4   2  -5 27.0659  2.4641   2
   4   2  -5 26.4439  2.7321   1
   2  -2  -5 71.1132  4.2006   1
   2  -2  -5 71.9509  4.1793   2
   2   2  -5 80.7407  4.4275   2
   2   2  -5 75.7175  4.1382   1
   0  -2  -5 118.603   4.424   1
   0  -2   5 116.184   5.438   1
   0  -2  -5 102.856   5.590   2
   0   2  -5 115.603   5.730   2
  -2  -2  -5 85.5552  4.6710   2
   2  -2   5 77.5076  4.3219   1
  -2   2  -5 73.3671  3.9498   2
   4  -2   5 33.9347  3.0141   1
  -4  -2  -5 24.9581  2.3020   2
   4   2   5 28.5233  1.9216   1
   6  -2   5 7.08718 1.90831   1
   8  -2   5 2.43891 1.14370   1
   7  -3  -5 19.5235  3.8018   1
   7   3  -5 23.6116  4.0066   1
   5  -3  -5 48.7647  4.9967   1
   5   3  -5 49.8719  4.4096   1
   5   3  -5 53.4109  4.1073   2
   3  -3  -5 103.402   6.062   1
   3  -3  -5 103.247   5.434   2
   3   3  -5 109.550   5.695   1
   3   3  -5 109.543   6.033   2
   1  -3  -5 176.253   8.094   2
   1  -3  -5 174.828   7.234   1
  -1  -3   5 171.557   7.902   1
   1   3  -5 172.604   8.311   2
  -1  -3  -5 176.941   8.462   2
   1  -3   5 178.858   7.966   1
   3  -3   5 111.305   6.224   1
  -3  -3  -5 126.165   6.653   2
  -3   3  -5 106.265   5.026   2
   5  -3   5 52.8749  4.4768   1
  -5  -3  -5 51.6357  3.8867   2
   7  -3   5 16.8945  3.1850   1
   8  -4  -5 3.98280 1.14839   1
   8   4  -5 5.81983 2.10807   1
   6  -4  -5 6.73671 2.38931   1
   6   4  -5 3.41405 1.22668   1
   4  -4  -5 8.75858 2.50327   1
   4   4  -5 13.2365  2.2645   1
   4   4  -5 10.3985  2.1425   2
  -2  -4   5 28.8856  2.9989   1
   2  -4  -5 28.1987  2.8689   1
   2  -4  -5 31.3986  2.6654   2
   2   4  -5 25.8662  2.8034   2
   0  -4  -5 43.0180  3.4795   2
   0  -4   5 40.3683  3.7333   1
   0  -4  -5 38.6927  2.2973   1
   0   4  -5 37.4395  3.4784   2
  -2  -4  -5 27.1527  3.6644   2
   2  -4   5 30.4702  2.9896   1
  -2   4  -5 27.5727  2.3934   2
   4  -4   5 15.8305  2.7627   1
  -4  -4  -5 12.8281  2.5627   2
   6  -4   5 2.90733 1.38318   1
   8  -4   5 -0.7356  0.8694   1
   7  -5  -5 10.4149  2.6793   1
   7   5  -5 7.41682 1.73395   1
   5  -5  -5 27.8811  4.6391   1
   5   5  -5 36.9390  3.4655   1
  -3  -5   5 57.6458  4.8335   1
   3  -5  -5 66.8627  4.3789   2
   3  -5  -5 63.1780  5.0087   1
   3   5  -5 57.3201  4.7353   2
   1  -5  -5 100.197   6.152   2
  -1  -5   5 99.1862  6.1152   1
   1  -5  -5 107.913   5.406   1
   1   5  -5 100.043   6.656   2
  -1  -5  -5 106.191   4.641   1
   1  -5   5 108.339   6.621   1
  -1  -5  -5 109.818   6.791   2
  -1   5  -5 105.079   6.384   2
   3  -5   5 72.0408  5.1772   1
  -3  -5  -5 59.9459  5.2032   2
  -5  -5  -5 29.0813  4.0654   2
   5  -5   5 25.7359  4.0561   1
   7  -5   5 10.3163  2.4555   1
  -6  -6   5 1.27935 0.68456   1
   6  -6  -5 0.90142 1.01160   1
   4  -6  -5 2.64900 1.55456   1
  -4  -6   5 4.34902 1.57302   1
  -2  -6   5 7.15402 2.17883   1
   2  -6  -5 11.0702  2.0944   2
   2  -6  -5 10.9526  2.2453   1
   2   6  -5 9.01396 2.55637   2
   0  -6  -5 13.0406  1.9044   1
   0  -6  -5 11.8712  2.4659   2
   0  -6   5 14.5074  2.9369   1
   0   6  -5 13.2001  2.8781   2
  -2  -6  -5 11.1855  2.9147   2
   2  -6   5 11.6856  2.7754   1
   4  -6   5 6.52994 2.13690   1
  -4  -6  -5 5.86236 2.15487   2
  -6  -6  -5 3.46755 1.05656   2
   6  -6   5 4.21762 1.39906   1
   5  -7  -5 15.5794  3.4445   1
  -5  -7   5 12.5923  2.4487   1
   3  -7  -5 38.1387  3.9074   1
  -3  -7   5 34.3417  4.5818   1
   3  -7  -5 31.4886  4.0980   2
   1  -7  -5 64.0820  5.3447   2
  -1  -7   5 58.3103  5.2640   1
   1  -7  -5 61.0474  4.3119   1
   1  -7   5 59.3314  5.3436   1
  -1  -7  -5 56.4163  5.3707   2
  -3  -7  -5 35.6978  5.1039   2
   3  -7   5 34.9217  5.0511   1
   5  -7   5 12.2083  3.2453   1
  -5  -7  -5 16.3108  3.2834   2
  -4  -8   5 60.1113  5.2238   1
   4  -8  -5 66.2041  5.5513   1
  -2  -8   5 106.001   7.441   1
   2  -8  -5 104.279   7.233   2
   2  -8  -5 117.607   7.133   1
   0  -8  -5 113.774   8.249   2
   0  -8   5 127.286   8.078   1
  -2  -8  -5 93.5161  7.7370   2
   2  -8   5 109.474   7.684   1
  -4  -8  -5 52.0580  5.4327   2
   4  -8   5 51.9283  5.1413   1
  -3  -9   5 3.26632 0.82600   1
   3  -9  -5 1.89343 0.74157   1
  -1  -9   5 5.43834 1.88695   1
   1  -9  -5 4.18223 1.54733   2
   1  -9   5 5.31018 2.09812   1
  -1  -9  -5 6.25417 2.15820   2
  -3  -9  -5 6.10067 2.07781   2
   3  -9   5 3.21654 1.39412   1
   2 -10  -5 53.5930  5.0903   2
  -2 -10   5 54.5288  5.0757   1
   0 -10   5 64.3213  5.7437   1
   0 -10  -5 63.1958  6.3174   2
   2 -10   5 52.9946  5.2951   1
  -2 -10  -5 55.5322  5.9721   2
   8   0  -6 2.21595 0.99890   1
   6   0  -6 11.6116  2.8051   1
   4   0  -6 37.9484  2.8179   2
   4   0  -6 36.5784  3.2527   1
   2   0  -6 78.1828  4.3842   1
   2   0  -6 77.4470  4.3983   2
   0   0  -6 130.593   5.299   1
   0   0  -6 137.288   6.481   2
  -2   0  -6 80.9080  4.3930   2
   2   0   6 84.3574  3.8150   1
  -4   0  -6 33.0691  2.2700   2
   4   0   6 39.7316  2.6061   1
   6   0   6 0.47598 0.46418   1
   7  -1  -6 51.4116  4.9900   1
   7   1  -6 64.1045  5.4824   1
   5  -1  -6 198.892   9.998   1
   5   1  -6 186.728   9.687   1
   5   1  -6 189.068   9.053   2
   3  -1  -6 515.008  18.896   1
   3   1  -6 485.537  19.279   2
   3   1  -6 525.423  18.924   1
   1  -1  -6 1226.40   41.57   1
   1  -1  -6 1205.75   44.72   2
   1   1  -6 1294.18   41.81   1
   1   1  -6 1417.43   44.95   2
  -1  -1  -6 1353.91   45.71   2
   1  -1   6 1278.68   42.51   1
  -1   1  -6 1304.92   45.59   2
   3  -1   6 552.158  19.661   1
  -3  -1  -6 524.636  20.591   2
   3   1   6 571.254  18.721   1
  -3   1  -6 576.718  20.267   2
   5  -1   6 205.021   9.406   1
   5   1   6 202.569   8.740   1
   7  -1   6 63.5634  4.9957   1
   8  -2  -6 4.55084 1.48896   1
   8   2  -6 0.97520 0.90682   1
   6  -2  -6 12.4128  3.0163   1
   6   2  -6 15.7534  3.2126   1
   4  -2  -6 41.8473  2.8446   2
   4  -2  -6 39.9144  4.0225   1
   4   2  -6 39.9683  3.2470   2
   4   2  -6 34.6766  3.3055   1
   2  -2  -6 81.6330  4.7096   2
   2  -2  -6 74.7111  4.4366   1
   2   2  -6 78.6044  4.5137   1
   2   2  -6 95.8359  5.1407   2
   0  -2  -6 109.382   5.917   2
   0  -2  -6 117.308   4.563   1
   0  -2   6 117.352   5.614   1
   0   2  -6 117.426   6.013   2
   2  -2   6 82.7236  4.5438   1
  -2  -2  -6 84.3587  4.9339   2
  -2   2  -6 80.0299  4.3664   2
   4  -2   6 38.3537  3.1930   1
  -4  -2  -6 37.9008  3.0009   2
   6  -2   6 15.8949  2.9772   1
   7  -3  -6 14.6893  3.3116   1
   7   3  -6 14.8365  2.9137   1
   5  -3  -6 65.4400  5.6038   1
   5   3  -6 60.8465  4.9373   1
   5   3  -6 58.4066  4.4366   2
   3  -3  -6 144.476   7.698   1
   3  -3  -6 142.900   7.343   2
   3   3  -6 165.834   8.060   2
   3   3  -6 162.253   7.568   1
   1  -3  -6 256.343  10.971   2
  -1  -3   6 251.859  10.584   1
   1  -3  -6 245.690   9.519   1
   1   3  -6 243.695  10.971   2
   1  -3   6 267.546  10.960   1
  -1  -3  -6 254.757  11.554   2
  -1   3  -6 263.116  11.133   2
   3  -3   6 155.924   7.866   1
  -3  -3  -6 171.561   8.431   2
  -3   3  -6 151.947   6.936   2
   5  -3   6 68.8345  5.1904   1
  -5  -3  -6 64.9960  4.6064   2
   7  -3   6 23.2273  3.9135   1
   6  -4  -6 3.59676 1.86953   1
   6   4  -6 4.71367 1.38031   2
   6   4  -6 2.94581 1.24167   1
   4  -4  -6 15.5740  3.0671   1
   4   4  -6 13.2492  2.2977   1
   4   4  -6 14.8258  2.5769   2
  -2  -4   6 30.8706  3.7107   1
   2  -4  -6 38.3004  3.2291   2
   2  -4  -6 38.8447  3.0604   1
   2   4  -6 33.4061  3.2792   2
   0  -4   6 54.3758  4.4443   1
   0  -4  -6 53.5008  4.0834   2
   0  -4  -6 45.4096  2.5887   1
   0   4  -6 48.7273  4.0279   2
   2  -4   6 41.6309  3.6278   1
  -2  -4  -6 34.2440  3.8465   2
  -2   4  -6 41.1031  3.0822   2
   4  -4   6 15.9434  2.9010   1
  -4  -4  -6 15.4517  2.8190   2
   6  -4   6 4.03119 1.44088   1
   7  -5  -6 28.5302  4.8507   1
   7   5  -6 24.6039  3.8594   1
   5  -5  -6 90.8093  6.9497   1
   5   5  -6 93.0421  6.6468   2
   5   5  -6 91.9134  6.1157   1
  -3  -5   6 189.635   9.741   1
   3  -5  -6 185.390   9.526   1
   3   5  -6 185.154  10.024   2
   1  -5  -6 285.976  13.015   2
  -1  -5   6 268.847  12.373   1
   1  -5  -6 283.148  11.222   1
   1  -5   6 303.540  13.405   1
  -1  -5  -6 291.792  13.897   2
  -1   5  -6 299.274  13.453   2
   3  -5   6 185.282   9.631   1
  -3  -5  -6 181.341  10.037   2
  -5  -5  -6 103.255   6.968   2
   5  -5   6 92.8514  6.8159   1
   7  -5   6 20.8704  3.9214   1
   6  -6  -6 22.5848  4.2692   1
  -6  -6   6 20.3751  3.2790   1
   4  -6  -6 45.8170  4.5408   1
  -4  -6   6 41.2468  4.2983   1
   4   6  -6 38.8224  4.2836   2
   2  -6  -6 82.4661  5.6593   2
  -2  -6   6 73.2646  5.7086   1
   2  -6  -6 78.9419  5.2193   1
   2   6  -6 78.8366  6.3005   2
   0  -6  -6 111.949   7.176   2
   0  -6   6 97.2106  6.8976   1
   0   6  -6 106.319   7.281   2
  -2  -6  -6 80.5968  6.4703   2
   2  -6   6 74.8301  6.0790   1
  -2   6  -6 83.1603  5.4946   2
  -4  -6  -6 42.0736  4.5760   2
   4  -6   6 42.7950  4.4114   1
   6  -6   6 11.4860  2.7989   1
  -5  -7   6 11.6519  2.4303   1
   5  -7  -6 9.29718 2.21695   1
   3  -7  -6 28.0087  4.1302   1
   3  -7  -6 19.4944  3.1856   2
  -3  -7   6 27.0962  4.1756   1
   1  -7  -6 42.7233  3.2999   1
   1  -7  -6 46.4612  4.5298   2
  -1  -7   6 42.9392  5.3598   1
   1   7  -6 40.1238  5.4619   2
   1  -7   6 40.4033  5.1463   1
  -1  -7  -6 35.7902  5.0307   2
   3  -7   6 26.3879  4.4389   1
  -3  -7  -6 24.2927  4.3015   2
   5  -7   6 10.7974  2.6276   1
  -5  -7  -6 5.92658 1.83399   2
  -4  -8   6 15.5657  2.7373   1
   4  -8  -6 23.8254  4.1493   1
  -2  -8   6 40.0114  5.4062   1
   2  -8  -6 40.6831  3.6568   1
   2  -8  -6 36.1828  3.9414   2
   0  -8   6 47.1021  4.8393   1
   0  -8  -6 51.4210  5.2475   2
  -2  -8  -6 37.1961  5.5771   2
   2  -8   6 36.8140  5.3583   1
   4  -8   6 15.9143  3.3573   1
  -4  -8  -6 22.1505  4.0306   2
  -3  -9   6 31.8245  4.8120   1
   3  -9  -6 38.9010  3.4663   1
  -1  -9   6 59.0961  5.4719   1
   1  -9  -6 53.0924  5.2034   2
  -1  -9  -6 57.2468  5.8397   2
   1  -9   6 58.8741  5.6814   1
   3  -9   6 25.2837  4.2233   1
  -3  -9  -6 31.7975  5.1512   2
  -2 -10   6 38.0739  5.5311   1
   2 -10  -6 37.8709  4.0895   2
   0 -10   6 47.4682  4.7923   1
   0 -10  -6 47.3283  6.3913   2
  -2 -10  -6 38.5926  5.6772   2
   2 -10   6 32.1436  4.9920   1
   8   0  -7 1.22574 0.85346   1
   6   0  -7 0.40506 0.83920   1
   4   0  -7 -0.3319  0.7716   1
   4   0  -7 0.54725 0.31717   2
   2   0  -7 0.20259 0.43872   2
   2   0  -7 -0.0839  0.6069   1
   0   0  -7 -0.2029  0.7007   2
  -2   0  -7 -0.1592  0.4884   2
   2   0   7 0.98844 0.33849   1
   4   0   7 0.19336 0.32485   1
  -4   0  -7 0.48013 0.33496   2
   7  -1  -7 4.03866 1.50581   1
   7   1  -7 6.09042 1.98544   1
   5  -1  -7 12.1622  2.8385   1
   5   1  -7 13.8408  2.7482   1
   5   1  -7 12.3039  2.0228   2
   3  -1  -7 39.0901  2.9410   2
   3  -1  -7 33.6514  3.1571   1
   3   1  -7 32.0604  3.3602   1
   3   1  -7 30.9280  2.7596   2
   1  -1  -7 67.5047  3.7284   1
   1  -1  -7 67.0678  4.2579   2
   1   1  -7 77.0481  4.3823   2
   1   1  -7 68.9266  3.9372   1
   1  -1   7 76.7831  4.1533   1
  -1  -1  -7 78.1504  4.7273   2
   1   1   7 88.0817  3.3694   1
  -1   1  -7 78.2629  4.7737   2
   3  -1   7 36.3528  2.6114   1
  -3  -1  -7 35.8168  2.7900   2
   3   1   7 36.6034  2.0483   1
  -3   1  -7 32.3475  2.4653   2
   5  -1   7 15.0078  2.3967   1
   8  -2  -7 23.1090  4.2195   1
   8   2  -7 29.6278  4.8379   1
   6  -2  -7 80.0826  6.3887   1
   6   2  -7 73.3341  6.0668   1
   4  -2  -7 191.565   9.684   1
   4  -2  -7 193.746   8.883   2
   4   2  -7 190.732   9.449   1
   4   2  -7 194.492   9.369   2
   2  -2  -7 398.862  15.269   1
   2  -2  -7 395.847  16.281   2
   2   2  -7 409.869  15.391   1
   2   2  -7 428.948  16.561   2
   0  -2   7 516.369  18.881   1
   0  -2  -7 542.930  17.627   1
   0  -2  -7 517.745  20.292   2
   0   2  -7 534.428  20.305   2
   2  -2   7 404.488  15.625   1
  -2  -2  -7 431.536  16.835   2
  -2   2  -7 426.559  16.358   2
   4  -2   7 202.246   9.283   1
  -4  -2  -7 194.791   9.359   2
   6  -2   7 88.8995  5.9218   1
   7  -3  -7 -1.5744  0.6718   1
   7   3  -7 1.40968 1.01087   1
   5  -3  -7 4.28154 1.85202   1
   5   3  -7 4.45822 1.08494   2
   5   3  -7 6.27039 1.91395   1
   3  -3  -7 9.31325 1.68212   2
   3  -3  -7 11.8557  2.3459   1
   3   3  -7 11.0316  2.1012   2
   3   3  -7 8.64153 1.75897   1
   1  -3  -7 15.3306  2.4144   2
  -1  -3   7 20.1712  2.8286   1
   1  -3  -7 16.8077  1.5239   1
   1   3  -7 10.1093  2.1179   2
  -1  -3  -7 14.3821  2.5671   2
   1  -3   7 19.8996  2.7387   1
  -1   3  -7 15.4170  2.4083   2
  -3  -3  -7 7.06194 1.94755   2
   3  -3   7 8.80589 1.84895   1
  -3   3  -7 6.16114 1.16433   2
  -5  -3  -7 7.51039 1.55744   2
   5  -3   7 2.13556 1.10517   1
   7  -3   7 5.01855 1.13288   1
   6  -4  -7 5.29508 1.92833   1
   6   4  -7 5.52078 1.86754   2
   6   4  -7 6.08901 1.93031   1
   4  -4  -7 23.7823  3.9008   1
   4  -4  -7 25.9170  2.3615   2
   4   4  -7 18.6947  3.0619   1
   4   4  -7 22.8491  3.4010   2
  -2  -4   7 33.8727  4.1758   1
   2  -4  -7 38.1689  3.0609   1
   2  -4  -7 37.5656  3.3767   2
   2   4  -7 37.8564  3.5323   2
   0  -4  -7 49.3947  4.1218   2
   0  -4  -7 52.6034  2.7068   1
   0  -4   7 56.2712  4.2108   1
   0   4  -7 48.8649  4.3377   2
   2  -4   7 44.7949  3.7609   1
  -2  -4  -7 37.3195  4.0325   2
  -2   4  -7 38.5990  3.1891   2
   4  -4   7 21.8690  3.6344   1
  -4  -4  -7 25.0480  3.6813   2
   6  -4   7 6.12969 1.92629   1
   7  -5  -7 8.27437 1.92705   1
   7   5  -7 7.46039 1.55634   1
   5  -5  -7 16.4632  3.6836   1
   5   5  -7 18.5433  3.2784   2
  -3  -5   7 42.7601  4.2577   1
   3  -5  -7 45.2632  3.6783   2
   3  -5  -7 38.7182  3.8615   1
   3   5  -7 36.4986  4.0243   2
   1  -5  -7 69.2565  5.1293   2
   1  -5  -7 69.1110  4.0815   1
  -1  -5   7 61.6571  5.1335   1
   1   5  -7 65.7943  5.5500   2
  -1  -5  -7 56.3132  5.1810   2
   1  -5   7 68.7127  5.0524   1
  -1   5  -7 63.4045  4.9492   2
  -3  -5  -7 36.3797  4.7300   2
   3  -5   7 30.4481  4.2910   1
  -5  -5  -7 16.4810  2.9614   2
   5  -5   7 18.8212  3.4975   1
   7  -5   7 5.19186 1.30099   1
  -6  -6   7 12.3425  2.2578   1
   6  -6  -7 10.6190  2.6415   1
  -4  -6   7 22.3282  3.9070   1
   4  -6  -7 30.5515  4.4477   1
   4   6  -7 20.8013  3.5889   2
   2  -6  -7 38.2060  3.5048   1
  -2  -6   7 40.2177  5.0359   1
   2  -6  -7 44.2240  3.9288   2
   2   6  -7 35.2599  4.8676   2
   0  -6   7 42.9364  5.3869   1
   0  -6  -7 57.8187  5.0111   2
   0   6  -7 47.2943  4.8865   2
  -2  -6  -7 34.7086  5.0913   2
   2  -6   7 38.6030  5.0036   1
  -2   6  -7 40.0805  3.6039   2
  -4  -6  -7 19.0428  3.7182   2
   4  -6   7 22.0693  3.8343   1
   6  -6   7 4.88487 1.54254   1
   5  -7  -7 1.26607 0.90672   1
  -5  -7   7 0.22942 0.80953   1
   3  -7  -7 1.82583 0.98753   1
   3  -7  -7 2.07974 0.99146   2
  -3  -7   7 1.45681 1.27355   1
   3   7  -7 -0.7362  0.8170   2
   1  -7  -7 0.26432 0.95706   2
  -1  -7   7 1.26643 1.64878   1
   1   7  -7 2.87971 1.77623   2
  -1  -7  -7 1.82679 1.29151   2
   1  -7   7 2.69235 1.66596   1
  -1   7  -7 0.49753 0.94443   2
  -3  -7  -7 1.47104 1.67916   2
   3  -7   7 0.69179 0.97397   1
   5  -7   7 0.90163 0.89465   1
  -5  -7  -7 2.56775 0.88950   2
  -4  -8   7 7.91344 1.69402   1
   4  -8  -7 2.90177 0.92961   1
   2  -8  -7 2.67586 1.08071   2
  -2  -8   7 7.48406 2.23927   1
   0  -8   7 6.08793 2.35562   1
   0  -8  -7 7.69417 2.06540   2
  -2  -8  -7 6.65485 2.33159   2
   2  -8   7 7.19877 2.48333   1
  -4  -8  -7 3.88015 1.77336   2
   4  -8   7 3.06010 1.27805   1
  -3  -9   7 29.8107  4.3763   1
  -1  -9   7 52.7094  5.2646   1
   1  -9  -7 54.1979  5.2727   2
   1  -9   7 54.4616  5.4130   1
  -1  -9  -7 48.6561  5.4077   2
   3  -9   7 40.1564  5.6672   1
  -3  -9  -7 33.7205  5.3365   2
   2 -10  -7 2.58920 1.12258   2
  -2 -10   7 2.50986 0.83344   1
   0 -10   7 7.46400 2.09457   1
   0 -10  -7 6.13479 1.77911   2
  -2 -10  -7 1.33524 1.15666   2
   2 -10   7 6.57333 1.81462   1
   8   0  -8 50.8688  5.0817   1
   6   0  -8 166.344   9.629   1
   4   0  -8 417.313  17.163   2
   4   0  -8 442.280  17.460   1
   2   0  -8 949.531  32.142   1
   2   0  -8 922.291  33.989   2
   0   0  -8 1723.55   59.90   2
   2   0   8 997.574  32.316   1
  -2   0  -8 972.569  35.317   2
  -4   0  -8 471.942  18.325   2
   4   0   8 490.356  17.399   1
   7  -1  -8 16.5501  3.4305   1
   7   1  -8 18.4775  3.6150   1
   5  -1  -8 60.1704  5.1318   1
   5   1  -8 52.1658  4.7532   1
   5   1  -8 54.7179  4.1157   2
   3  -1  -8 134.603   7.061   1
   3  -1  -8 133.145   6.978   2
   3   1  -8 129.711   7.182   1
   3   1  -8 124.199   6.808   2
   1  -1  -8 261.106  10.417   1
   1  -1  -8 248.196  11.571   2
   1   1  -8 282.571  11.527   2
   1   1  -8 280.573  10.686   1
  -1  -1  -8 306.511  12.711   2
   1  -1   8 289.043  11.425   1
   1   1   8 312.722  10.331   1
  -1   1  -8 278.953  12.610   2
  -3  -1  -8 134.556   6.967   2
   3   1   8 135.764   5.431   1
  -3   1  -8 137.974   6.695   2
   5  -1   8 -0.6168  0.3814   1
   8  -2  -8 0.39935 0.78463   1
   8   2  -8 1.95488 0.87590   1
   6  -2  -8 4.30673 1.95530   1
   6   2  -8 5.53697 1.84012   1
   4  -2  -8 10.7549  2.4988   1
   4  -2  -8 12.4488  1.9613   2
   4   2  -8 10.9970  2.3808   1
   4   2  -8 11.3215  2.0424   2
   2  -2  -8 14.3844  2.3341   1
   2  -2  -8 16.8100  2.5224   2
   2   2  -8 16.7031  2.5485   1
   2   2  -8 19.6983  2.7075   2
   0  -2  -8 18.6718  2.7083   2
   0  -2   8 19.9945  1.9877   1
   0  -2  -8 17.1386  1.3715   1
   0   2  -8 20.2877  2.8716   2
  -2  -2  -8 17.3477  2.7653   2
   2  -2   8 15.8321  2.2532   1
  -2   2  -8 16.7077  2.3737   2
   4  -2   8 10.4686  1.9979   1
  -4  -2  -8 13.4099  2.2335   2
   6  -2   8 4.65677 1.21746   1
   7  -3  -8 6.96573 2.05553   1
   7   3  -8 6.54382 1.89420   1
   5  -3  -8 34.1113  4.7579   1
   5   3  -8 25.8627  3.6823   2
   5   3  -8 29.1929  4.2561   1
   3  -3  -8 78.5913  5.0234   2
   3  -3  -8 68.5953  5.0518   1
   3   3  -8 81.0830  5.3122   2
   3   3  -8 75.0860  4.9397   1
   1  -3  -8 124.058   6.923   2
   1  -3  -8 121.672   5.596   1
  -1  -3   8 115.581   6.437   1
   1   3  -8 114.858   6.943   2
  -1  -3  -8 113.479   6.977   2
   1  -3   8 127.943   6.670   1
  -1   3  -8 130.901   7.105   2
   3  -3   8 76.7778  5.0452   1
  -3  -3  -8 84.4223  5.6998   2
  -3   3  -8 74.9403  4.5044   2
  -5  -3  -8 33.1775  3.1879   2
   5  -3   8 29.5226  4.1692   1
   7  -3   8 8.25419 1.89529   1
   6  -4  -8 41.7358  5.8283   1
   6   4  -8 43.3614  4.3313   2
   6   4  -8 42.0247  4.3137   1
   4  -4  -8 109.556   6.580   2
   4  -4  -8 106.619   7.224   1
   4   4  -8 116.427   6.919   1
   4   4  -8 125.242   7.626   2
  -2  -4   8 198.228  10.052   1
   2  -4  -8 207.468   9.297   1
   2  -4  -8 220.077  10.479   2
   2   4  -8 195.504  10.351   2
   0  -4   8 282.331  12.038   1
   0  -4  -8 264.768   9.741   1
   0  -4  -8 257.399  12.436   2
   0   4  -8 260.123  12.408   2
  -2  -4  -8 207.307  10.861   2
   2  -4   8 215.525  10.106   1
  -2   4  -8 209.497  10.089   2
  -4  -4  -8 133.218   7.956   2
   4  -4   8 110.659   7.253   1
   6  -4   8 45.1406  4.1814   1
   7  -5  -8 5.50983 1.70760   1
   7   5  -8 9.84306 2.30346   1
   5  -5  -8 27.3156  4.5068   1
   5   5  -8 28.8301  4.2509   2
   3  -5  -8 59.4111  4.6391   2
  -3  -5   8 57.1437  5.1221   1
   3  -5  -8 57.6867  4.6123   1
   3   5  -8 55.8849  5.0792   2
  -1  -5   8 78.6775  5.9811   1
   1  -5  -8 84.9155  4.5924   1
   1  -5  -8 89.6128  6.1195   2
   1   5  -8 80.2872  6.3141   2
   1  -5   8 97.1281  6.3239   1
  -1  -5  -8 89.0279  6.8143   2
  -1   5  -8 91.2171  6.2202   2
  -3  -5  -8 58.1468  5.4762   2
   3  -5   8 61.6245  5.1444   1
   5  -5   8 30.7814  4.5859   1
  -5  -5  -8 29.1946  4.2305   2
   7  -5   8 11.9372  2.3333   1
  -6  -6   8 4.47656 1.11946   1
   6  -6  -8 4.95859 1.79868   1
   4  -6  -8 17.1718  3.2548   1
  -4  -6   8 15.3447  3.3479   1
   4   6  -8 9.24493 2.32326   2
   2  -6  -8 19.8701  3.3694   2
  -2  -6   8 14.7104  3.1988   1
   2  -6  -8 19.8053  3.0101   1
   2   6  -8 17.1471  3.5431   2
   0  -6  -8 13.4227  3.1254   2
   0  -6   8 22.5320  3.8440   1
   0   6  -8 22.1955  4.0618   2
  -2  -6  -8 17.0664  3.6587   2
   2  -6   8 19.4563  3.5574   1
  -2   6  -8 14.6571  2.7267   2
   4  -6   8 12.6019  3.0068   1
  -4  -6  -8 16.4727  3.3251   2
   6  -6   8 5.11097 1.65532   1
   5  -7  -8 5.89553 2.00703   1
  -5  -7   8 4.00595 1.21793   1
   3  -7  -8 8.44509 2.12422   1
   3  -7  -8 10.1286  1.9423   2
  -3  -7   8 3.02350 1.64454   1
   3   7  -8 7.94263 2.29595   2
  -1  -7   8 14.0778  3.1294   1
   1  -7  -8 9.30292 2.58044   2
   1   7  -8 9.80214 2.92724   2
   1  -7   8 7.92662 2.59370   1
  -1  -7  -8 10.1996  2.7686   2
  -1   7  -8 15.5250  3.0554   2
  -3  -7  -8 8.95910 2.90599   2
   3  -7   8 3.29737 1.40776   1
  -5  -7  -8 2.24774 0.88357   2
   5  -7   8 3.79861 1.40640   1
  -4  -8   8 41.7437  5.6305   1
   4  -8  -8 37.6754  3.9337   1
   2  -8  -8 67.2221  5.7624   2
  -2  -8   8 60.1161  5.7267   1
   2   8  -8 63.1743  6.2386   2
   0  -8   8 86.6372  7.1082   1
   0  -8  -8 84.9449  7.2595   2
  -2  -8  -8 73.8584  6.8012   2
   2  -8   8 67.3482  6.1459   1
   4  -8   8 33.7142  5.3014   1
  -4  -8  -8 29.5514  4.9598   2
  -3  -9   8 2.71743 0.95790   1
  -1  -9   8 8.10305 2.35094   1
   1  -9  -8 4.03673 1.53230   2
  -1  -9  -8 2.60892 1.52020   2
   1  -9   8 2.82857 1.57404   1
  -3  -9  -8 0.50006 0.97999   2
   3  -9   8 3.00995 1.09476   1
   2 -10  -8 39.0985  4.2472   2
  -2 -10   8 36.1285  5.0726   1
   0 -10  -8 47.3298  6.6350   2
   0 -10   8 39.3803  5.7993   1
  -2 -10  -8 29.5765  5.0540   2
   2 -10   8 33.5018  5.0433   1
   8   0  -9 -0.9103  0.7757   1
   6   0  -9 0.57674 1.05641   1
   4   0  -9 1.00321 1.21473   1
   4   0  -9 -0.0937  0.5696   2
   2   0  -9 0.13304 0.48371   2
   2   0  -9 -0.5535  0.5967   1
   0   0   9 -0.3221  0.1942   1
   0   0  -9 0.37281 1.07430   2
  -2   0  -9 -0.3801  0.6873   2
   2   0   9 0.93874 0.33323   1
  -4   0  -9 0.15615 0.38816   2
   4   0   9 -0.2444  0.3467   1
   7  -1  -9 14.2676  3.1766   1
   7   1  -9 21.9413  4.1208   1
   5  -1  -9 50.0203  3.8660   2
   5  -1  -9 47.6158  4.7843   1
   5   1  -9 51.4102  4.0497   2
   5   1  -9 50.1565  4.6615   1
   3  -1  -9 114.611   6.443   2
   3  -1  -9 104.650   6.353   1
   3   1  -9 99.9207  6.1180   2
   3   1  -9 108.567   6.550   1
   1  -1  -9 183.339   9.164   2
   1  -1  -9 184.596   8.037   1
   1   1  -9 191.508   8.955   2
   1   1  -9 188.253   8.186   1
  -1  -1  -9 204.971   9.537   2
   1  -1   9 189.230   8.322   1
  -1   1  -9 194.222   9.612   2
  -3  -1  -9 103.559   6.175   2
   3  -1   9 114.831   5.691   1
  -3   1  -9 120.351   6.224   2
   5  -1   9 54.3823  3.7767   1
   6  -2  -9 3.42794 1.80632   1
   4  -2  -9 6.35424 1.48905   2
   4  -2  -9 7.03312 2.20103   1
   4   2  -9 6.39071 1.58139   2
   4   2  -9 6.15496 1.92583   1
   2  -2  -9 16.4141  2.3932   1
   2  -2  -9 15.6669  2.5731   2
   2   2  -9 16.7077  2.6244   1
   2   2  -9 19.2177  2.8041   2
   0  -2  -9 19.0644  1.4965   1
   0  -2   9 23.8706  2.2611   1
   0  -2  -9 17.7634  2.8697   2
   0   2  -9 23.7756  3.2565   2
  -2  -2  -9 15.3294  2.6972   2
   2  -2   9 20.8909  2.0617   1
  -2   2  -9 19.1536  2.6508   2
  -4  -2  -9 7.95948 2.00601   2
   4  -2   9 10.0796  2.0297   1
   6  -2   9 1.03204 0.75679   1
   7  -3  -9 18.7398  3.7578   1
   7   3  -9 25.0807  4.4237   1
   5  -3  -9 68.7941  5.8390   1
   5   3  -9 72.5354  5.7056   1
   5   3  -9 67.2459  5.2698   2
   3  -3  -9 156.618   8.403   1
   3  -3  -9 158.496   8.668   2
   3   3  -9 179.974   9.055   2
   3   3  -9 168.188   8.411   1
   1  -3  -9 246.513  11.614   2
   1  -3  -9 241.879   9.674   1
  -1  -3   9 237.235  10.855   1
   1   3  -9 242.703  11.708   2
  -1  -3  -9 220.943  11.358   2
   1  -3   9 244.149  10.739   1
  -1   3  -9 250.728  11.509   2
  -3  -3  -9 183.722   9.277   2
   3  -3   9 150.639   8.111   1
  -3   3  -9 158.060   7.942   2
  -5  -3  -9 66.6536  5.0780   2
   5  -3   9 76.9963  5.4319   1
   7  -3   9 19.8489  3.3904   1
   6  -4  -9 45.2062  6.0486   1
   6   4  -9 48.2934  4.6341   2
   6   4  -9 45.7656  4.5289   1
   4  -4  -9 108.334   7.169   1
   4   4  -9 103.032   6.629   1
   4   4  -9 114.510   7.314   2
   2  -4  -9 205.546  10.291   2
  -2  -4   9 197.082  10.055   1
   2  -4  -9 196.687   8.985   1
   2   4  -9 184.224  10.070   2
   0  -4  -9 239.926  11.902   2
   0  -4   9 241.428  11.210   1
   0   4  -9 246.491  11.987   2
  -2  -4  -9 176.027  10.160   2
   2  -4   9 205.715   9.760   1
  -2   4  -9 200.860   9.768   2
  -4  -4  -9 130.493   8.083   2
   4  -4   9 119.426   7.549   1
   6  -4   9 43.8141  4.2384   1
   7  -5  -9 12.5455  2.7695   1
   7   5  -9 16.3447  3.3859   1
   5  -5  -9 42.8060  5.7322   1
  -5  -5   9 41.6183  5.4910   1
   5   5  -9 51.5012  4.7618   2
   3  -5  -9 88.5811  5.8693   1
  -3  -5   9 83.7081  6.3777   1
   3  -5  -9 92.8424  6.1107   2
   3   5  -9 75.1739  6.1389   2
  -1  -5   9 110.920   7.415   1
   1  -5  -9 117.047   5.829   1
   1  -5  -9 128.616   7.907   2
   1   5  -9 121.829   7.907   2
   1  -5   9 119.462   7.333   1
  -1  -5  -9 101.687   7.560   2
  -1   5  -9 126.580   7.607   2
  -3  -5  -9 86.1083  6.7479   2
   3  -5   9 83.7657  6.2101   1
  -5  -5  -9 50.7795  4.7761   2
   5  -5   9 37.6505  5.1850   1
   7  -5   9 10.3967  1.7155   1
  -6  -6   9 10.7407  1.9410   1
   6  -6  -9 9.53502 2.34657   1
   6   6  -9 7.86539 1.95237   2
  -4  -6   9 32.4994  4.9835   1
   4  -6  -9 32.7253  4.7219   1
   4   6  -9 25.9318  4.2214   2
  -2  -6   9 61.2612  5.5060   1
   2  -6  -9 57.6763  4.0910   1
   2  -6  -9 54.0730  4.8390   2
   2   6  -9 50.9887  5.2365   2
   0  -6   9 67.5012  5.8169   1
   0  -6  -9 69.2183  6.0217   2
   0   6  -9 71.5580  6.1934   2
  -2  -6  -9 60.3508  6.0689   2
   2  -6   9 62.2720  5.3880   1
  -2   6  -9 63.1102  5.0838   2
  -4  -6  -9 33.1016  4.8881   2
   4  -6   9 28.8964  4.6701   1
   6  -6   9 10.1918  2.5759   1
  -5  -7   9 25.4879  4.3482   1
   5  -7  -9 27.7326  4.4525   1
   5   7  -9 32.3571  4.8712   2
   3  -7  -9 52.0057  4.4240   1
  -3  -7   9 53.5628  5.1984   1
   3  -7  -9 54.2054  5.0254   2
   3   7  -9 55.7229  5.4833   2
  -1  -7   9 83.2897  6.7380   1
   1  -7  -9 84.4969  6.9480   2
   1   7  -9 72.2697  6.7541   2
  -1  -7  -9 86.8255  7.2097   2
   1  -7   9 86.4971  6.9060   1
  -1   7  -9 79.9621  6.5152   2
  -3  -7  -9 59.4686  5.9528   2
   3  -7   9 52.8352  5.2008   1
   5  -7   9 29.6617  4.8826   1
  -5  -7  -9 24.3595  4.0582   2
  -4  -8   9 0.07354 0.86542   1
   4  -8  -9 3.33017 0.81762   1
  -2  -8   9 2.52071 1.25794   1
   2   8  -9 -0.5449  1.0324   2
   0  -8  -9 3.30325 1.60065   2
   0  -8   9 2.17627 1.20399   1
   0   8  -9 3.37196 1.60570   2
   2  -8   9 2.13092 1.67807   1
  -2  -8  -9 4.81158 1.81219   2
  -4  -8  -9 0.32400 1.02096   2
   4  -8   9 1.31240 0.95163   1
  -3  -9   9 5.21302 1.21064   1
   1  -9  -9 8.64663 2.12556   2
  -1  -9   9 14.0726  3.2595   1
   1  -9   9 8.56071 2.53406   1
  -1  -9  -9 4.17300 1.28002   2
  -3  -9  -9 8.80461 2.37223   2
   3  -9   9 5.84946 1.60554   1
   0 -10   9 3.54110 0.91202   1
   0 -10  -9 1.58947 1.20854   2
   6   0 -10 1.28304 1.03011   1
   4   0 -10 8.83316 1.80723   2
   4   0 -10 7.62794 2.34291   1
   2   0 -10 14.1207  2.5822   2
   2   0 -10 12.7957  2.3502   1
   0   0 -10 23.2517  3.4476   2
  -2   0 -10 12.2097  2.4354   2
   2   0  10 12.9752  1.3500   1
  -4   0 -10 6.13506 1.32707   2
   7  -1 -10 18.1179  3.5398   1
   7   1 -10 18.3221  3.5652   1
   5  -1 -10 71.2800  5.8661   1
   5   1 -10 80.3694  5.4558   2
   5   1 -10 71.9816  6.0410   1
   3  -1 -10 208.851   9.921   1
   3  -1 -10 202.318  10.158   2
   3   1 -10 197.452  10.046   1
   3   1 -10 200.552  10.067   2
   1  -1 -10 383.488  16.499   2
   1  -1 -10 362.542  14.512   1
   1   1 -10 401.980  14.888   1
   1   1 -10 405.418  16.275   2
   1  -1  10 399.149  15.494   1
  -1  -1 -10 453.328  17.631   2
  -1   1 -10 396.173  17.364   2
  -3  -1 -10 202.776  10.020   2
   3  -1  10 212.273   8.944   1
  -3   1 -10 208.992   9.887   2
   6  -2 -10 8.95488 2.49467   1
   6   2 -10 10.5281  2.7831   1
   4  -2 -10 19.6259  3.4454   1
   4  -2 -10 24.5657  3.3207   2
   4   2 -10 26.2887  3.5338   2
   4   2 -10 22.2125  3.6866   1
   2  -2 -10 48.2045  4.1686   2
   2  -2 -10 47.6730  3.6494   1
   2   2 -10 55.6642  4.2501   1
   2   2 -10 55.8361  4.4122   2
   0  -2 -10 61.8297  5.0504   2
   0  -2 -10 57.4485  3.1066   1
   0  -2  10 63.9180  4.1574   1
   0   2 -10 58.5817  4.8422   2
   2  -2  10 53.2171  3.7022   1
  -2  -2 -10 55.1878  4.6000   2
  -2   2 -10 45.2519  3.8717   2
   4  -2  10 28.4371  2.5358   1
  -4  -2 -10 24.5739  2.7133   2
   7  -3 -10 4.97356 1.57520   1
   7   3 -10 4.67318 1.62011   1
   5  -3 -10 23.3171  4.0760   1
   5   3 -10 19.0022  3.2490   2
   5   3 -10 23.9281  3.9669   1
   3  -3 -10 53.9453  4.4208   2
   3  -3 -10 59.1750  4.5812   1
   3   3 -10 58.8156  4.6321   2
   3   3 -10 49.8226  4.4226   1
   1  -3 -10 91.4822  6.0630   2
  -1  -3  10 90.8648  5.6867   1
   1  -3 -10 88.5443  4.6227   1
   1   3 -10 78.9806  5.9798   2
   1  -3  10 94.4825  5.7151   1
  -1  -3 -10 86.1775  6.3649   2
  -1   3 -10 88.7876  6.1670   2
   3  -3  10 60.2054  4.4139   1
  -3  -3 -10 71.0231  5.4433   2
  -3   3 -10 57.6324  4.1869   2
   5  -3  10 29.7299  3.0414   1
   6  -4 -10 64.7595  5.7994   1
   6   4 -10 58.6899  5.2998   1
   6   4 -10 63.4526  5.4949   2
   4  -4 -10 173.825   9.363   2
   4  -4 -10 171.640   9.466   1
   4   4 -10 161.345   9.136   1
   4   4 -10 168.913   9.671   2
  -2  -4  10 297.572  13.616   1
   2  -4 -10 301.199  14.136   2
   2  -4 -10 308.909  12.563   1
   2   4 -10 284.196  13.971   2
   0  -4  10 369.145  15.691   1
   0  -4 -10 377.579  16.805   2
  -2  -4 -10 285.836  14.268   2
   2  -4  10 312.169  13.419   1
   4  -4  10 170.269   9.583   1
  -4  -4 -10 193.595  10.546   2
   6  -4  10 65.2815  5.2622   1
   5  -5 -10 12.8603  2.7327   1
  -5  -5  10 11.9573  2.8923   1
   5   5 -10 13.8660  2.7882   2
  -3  -5  10 28.6109  4.5964   1
   3  -5 -10 31.0535  4.0871   1
   3  -5 -10 31.9128  4.3233   2
   3   5 -10 26.1072  3.9985   2
   1  -5 -10 47.1511  4.6526   2
  -1  -5  10 41.6782  4.2391   1
   1   5 -10 37.4461  5.1786   2
  -1  -5 -10 35.8557  4.9906   2
   1  -5  10 38.9964  5.0984   1
  -1   5 -10 45.6853  4.5889   2
  -3  -5 -10 20.5732  3.8973   2
   3  -5  10 26.9390  4.1559   1
  -5  -5 -10 10.6747  2.4443   2
   5  -5  10 11.4591  2.5733   1
   6  -6 -10 17.1010  3.4000   1
  -6  -6  10 14.1339  2.6467   1
   6   6 -10 15.3345  3.1172   2
   4  -6 -10 45.7416  4.3647   1
  -4  -6  10 38.5492  5.5187   1
   4   6 -10 35.4035  5.1005   2
   2  -6 -10 72.1269  6.0065   2
  -2  -6  10 66.2497  5.9401   1
   2   6 -10 72.2317  6.3270   2
   0  -6 -10 89.0285  7.0333   2
   0  -6  10 90.4258  6.7545   1
   0   6 -10 93.8241  7.3597   2
   2  -6  10 67.7744  5.8916   1
  -2  -6 -10 70.0724  6.6047   2
  -2   6 -10 76.2218  5.6645   2
  -4  -6 -10 43.3994  5.7982   2
   4  -6  10 45.9881  4.6348   1
   6  -6  10 14.3777  2.8483   1
   5  -7 -10 7.37059 2.09555   1
  -5  -7  10 7.43919 1.88749   1
   5   7 -10 8.58700 2.32563   2
  -3  -7  10 14.4710  3.3093   1
   3  -7 -10 21.7158  3.6659   2
   3   7 -10 14.7119  3.3219   2
   1  -7 -10 34.2309  5.1387   2
  -1  -7  10 29.7768  4.8886   1
   1   7 -10 30.8909  5.0458   2
  -1  -7 -10 27.8815  4.8231   2
   1  -7  10 31.4997  4.8883   1
  -1   7 -10 31.7088  4.7677   2
   3  -7  10 18.6136  3.6027   1
  -3  -7 -10 13.3429  3.2809   2
   5  -7  10 6.96672 1.89160   1
  -5  -7 -10 3.24699 1.49788   2
  -4  -8  10 5.76294 1.28331   1
   4   8 -10 8.06683 2.25045   2
  -2  -8  10 12.2030  3.0428   1
   2  -8 -10 13.3444  3.0444   2
   2   8 -10 12.6114  3.1081   2
   0  -8 -10 15.5517  3.5614   2
   0  -8  10 14.8550  3.5232   1
   0   8 -10 14.4236  3.4146   2
   2  -8  10 11.2854  2.9056   1
  -2  -8 -10 6.25201 2.15005   2
   4  -8  10 5.11329 1.38166   1
  -4  -8 -10 6.47966 1.70131   2
  -3  -9  10 23.7354  4.2898   1
  -1  -9  10 36.5831  5.3767   1
   1  -9 -10 37.8523  5.4963   2
   1  -9  10 43.6767  6.0851   1
  -1  -9 -10 43.0611  6.2670   2
  -3  -9 -10 23.8844  4.3120   2
   3  -9  10 30.9013  4.9847   1
   6   0 -11 0.06488 0.87786   1
   4   0 -11 2.15041 0.66556   2
   4   0 -11 0.47764 1.28506   1
   2   0 -11 -0.6496  0.5697   2
   2   0 -11 0.70254 0.99846   1
   0   0 -11 0.50230 1.05355   2
   2   0  11 -0.1565  0.2853   1
  -2   0 -11 0.47332 0.94874   2
  -4   0 -11 0.17199 0.43719   2
   7  -1 -11 15.6886  3.2552   1
   7   1 -11 19.8565  3.6577   1
   5  -1 -11 52.6993  4.2922   2
   5  -1 -11 46.3268  4.7187   1
   5   1 -11 54.4314  4.5607   2
   5   1 -11 49.1967  5.0552   1
   3  -1 -11 109.227   6.829   2
   3  -1 -11 107.482   6.677   1
   3   1 -11 101.302   6.652   2
   3   1 -11 102.569   6.720   1
   1  -1 -11 177.069   8.322   1
   1  -1 -11 193.087   9.998   2
   1   1 -11 206.809   9.910   2
   1  -1  11 193.736   8.908   1
  -1  -1 -11 217.468  10.702   2
  -1   1 -11 202.068  10.577   2
   1   1  11 219.110   8.075   1
  -3  -1 -11 106.790   6.694   2
   3  -1  11 111.712   5.769   1
  -3   1 -11 119.023   6.820   2
   6  -2 -11 119.370   8.189   1
   6   2 -11 116.504   8.265   1
   4  -2 -11 327.765  14.278   2
   4  -2 -11 304.050  13.731   1
   4   2 -11 287.590  13.822   1
   4   2 -11 271.793  13.851   2
   2  -2 -11 579.140  23.911   2
   2  -2 -11 578.518  21.706   1
   2   2 -11 594.355  23.751   2
   2   2 -11 602.647  22.118   1
   0  -2 -11 645.278  25.799   2
   0  -2  11 639.754  23.655   1
   0  -2 -11 659.583  22.106   1
   0   2 -11 660.571  25.874   2
  -2  -2 -11 641.955  23.666   2
   2  -2  11 567.196  21.315   1
  -2   2 -11 529.372  22.695   2
   4  -2  11 323.139  13.247   1
  -4  -2 -11 296.365  14.078   2
   7  -3 -11 0.29177 0.74773   1
   7   3 -11 -0.7085  0.7118   1
   5  -3 -11 4.17682 1.94156   1
   5   3 -11 2.47609 1.34125   1
   5   3 -11 3.29409 1.09466   2
   3  -3 -11 15.6649  2.8260   2
   3  -3 -11 15.2976  2.7125   1
   3   3 -11 14.6995  2.9504   1
   3   3 -11 14.7668  2.9247   2
   1  -3 -11 24.7425  3.6656   2
  -1  -3  11 29.1200  2.9470   1
   1  -3 -11 27.2812  2.1900   1
   1   3 -11 19.9544  3.6411   2
  -1  -3 -11 22.4942  3.9155   2
   1  -3  11 28.9188  2.8749   1
  -1   3 -11 19.1087  3.3308   2
  -3  -3 -11 17.3148  3.2295   2
   3  -3  11 15.1314  2.6720   1
  -3   3 -11 12.3536  2.1140   2
   5  -3  11 5.64759 1.57501   1
   6  -4 -11 17.7785  3.5786   1
   6   4 -11 21.4156  3.7457   2
   6   4 -11 22.0522  3.7145   1
   4  -4 -11 42.5577  4.1023   2
   4  -4 -11 43.1629  4.1296   1
   4   4 -11 38.8234  4.3390   2
   2  -4 -11 80.1057  5.8807   2
   2  -4 -11 70.8795  4.5869   1
  -2  -4  11 66.2688  5.4054   1
   2   4 -11 64.0177  5.4599   2
   0  -4 -11 87.1774  6.4257   2
   0  -4  11 87.1719  5.9147   1
   0   4 -11 87.7748  6.5998   2
  -2  -4 -11 64.0791  5.9386   2
   2  -4  11 73.3123  5.3456   1
  -2   4 -11 75.0852  5.4292   2
   4  -4  11 47.5807  4.3882   1
  -4  -4 -11 54.8243  5.0303   2
   6  -4  11 18.2173  3.1383   1
   5  -5 -11 10.0490  2.3530   1
  -5  -5  11 12.9938  3.0060   1
   5   5 -11 12.4277  2.5703   2
   3  -5 -11 31.0575  3.1692   1
  -3  -5  11 27.0663  4.4533   1
   3  -5 -11 32.5870  3.6172   2
   3   5 -11 29.8665  4.5564   2
   1  -5 -11 35.2862  5.0347   2
  -1  -5  11 42.5123  4.3419   1
   1   5 -11 34.6232  5.0630   2
   1  -5  11 44.2301  4.4919   1
  -1  -5 -11 38.1513  5.3536   2
  -1   5 -11 52.7990  5.0363   2
   3  -5  11 28.0611  4.3463   1
  -3  -5 -11 24.3890  4.1355   2
  -5  -5 -11 13.0704  2.6864   2
   5  -5  11 12.7144  2.6590   1
   6  -6 -11 33.8543  5.0148   1
  -6  -6  11 44.7854  4.5700   1
   6   6 -11 33.7868  4.8082   2
  -4  -6  11 74.6031  6.6130   1
   4  -6 -11 86.5025  6.1473   1
   4   6 -11 81.7241  6.8216   2
  -2  -6  11 140.462   9.218   1
   2  -6 -11 160.942   9.841   2
   2   6 -11 142.124   9.722   2
   0  -6 -11 170.098  10.805   2
   0  -6  11 175.744  10.303   1
   0   6 -11 172.038  10.654   2
  -2  -6 -11 134.612   9.734   2
   2  -6  11 147.949   9.172   1
  -2   6 -11 142.821   8.788   2
   4  -6  11 87.0998  6.7721   1
  -4  -6 -11 83.4669  7.0316   2
   6  -6  11 36.1526  5.2351   1
  -5  -7  11 7.84742 2.11643   1
   5  -7 -11 11.3932  2.4200   1
   5   7 -11 9.20147 2.13236   2
  -3  -7  11 27.0693  4.5586   1
   3  -7 -11 29.6245  4.3752   2
   3   7 -11 24.1039  4.3440   2
   1  -7 -11 38.1276  5.5800   2
  -1  -7  11 42.0017  5.8997   1
   1   7 -11 36.8970  5.5841   2
   1  -7  11 31.8341  5.0175   1
  -1  -7 -11 36.9156  5.5065   2
  -1   7 -11 41.8787  5.5829   2
   3  -7  11 20.5723  3.9491   1
  -3  -7 -11 24.4843  4.4549   2
  -5  -7 -11 14.1596  2.9692   2
   5  -7  11 11.6108  2.6371   1
  -4  -8  11 23.7853  4.3495   1
   4   8 -11 21.9764  4.1296   2
  -2  -8  11 46.5682  6.5119   1
   2  -8 -11 47.5176  4.7967   2
   2   8 -11 42.6747  6.1901   2
   0  -8  11 53.4527  6.8985   1
   0  -8 -11 51.0031  6.9659   2
   0   8 -11 56.4429  5.6776   2
   2  -8  11 44.9820  6.2510   1
  -2  -8 -11 32.3445  5.3048   2
  -4  -8 -11 19.1867  3.7837   2
   4  -8  11 26.6269  4.5197   1
   1  -9 -11 29.6236  4.8019   2
  -1  -9  11 30.4697  4.9299   1
   1   9 -11 35.5922  5.8863   2
   1  -9  11 32.9078  5.1004   1
  -1  -9 -11 33.3634  5.5468   2
   6   0 -12 4.84736 1.94702   1
   4   0 -12 8.62172 2.59795   1
   4   0 -12 9.00791 2.17741   2
   2   0 -12 9.38661 2.16270   1
   2   0 -12 9.71541 2.38394   2
   0   0 -12 11.7271  2.7256   2
  -2   0 -12 8.50439 2.23647   2
   2   0  12 11.0917  1.6211   1
   7   1 -12 2.24391 1.07466   1
   5  -1 -12 11.7951  2.9916   1
   5  -1 -12 10.3429  2.1805   2
   5   1 -12 11.5562  2.3768   2
   5   1 -12 12.9886  3.1568   1
   3  -1 -12 26.1364  4.0190   1
   3  -1 -12 26.6679  3.8094   2
   3   1 -12 23.6696  3.7352   2
   3   1 -12 24.1898  3.7635   1
   1  -1 -12 29.5483  2.7731   1
   1  -1 -12 37.5439  3.7930   2
  -1  -1  12 40.0741  3.1512   1
   1   1 -12 32.6114  3.6472   2
   1  -1  12 36.1424  2.8772   1
  -1  -1 -12 43.6956  4.4507   2
  -1   1 -12 35.4396  4.6415   2
   1   1  12 41.2705  2.4254   1
   3  -1  12 24.8581  2.1680   1
  -3  -1 -12 24.4221  3.5602   2
  -3   1 -12 23.6514  3.4754   2
   6  -2 -12 12.8732  3.0034   1
   6   2 -12 15.0972  3.3265   1
   6   2 -12 13.7306  2.5242   2
   4  -2 -12 34.8422  3.7108   2
   4  -2 -12 35.0893  4.7446   1
   4   2 -12 30.7689  4.2505   2
   4   2 -12 30.8724  4.6294   1
   2  -2 -12 85.9969  6.2426   2
   2  -2 -12 77.4859  5.2486   1
   2   2 -12 94.6551  6.3988   2
   0  -2 -12 101.173   7.107   2
   0  -2  12 94.8920  5.6853   1
   0   2 -12 100.806   6.917   2
  -2  -2 -12 90.0460  6.6324   2
   2  -2  12 89.6678  5.3243   1
  -2   2 -12 79.1215  5.8569   2
  -4  -2 -12 35.8304  5.0118   2
   7  -3 -12 1.51286 0.81227   1
   7   3 -12 1.13970 1.09772   1
   5  -3 -12 0.41974 1.07321   1
   5   3 -12 4.85761 1.82657   2
   5   3 -12 2.02309 1.02575   1
   3  -3 -12 2.02044 1.00409   1
   3  -3 -12 5.05041 1.60605   2
   3   3 -12 5.62868 1.89126   2
  -1  -3  12 7.36612 2.00336   1
   1  -3 -12 5.69662 1.23879   1
   1  -3 -12 9.93794 2.46784   2
   1   3 -12 3.40858 2.11626   2
   1  -3  12 4.13578 1.36169   1
  -1  -3 -12 7.87255 2.53611   2
  -1   3 -12 6.84303 2.32169   2
   3  -3  12 8.75635 1.90805   1
  -3  -3 -12 6.88757 2.25379   2
  -3   3 -12 5.31574 1.43073   2
   5  -3  12 2.96779 1.07211   1
   6  -4 -12 8.44661 2.06663   1
   6   4 -12 11.0350  2.3448   1
   6   4 -12 13.1141  2.6635   2
   4  -4 -12 39.3196  3.9797   1
   4  -4 -12 49.8256  4.5164   2
  -4  -4  12 53.1349  5.3364   1
   4   4 -12 49.8706  4.9400   2
   2  -4 -12 96.1936  5.4310   1
  -2  -4  12 86.4896  6.4068   1
   2  -4 -12 87.6674  6.7958   2
   2   4 -12 84.8140  6.5762   2
   0  -4 -12 120.758   8.041   2
   0  -4  12 114.013   7.244   1
   0   4 -12 116.276   8.119   2
  -2  -4 -12 88.2673  7.2898   2
   2  -4  12 100.834   6.571   1
  -2   4 -12 94.3421  6.6008   2
   4  -4  12 47.2504  4.3083   1
  -4  -4 -12 62.7632  5.4180   2
   6  -4  12 17.3213  2.6552   1
   5  -5 -12 13.2881  2.7848   1
  -5  -5  12 16.0660  3.3251   1
   5   5 -12 14.3539  2.8786   2
   3  -5 -12 30.6289  3.0535   1
  -3  -5  12 33.4961  5.0819   1
   3  -5 -12 35.9013  3.8455   2
   3   5 -12 31.4654  4.8211   2
  -1  -5  12 48.0133  4.6509   1
   1  -5 -12 43.2618  4.8557   2
   1   5 -12 52.0326  5.3290   2
  -1  -5 -12 59.3577  5.8578   2
   1  -5  12 56.9357  5.1035   1
  -1   5 -12 54.1398  5.2135   2
   3  -5  12 35.8814  4.9867   1
  -3  -5 -12 40.0149  5.6528   2
  -5  -5 -12 15.3767  2.9020   2
   5  -5  12 13.8112  2.6418   1
  -4  -6  12 29.1920  4.9559   1
   4  -6 -12 25.2391  3.6998   1
   4   6 -12 23.8005  4.2829   2
  -2  -6  12 49.1357  5.1405   1
   2  -6 -12 44.5786  5.8987   2
   2   6 -12 48.9069  5.3121   2
   0  -6 -12 59.8464  5.9752   2
   0  -6  12 60.0008  5.5068   1
   0   6 -12 56.8543  5.7690   2
   2  -6  12 41.5278  5.6626   1
  -2  -6 -12 49.7629  5.4717   2
  -2   6 -12 52.0048  4.7576   2
   4  -6  12 28.9059  4.6389   1
  -4  -6 -12 20.7091  3.9196   2
  -3  -7  12 17.8510  3.7450   1
   3  -7 -12 12.5196  2.9236   2
   3   7 -12 19.8454  4.0196   2
   1  -7 -12 29.3132  4.8951   2
  -1  -7  12 30.7731  5.1014   1
   1   7 -12 25.9073  4.6545   2
   1  -7  12 35.4413  5.3084   1
  -1  -7 -12 30.9087  5.2492   2
  -1   7 -12 34.4428  5.0485   2
  -3  -7 -12 14.8453  3.5994   2
   3  -7  12 17.8055  3.5530   1
   2  -8 -12 8.04176 2.19306   2
  -2  -8  12 9.12866 2.73521   1
   2   8 -12 7.84863 2.30454   2
   0  -8  12 10.0294  2.5870   1
   0  -8 -12 11.4927  2.8491   2
   0   8 -12 12.9009  3.2567   2
  -2  -8 -12 7.96016 2.50191   2
   2  -8  12 8.20994 2.37556   1
   1  -9 -12 1.66578 1.06299   2
  -1  -9  12 4.62719 1.47452   1
   1   9 -12 7.26833 1.94360   2
   1  -9  12 3.97491 1.61319   1
  -1  -9 -12 3.73984 1.66351   2
  -1   9 -12 1.88756 1.11628   2
   6   0 -13 1.19149 0.99193   1
   4   0 -13 0.57516 1.38667   1
   4   0 -13 -0.7836  0.6703   2
   2   0 -13 0.87984 1.35030   2
   2   0 -13 0.14829 0.90823   1
   0   0 -13 -1.6173  1.1146   2
   0   0  13 -0.2357  0.3261   1
  -2   0 -13 -0.5400  0.9170   2
   7  -1 -13 7.62637 1.96234   1
   7   1 -13 9.62070 2.26413   1
   5  -1 -13 27.1087  4.1366   2
   5  -1 -13 30.1289  4.7787   1
   5   1 -13 29.5612  4.7670   1
   5   1 -13 26.8132  4.0963   2
   3  -1 -13 57.8349  5.2861   2
   3  -1 -13 67.9666  5.2207   1
   3   1 -13 55.7808  5.2162   2
   3   1 -13 54.1878  5.0037   1
   1  -1 -13 94.6236  5.3914   1
  -1  -1  13 98.7062  5.5434   1
   1  -1 -13 90.2802  6.6084   2
   1   1 -13 96.7894  6.7869   2
  -1  -1 -13 114.148   7.602   2
  -1   1 -13 89.4806  6.9900   2
  -3  -1 -13 55.8362  4.9482   2
  -3   1 -13 64.9108  4.8984   2
   6  -2 -13 43.5725  5.8728   1
   6   2 -13 45.8494  6.1103   1
   6   2 -13 53.4045  4.8692   2
   4  -2 -13 121.717   7.834   2
   4  -2 -13 112.813   7.429   1
   4   2 -13 108.867   7.700   2
   4   2 -13 104.281   7.440   1
   2  -2 -13 203.593   9.964   1
   2  -2 -13 196.887  11.227   2
  -2  -2  13 202.997  10.266   1
   2   2 -13 218.971  11.461   2
   0  -2 -13 227.948  12.015   2
   0  -2  13 222.452  10.310   1
   0   2 -13 223.332  11.897   2
   2  -2  13 186.357   9.321   1
  -2  -2 -13 235.676  11.657   2
  -2   2 -13 187.706  10.460   2
  -4  -2 -13 109.088   7.300   2
   5  -3 -13 29.0274  4.5795   1
   5   3 -13 38.7344  5.2731   1
   5   3 -13 33.6121  4.7526   2
  -3  -3  13 79.1295  6.1237   1
   3  -3 -13 71.6362  5.2272   1
   3  -3 -13 68.1403  5.8493   2
   3   3 -13 79.0647  6.3478   2
   1  -3 -13 95.8538  7.1688   2
  -1  -3  13 93.3634  6.4468   1
   1   3 -13 95.6446  7.2297   2
   1  -3  13 103.148   6.341   1
  -1  -3 -13 95.0613  7.1552   2
  -1   3 -13 98.9093  7.1632   2
  -3  -3 -13 79.6453  6.3096   2
   3  -3  13 75.8156  5.3003   1
  -3   3 -13 76.6863  5.4272   2
   6  -4 -13 1.99670 0.87628   1
   6   4 -13 0.46047 0.91551   1
   6   4 -13 -0.2114  0.8139   2
  -4  -4  13 2.43415 1.45987   1
   4  -4 -13 7.15170 1.83758   1
   4  -4 -13 6.68319 1.72328   2
   4   4 -13 7.28807 2.05749   2
   2  -4 -13 10.9510  2.8346   2
  -2  -4  13 10.7349  2.8346   1
   2   4 -13 8.66935 2.51603   2
   0  -4 -13 12.8883  2.9572   2
   0  -4  13 14.6154  2.9426   1
   0   4 -13 11.5921  2.8818   2
  -2  -4 -13 7.88530 2.79427   2
   2  -4  13 9.18024 2.16765   1
  -2   4 -13 13.6952  2.7560   2
   4  -4  13 4.44402 1.37198   1
  -4  -4 -13 4.54267 1.59669   2
   5  -5 -13 20.6022  3.3530   1
  -5  -5  13 22.8171  3.9350   1
   5   5 -13 27.0848  4.2819   2
   3  -5 -13 53.4769  5.1837   2
  -3  -5  13 56.5446  5.3687   1
   3   5 -13 50.6472  5.1578   2
  -1  -5  13 81.0132  6.2976   1
   1  -5 -13 70.7993  6.3880   2
   1   5 -13 85.3172  7.0026   2
  -1  -5 -13 88.8686  7.4976   2
   1  -5  13 80.7413  6.3990   1
  -1   5 -13 84.5119  6.7118   2
  -3  -5 -13 47.3965  6.3730   2
   3  -5  13 55.9328  4.9798   1
   5  -5  13 29.0600  4.3723   1
  -5  -5 -13 29.0195  4.4385   2
  -4  -6  13 20.3400  3.9533   1
   4   6 -13 30.0169  4.7695   2
   2  -6 -13 40.9691  4.5673   2
  -2  -6  13 51.2402  4.9938   1
   2   6 -13 40.5725  5.8539   2
   0  -6 -13 55.4967  5.9020   2
   0  -6  13 65.8960  5.7894   1
   0   6 -13 60.4270  5.9924   2
  -2  -6 -13 44.9712  6.3185   2
   2  -6  13 48.6033  4.8284   1
  -2   6 -13 46.7768  4.5881   2
  -4  -6 -13 25.5930  4.3347   2
   4  -6  13 30.4702  4.6020   1
   3  -7 -13 65.7718  5.7530   2
  -3  -7  13 60.9226  5.8494   1
   3   7 -13 58.5076  6.0370   2
  -1  -7  13 84.1066  7.1566   1
   1  -7 -13 85.1305  7.5464   2
   1   7 -13 93.6206  7.8980   2
  -1  -7 -13 95.9988  8.1646   2
   1  -7  13 97.4385  7.5828   1
  -1   7 -13 79.3875  6.8729   2
   3  -7  13 65.4537  5.9710   1
  -3  -7 -13 55.4774  5.9954   2
   2  -8 -13 43.4395  4.8046   2
  -2  -8  13 39.5376  5.9868   1
   2   8 -13 41.7620  6.0631   2
   0  -8 -13 47.2442  6.7667   2
   0  -8  13 52.6176  6.9141   1
   0   8 -13 42.9934  6.1147   2
  -2  -8 -13 39.6014  5.9057   2
   2  -8  13 39.1083  5.7940   1
   6   0 -14 5.47341 1.96063   1
   4   0 -14 24.2109  4.1860   1
   4   0 -14 17.8026  3.5254   2
   2   0 -14 38.7741  3.9009   1
   2   0 -14 46.8435  4.8032   2
   0   0 -14 71.5707  6.2826   2
   0   0  14 65.2650  4.0896   1
  -2   0 -14 40.9101  4.4337   2
   5  -1 -14 0.55868 0.88293   1
   5  -1 -14 -0.6252  0.7642   2
   5   1 -14 1.67464 0.97017   2
   5   1 -14 0.08277 0.87959   1
   3  -1 -14 0.61768 1.21460   2
   3  -1 -14 4.52702 1.88542   1
   3   1 -14 0.72511 1.13906   1
   3   1 -14 1.25234 1.45011   2
  -1  -1  14 4.63821 1.18784   1
   1  -1 -14 4.56036 1.10627   1
   1  -1 -14 3.30568 1.54930   2
   1   1 -14 3.58247 1.79830   2
  -1  -1 -14 4.21444 2.15388   2
   1  -1  14 -0.2092  0.3712   1
  -1   1 -14 0.30950 1.91296   2
  -3  -1 -14 2.23623 1.12154   2
  -3   1 -14 1.83425 1.79202   2
   6  -2 -14 9.15970 2.51427   1
   6   2 -14 10.0165  2.1217   2
   6   2 -14 11.6602  2.7598   1
   4  -2 -14 41.4453  4.3278   2
   4  -2 -14 39.4541  5.3605   1
   4   2 -14 38.8454  5.2740   2
   4   2 -14 38.9248  5.3432   1
  -2  -2  14 78.8125  5.6968   1
   2  -2 -14 69.7180  6.2130   2
   2  -2 -14 85.6535  5.5397   1
   2   2 -14 75.3640  6.3170   2
   0  -2 -14 90.8205  7.1214   2
   0  -2  14 91.9128  5.6937   1
   0   2 -14 88.3463  7.0404   2
   2  -2  14 80.7831  5.2737   1
  -2  -2 -14 93.8088  7.1425   2
  -2   2 -14 82.5582  6.3377   2
  -4  -2 -14 35.3721  3.8922   2
   5  -3 -14 3.47773 1.08642   1
   5   3 -14 6.78431 1.91884   2
   5   3 -14 8.39406 2.20669   1
  -3  -3  14 13.2465  3.0383   1
   3  -3 -14 18.2196  3.4494   2
   3  -3 -14 20.3714  3.3067   1
   3   3 -14 20.8553  3.8237   2
  -1  -3  14 30.1789  4.3729   1
   1  -3 -14 28.3337  4.4763   2
   1   3 -14 32.0044  4.8113   2
  -1  -3 -14 30.2153  4.7867   2
   1  -3  14 27.8883  3.9563   1
  -1   3 -14 27.8340  4.4888   2
  -3  -3 -14 22.3691  3.9549   2
   3  -3  14 17.9426  3.0023   1
  -3   3 -14 22.0878  3.1512   2
   6  -4 -14 8.61510 1.79249   1
   6   4 -14 7.33493 1.81359   2
   6   4 -14 11.2701  2.8101   1
   4  -4 -14 30.9017  4.5771   2
   4  -4 -14 30.2545  4.3136   1
  -4  -4  14 28.6144  4.5355   1
   4   4 -14 28.5692  4.4171   2
  -2  -4  14 53.1393  5.0447   1
   2  -4 -14 55.1649  5.5560   2
   2   4 -14 41.6005  5.6471   2
   0  -4 -14 58.1083  5.6519   2
   0  -4  14 58.0628  5.2362   1
   0   4 -14 68.0236  6.3402   2
  -2  -4 -14 49.5872  5.3509   2
   2  -4  14 45.0818  4.3410   1
  -2   4 -14 48.2551  4.6625   2
   4  -4  14 26.7151  3.8853   1
  -4  -4 -14 29.3776  4.5155   2
   5  -5 -14 18.2101  3.2990   1
  -5  -5  14 20.8523  3.6310   1
   5   5 -14 16.6543  3.2279   2
   3  -5 -14 43.1713  4.7868   2
  -3  -5  14 39.7053  5.6861   1
   3   5 -14 42.1336  5.8656   2
  -1  -5  14 60.9442  5.4596   1
   1  -5 -14 59.8638  5.8766   2
   1   5 -14 65.7452  6.2703   2
   1  -5  14 65.0956  5.6953   1
  -1  -5 -14 60.5126  6.2634   2
  -1   5 -14 66.7778  5.9889   2
  -3  -5 -14 42.5050  6.1609   2
   3  -5  14 49.3049  4.6103   1
  -5  -5 -14 14.8043  2.6975   2
   5  -5  14 17.9823  3.3782   1
  -4  -6  14 11.3086  2.8427   1
   4   6 -14 16.0922  3.4867   2
   2  -6 -14 35.2059  5.2599   2
  -2  -6  14 23.4735  4.3542   1
   2   6 -14 25.7644  4.5065   2
   0  -6 -14 36.7268  5.6451   2
   0  -6  14 33.6945  5.1085   1
   0   6 -14 36.4722  5.7191   2
  -2  -6 -14 24.8946  4.7439   2
   2  -6  14 24.1779  4.2411   1
  -2   6 -14 26.6208  3.9553   2
  -4  -6 -14 12.5369  2.8710   2
   4  -6  14 24.6807  3.9408   1
   3  -7 -14 5.76820 1.97859   2
  -3  -7  14 6.26192 1.74793   1
   3   7 -14 6.09081 1.70818   2
  -1  -7  14 8.37277 2.32661   1
   1  -7 -14 6.05375 2.19282   2
   1   7 -14 11.4687  3.0105   2
  -1  -7 -14 8.63638 2.68646   2
   1  -7  14 5.31655 1.99018   1
  -1   7 -14 5.66735 1.54489   2
  -3  -7 -14 2.19657 1.22278   2
   3  -7  14 8.02145 2.27054   1
  -2  -8  14 1.27163 0.99988   1
   2  -8 -14 0.61342 1.09762   2
   2   8 -14 3.80980 1.28133   2
   0  -8 -14 0.70700 1.29690   2
   0  -8  14 0.63392 0.89971   1
   0   8 -14 1.17009 0.90545   2
  -2  -8 -14 2.88426 1.36733   2
   2  -8  14 1.76405 1.07448   1
   6   0 -15 0.22566 0.72452   1
   4   0 -15 2.19827 1.24348   1
   4   0 -15 -0.0141  0.7140   2
   2   0 -15 0.58264 0.74894   1
   2   0 -15 0.04900 1.10482   2
   0   0  15 -0.7255  0.4131   1
   0   0 -15 -0.1915  1.7040   2
  -2   0 -15 -0.0349  0.9372   2
   5  -1 -15 15.9423  3.3773   1
   5  -1 -15 17.2050  3.2670   2
   5   1 -15 15.1152  3.3718   1
   5   1 -15 22.0189  3.7042   2
   3  -1 -15 34.5675  5.2144   2
   3  -1 -15 38.2906  3.9223   1
   3   1 -15 38.9391  5.3090   1
   3   1 -15 38.6268  5.3146   2
  -1  -1  15 69.6045  4.7429   1
   1  -1 -15 64.1584  5.9203   2
   1  -1 -15 56.8332  4.1184   1
   1   1 -15 60.4615  5.6369   2
   1  -1  15 52.0129  3.8264   1
  -1  -1 -15 64.2113  5.9232   2
  -1   1 -15 61.3106  5.9045   2
  -3  -1 -15 41.6564  4.4459   2
  -3   1 -15 43.3206  4.2623   2
   6  -2 -15 26.5029  4.2667   1
   6   2 -15 30.8362  3.4113   2
   6   2 -15 25.7835  4.3617   1
   4  -2 -15 90.2934  6.6092   1
   4  -2 -15 76.1977  6.4411   2
   4   2 -15 71.5429  6.2033   1
   4   2 -15 80.6870  6.7239   2
   2  -2 -15 142.166   9.664   2
  -2  -2  15 150.187   8.488   1
   2  -2 -15 150.578   8.098   1
   2   2 -15 153.842   9.805   2
   0  -2 -15 167.187  10.634   2
   0  -2  15 176.615   8.937   1
   0   2 -15 163.801  10.397   2
  -2  -2 -15 173.555  10.175   2
   2  -2  15 149.740   8.002   1
  -2   2 -15 141.323   9.187   2
  -4  -2 -15 73.4365  5.8950   2
   5  -3 -15 16.9799  2.9838   1
   5   3 -15 17.6160  3.5253   1
   5   3 -15 15.7662  2.9586   2
  -3  -3  15 51.4312  4.7599   1
   3  -3 -15 48.8980  5.1809   2
   3  -3 -15 46.5965  4.1747   1
   3   3 -15 51.2752  5.1928   2
  -1  -3  15 64.8151  5.3071   1
   1  -3 -15 63.3605  6.0918   2
   1   3 -15 71.7564  6.5603   2
   1  -3  15 71.4398  5.3044   1
  -1  -3 -15 65.8193  6.2787   2
  -1   3 -15 77.6567  6.4447   2
  -3  -3 -15 55.4500  5.1559   2
   3  -3  15 49.1541  4.2612   1
   4  -4 -15 6.97106 1.40301   2
  -4  -4  15 7.32600 1.91463   1
   4  -4 -15 6.95373 1.47251   1
   4   4 -15 7.55897 2.09931   2
  -2  -4  15 16.8367  3.4269   1
   2  -4 -15 11.3164  3.0177   2
   2   4 -15 8.07770 2.68122   2
   0  -4  15 14.5088  3.1772   1
   0  -4 -15 13.0714  3.2149   2
   0   4 -15 10.6431  3.0783   2
   2  -4  15 15.1465  2.9278   1
  -2  -4 -15 12.0333  3.1687   2
  -2   4 -15 13.5578  2.8815   2
  -4  -4 -15 6.26258 1.85242   2
   4  -4  15 4.98591 1.34652   1
  -5  -5  15 10.2236  2.6139   1
   5  -5 -15 12.5750  1.8817   1
   5   5 -15 11.5698  2.3244   2
   3  -5 -15 29.8354  4.7935   2
  -3  -5  15 20.8953  3.9846   1
   3   5 -15 22.4388  4.3430   2
   1  -5 -15 41.9940  5.7626   2
  -1  -5  15 32.8789  5.0301   1
   1   5 -15 33.3373  5.2584   2
  -1  -5 -15 36.1643  5.5171   2
   1  -5  15 39.9239  5.5197   1
  -1   5 -15 45.1290  4.8003   2
  -3  -5 -15 22.0244  4.4040   2
   3  -5  15 23.7969  3.8525   1
   5  -5  15 14.5687  2.3505   1
  -5  -5 -15 11.1533  2.7115   2
  -4  -6  15 32.6156  5.1504   1
   4   6 -15 34.0991  5.2381   2
  -2  -6  15 66.6180  6.0776   1
   2  -6 -15 63.7797  6.2238   2
   2   6 -15 58.7571  6.0728   2
   0  -6 -15 83.7610  7.4216   2
   0  -6  15 79.5401  6.7831   1
   0   6 -15 77.8583  7.2369   2
   2  -6  15 60.9259  5.6521   1
  -2  -6 -15 65.2877  6.5626   2
  -2   6 -15 62.4238  5.4210   2
  -4  -6 -15 44.9090  4.8289   2
   4  -6  15 45.4670  4.2362   1
   3  -7 -15 3.10771 1.15826   2
  -3  -7  15 2.22316 0.92017   1
   3   7 -15 4.34257 1.70275   2
  -1  -7  15 4.70984 1.92569   1
   1  -7 -15 9.28431 2.69902   2
   1   7 -15 8.00063 2.30532   2
   1  -7  15 10.1902  2.5901   1
  -1  -7 -15 5.56525 1.98790   2
  -1   7 -15 7.34463 1.66322   2
   3  -7  15 3.70596 1.17209   1
  -3  -7 -15 2.19272 1.31164   2
   0  -8  15 22.2222  4.0601   1
   0  -8 -15 36.8697  5.9273   2
   0   8 -15 31.0724  5.1608   2
   6   0 -16 14.8878  2.9251   1
   4   0 -16 58.8973  5.3937   1
   4   0 -16 61.5936  5.7806   2
   2   0 -16 115.087   8.438   2
   2   0 -16 126.176   7.449   1
   0   0 -16 211.913  12.601   2
  -2   0 -16 140.741   9.344   2
   5  -1 -16 21.2577  4.0673   1
   5  -1 -16 27.1106  4.1830   2
   5   1 -16 17.9990  3.8906   1
   5   1 -16 24.0237  3.8460   2
   3  -1 -16 50.2414  4.6071   1
   3  -1 -16 48.9929  5.2193   2
   3   1 -16 45.7029  6.1262   2
   3   1 -16 57.3298  5.0434   1
   1  -1 -16 83.6132  6.9972   2
  -1  -1  16 84.9204  5.6313   1
   1   1 -16 79.6157  6.7662   2
  -1   1  16 66.9442  4.5395   1
  -1  -1 -16 87.8866  7.2308   2
  -1   1 -16 77.6509  6.8513   2
  -3  -1 -16 51.8423  5.0443   2
  -3   1 -16 55.4518  4.9183   2
   4  -2 -16 50.2895  5.0361   2
   4  -2 -16 50.7457  4.7690   1
   4   2 -16 46.2828  4.9761   2
   4   2 -16 46.0325  4.8110   1
  -2  -2  16 109.653   7.091   1
   2  -2 -16 94.6528  7.7711   2
   2   2 -16 107.511   8.077   2
   0  -2  16 104.012   6.574   1
   0  -2 -16 104.270   8.207   2
   0   2 -16 110.089   8.293   2
  -2  -2 -16 110.001   8.089   2
  -2   2 -16 98.3246  7.3644   2
  -4  -2 -16 54.0898  5.0035   2
   5  -3 -16 5.10050 1.46526   1
   5   3 -16 2.97971 1.36245   1
   5   3 -16 -0.5169  1.0357   2
   3  -3 -16 10.1239  2.7732   2
  -3  -3  16 6.92417 2.17075   1
   3   3 -16 7.14626 2.35085   2
   1  -3 -16 20.9772  4.1943   2
  -1  -3  16 23.4824  4.0426   1
   1   3 -16 21.8184  4.3736   2
  -1  -3 -16 19.2624  4.0132   2
   1  -3  16 22.9965  3.6208   1
  -1   3 -16 22.5489  4.1656   2
  -3  -3 -16 12.3250  2.6988   2
  -4  -4  16 1.15649 0.63544   1
   4  -4 -16 0.06682 1.09605   2
   4   4 -16 -0.3611  0.8978   2
   2  -4 -16 1.07852 1.15648   2
  -2  -4  16 -0.4777  0.6561   1
   2   4 -16 1.89619 1.35671   2
   0  -4 -16 1.35841 1.07267   2
   0  -4  16 0.72759 0.68299   1
   0   4 -16 -0.8639  1.0305   2
   2  -4  16 0.78585 0.68818   1
  -2  -4 -16 -0.1993  1.1182   2
  -2   4 -16 2.14855 1.05517   2
  -4  -4 -16 1.31216 0.92582   2
   3  -5 -16 6.01265 1.53383   2
  -3  -5  16 2.96778 1.11438   1
   3   5 -16 2.08303 1.46057   2
   1  -5 -16 4.76926 1.92283   2
  -1  -5  16 5.56657 2.01631   1
   1   5 -16 12.1005  3.0418   2
   1  -5  16 9.58198 2.38382   1
  -1  -5 -16 7.55562 2.53938   2
  -1   5 -16 7.22180 2.09071   2
   3  -5  16 4.69849 1.16585   1
  -3  -5 -16 4.10125 1.70615   2
   2  -6 -16 3.31999 1.42178   2
  -2  -6  16 6.59204 1.85334   1
   2   6 -16 6.98714 1.91480   2
   0  -6  16 10.9444  2.6984   1
   0   6 -16 14.3106  3.2758   2
   2  -6  16 4.21441 1.18071   1
  -2  -6 -16 4.55334 1.95801   2
  -1  -7  16 7.81835 2.10457   1
   1  -7 -16 11.4403  2.9219   2
   1   7 -16 4.32137 1.65092   2
  -1  -7 -16 8.43766 2.45831   2
   1  -7  16 6.58560 2.17959   1
  -1   7 -16 2.25376 1.22929   2
   4   0 -17 3.79938 1.24496   2
   4   0 -17 0.39589 0.70815   1
   2   0 -17 -1.2640  0.5941   2
   0   0 -17 0.81951 1.72270   2
  -2   0 -17 0.17253 1.20814   2
   5  -1 -17 35.7568  5.2790   1
   5  -1 -17 31.9469  4.6104   2
   5   1 -17 32.2700  4.9337   1
   5   1 -17 33.8136  4.8770   2
   3  -1 -17 80.5749  5.8591   1
   3  -1 -17 62.6638  6.1345   2
   3   1 -17 72.2071  6.6362   2
   3   1 -17 65.0095  5.5593   1
   1  -1 -17 106.467   8.548   2
  -1  -1  17 118.065   7.057   1
   1   1 -17 117.224   8.721   2
  -1  -1 -17 125.282   8.829   2
  -1   1 -17 102.770   8.029   2
  -3  -1 -17 65.9041  5.9243   2
  -3   1 -17 66.7847  5.5431   2
   4  -2 -17 24.1339  3.9750   1
   4  -2 -17 21.8445  3.8134   2
   4   2 -17 20.7610  3.8369   2
   4   2 -17 21.9848  4.0538   1
  -2  -2  17 47.7203  4.3854   1
   2  -2 -17 37.5037  5.7411   2
   2   2 -17 42.3558  5.8415   2
   0  -2  17 45.5497  3.8753   1
   0  -2 -17 41.5547  5.9876   2
   0   2 -17 43.1096  6.1081   2
  -2  -2 -17 55.5595  5.7328   2
  -2   2 -17 34.0122  5.0570   2
  -4  -2 -17 28.0085  4.3597   2
   5  -3 -17 22.8930  3.8152   1
  -5  -3  17 21.3013  4.1192   1
   5   3 -17 21.1848  3.6918   2
  -3  -3  17 57.2189  5.3426   1
   3  -3 -17 47.5752  5.2464   2
   3   3 -17 56.8639  5.8062   2
   1  -3 -17 67.1537  6.5239   2
  -1  -3  17 68.9782  5.5593   1
   1   3 -17 76.4754  6.9477   2
  -1  -3 -17 73.9582  6.8141   2
   1  -3  17 73.4976  5.5711   1
  -1   3 -17 70.3164  6.4327   2
  -3  -3 -17 50.2649  5.1076   2
   4  -4 -17 4.98990 1.55478   2
  -4  -4  17 6.59666 1.89043   1
   4   4 -17 7.02934 1.84833   2
  -2  -4  17 10.4888  2.5965   1
   2  -4 -17 11.2405  3.0202   2
   2   4 -17 14.0000  3.4358   2
   0  -4 -17 7.25244 2.45197   2
   0  -4  17 12.5231  2.7696   1
   0   4 -17 7.16031 2.36840   2
   2  -4  17 7.10931 1.70009   1
  -2  -4 -17 8.47335 2.59277   2
  -2   4 -17 8.83977 2.17269   2
  -4  -4 -17 5.01071 1.58081   2
   3  -5 -17 35.9204  5.3231   2
  -3  -5  17 32.2081  5.0412   1
   3   5 -17 29.5067  5.1258   2
   1  -5 -17 44.6424  6.3988   2
  -1  -5  17 51.1327  5.0979   1
   1   5 -17 45.6040  6.3788   2
   1  -5  17 50.4636  4.8055   1
  -1  -5 -17 42.2981  6.2270   2
  -1   5 -17 41.5513  4.6474   2
  -3  -5 -17 31.8564  5.3126   2
   3  -5  17 30.2836  4.3561   1
   2  -6 -17 61.7543  6.2529   2
  -2  -6  17 47.1944  6.5295   1
   2   6 -17 57.1420  6.1355   2
   0  -6  17 75.7706  6.7232   1
   0  -6 -17 75.6039  7.3223   2
   0   6 -17 86.4779  7.5834   2
  -2  -6 -17 62.3535  6.1153   2
   2  -6  17 62.7171  5.3606   1
   1  -7 -17 8.77846 1.59943   2
  -1  -7  17 6.74134 2.06750   1
   1   7 -17 6.23749 2.23864   2
   1  -7  17 10.1047  2.3805   1
  -1  -7 -17 8.60732 2.44706   2
  -1   7 -17 3.33493 1.33873   2
   4   0 -18 31.1335  4.6854   1
   4   0 -18 29.5928  5.0622   2
  -2   0  18 42.9004  3.9008   1
   2   0 -18 43.7987  5.9934   2
   0   0 -18 85.2906  7.5055   2
  -2   0 -18 55.4405  5.5692   2
   5  -1 -18 0.58800 1.16789   2
   5  -1 -18 1.19241 0.82106   1
   5   1 -18 -0.1886  1.1420   2
   5   1 -18 -0.6424  0.7587   1
   3  -1 -18 1.85031 1.05621   2
  -3  -1  18 3.27447 0.91846   1
   3  -1 -18 2.42288 1.04707   1
   3   1 -18 1.53866 1.21697   2
  -1  -1  18 2.16526 0.64919   1
   1  -1 -18 2.17127 1.19806   2
   1   1 -18 2.39525 1.92093   2
  -1  -1 -18 3.47506 1.79736   2
  -1   1 -18 3.57685 1.89382   2
  -3  -1 -18 1.85952 1.00524   2
  -3   1 -18 -0.5266  0.6982   2
  -4  -2  18 9.71089 2.74008   1
   4  -2 -18 8.62593 1.62759   1
   4  -2 -18 7.54520 1.63971   2
   4   2 -18 9.91945 2.63093   2
  -2  -2  18 21.4433  3.7275   1
   2  -2 -18 15.7967  3.6517   2
   2   2 -18 16.1087  3.5511   2
   0  -2 -18 19.3509  4.1961   2
   0  -2  18 17.2236  2.9822   1
   0   2 -18 21.2736  4.3334   2
  -2  -2 -18 22.0361  4.2004   2
  -2   2 -18 17.7012  3.5853   2
  -4  -2 -18 8.14584 1.94583   2
  -3  -3  18 35.3907  5.3331   1
   3  -3 -18 38.0722  5.7524   2
   3   3 -18 31.2953  5.3681   2
   1  -3 -18 41.2104  6.1219   2
  -1  -3  18 40.7437  4.1300   1
   1   3 -18 38.5040  5.9742   2
   1  -3  18 44.6795  4.0019   1
  -1  -3 -18 38.7309  5.8241   2
  -1   3 -18 35.7970  5.4096   2
  -3  -3 -18 37.0884  5.4522   2
  -4  -4  18 7.74622 1.53309   1
   4  -4 -18 4.66160 2.02685   2
   4   4 -18 8.77932 1.99713   2
  -2  -4  18 15.2989  3.5100   1
   2  -4 -18 10.5259  2.9736   2
   2   4 -18 8.06805 2.04374   2
   0  -4 -18 18.6156  4.0511   2
   0  -4  18 22.7047  3.9745   1
   0   4 -18 15.0329  3.7420   2
   2  -4  18 10.1741  1.9905   1
  -2  -4 -18 11.1427  2.9151   2
  -2   4 -18 10.3952  2.3006   2
  -4  -4 -18 8.43091 1.63110   2
   3  -5 -18 -0.2116  1.0818   2
  -3  -5  18 0.73316 0.86097   1
   3   5 -18 0.16580 0.91395   2
   1  -5 -18 1.62277 1.21878   2
  -1  -5  18 1.81511 0.87854   1
   1   5 -18 1.76927 1.11512   2
  -1  -5 -18 1.76021 0.99084   2
   1  -5  18 2.12316 0.77537   1
  -3  -5 -18 3.25991 0.98514   2
   3  -5  18 -0.8322  0.8501   1
  -2  -6  18 15.2355  3.2438   1
   2  -6 -18 6.89464 2.29760   2
   2   6 -18 8.52324 2.04128   2
   0  -6 -18 7.83295 2.49566   2
   0  -6  18 12.0045  2.8212   1
   0   6 -18 12.9129  2.6825   2
   2  -6  18 10.9810  2.4949   1
  -2  -6 -18 10.6334  2.7255   2
   4   0 -19 0.11256 1.21060   2
   4   0 -19 1.61613 0.78431   1
  -2   0  19 -1.1475  0.5796   1
   2   0 -19 0.12544 0.88264   2
   0   0 -19 1.63708 1.50532   2
  -2   0 -19 -0.6848  0.9918   2
   3  -1 -19 47.1725  5.1555   2
  -3  -1  19 39.7701  3.9091   1
   3   1 -19 43.5356  6.3668   2
  -1  -1  19 67.7216  5.1229   1
   1  -1 -19 61.1082  6.3692   2
   1   1 -19 65.9116  6.5486   2
  -1  -1 -19 86.5316  7.3493   2
  -1   1 -19 58.2363  5.9032   2
  -3  -1 -19 46.1482  4.8117   2
  -3   1 -19 45.0495  4.3174   2
  -4  -2  19 60.9655  5.4539   1
   4  -2 -19 67.5127  6.1375   2
   4   2 -19 54.2978  5.7775   2
   2  -2 -19 106.830   9.251   2
  -2  -2  19 142.225   8.606   1
   2   2 -19 139.412  10.103   2
   0  -2 -19 132.460   9.779   2
   0  -2  19 119.213   7.438   1
   0   2 -19 126.877   9.727   2
  -2  -2 -19 137.547   9.588   2
  -2   2 -19 113.808   8.548   2
  -3  -3  19 33.8957  5.0609   1
   3  -3 -19 36.8944  5.7298   2
   3   3 -19 26.7063  4.7972   2
  -1  -3  19 39.3561  4.0068   1
   1  -3 -19 42.6199  6.2555   2
   1   3 -19 50.1422  6.7896   2
  -1  -3 -19 39.3597  5.9597   2
  -1   3 -19 45.6896  6.3277   2
  -3  -3 -19 33.2185  4.9669   2
  -2  -4  19 3.78658 1.07199   1
   2  -4 -19 4.96264 1.84253   2
   2   4 -19 2.04323 1.18702   2
   0  -4 -19 4.09896 1.49979   2
   0  -4  19 7.72170 2.38083   1
   0   4 -19 6.54647 2.09870   2
  -2  -4 -19 4.12943 1.80002   2
  -2   4 -19 5.55261 1.47555   2
  -1  -5  19 32.7829  5.3144   1
   1  -5 -19 28.1591  5.0359   2
   1   5 -19 24.1253  4.6781   2
   1  -5  19 24.8615  4.2309   1
  -1  -5 -19 22.6760  4.3975   2
  -1   5 -19 20.7294  3.8519   2
   2   0 -20 0.50947 0.87661   2
   0   0 -20 1.49393 1.56805   2
  -2   0 -20 -0.1152  0.8804   2
   3  -1 -20 15.0588  3.3965   2
  -3  -1  20 11.5178  2.3315   1
   3   1 -20 14.1867  3.7089   2
   1  -1 -20 24.8744  4.9013   2
   1   1 -20 34.1741  5.5337   2
  -1  -1 -20 41.8934  6.1315   2
  -1   1 -20 28.5803  4.9954   2
  -3  -1 -20 14.8753  3.2736   2
  -3   1 -20 18.6165  3.0901   2
  -2  -2  20 7.84553 1.79637   1
   2  -2 -20 7.90034 2.52436   2
   2   2 -20 7.23456 2.31897   2
   0  -2 -20 6.49713 2.23137   2
   0   2 -20 8.96577 2.51926   2
  -2  -2 -20 8.19377 2.32109   2
  -2   2 -20 7.61340 1.77862   2
   3  -3 -20 28.2214  5.1521   2
  -3  -3  20 24.7314  4.0710   1
   3   3 -20 24.3319  4.4389   2
   1  -3 -20 32.0265  5.2533   2
  -1  -3  20 32.2707  4.8525   1
   1   3 -20 31.8916  5.5613   2
  -1  -3 -20 38.9611  6.0394   2
  -1   3 -20 34.6571  5.3711   2
  -3  -3 -20 29.8659  3.2942   2
   2  -4 -20 41.4015  5.9953   2
  -2  -4  20 37.6238  5.5717   1
   2   4 -20 42.0360  6.2631   2
   0  -4 -20 39.5410  5.9755   2
   0  -4  20 49.8438  4.6490   1
   0   4 -20 41.0617  6.2239   2
  -2  -4 -20 39.0626  5.6724   2
  -2   4 -20 37.2496  5.2353   2
   2   0 -21 0.64850 1.07847   2
   0   0 -21 -0.2531  0.8527   2
  -2   0 -21 1.28564 0.95929   2
   1  -1 -21 6.10248 2.44777   2
   1   1 -21 11.1834  2.7461   2
  -1  -1 -21 7.89367 2.01744   2
  -1   1 -21 8.75482 2.65897   2
   2  -2 -21 83.7825  8.0222   2
  -2  -2  21 111.864   7.517   1
   2   2 -21 101.293   8.557   2
   0  -2 -21 94.4433  8.2877   2
   0   2 -21 102.856   8.630   2
  -2  -2 -21 97.0053  7.8153   2
  -2   2 -21 90.8392  7.6487   2
   1  -3 -21 0.56670 1.07113   2
  -1  -3  21 3.02377 0.95514   1
   1   3 -21 1.06184 1.11866   2
  -1  -3 -21 2.00036 0.97758   2
  -1   3 -21 2.33571 1.04794   2
   0   0 -22 16.5369  3.4294   2
   0   0   0    0.00    0.00   0
;
_shelx_hkl_checksum              4468
loop_
_space_group_symop_operation_xyz
'x, y, z'
'-x, -y, z+1/2'
'x, -y, z+1/2'
'-x, y, z'
'x+1/2, y+1/2, z'
'-x+1/2, -y+1/2, z+1/2'
'x+1/2, -y+1/2, z+1/2'
'-x+1/2, y+1/2, z'
loop_
_atom_site_label
_atom_site_type_symbol
_atom_site_fract_x
_atom_site_fract_y
_atom_site_fract_z
_atom_site_U_iso_or_equiv
_atom_site_adp_type
_atom_site_occupancy
_atom_site_site_symmetry_order
_atom_site_calc_flag
_atom_site_refinement_flags_posn
_atom_site_refinement_flags_adp
_atom_site_refinement_flags_occupancy
S1 S 1.0000 0.3751(3) 0.38733(15) 0.0277(6) Uani 1 2 d S T P
S2 S 1.0000 0.6310(3) 0.41933(12) 0.0264(6) Uani 1 2 d S T P
S3 S 1.0000 1.0122(3) 0.04029(17) 0.0309(6) Uani 1 2 d S T P
S4 S 1.0000 1.0983(3) 0.16566(14) 0.0239(5) Uani 1 2 d S T P
N1 N 1.0000 0.3974(10) 0.2858(5) 0.0253(16) Uani 1 2 d S T P
N2 N 1.0000 0.8090(10) 0.0579(5) 0.030(2) Uani 1 2 d S T P
O1 O 1.0000 0.4689(8) 0.1110(4) 0.0295(15) Uani 1 2 d S T P
O2 O 1.0000 0.9839(9) 0.3461(4) 0.0286(14) Uani 1 2 d S T P
C6 C 1.0000 0.5813(10) 0.1639(6) 0.0213(16) Uani 1 2 d S T P
C5 C 1.0000 0.7666(10) 0.1393(5) 0.0174(16) Uani 1 2 d S T P
C4 C 1.0000 0.8933(11) 0.2036(6) 0.0217(19) Uani 1 2 d S T P
C3 C 1.0000 0.8675(11) 0.2923(7) 0.0200(16) Uani 1 2 d S T P
C2 C 1.0000 0.6895(11) 0.3146(5) 0.0179(17) Uani 1 2 d S T P
C1 C 1.0000 0.5529(12) 0.2564(6) 0.0208(17) Uani 1 2 d S T P
loop_
_atom_site_aniso_label
_atom_site_aniso_U_11
_atom_site_aniso_U_22
_atom_site_aniso_U_33
_atom_site_aniso_U_23
_atom_site_aniso_U_13
_atom_site_aniso_U_12
S1 0.0380(14) 0.0241(10) 0.0211(11) 0.0071(10) 0.000 0.000
S2 0.0361(14) 0.0288(11) 0.0143(9) 0.0007(8) 0.000 0.000
S3 0.0470(14) 0.0274(12) 0.0183(10) 0.0053(10) 0.000 0.000
S4 0.0300(10) 0.0178(9) 0.0240(12) 0.0013(9) 0.000 0.000
N1 0.029(4) 0.021(4) 0.025(4) 0.002(3) 0.000 0.000
N2 0.047(5) 0.023(4) 0.019(4) 0.002(3) 0.000 0.000
O1 0.042(4) 0.025(4) 0.021(3) -0.009(3) 0.000 0.000
O2 0.042(4) 0.024(3) 0.020(3) -0.006(2) 0.000 0.000
C6 0.023(4) 0.025(4) 0.016(4) -0.004(4) 0.000 0.000
C5 0.017(4) 0.022(4) 0.013(4) -0.004(3) 0.000 0.000
C4 0.026(4) 0.019(4) 0.020(4) 0.001(3) 0.000 0.000
C3 0.021(4) 0.020(4) 0.019(4) -0.001(3) 0.000 0.000
C2 0.019(4) 0.023(4) 0.012(4) 0.003(3) 0.000 0.000
C1 0.027(5) 0.020(4) 0.015(4) -0.002(4) 0.000 0.000
loop_
_atom_type_symbol
_atom_type_description
_atom_type_scat_dispersion_real
_atom_type_scat_dispersion_imag
_atom_type_scat_source
C C 0.0033 0.0016 'International Tables Vol C Tables 4.2.6.8 and 6.1.1.4'
N N 0.0061 0.0033 'International Tables Vol C Tables 4.2.6.8 and 6.1.1.4'
O O 0.0106 0.0060 'International Tables Vol C Tables 4.2.6.8 and 6.1.1.4'
S S 0.1246 0.1234 'International Tables Vol C Tables 4.2.6.8 and 6.1.1.4'
loop_
_geom_angle_atom_site_label_1
_geom_angle_atom_site_label_2
_geom_angle_atom_site_label_3
_geom_angle
N1 S1 S2 97.7(3)
C2 S2 S1 91.7(3)
N2 S3 S4 99.2(3)
C4 S4 S3 91.2(3)
C1 N1 S1 116.9(7)
C5 N2 S3 114.5(6)
O1 C6 C1 124.4(9)
O1 C6 C5 122.0(8)
C1 C6 C5 113.6(7)
N2 C5 C4 120.7(8)
N2 C5 C6 119.5(8)
C4 C5 C6 119.8(8)
C3 C4 C5 127.0(8)
C3 C4 S4 118.6(7)
C5 C4 S4 114.4(7)
O2 C3 C4 124.3(8)
O2 C3 C2 123.3(9)
C4 C3 C2 112.3(8)
C1 C2 C3 125.6(8)
C1 C2 S2 114.7(6)
C3 C2 S2 119.7(7)
N1 C1 C2 119.0(8)
N1 C1 C6 119.4(8)
C2 C1 C6 121.6(7)
loop_
_geom_bond_atom_site_label_1
_geom_bond_atom_site_label_2
_geom_bond_distance
S1 N1 1.609(9)
S1 S2 2.084(3)
S2 C2 1.712(8)
S3 N2 1.629(8)
S3 S4 2.088(4)
S4 C4 1.726(9)
N1 C1 1.313(11)
N2 C5 1.324(10)
O1 C6 1.218(10)
O2 C3 1.249(11)
C6 C1 1.472(12)
C6 C5 1.514(12)
C5 C4 1.425(12)
C4 C3 1.411(13)
C3 C2 1.450(11)
C2 C1 1.416(12)
