#------------------------------------------------------------------------------
#$Date: 2017-12-26 01:37:11 +0200 (Tue, 26 Dec 2017) $
#$Revision: 204514 $
#$URL: file:///home/coder/svn-repositories/cod/cif/4/12/69/4126904.cif $
#------------------------------------------------------------------------------
#
# This file is available in the Crystallography Open Database (COD),
# http://www.crystallography.net/
#
# All data on this site have been placed in the public domain by the
# contributors.
#
data_4126904
loop_
_publ_author_name
'Lama, Prem'
'Barbour, Leonard J.'
_publ_section_title
;
 Distinctive Three-Step Hysteretic Sorption of Ethane with In-situ
 Crystallographic Visualization of the Pore Forms in a Soft Porous
 Crystal.
;
_journal_name_full               'Journal of the American Chemical Society'
_journal_paper_doi               10.1021/jacs.7b10352
_journal_year                    2017
_chemical_formula_sum            'C20 H12 N6 O8 Zn3'
_chemical_formula_weight         660.47
_space_group_crystal_system      triclinic
_space_group_IT_number           2
_space_group_name_Hall           '-P 1'
_space_group_name_H-M_alt        'P -1'
_symmetry_space_group_name_Hall  '-P 1'
_symmetry_space_group_name_H-M   'P -1'
_atom_sites_solution_hydrogens   geom
_audit_creation_method           SHELXL-2016/6
_cell_angle_alpha                115.321(10)
_cell_angle_beta                 97.689(9)
_cell_angle_gamma                97.641(9)
_cell_formula_units_Z            1
_cell_length_a                   9.102(3)
_cell_length_b                   10.739(4)
_cell_length_c                   11.209(4)
_cell_measurement_reflns_used    5042
_cell_measurement_temperature    298(2)
_cell_measurement_theta_max      26.14
_cell_measurement_theta_min      2.20
_cell_volume                     959.1(6)
_computing_cell_refinement       'Bruker SAINT'
_computing_data_collection       'Bruker APEX3'
_computing_data_reduction        'Bruker SAINT'
_computing_structure_refinement  'SHELXL-2016/6 (Sheldrick, 2016)'
_computing_structure_solution    'SHELXL-2016/6 (Sheldrick, 2016)'
_diffrn_ambient_temperature      298(2)
_diffrn_measured_fraction_theta_full 0.999
_diffrn_measured_fraction_theta_max 0.999
_diffrn_measurement_device_type  'Bruker D8 venture PHOTON II CPAD'
_diffrn_measurement_method       '\f \ch and \w scans'
_diffrn_radiation_type           MoK\a
_diffrn_radiation_wavelength     0.71073
_diffrn_reflns_av_R_equivalents  0.1077
_diffrn_reflns_av_unetI/netI     0.1757
_diffrn_reflns_Laue_measured_fraction_full 0.999
_diffrn_reflns_Laue_measured_fraction_max 0.999
_diffrn_reflns_limit_h_max       10
_diffrn_reflns_limit_h_min       -10
_diffrn_reflns_limit_k_max       12
_diffrn_reflns_limit_k_min       -12
_diffrn_reflns_limit_l_max       13
_diffrn_reflns_limit_l_min       -13
_diffrn_reflns_number            6742
_diffrn_reflns_point_group_measured_fraction_full 0.999
_diffrn_reflns_point_group_measured_fraction_max 0.999
_diffrn_reflns_theta_full        24.997
_diffrn_reflns_theta_max         24.997
_diffrn_reflns_theta_min         2.057
_exptl_absorpt_coefficient_mu    1.897
_exptl_absorpt_correction_T_max  24.997
_exptl_absorpt_correction_T_min  2.057
_exptl_absorpt_correction_type   multi-scan
_exptl_absorpt_process_details   SADABS
_exptl_crystal_colour            colorless
_exptl_crystal_density_diffrn    1.144
_exptl_crystal_description       block
_exptl_crystal_F_000             328
_exptl_crystal_size_max          0.220
_exptl_crystal_size_mid          0.140
_exptl_crystal_size_min          0.080
_refine_diff_density_max         1.133
_refine_diff_density_min         -0.985
_refine_diff_density_rms         0.197
_refine_ls_extinction_method     none
_refine_ls_goodness_of_fit_ref   1.131
_refine_ls_hydrogen_treatment    constr
_refine_ls_matrix_type           full
_refine_ls_number_parameters     184
_refine_ls_number_reflns         3373
_refine_ls_number_restraints     0
_refine_ls_restrained_S_all      1.129
_refine_ls_R_factor_all          0.2122
_refine_ls_R_factor_gt           0.1207
_refine_ls_shift/su_max          0.000
_refine_ls_shift/su_mean         0.000
_refine_ls_structure_factor_coef Fsqd
_refine_ls_weighting_details
'w=1/[\s^2^(Fo^2^)+(0.1648P)^2^] where P=(Fo^2^+2Fc^2^)/3'
_refine_ls_weighting_scheme      calc
_refine_ls_wR_factor_gt          0.2959
_refine_ls_wR_factor_ref         0.3415
_reflns_Friedel_coverage         0.000
_reflns_number_gt                1724
_reflns_number_total             3373
_reflns_threshold_expression     'I > 2\s(I)'
_cod_data_source_file            1eII.cif
_cod_data_source_block           1eII
_cod_database_code               4126904
_shelx_shelxl_version_number     2016/6
_shelx_space_group_comment
;
The symmetry employed for this shelxl refinement is uniquely defined
by the following loop, which should always be used as a source of
symmetry information in preference to the above space-group names.
They are only intended as comments.
;
_shelx_estimated_absorpt_t_min   0.680
_shelx_estimated_absorpt_t_max   0.863
_shelx_res_file
;
TITL C:\Users\plama\Desktop\4\4N2_a.res in P-1
    C:\Users\plama\Desktop\twin\BEFORE~1\1eII.res
    created by SHELXL-2016/6 at 12:59:45 on 15-Nov-2017
CELL 0.71073 9.1017 10.7392 11.2090 115.321 97.689 97.641
ZERR 1.0000 0.0033 0.0036 0.0038 0.010 0.009 0.009
LATT 1
SFAC C H N O ZN
UNIT 20 12 6 8 3
OMIT -4 50
ISOR 0.01 0.02 N1
ISOR 0.007 0.014 C9A C9B
ISOR 0.005 0.01 C10B C10A
BOND $H
CONF
OMIT 2 0 0
OMIT -1 0 2
ACTA 50
FMAP 2 1 53
GRID
PLAN 10 0 0
LIST 4 1
MERG 2
SIZE 0.08 0.14 0.22
TEMP 25
L.S. 50
WGHT    0.164800
FVAR       0.25852
ZN1   5    0.500000    0.000000    0.000000    10.50000    0.02859    0.06943 =
         0.05590    0.04039    0.01426    0.01698
ZN2   5    0.820124   -0.115411   -0.117718    11.00000    0.02477    0.06402 =
         0.05509    0.03756    0.01351    0.01710
O1    4    0.557611    0.021568   -0.165765    11.00000    0.06331    0.09199 =
         0.04779    0.04844    0.02090    0.02464
O2    4    0.721321   -0.099264   -0.272401    11.00000    0.04907    0.10537 =
         0.04532    0.05225    0.01329    0.03444
O3    4    0.751813   -0.285717   -0.098221    11.00000    0.06229    0.06772 =
         0.10113    0.06237    0.03175    0.02573
O4    4    0.546348   -0.202154   -0.075624    11.00000    0.06334    0.06842 =
         0.09671    0.05740    0.02765    0.02481
N1    3    0.721758    0.090582    0.112722    11.00000    0.03144    0.06723 =
         0.05172    0.02154    0.01536    0.01395
N2    3    0.840548    0.050656    0.059884    11.00000    0.03127    0.06076 =
         0.04636    0.02923    0.00707    0.01252
N3    3    0.968806    0.125170    0.149203    11.00000    0.06089    0.07803 =
         0.04212    0.02503    0.00584    0.01532
C1    1    0.614051   -0.029218   -0.262307    11.00000    0.04081    0.07991 =
         0.04750    0.04639    0.00754    0.00026
C2    1    0.558050   -0.015381   -0.385688    11.00000    0.04525    0.07291 =
         0.06007    0.04508    0.01425    0.02087
C3    1    0.613855   -0.073779   -0.500303    11.00000    0.09775    0.12665 =
         0.04006    0.04990    0.03266    0.08119
AFIX  43
H3    2    0.691357   -0.122601   -0.502566    11.00000   -1.20000
AFIX   0
C4    1    0.446147    0.059517   -0.387032    11.00000    0.08867    0.13397 =
         0.05349    0.05909    0.03718    0.06911
AFIX  43
H4    2    0.409471    0.102252   -0.308858    11.00000   -1.20000
AFIX   0
C5    1    0.620850   -0.288478   -0.071202    11.00000    0.05297    0.04896 =
         0.06491    0.03266    0.00926    0.00758
C6    1    0.562868   -0.394631   -0.035263    11.00000    0.05311    0.06729 =
         0.09254    0.05528    0.03432    0.03363
C7    1    0.426721   -0.396620    0.005676    11.00000    0.08929    0.09120 =
         0.11137    0.07638    0.03910    0.04082
AFIX  43
H7    2    0.374019   -0.327338    0.008224    11.00000   -1.20000
AFIX   0
C8    1    0.639164   -0.500344   -0.044866    11.00000    0.08098    0.09607 =
         0.12242    0.08238    0.07194    0.05591
AFIX  43
H8    2    0.729378   -0.505005   -0.075356    11.00000   -1.20000
AFIX   0
PART 1
C9A   1    0.775286    0.224610    0.230123    10.50000    0.01946    0.03663 =
         0.04012    0.01065    0.01500    0.00913
AFIX  43
H9A   2    0.723532    0.291855    0.279037    10.50000   -1.20000
AFIX   0
PART 2
C9B   1    0.768089    0.167070    0.235750    10.50000    0.04425    0.04688 =
         0.04705    0.02172    0.01455    0.01207
AFIX  43
H9B   2    0.706649    0.208436    0.295056    10.50000   -1.20000
AFIX   0
PART 1
C10A  1    0.931172    0.222144    0.247897    10.60000    0.02367    0.03569 =
         0.03360    0.00998    0.00696    0.01264
AFIX  43
H10A  2    1.001454    0.286385    0.325744    10.60000   -1.20000
AFIX   0
PART 2
C10B  1   10.936319   10.184150   10.276419    10.40000    0.08342    0.08417 =
         0.08448    0.03871    0.01811    0.01804
AFIX  43
H10B  2    0.999620    0.222760    0.361521    10.40000   -1.20000
AFIX   0
HKLF 4




REM  C:\Users\plama\Desktop\4\4N2_a.res in P-1
REM R1 =  0.1207 for    1724 Fo > 4sig(Fo)  and  0.2122 for all    3373 data
REM    184 parameters refined using     30 restraints

END

WGHT      0.1631      0.0000

REM Highest difference peak  1.133,  deepest hole -0.985,  1-sigma level  0.197
Q1    1   0.5166  0.4842  0.5297  11.00000  0.05    1.13
Q2    1   0.9769 -0.7218 -0.2434  11.00000  0.05    0.98
Q3    1   1.2378  0.4834  0.4605  11.00000  0.05    0.83
Q4    1   1.0200 -0.2205  0.1797  11.00000  0.05    0.81
Q5    1   0.9483 -0.2156 -0.6946  11.00000  0.05    0.79
Q6    1   0.8213 -0.1792 -0.0396  11.00000  0.05    0.76
Q7    1   0.7887 -0.2174 -0.1269  11.00000  0.05    0.74
Q8    1   0.6959  0.5198  0.4418  11.00000  0.05    0.71
Q9    1   0.8191 -0.0449 -0.1788  11.00000  0.05    0.70
Q10   1   0.9262 -0.6789 -0.3121  11.00000  0.05    0.64
;
_shelx_res_checksum              72231
_shelx_hkl_file
;
  -1   0   0  231.60    6.56
   1   0   0  281.48    7.59
  -2   0   0   67.82    2.33
   2   0   0   70.14    2.29
  -3   0   0  264.40    4.83
   3   0   0  256.09    4.59
  -4   0   0   63.75    2.60
   4   0   0   60.94    2.54
  -5   0   0   62.35    3.89
   5   0   0   57.63    3.87
  -6   0   0   40.27    4.77
   6   0   0   35.99    4.65
  -7   0   0    5.14    5.86
   7   0   0    2.80    6.49
  -8   0   0    7.79    8.18
   8   0   0   17.99    8.86
  -9   0   0   46.50    9.92
   9   0   0   39.66    9.13
 -10   0   0    4.43    8.37
  10   0   0    6.18    9.38
  10  -1   0    5.33    9.04
 -10   1   0    2.72   10.25
   9  -1   0   63.41    6.87
  -9   1   0   61.56    6.87
   8  -1   0    5.88    5.08
  -8   1   0    6.63    5.98
   7  -1   0   10.99    5.13
  -7   1   0    9.29    5.09
   6  -1   0  113.97    5.85
  -6   1   0  104.22    5.82
   5  -1   0    5.78    3.24
  -5   1   0    4.50    2.81
   4  -1   0   36.73    2.44
  -4   1   0   38.66    2.23
   3  -1   0  451.55    8.95
  -3   1   0  453.45   10.33
   2  -1   0   16.72    2.92
  -2   1   0   16.93    2.85
   1  -1   0   47.42    3.01
  -1   1   0   55.73    2.23
   0  -1   0  911.49   20.64
   0   1   0  918.20   21.17
  -1  -1   0  231.67    4.02
   1   1   0  236.69    3.69
  -2  -1   0   17.41    1.96
   2   1   0   16.77    2.01
  -3  -1   0  204.62    4.41
   3   1   0  191.20    4.10
  -4  -1   0  282.15    5.77
   4   1   0  274.66    5.90
  -5  -1   0   16.94    3.87
   5   1   0   14.68    3.39
  -6  -1   0   53.96    8.65
   6   1   0   54.09    5.84
  -7  -1   0   16.17    8.62
   7   1   0   12.29    6.51
  -8  -1   0   21.07    8.85
   8   1   0    6.36    5.56
  -9  -1   0   17.93    6.41
   9   1   0   11.08    6.23
 -10  -1   0   14.24    6.88
  10   1   0    8.83    8.25
  10  -2   0    7.83    8.61
 -10   2   0    4.90    7.06
   9  -2   0   50.47    6.27
  -9   2   0   57.63    8.85
   8  -2   0    8.29    5.52
  -8   2   0    8.36    6.96
   7  -2   0   46.13    6.31
  -7   2   0   36.67    8.95
   6  -2   0   92.66    7.47
  -6   2   0   84.80    6.75
   5  -2   0   81.52    5.96
  -5   2   0   80.68    6.09
   4  -2   0  216.38    5.46
  -4   2   0  212.07    6.57
   3  -2   0   81.46    3.63
  -3   2   0   72.84    3.49
   2  -2   0  115.19    3.47
  -2   2   0  132.66    3.80
   1  -2   0  113.18    3.05
  -1   2   0  112.56    2.95
   0  -2   0  254.08    5.15
   0   2   0  246.39    4.55
  -1  -2   0  821.68   19.84
   1   2   0  831.25   12.50
  -2  -2   0   17.05    2.00
   2   2   0   17.72    1.85
  -3  -2   0   59.47    2.37
   3   2   0   62.31    2.51
  -4  -2   0  135.93    4.57
   4   2   0  127.03    4.74
  -5  -2   0    7.82    4.29
   5   2   0    4.83    3.50
  -6  -2   0    4.19    5.42
   6   2   0    9.05    5.37
  -7  -2   0   23.50    5.27
   7   2   0   24.66    5.17
  -8  -2   0    3.38    5.47
   8   2   0    2.68    4.96
  -9  -2   0    6.61    6.28
   9   2   0    4.28    5.72
  10  -3   0    8.19   10.59
 -10   3   0   13.75   14.96
   9  -3   0    4.40    7.55
  -9   3   0    4.79   11.22
   8  -3   0   32.21    9.42
  -8   3   0   41.63    7.47
   7  -3   0   27.22    8.24
  -7   3   0   19.72    7.08
   6  -3   0   16.23    6.25
  -6   3   0   15.41    6.41
   5  -3   0  126.24    6.76
  -5   3   0  141.90    7.68
   4  -3   0   16.27    2.50
  -4   3   0   19.82    3.24
   3  -3   0   17.54    2.23
  -3   3   0   14.94    2.17
   2  -3   0  266.20    5.36
  -2   3   0  269.28    5.36
   1  -3   0   60.04    2.71
  -1   3   0   59.35    2.57
   0  -3   0    4.38    1.68
   0   3   0    5.26    2.16
  -1  -3   0  353.33    8.04
   1   3   0  344.39    6.78
  -2  -3   0   15.35    1.96
   2   3   0   17.94    1.86
  -3  -3   0    3.82    2.28
   3   3   0    2.16    2.17
  -4  -3   0   55.53    3.52
   4   3   0   56.47    3.58
  -5  -3   0    2.75    3.85
   5   3   0    7.29    3.92
  -6  -3   0    7.06    5.18
   6   3   0    8.60    5.33
  -7  -3   0   13.76    5.18
   7   3   0   26.71    6.55
  -8  -3   0   15.68    6.12
   8   3   0    8.66    7.34
  -9  -3   0   10.13    6.53
   9   3   0    2.56    8.48
  10  -4   0    0.00   45.39
 -10   4   0    4.09    8.80
   9  -4   0    1.40   13.77
  -9   4   0    0.12    8.26
   8  -4   0   74.32   10.69
  -8   4   0   76.59    8.25
   7  -4   0   53.80    7.68
  -7   4   0   65.34    9.29
   6  -4   0   10.54    5.43
  -6   4   0   20.14    6.73
   5  -4   0   81.93    4.62
  -5   4   0   82.08    6.11
   4  -4   0    1.80    3.48
  -4   4   0    8.24    3.45
   3  -4   0    1.93    2.37
  -3   4   0    5.89    2.87
   2  -4   0  111.39    3.60
  -2   4   0  114.01    4.06
   1  -4   0   54.60    2.62
  -1   4   0   54.87    2.99
   0  -4   0    2.02    1.52
   0   4   0    3.20    1.99
  -1  -4   0  230.46    6.29
   1   4   0  242.88    5.22
  -2  -4   0   96.64    4.14
   2   4   0   96.42    3.91
  -3  -4   0    4.10    3.41
   3   4   0    6.88    2.31
  -4  -4   0    7.72    3.48
   4   4   0    8.67    4.12
  -5  -4   0   27.16    4.77
   5   4   0   23.65    6.20
  -6  -4   0   21.81    5.06
   6   4   0   15.79    6.37
  -7  -4   0    5.51    4.89
   7   4   0    6.01    6.28
  -8  -4   0   25.95    5.99
   8   4   0   22.99    6.94
  -9  -4   0    3.86    6.30
   9   4   0    4.31    6.73
  10  -5   0    1.63   11.51
 -10   5   0    4.45    8.44
   9  -5   0   22.19    8.71
  -9   5   0    6.86    7.78
   8  -5   0    4.42    7.15
  -8   5   0   11.11    6.86
   7  -5   0   31.72    7.11
  -7   5   0   42.73    8.68
   6  -5   0    2.64    6.18
  -6   5   0    9.73    7.30
   5  -5   0   16.45    5.79
  -5   5   0   29.46    7.12
   4  -5   0   63.19    4.25
  -4   5   0   56.19    5.40
   3  -5   0    2.64    3.13
  -3   5   0    9.17    3.55
   2  -5   0  104.65    3.79
  -2   5   0  101.98    4.50
   1  -5   0  168.24    5.30
  -1   5   0  165.26    5.38
   0  -5   0   12.39    2.61
   0   5   0   15.45    2.46
  -1  -5   0   36.38    3.72
   1   5   0   35.82    2.49
  -2  -5   0  263.02    9.02
   2   5   0  228.66    8.57
  -3  -5   0    9.40    2.88
   3   5   0    0.00    5.18
  -4  -5   0    2.82    3.83
   4   5   0    7.16    4.76
  -5  -5   0   30.19    4.06
   5   5   0   40.97    5.99
  -6  -5   0    0.83    4.19
   6   5   0    3.18    5.31
  -7  -5   0    6.35    4.98
   7   5   0    2.58    6.06
  -8  -5   0    7.29    5.34
   8   5   0   10.51    5.73
  10  -6   0   29.15    7.98
 -10   6   0    5.81    9.90
   9  -6   0   15.59    8.10
  -9   6   0    1.20   12.26
   8  -6   0    8.31    7.89
  -8   6   0    2.06    8.30
   7  -6   0   50.24    7.35
  -7   6   0   38.61    9.39
   6  -6   0    7.36    4.30
  -6   6   0   13.36    8.10
   5  -6   0    2.42    4.89
  -5   6   0   10.50    5.81
   4  -6   0   68.75    5.30
  -4   6   0   60.69    7.00
   3  -6   0    7.24    3.95
  -3   6   0   15.71    4.93
   2  -6   0    3.51    2.94
  -2   6   0    3.64    4.28
   1  -6   0  149.42    4.24
  -1   6   0  149.83    6.98
   0  -6   0    2.12    3.28
   0   6   0    2.73    3.49
  -1  -6   0    4.76    3.96
   1   6   0    9.24    4.50
  -2  -6   0   85.91    5.89
   2   6   0   83.30    6.16
  -3  -6   0   20.88    4.82
   3   6   0   10.55    6.13
  -4  -6   0    1.64    6.15
   4   6   0    3.94    5.47
  -5  -6   0   15.14    3.49
   5   6   0   14.64    4.66
  -6  -6   0    8.15    4.01
   6   6   0   12.71    3.70
  -7  -6   0    3.93    5.19
   7   6   0    5.57    5.51
   9  -7   0   19.18    9.88
  -9   7   0    2.87    7.98
   8  -7   0    5.52    7.86
  -8   7   0    0.89    7.08
   7  -7   0   24.54    3.79
  -7   7   0   23.73    6.58
   6  -7   0    4.91    5.68
  -6   7   0    3.59    5.84
   5  -7   0    6.57    5.94
  -5   7   0   15.40    7.18
   4  -7   0   56.46    5.92
  -4   7   0   87.28   10.37
   3  -7   0    3.30    4.47
  -3   7   0   13.44    6.53
   2  -7   0    8.78    4.35
  -2   7   0   12.49    6.39
   1  -7   0   32.36    4.19
  -1   7   0   20.49    8.24
   0  -7   0    8.05    5.42
   0   7   0   11.20    4.59
  -1  -7   0   10.89    9.37
   1   7   0   22.86   30.39
  -2  -7   0   12.60    6.42
   2   7   0   20.05    6.15
  -3  -7   0   12.52    5.77
   3   7   0   10.51    4.72
  -4  -7   0    0.98    5.52
   4   7   0    3.54    4.64
  -5  -7   0    3.56    4.90
   5   7   0    6.73    4.79
  -6  -7   0   12.47    5.11
   6   7   0    8.15    5.06
   9  -8   0   25.87    8.88
  -9   8   0   14.75   11.77
   8  -8   0   13.82    9.07
  -8   8   0    9.57    8.34
   7  -8   0    6.73    4.79
  -7   8   0   16.53    8.33
   6  -8   0   10.41    6.40
  -6   8   0   13.04    7.49
   5  -8   0    1.94    6.92
  -5   8   0    2.27    7.65
   4  -8   0   12.66    6.73
  -4   8   0   22.81    9.41
   3  -8   0    7.75    5.64
  -3   8   0   23.84    8.61
   2  -8   0    5.08    3.93
  -2   8   0    9.10    6.54
   1  -8   0    2.49    4.24
  -1   8   0    3.04    4.85
   0  -8   0   19.84    5.48
   0   8   0   19.08    4.35
  -1  -8   0    0.24    5.60
   1   8   0    0.00   12.54
  -2  -8   0    4.55    4.89
   2   8   0    4.72    6.80
  -3  -8   0    7.38    5.53
   3   8   0    8.91    5.03
  -4  -8   0    1.25    5.83
   4   8   0    7.01    5.25
  -5  -8   0   10.64    5.15
   5   8   0    6.30    5.27
  -6  -8   0   14.09    5.13
   6   8   0    6.32    5.89
   8  -9   0    8.86   10.05
  -8   9   0    1.19    9.01
   7  -9   0   59.05   31.05
  -7   9   0    2.73   12.55
   6  -9   0   31.43    9.26
  -6   9   0    9.54    9.33
   5  -9   0   16.64   13.81
  -5   9   0   10.42    9.16
   4  -9   0   20.35    5.56
  -4   9   0    0.79    9.42
   3  -9   0   29.72    4.93
  -3   9   0   15.59    8.59
   2  -9   0    2.93    3.21
  -2   9   0    4.29    6.82
   1  -9   0    1.41    4.00
  -1   9   0    3.79    4.52
   0  -9   0   11.00    4.44
   0   9   0    1.07    4.97
  -1  -9   0    1.13    5.19
   1   9   0    1.87   10.91
  -2  -9   0    6.68    5.08
   2   9   0    6.23    7.49
  -3  -9   0    7.62    6.08
   3   9   0   10.16    5.84
  -4  -9   0    1.77    6.39
   4   9   0    9.83    5.98
   7 -10   0    3.97   11.32
  -7  10   0    0.70   10.08
   6 -10   0   11.53   14.35
  -6  10   0    0.00   22.34
   5 -10   0   15.62   11.03
  -5  10   0    0.00   10.23
   4 -10   0   14.26    4.48
  -4  10   0    3.53    7.89
   3 -10   0    1.86    3.14
  -3  10   0    8.00    7.19
   2 -10   0    0.93    3.89
  -2  10   0    4.22    5.11
   1 -10   0    9.14    8.26
  -1  10   0    3.61    6.06
   0 -10   0    5.50    3.12
   0  10   0   16.17    7.79
  -1 -10   0    3.77    7.26
   1  10   0    4.17    8.42
  -2 -10   0    6.42    5.46
   2  10   0    1.48    7.75
  -3 -10   0    2.88    5.87
   3  10   0    7.75    7.07
   5 -11   0   33.24    9.19
  -5  11   0    4.96   14.82
   4 -11   0    5.11    8.92
  -4  11   0   10.18    8.33
   3 -11   0   21.29   10.07
  -3  11   0    4.88    6.07
   2 -11   0   16.29    9.61
  -2  11   0   10.95    5.95
   1 -11   0    7.20    8.70
  -1  11   0   17.95    7.18
   0 -11   0   14.98    9.20
   0  11   0    0.00   14.53
  -1 -11   0   11.00    9.03
   1  11   0    6.10    8.22
   2  11  -1    2.50    6.01
  -2 -11   1   14.39    9.53
   1  11  -1    0.00    8.39
  -1 -11   1   12.65    9.28
   0  11  -1    2.73   17.05
   0 -11   1   24.61   11.92
  -1  11  -1   15.08    5.46
   1 -11   1   10.33    9.81
  -2  11  -1    7.84    6.00
   2 -11   1   16.18    8.46
  -3  11  -1   26.08   12.91
   3 -11   1    2.52   11.71
  -4  11  -1    6.41   11.32
   4 -11   1    5.41   10.46
  -5  11  -1    3.38    8.26
   5 -11   1   13.60    7.75
  -6  11  -1    2.81   10.53
   6 -11   1    8.23    8.20
   4  10  -1   10.63    6.50
  -4 -10   1   13.27    5.67
   3  10  -1    3.52    6.37
  -3 -10   1    2.91    8.04
   2  10  -1    1.34    5.87
  -2 -10   1    0.00    8.46
   1  10  -1    4.70    8.57
  -1 -10   1    2.58    8.31
   0  10  -1    6.11    6.24
   0 -10   1   13.53    8.52
  -1  10  -1    6.12    6.31
   1 -10   1    8.17    7.36
  -2  10  -1    5.43    6.05
   2 -10   1   15.15    7.23
  -3  10  -1   22.50    7.71
   3 -10   1   21.57    7.88
  -4  10  -1    2.05    9.28
   4 -10   1    5.11    3.81
  -5  10  -1    1.81    9.48
   5 -10   1   12.16    8.25
  -6  10  -1    7.88    7.63
   6 -10   1   24.58    8.41
  -7  10  -1    6.20    8.11
   7 -10   1    8.26    6.77
   5   9  -1   13.19    7.18
  -5  -9   1   12.92    4.39
   4   9  -1    9.14    5.49
  -4  -9   1    8.05    4.88
   3   9  -1    8.33    5.42
  -3  -9   1    2.88    5.67
   2   9  -1    1.68    5.78
  -2  -9   1    4.86    7.62
   1   9  -1    7.56   10.50
  -1  -9   1    9.12    9.63
   0   9  -1    5.37    5.12
   0  -9   1    7.22    7.17
  -1   9  -1    2.88    5.66
   1  -9   1   13.52    6.73
  -2   9  -1    0.00    8.43
   2  -9   1    1.95    6.61
  -3   9  -1   27.02    7.65
   3  -9   1   25.79    3.85
  -4   9  -1   16.90    7.99
   4  -9   1   17.17    6.54
  -5   9  -1    0.55    6.53
   5  -9   1    3.92    6.20
  -6   9  -1   18.20    7.91
   6  -9   1   23.91    6.92
  -7   9  -1    9.37    8.93
   7  -9   1   28.13    6.46
  -8   9  -1    4.86    7.74
   8  -9   1    1.86    7.53
   6   8  -1   16.73    6.71
  -6  -8   1    5.29    4.74
   5   8  -1    8.81    5.79
  -5  -8   1    6.56    4.37
   4   8  -1    9.67    5.03
  -4  -8   1    3.78    4.46
   3   8  -1    9.25    3.81
  -3  -8   1    2.54    5.28
   2   8  -1   20.39    7.12
  -2  -8   1   17.38    5.66
   1   8  -1    1.94    7.53
  -1  -8   1    0.46    4.62
   0   8  -1    8.30    3.66
   0  -8   1    7.02    7.36
  -1   8  -1   18.19    7.10
   1  -8   1   26.46    7.28
  -2   8  -1    6.59    5.80
   2  -8   1    4.66    2.50
  -3   8  -1   10.12    5.53
   3  -8   1   14.38    4.27
  -4   8  -1   54.31    7.94
   4  -8   1   48.38    6.11
  -5   8  -1   15.71    7.02
   5  -8   1   12.03    6.44
  -6   8  -1    3.03    5.89
   6  -8   1    7.01    6.32
  -7   8  -1   37.99    7.84
   7  -8   1   76.90    7.79
  -8   8  -1    8.16   11.80
   8  -8   1    0.00   28.09
  -9   8  -1    0.00    8.26
   9  -8   1   45.46   32.19
   7   7  -1   12.61    6.02
  -7  -7   1    1.43    5.42
   6   7  -1    3.81    5.41
  -6  -7   1    3.16    4.63
   5   7  -1   16.52    4.70
  -5  -7   1   14.49    4.62
   4   7  -1    4.64    4.88
  -4  -7   1   11.82    3.55
   3   7  -1    3.33    4.64
  -3  -7   1    3.46    4.92
   2   7  -1   42.36    6.58
  -2  -7   1   30.59    5.47
   1   7  -1    2.25    5.93
  -1  -7   1    0.31    3.96
   0   7  -1    2.56    4.20
   0  -7   1    1.45    2.81
  -1   7  -1  111.95    6.75
   1  -7   1  104.43    7.21
  -2   7  -1    8.76    4.64
   2  -7   1    2.00    2.99
  -3   7  -1    9.16    5.25
   3  -7   1    0.61    3.85
  -4   7  -1   86.44    9.15
   4  -7   1   79.74    5.28
  -5   7  -1   14.33    6.49
   5  -7   1    2.72    6.74
  -6   7  -1    6.36    7.18
   6  -7   1    2.05    7.03
  -7   7  -1   36.85    7.81
   7  -7   1   60.97    9.54
  -8   7  -1    1.46    8.32
   8  -7   1    1.36    6.51
  -9   7  -1    0.00    8.67
   9  -7   1   23.43    8.11
   8   6  -1   23.59    7.47
  -8  -6   1    7.29    5.62
   7   6  -1   13.03    5.74
  -7  -6   1    8.70    5.80
   6   6  -1    4.76    5.35
  -6  -6   1    1.33    3.34
   5   6  -1   28.17    4.92
  -5  -6   1   27.23    3.39
   4   6  -1    7.51    4.06
  -4  -6   1   14.25    5.01
   3   6  -1    1.85    5.07
  -3  -6   1   11.67    4.50
   2   6  -1   68.79    4.97
  -2  -6   1   59.90    4.40
   1   6  -1    4.12    3.21
  -1  -6   1    2.93    2.83
   0   6  -1   20.25    3.37
   0  -6   1   15.04    2.69
  -1   6  -1  135.22    7.66
   1  -6   1  138.77    3.91
  -2   6  -1   73.99    4.38
   2  -6   1   70.39    3.72
  -3   6  -1    7.19    3.75
   3  -6   1    1.84    3.29
  -4   6  -1   58.57    6.64
   4  -6   1   60.92    7.68
  -5   6  -1   24.82    9.75
   5  -6   1   25.96    3.68
  -6   6  -1   13.41    7.80
   6  -6   1   10.22    5.12
  -7   6  -1   29.22    6.61
   7  -6   1   38.51    6.23
  -8   6  -1    9.04    6.39
   8  -6   1   41.54    7.13
  -9   6  -1    3.85   15.13
   9  -6   1    2.95    6.76
 -10   6  -1    4.22    7.56
  10  -6   1   15.11    7.78
   8   5  -1   24.08    6.36
  -8  -5   1   10.60    6.24
   7   5  -1    6.64    5.56
  -7  -5   1    3.34    5.12
   6   5  -1   22.66    6.00
  -6  -5   1   11.46    4.37
   5   5  -1   20.41    6.30
  -5  -5   1   28.86    4.18
   4   5  -1    1.88    4.19
  -4  -5   1    1.28    3.28
   3   5  -1   18.36    2.74
  -3  -5   1   26.67    3.87
   2   5  -1   50.88    2.50
  -2  -5   1   51.60    3.36
   1   5  -1  153.50    4.46
  -1  -5   1  149.10    4.76
   0   5  -1    9.17    2.60
   0  -5   1   10.44    1.98
  -1   5  -1   96.82    4.19
   1  -5   1   86.74    3.13
  -2   5  -1  278.78    7.94
   2  -5   1  281.85    6.56
  -3   5  -1   56.35    4.42
   3  -5   1   47.91    3.85
  -4   5  -1   63.95    4.85
   4  -5   1   60.35    3.36
  -5   5  -1  124.95    6.19
   5  -5   1  118.51    5.79
  -6   5  -1   14.81    6.61
   6  -5   1    9.85    5.65
  -7   5  -1   13.66    7.35
   7  -5   1   10.68    6.26
  -8   5  -1   16.97    7.22
   8  -5   1   33.66    6.78
  -9   5  -1    6.66    6.76
   9  -5   1    1.07   10.59
 -10   5  -1    4.83    7.29
  10  -5   1   29.29   22.62
   9   4  -1    5.33    7.50
  -9  -4   1    3.19    7.22
   8   4  -1   20.79    6.76
  -8  -4   1   19.36    6.41
   7   4  -1   18.66    6.81
  -7  -4   1   24.22    5.28
   6   4  -1    8.25    6.09
  -6  -4   1    5.09    5.21
   5   4  -1    1.89    3.66
  -5  -4   1    3.08    4.13
   4   4  -1   29.28    3.27
  -4  -4   1   27.22    3.26
   3   4  -1   94.01    3.49
  -3  -4   1   78.75    3.20
   2   4  -1   66.26    2.50
  -2  -4   1   62.39    3.02
   1   4  -1   97.57    3.05
  -1  -4   1   90.42    3.40
   0   4  -1    4.06    2.41
   0  -4   1    2.83    1.50
  -1   4  -1   19.17    2.31
   1  -4   1   14.36    1.67
  -2   4  -1  134.65    3.45
   2  -4   1  133.73    3.71
  -3   4  -1   43.73    2.60
   3  -4   1   41.74    2.17
  -4   4  -1    6.99    4.05
   4  -4   1    4.81    2.09
  -5   4  -1  239.60    8.04
   5  -4   1  241.45    7.63
  -6   4  -1   50.54    8.37
   6  -4   1   40.74    5.30
  -7   4  -1    4.78    7.18
   7  -4   1   20.37    6.50
  -8   4  -1   85.63    7.96
   8  -4   1   98.87   11.23
  -9   4  -1   15.86   11.94
   9  -4   1   28.03   10.63
 -10   4  -1   12.56   14.90
  10  -4   1   12.38   12.57
   9   3  -1    0.00   12.01
  -9  -3   1    1.84    6.11
   8   3  -1    2.47    5.81
  -8  -3   1    0.88    5.75
   7   3  -1   40.01    4.68
  -7  -3   1   32.39    5.79
   6   3  -1    4.29    4.35
  -6  -3   1    5.72    4.79
   5   3  -1   16.99    3.52
  -5  -3   1   21.80    3.93
   4   3  -1  106.09    4.12
  -4  -3   1  103.48    4.69
   3   3  -1    3.09    2.00
  -3  -3   1    4.18    2.15
   2   3  -1  168.87    3.63
  -2  -3   1  168.26    4.28
   1   3  -1    2.20    1.82
  -1  -3   1    5.37    1.80
   0   3  -1   99.88    3.35
   0  -3   1   91.76    3.61
  -1   3  -1   40.04    2.14
   1  -3   1   32.78    1.95
  -2   3  -1  183.84    4.03
   2  -3   1  180.37    4.05
  -3   3  -1  172.81    4.49
   3  -3   1  177.97    3.83
  -4   3  -1    5.37    2.49
   4  -3   1    3.97    3.12
  -5   3  -1  247.43    8.32
   5  -3   1  238.63    7.86
  -6   3  -1   79.42    7.44
   6  -3   1   88.62    6.49
  -7   3  -1   51.56   10.58
   7  -3   1   55.52    7.33
  -8   3  -1   13.98   11.28
   8  -3   1   13.71    6.54
  -9   3  -1   82.29   12.67
   9  -3   1   67.08    8.44
 -10   3  -1   12.28   10.44
  10  -3   1    2.87    9.29
  10   2  -1    9.87    7.99
 -10  -2   1   19.40    7.02
   9   2  -1    9.95    6.15
  -9  -2   1    2.45    6.62
   8   2  -1    1.91    5.07
  -8  -2   1    0.81    5.71
   7   2  -1   37.29    6.15
  -7  -2   1   41.01    6.85
   6   2  -1   63.34    4.72
  -6  -2   1   65.79    5.57
   5   2  -1   27.73    2.96
  -5  -2   1   21.03    3.61
   4   2  -1  114.15    4.20
  -4  -2   1  109.86    4.35
   3   2  -1   41.88    2.10
  -3  -2   1   39.98    2.06
   2   2  -1  202.14    4.13
  -2  -2   1  194.54    3.74
   1   2  -1  100.47    3.00
  -1  -2   1   99.57    2.67
   0   2  -1  403.15    6.31
   0  -2   1  411.22    7.78
  -1   2  -1   47.32    1.74
   1  -2   1   47.52    1.86
  -2   2  -1   33.71    2.22
   2  -2   1   26.40    1.85
  -3   2  -1  313.93    6.18
   3  -2   1  318.75    5.94
  -4   2  -1    6.65    2.18
   4  -2   1    5.53    2.36
  -5   2  -1   59.36    3.87
   5  -2   1   59.30    4.00
  -6   2  -1  199.05    8.67
   6  -2   1  187.47    7.85
  -7   2  -1    9.43    6.83
   7  -2   1   12.24    5.63
  -8   2  -1    4.72    6.24
   8  -2   1    3.45    5.44
  -9   2  -1   80.77    8.50
   9  -2   1   65.33    8.46
 -10   2  -1    8.32    9.85
  10  -2   1    8.82   14.64
  10   1  -1   13.20   12.68
 -10  -1   1    3.97   12.23
   9   1  -1   45.51    8.66
  -9  -1   1   39.43   10.32
   8   1  -1    3.51    7.12
  -8  -1   1    7.78   10.15
   7   1  -1   13.34    8.83
  -7  -1   1    8.06    5.56
   6   1  -1  107.59    5.41
  -6  -1   1  124.81    6.37
   5   1  -1    3.74    2.57
  -5  -1   1    4.20    3.22
   4   1  -1  101.36    2.89
  -4  -1   1  105.57    3.51
   3   1  -1  337.97    5.77
  -3  -1   1  347.38    6.25
   2   1  -1  238.95    4.45
  -2  -1   1  239.51    4.54
   1   1  -1    9.67    0.99
  -1  -1   1   10.05    0.80
   0   1  -1  887.88   22.37
   0  -1   1  883.29   19.94
  -1   1  -1   30.24    1.16
   1  -1   1   28.88    1.00
  -2   1  -1   85.03    2.75
   2  -1   1   77.36    3.05
  -3   1  -1  521.91    8.48
   3  -1   1  518.80    8.17
  -4   1  -1  113.43    3.38
   4  -1   1  111.21    3.40
  -5   1  -1    4.46    2.63
   5  -1   1    4.12    3.17
  -6   1  -1  173.15    6.79
   6  -1   1  170.13    7.52
  -7   1  -1   15.54    5.87
   7  -1   1   13.99    5.97
  -8   1  -1   16.78    7.43
   8  -1   1    3.72    7.05
  -9   1  -1   48.70    6.87
   9  -1   1   19.56    8.52
 -10   1  -1   13.52    8.23
  10  -1   1    3.11    7.80
  10   0  -1    5.93    9.14
 -10   0   1   14.16   14.74
   9   0  -1   56.74   11.30
  -9   0   1   57.38    7.65
   8   0  -1    9.65    6.46
  -8   0   1    4.02    5.29
   7   0  -1    0.16    5.27
  -7   0   1    7.84    5.03
   6   0  -1   97.59    5.46
  -6   0   1  100.24    5.56
   5   0  -1    4.94    2.37
  -5   0   1    4.55    3.24
   4   0  -1   48.12    2.59
  -4   0   1   49.64    2.49
   3   0  -1  301.20    7.32
  -3   0   1  297.93    6.93
   2   0  -1   51.08    2.98
  -2   0   1   55.42    3.09
   1   0  -1   46.07    2.34
  -1   0   1   52.04    2.66
   0   0  -1  813.98   27.27
   0   0   1  843.41   24.97
  -1   0  -1  295.56    4.82
   1   0   1  296.39    4.64
  -2   0  -1   11.23    1.94
   2   0   1   11.76    2.03
  -3   0  -1  237.04    4.82
   3   0   1  241.39    4.54
  -4   0  -1  268.63    5.17
   4   0   1  266.90    5.30
  -5   0  -1   28.44    4.13
   5   0   1   22.43    5.03
  -6   0  -1   70.39    8.39
   6   0   1   56.49    9.21
  -7   0  -1   24.74   14.23
   7   0   1   60.09   15.87
  -8   0  -1    7.61    6.56
   8   0   1    8.15    7.67
  -9   0  -1   17.54    6.57
   9   0   1    6.35    5.99
 -10   0  -1   16.08    6.05
  10   0   1   12.55    6.12
  10  -1  -1    0.33    8.60
 -10   1   1    1.36    9.52
   9  -1  -1   42.54    6.85
  -9   1   1   49.77    5.93
   8  -1  -1    6.13    4.90
  -8   1   1   14.29    5.07
   7  -1  -1   27.88    5.16
  -7   1   1   21.19    6.20
   6  -1  -1  159.76    6.24
  -6   1   1  156.91    6.30
   5  -1  -1  122.90    8.19
  -5   1   1  129.48    7.50
   4  -1  -1  147.85    5.60
  -4   1   1  150.05    5.54
   3  -1  -1  244.61    7.24
  -3   1   1  211.86    7.85
   2  -1  -1  167.18    4.12
  -2   1   1  162.89    4.18
   1  -1  -1  336.99    5.67
  -1   1   1  349.94    6.01
   0  -1  -1    9.46    1.12
   0   1   1    9.45    1.31
  -1  -1  -1   85.25    2.91
   1   1   1   85.88    2.70
  -2  -1  -1   25.69    1.94
   2   1   1   24.39    1.93
  -3  -1  -1   77.27    2.99
   3   1   1   80.64    3.55
  -4  -1  -1  296.44    9.53
   4   1   1  293.74    9.27
  -5  -1  -1   16.35    7.62
   5   1   1    7.17    4.67
  -6  -1  -1   26.79    7.44
   6   1   1   40.45    6.36
  -7  -1  -1   40.01    5.93
   7   1   1   44.84    6.20
  -8  -1  -1    4.03    4.89
   8   1   1    3.38    5.01
  -9  -1  -1    7.18    6.15
   9   1   1    9.89    6.08
  10  -2  -1    6.54    8.15
 -10   2   1    1.18    9.50
   9  -2  -1    4.96    5.74
  -9   2   1   11.11    6.92
   8  -2  -1   36.52    7.88
  -8   2   1   26.62    7.33
   7  -2  -1   31.80    8.64
  -7   2   1   22.88    8.89
   6  -2  -1   60.54    5.58
  -6   2   1   63.09    7.24
   5  -2  -1  218.91    8.21
  -5   2   1  227.35    9.55
   4  -2  -1   82.43    3.15
  -4   2   1   83.69    3.41
   3  -2  -1    4.17    1.95
  -3   2   1    4.82    2.08
   2  -2  -1  397.04    7.69
  -2   2   1  375.10    6.56
   1  -2  -1   14.51    2.60
  -1   2   1   15.00    2.39
   0  -2  -1  299.34    5.72
   0   2   1  285.64    5.77
  -1  -2  -1  114.61    3.49
   1   2   1  118.20    3.80
  -2  -2  -1   19.91    3.14
   2   2   1   17.83    2.23
  -3  -2  -1    5.08    3.01
   3   2   1    6.49    2.46
  -4  -2  -1   72.89    3.94
   4   2   1   70.35    3.65
  -5  -2  -1   16.09    4.00
   5   2   1   14.46    3.77
  -6  -2  -1    5.96    4.80
   6   2   1    7.14    4.95
  -7  -2  -1   29.41    5.13
   7   2   1   31.00    5.56
  -8  -2  -1   10.57    5.15
   8   2   1    6.34    5.41
  -9  -2  -1    7.01    6.94
   9   2   1    6.22    6.29
  10  -3  -1    4.30   10.81
 -10   3   1    0.35    7.88
   9  -3  -1    1.01   10.53
  -9   3   1    2.83    7.33
   8  -3  -1   37.48    8.06
  -8   3   1   46.11    7.74
   7  -3  -1   10.19    5.24
  -7   3   1   16.93    8.12
   6  -3  -1    7.09    3.94
  -6   3   1   17.24    6.31
   5  -3  -1  122.88    5.14
  -5   3   1  119.95    6.41
   4  -3  -1   22.50    2.87
  -4   3   1   27.88    3.63
   3  -3  -1    2.66    2.22
  -3   3   1    5.44    2.14
   2  -3  -1  277.10    5.58
  -2   3   1  272.47    6.01
   1  -3  -1  168.89    4.93
  -1   3   1  169.72    4.58
   0  -3  -1   25.89    2.06
   0   3   1   26.73    2.23
  -1  -3  -1   77.42    2.94
   1   3   1   74.68    3.16
  -2  -3  -1   38.78    3.37
   2   3   1   42.43    2.78
  -3  -3  -1    4.21    2.79
   3   3   1    1.86    2.41
  -4  -3  -1   16.97    3.49
   4   3   1   16.42    3.33
  -5  -3  -1   41.01    4.62
   5   3   1   48.74    4.76
  -6  -3  -1   10.48    5.39
   6   3   1   14.17    5.66
  -7  -3  -1   11.15    5.05
   7   3   1   17.15    5.99
  -8  -3  -1   17.86    5.21
   8   3   1   26.38    5.81
  -9  -3  -1    9.35    7.01
   9   3   1   17.71    6.34
  10  -4  -1    5.85   11.02
 -10   4   1    9.71    8.96
   9  -4  -1   19.23   10.85
  -9   4   1    2.88    7.73
   8  -4  -1   40.33    7.63
  -8   4   1   35.73    9.19
   7  -4  -1  108.79    6.07
  -7   4   1   97.46    9.55
   6  -4  -1    5.11    4.63
  -6   4   1   28.91   13.01
   5  -4  -1   46.46    4.68
  -5   4   1   54.97    7.08
   4  -4  -1   92.80    5.06
  -4   4   1   95.71    6.03
   3  -4  -1    1.68    3.09
  -3   4   1    6.80    3.51
   2  -4  -1   38.65    2.78
  -2   4   1   40.48    2.90
   1  -4  -1  164.90    4.79
  -1   4   1  163.98    4.23
   0  -4  -1   18.18    2.15
   0   4   1   14.00    2.21
  -1  -4  -1   10.86    3.10
   1   4   1   14.87    2.91
  -2  -4  -1  144.93    4.94
   2   4   1  152.30    5.29
  -3  -4  -1    1.82    3.74
   3   4   1    4.27    4.45
  -4  -4  -1   10.16    4.80
   4   4   1    1.38    4.67
  -5  -4  -1   32.20    5.39
   5   4   1   46.40    5.83
  -6  -4  -1    5.45    4.45
   6   4   1    6.75    4.28
  -7  -4  -1    1.12    5.27
   7   4   1    1.67    5.31
  -8  -4  -1   22.40    5.57
   8   4   1   17.26    7.00
  10  -5  -1   30.20    9.56
 -10   5   1    0.00    9.81
   9  -5  -1   17.04   10.10
  -9   5   1    6.48    9.14
   8  -5  -1    6.05    7.17
  -8   5   1    3.13   11.46
   7  -5  -1   29.32    5.40
  -7   5   1   51.86   12.02
   6  -5  -1    4.13    6.30
  -6   5   1   21.65    7.94
   5  -5  -1    6.60    6.12
  -5   5   1   13.68    5.89
   4  -5  -1  102.38    6.44
  -4   5   1  140.15    8.32
   3  -5  -1    2.56    3.78
  -3   5   1   14.26    4.44
   2  -5  -1   18.88    3.51
  -2   5   1   15.76    4.33
   1  -5  -1  245.40    6.57
  -1   5   1  247.20    8.47
   0  -5  -1    2.07    2.39
   0   5   1    3.89    2.87
  -1  -5  -1    3.66    3.34
   1   5   1    8.27    5.03
  -2  -5  -1  171.01    8.25
   2   5   1  179.38    8.83
  -3  -5  -1   16.71    4.51
   3   5   1   17.34    6.74
  -4  -5  -1    1.26    5.03
   4   5   1    4.90    5.27
  -5  -5  -1   27.50    5.23
   5   5   1   26.93    5.44
  -6  -5  -1    1.39    4.30
   6   5   1    5.44    4.05
  -7  -5  -1    5.65    5.55
   7   5   1   10.80    6.00
  -8  -5  -1    9.33    5.43
   8   5   1   11.55    6.49
  10  -6  -1   72.43   13.90
 -10   6   1    0.50    9.77
   9  -6  -1   23.07   13.11
  -9   6   1   16.51   15.82
   8  -6  -1   15.21    8.55
  -8   6   1    1.49    8.94
   7  -6  -1   19.95    5.19
  -7   6   1   20.46    6.71
   6  -6  -1    6.30    6.57
  -6   6   1   16.93    7.12
   5  -6  -1    3.64    5.84
  -5   6   1   16.06    7.46
   4  -6  -1   72.88    9.18
  -4   6   1   65.97    7.38
   3  -6  -1    2.55    4.81
  -3   6   1    4.98    5.77
   2  -6  -1   11.30    4.45
  -2   6   1   12.20    5.29
   1  -6  -1   78.56    7.13
  -1   6   1   57.60    5.83
   0  -6  -1   16.23    4.91
   0   6   1    7.47    4.79
  -1  -6  -1    9.64    5.73
   1   6   1   12.75    6.43
  -2  -6  -1   26.50    6.75
   2   6   1   21.60    6.48
  -3  -6  -1   13.92    6.72
   3   6   1    5.55    6.26
  -4  -6  -1    0.51    3.23
   4   6   1    4.00    4.90
  -5  -6  -1    7.42    3.37
   5   6   1    8.40    4.96
  -6  -6  -1   11.67    5.31
   6   6   1   11.70    5.76
  -7  -6  -1    7.01    5.49
   7   6   1    8.97    6.48
   9  -7  -1   12.97    7.82
  -9   7   1   13.84    7.84
   8  -7  -1    9.71    4.68
  -8   7   1    5.22    7.12
   7  -7  -1   15.14    5.99
  -7   7   1    6.97    6.79
   6  -7  -1    5.88    7.19
  -6   7   1    2.76    5.99
   5  -7  -1    9.04    7.49
  -5   7   1   11.38    7.17
   4  -7  -1   32.73    7.57
  -4   7   1   24.29    9.01
   3  -7  -1   19.32    6.66
  -3   7   1   12.81    8.47
   2  -7  -1    4.50    6.52
  -2   7   1    7.10    6.96
   1  -7  -1   15.25    5.18
  -1   7   1    5.06    4.79
   0  -7  -1   36.23    6.29
   0   7   1   25.94    8.03
  -1  -7  -1    7.01    6.94
   1   7   1    2.99    5.20
  -2  -7  -1    0.66    5.91
   2   7   1    1.55    6.82
  -3  -7  -1    8.48    6.20
   3   7   1    9.07    5.65
  -4  -7  -1    4.74    6.33
   4   7   1    1.01    5.17
  -5  -7  -1   10.15    6.07
   5   7   1    1.13    5.66
  -6  -7  -1    9.79    7.11
   6   7   1    8.35    5.55
   8  -8  -1   16.06    9.23
  -8   8   1    4.48   10.08
   7  -8  -1    4.52    7.34
  -7   8   1    0.00    8.77
   6  -8  -1    6.37    9.29
  -6   8   1    7.43    9.24
   5  -8  -1    0.00   33.94
  -5   8   1    5.62    9.27
   4  -8  -1    1.39    8.60
  -4   8   1    2.00    8.72
   3  -8  -1   16.15    6.65
  -3   8   1   33.19    9.40
   2  -8  -1    5.23    4.07
  -2   8   1    1.79    5.74
   1  -8  -1    6.14    4.62
  -1   8   1    5.06    5.19
   0  -8  -1   13.83    5.57
   0   8   1   13.37    6.84
  -1  -8  -1    3.05    5.81
   1   8   1    2.70   11.82
  -2  -8  -1    3.09    5.66
   2   8   1    4.61    5.34
  -3  -8  -1    5.37    6.54
   3   8   1    5.83    6.75
  -4  -8  -1    3.26    6.19
   4   8   1    0.00    6.98
  -5  -8  -1   10.05    4.93
   5   8   1    3.61    5.46
   8  -9  -1   17.54   29.10
  -8   9   1    4.93   10.83
   7  -9  -1   17.46   28.44
  -7   9   1    4.06   10.14
   6  -9  -1    7.40   12.17
  -6   9   1    0.00    9.71
   5  -9  -1   13.73   13.81
  -5   9   1    1.47    9.34
   4  -9  -1    5.39    6.37
  -4   9   1   11.17    8.91
   3  -9  -1   16.22    3.89
  -3   9   1   11.84    7.33
   2  -9  -1    4.88    4.93
  -2   9   1    2.51    5.17
   1  -9  -1    1.33    4.36
  -1   9   1    3.74    4.89
   0  -9  -1    6.19    5.54
   0   9   1    2.61    6.21
  -1  -9  -1    8.76    6.31
   1   9   1    0.00   28.17
  -2  -9  -1    2.93    6.33
   2   9   1    6.34    8.33
  -3  -9  -1    6.76    5.46
   3   9   1    0.00    5.76
  -4  -9  -1   10.11    6.37
   4   9   1    6.95    5.89
   6 -10  -1   25.17    8.99
  -6  10   1    5.83    8.76
   5 -10  -1   20.60    8.18
  -5  10   1    9.61    8.57
   4 -10  -1   19.26    5.31
  -4  10   1    6.78    7.65
   3 -10  -1    5.26    5.66
  -3  10   1    3.17    6.55
   2 -10  -1    5.71    5.32
  -2  10   1    5.93    5.84
   1 -10  -1    1.75    4.95
  -1  10   1   14.91   10.20
   0 -10  -1    6.29    5.19
   0  10   1    1.22   16.89
  -1 -10  -1   15.09    5.61
   1  10   1    5.57    8.33
  -2 -10  -1   17.46    6.14
   2  10   1   21.14   13.60
   4 -11  -1    8.72    5.85
  -4  11   1    4.06    9.28
   3 -11  -1   37.05   14.25
  -3  11   1   26.36   12.40
   2 -11  -1   21.33    8.74
  -2  11   1   18.74    6.47
   1 -11  -1    9.86    8.38
  -1  11   1    0.00   14.87
   0  12  -2    2.89   36.39
   0 -12   2    0.00   11.74
  -1  12  -2   14.34   10.66
   1 -12   2   15.40   10.96
  -2  12  -2   22.82   10.04
   2 -12   2    1.80   11.36
  -3  12  -2   20.78    8.26
   3 -12   2    3.86   11.30
  -4  12  -2   10.56    9.77
   4 -12   2   11.42   10.21
   2  11  -2    8.16    7.43
  -2 -11   2    5.91   10.68
   1  11  -2    4.49    9.24
  -1 -11   2    7.66   14.29
   0  11  -2    6.25   30.47
   0 -11   2   23.15   11.19
  -1  11  -2   16.30   11.84
   1 -11   2   15.36    9.10
  -2  11  -2    4.73    6.35
   2 -11   2    8.93    8.70
  -3  11  -2    6.28    6.73
   3 -11   2   19.06    8.41
  -4  11  -2    4.65    8.13
   4 -11   2    8.39    7.57
  -5  11  -2    0.57    7.44
   5 -11   2    8.26    7.27
  -6  11  -2    0.00    8.51
   6 -11   2   16.95    6.93
   4  10  -2    1.71    6.58
  -4 -10   2    6.61   10.53
   3  10  -2    2.03    7.48
  -3 -10   2   11.13   10.48
   2  10  -2   12.05    7.88
  -2 -10   2    3.63    9.26
   1  10  -2    0.00    7.44
  -1 -10   2    8.83    8.60
   0  10  -2   14.06    4.92
   0 -10   2   16.21    8.49
  -1  10  -2    9.37    4.88
   1 -10   2    8.09    7.46
  -2  10  -2    0.62    6.79
   2 -10   2   14.68    6.64
  -3  10  -2   11.85    6.71
   3 -10   2   17.10    4.72
  -4  10  -2    5.23    6.75
   4 -10   2    4.39    3.76
  -5  10  -2    6.57    7.06
   5 -10   2    8.84    4.72
  -6  10  -2    4.01    7.86
   6 -10   2   12.18    6.76
  -7  10  -2    8.92    9.73
   7 -10   2    8.46    6.98
   5   9  -2    0.00    9.84
  -5  -9   2   13.63   10.78
   4   9  -2    2.17    6.17
  -4  -9   2   11.52    6.49
   3   9  -2   11.28    5.95
  -3  -9   2    6.93    7.73
   2   9  -2   15.85    5.61
  -2  -9   2    3.01    4.39
   1   9  -2    7.95    3.94
  -1  -9   2    2.66    5.14
   0   9  -2    3.40    3.39
   0  -9   2    3.85    8.21
  -1   9  -2    5.49    4.53
   1  -9   2    4.62    6.65
  -2   9  -2    6.31    6.10
   2  -9   2   16.86    7.12
  -3   9  -2   13.50    7.17
   3  -9   2   13.44    5.90
  -4   9  -2   24.58    6.93
   4  -9   2   35.78    4.92
  -5   9  -2    5.85    6.65
   5  -9   2    8.46    4.80
  -6   9  -2    3.94    6.03
   6  -9   2    8.35    5.92
  -7   9  -2   14.06    7.46
   7  -9   2   22.85    9.22
  -8   9  -2    2.14    8.68
   8  -9   2   20.36   30.05
   6   8  -2   10.49    6.23
  -6  -8   2    0.00    7.58
   5   8  -2   16.39    5.53
  -5  -8   2   11.26    6.82
   4   8  -2    5.69    4.29
  -4  -8   2    6.99    4.58
   3   8  -2    3.44    3.52
  -3  -8   2    1.32    5.23
   2   8  -2   23.82    3.50
  -2  -8   2   17.30    4.31
   1   8  -2    3.90    5.08
  -1  -8   2    1.62    5.38
   0   8  -2    1.39    4.35
   0  -8   2    2.21    5.88
  -1   8  -2   33.48    4.88
   1  -8   2   37.45    6.69
  -2   8  -2   10.82    4.76
   2  -8   2    8.74    5.84
  -3   8  -2    9.62    5.17
   3  -8   2    1.61    4.02
  -4   8  -2   62.38    9.29
   4  -8   2   43.38    7.32
  -5   8  -2    7.46    6.31
   5  -8   2    6.73    6.55
  -6   8  -2    1.27    6.89
   6  -8   2   19.95    7.18
  -7   8  -2   14.85    7.87
   7  -8   2   29.57   15.88
  -8   8  -2   14.75   16.62
   8  -8   2   21.58   33.19
  -9   8  -2    0.00   13.10
   9  -8   2   21.37   15.00
   7   7  -2   10.39    5.93
  -7  -7   2    8.59    3.24
   6   7  -2    6.57    5.00
  -6  -7   2    6.60    5.86
   5   7  -2   38.71    3.99
  -5  -7   2   33.68    5.16
   4   7  -2    2.13    3.75
  -4  -7   2    0.76    3.86
   3   7  -2    1.57    3.04
  -3  -7   2    0.51    5.71
   2   7  -2   41.94    3.66
  -2  -7   2   38.46    4.14
   1   7  -2    5.11    4.53
  -1  -7   2    1.99    3.03
   0   7  -2   17.38    4.23
   0  -7   2   17.28    4.29
  -1   7  -2   56.61    4.74
   1  -7   2   62.84    4.58
  -2   7  -2    7.32    4.33
   2  -7   2    3.17    4.38
  -3   7  -2   18.12    4.84
   3  -7   2   16.05    4.31
  -4   7  -2   44.64    6.38
   4  -7   2   35.56    6.27
  -5   7  -2   18.63    6.61
   5  -7   2   21.22    7.65
  -6   7  -2   11.03    6.46
   6  -7   2   18.30   18.15
  -7   7  -2    3.01    6.54
   7  -7   2    5.76   10.70
  -8   7  -2   12.47    7.49
   8  -7   2   18.66    7.39
  -9   7  -2    5.27   10.15
   9  -7   2   24.87    6.23
   8   6  -2   37.26    8.75
  -8  -6   2   10.47    5.87
   7   6  -2    8.37    5.77
  -7  -6   2    2.14    4.97
   6   6  -2    1.86    4.10
  -6  -6   2    4.61    4.75
   5   6  -2   58.57    5.02
  -5  -6   2   51.82    3.32
   4   6  -2   15.43    4.40
  -4  -6   2   23.79    3.43
   3   6  -2    3.88    3.29
  -3  -6   2    1.76    4.00
   2   6  -2   27.35    2.63
  -2  -6   2   24.52    3.17
   1   6  -2   34.79    2.68
  -1  -6   2   33.42    2.78
   0   6  -2   42.03    3.43
   0  -6   2   44.24    3.64
  -1   6  -2   39.84    3.88
   1  -6   2   34.32    3.25
  -2   6  -2   70.07    5.60
   2  -6   2   79.65    3.97
  -3   6  -2   13.50    4.24
   3  -6   2    0.92    4.14
  -4   6  -2   11.90    5.31
   4  -6   2    2.33    4.72
  -5   6  -2  106.50    7.59
   5  -6   2   98.42    7.26
  -6   6  -2    5.13    6.29
   6  -6   2    1.92    6.25
  -7   6  -2    3.56    6.16
   7  -6   2    5.51    4.94
  -8   6  -2   15.50    6.84
   8  -6   2   20.17    6.24
  -9   6  -2    0.55    7.52
   9  -6   2    6.99    7.55
 -10   6  -2    2.74    6.57
  10  -6   2    3.93    9.60
   9   5  -2    4.99    7.72
  -9  -5   2    6.77    7.43
   8   5  -2    4.47    7.08
  -8  -5   2    2.01    7.43
   7   5  -2   10.62    4.55
  -7  -5   2    3.16    5.27
   6   5  -2    7.58    4.47
  -6  -5   2    1.30    4.61
   5   5  -2    4.06    3.94
  -5  -5   2   13.39    4.23
   4   5  -2   99.33    4.87
  -4  -5   2   98.25    4.61
   3   5  -2    2.60    2.75
  -3  -5   2    2.49    2.58
   2   5  -2    2.75    2.24
  -2  -5   2    5.09    2.59
   1   5  -2  187.83    4.17
  -1  -5   2  187.25    5.22
   0   5  -2    3.86    2.30
   0  -5   2    1.27    2.80
  -1   5  -2    4.44    2.88
   1  -5   2    0.00    2.90
  -2   5  -2  108.08    3.81
   2  -5   2  113.28    3.89
  -3   5  -2   27.61    2.99
   3  -5   2   25.44    3.38
  -4   5  -2    3.61    3.40
   4  -5   2    1.27    3.10
  -5   5  -2  180.82    7.16
   5  -5   2  174.52    6.48
  -6   5  -2   30.05    6.47
   6  -5   2   20.26    4.86
  -7   5  -2   15.27    6.70
   7  -5   2    9.17    5.25
  -8   5  -2   11.14    6.60
   8  -5   2    7.02    6.99
  -9   5  -2   15.18    9.92
   9  -5   2    0.00    7.91
 -10   5  -2    0.00    9.69
  10  -5   2    7.34   10.30
   9   4  -2    7.08    7.51
  -9  -4   2   11.68   10.02
   8   4  -2    6.40    5.85
  -8  -4   2    0.40    5.83
   7   4  -2   34.87    5.70
  -7  -4   2   47.61    5.68
   6   4  -2    6.32    4.43
  -6  -4   2    2.69    5.13
   5   4  -2    7.34    3.67
  -5  -4   2    7.20    4.07
   4   4  -2  181.83    5.88
  -4  -4   2  171.98    5.93
   3   4  -2    7.02    3.07
  -3  -4   2    4.24    2.59
   2   4  -2  125.60    4.36
  -2  -4   2  115.92    4.05
   1   4  -2    4.87    1.41
  -1  -4   2   11.13    1.67
   0   4  -2   82.48    2.89
   0  -4   2   81.14    3.07
  -1   4  -2    3.84    1.62
   1  -4   2    4.34    1.75
  -2   4  -2    7.88    1.92
   2  -4   2    8.39    2.22
  -3   4  -2   22.20    2.40
   3  -4   2   14.17    2.24
  -4   4  -2   35.11    3.47
   4  -4   2   36.58    3.06
  -5   4  -2  155.17    6.48
   5  -4   2  149.64    6.18
  -6   4  -2  115.64    7.80
   6  -4   2  124.26    7.81
  -7   4  -2   14.70    9.82
   7  -4   2   16.75    6.79
  -8   4  -2   22.73   10.33
   8  -4   2   15.44    6.51
  -9   4  -2   59.72    9.16
   9  -4   2   47.48    8.40
 -10   4  -2    1.62    7.75
  10  -4   2    7.82    9.56
   9   3  -2    1.29    6.30
  -9  -3   2    6.12    6.54
   8   3  -2    3.60    5.52
  -8  -3   2    6.25    5.46
   7   3  -2   36.90    6.21
  -7  -3   2   33.48    5.77
   6   3  -2   44.05    9.09
  -6  -3   2   48.87    5.32
   5   3  -2   26.50    5.69
  -5  -3   2   34.86    5.99
   4   3  -2  145.28    5.94
  -4  -3   2  138.68    5.66
   3   3  -2  191.09    5.06
  -3  -3   2  175.06    4.87
   2   3  -2   39.97    2.10
  -2  -3   2   40.08    2.06
   1   3  -2   69.85    2.16
  -1  -3   2   64.71    2.76
   0   3  -2  324.79    5.22
   0  -3   2  322.27    6.51
  -1   3  -2   45.57    2.17
   1  -3   2   42.70    2.34
  -2   3  -2   20.63    1.75
   2  -3   2   18.27    1.95
  -3   3  -2  149.64    3.59
   3  -3   2  151.04    3.77
  -4   3  -2   14.56    2.49
   4  -3   2   12.64    2.78
  -5   3  -2   46.62    5.10
   5  -3   2   45.84    4.95
  -6   3  -2  149.86   11.99
   6  -3   2  168.79    8.18
  -7   3  -2   11.32    9.81
   7  -3   2   16.82    6.84
  -8   3  -2    5.78    6.21
   8  -3   2    4.71    6.25
  -9   3  -2   52.78    8.67
   9  -3   2   52.64    7.84
 -10   3  -2    7.21    7.75
  10  -3   2    0.00   11.43
  10   2  -2    7.43    6.64
 -10  -2   2    0.19    8.55
   9   2  -2   29.24    6.18
  -9  -2   2   27.33    7.98
   8   2  -2    7.01    5.21
  -8  -2   2    7.26    5.70
   7   2  -2   15.16    7.19
  -7  -2   2   14.62    5.91
   6   2  -2  120.00    7.17
  -6  -2   2  135.92    7.01
   5   2  -2    6.35    3.81
  -5  -2   2    8.72    3.57
   4   2  -2   31.55    2.41
  -4  -2   2   28.66    2.89
   3   2  -2  292.19    5.21
  -3  -2   2  296.97    5.41
   2   2  -2    3.36    1.43
  -2  -2   2    5.79    1.74
   1   2  -2   13.64    1.73
  -1  -2   2   14.10    2.01
   0   2  -2  922.64   13.71
   0  -2   2  927.49   16.52
  -1   2  -2  105.55    3.05
   1  -2   2  106.46    3.17
  -2   2  -2    2.77    1.52
   2  -2   2    6.26    1.74
  -3   2  -2  212.30    4.11
   3  -2   2  213.81    4.47
  -4   2  -2    9.55    2.18
   4  -2   2    8.18    2.86
  -5   2  -2   23.57    2.58
   5  -2   2   27.11    3.77
  -6   2  -2  197.17    6.96
   6  -2   2  195.21    8.46
  -7   2  -2   18.58    4.85
   7  -2   2   21.24    5.88
  -8   2  -2   12.58    6.53
   8  -2   2    9.67    8.38
  -9   2  -2   27.09    8.15
   9  -2   2   25.53    9.48
 -10   2  -2   10.94    8.11
  10  -2   2    5.43   17.99
  10   1  -2   10.36   10.51
 -10  -1   2   29.60   20.55
   9   1  -2   92.42   17.99
  -9  -1   2   55.08    8.55
   8   1  -2    6.81    7.63
  -8  -1   2    1.55    5.49
   7   1  -2    2.04    7.16
  -7  -1   2    6.03    5.68
   6   1  -2  149.97    6.76
  -6  -1   2  148.12    6.67
   5   1  -2   33.20    3.32
  -5  -1   2   38.60    3.74
   4   1  -2    8.80    2.02
  -4  -1   2    6.76    2.12
   3   1  -2  424.20    7.23
  -3  -1   2  424.16    7.59
   2   1  -2   42.14    2.40
  -2  -1   2   37.89    2.52
   1   1  -2   14.83    1.31
  -1  -1   2   13.66    1.22
   0   1  -2  347.51    5.78
   0  -1   2  350.82    5.76
  -1   1  -2   33.18    1.76
   1  -1   2   29.39    2.57
  -2   1  -2   45.88    2.48
   2  -1   2   48.22    2.29
  -3   1  -2  222.87    4.53
   3  -1   2  217.84    4.66
  -4   1  -2  178.35    4.74
   4  -1   2  182.02    5.17
  -5   1  -2   44.25    3.50
   5  -1   2   44.16    4.37
  -6   1  -2   87.95    6.03
   6  -1   2   90.07    7.86
  -7   1  -2   61.21    7.58
   7  -1   2   51.25    7.86
  -8   1  -2    4.74    4.90
   8  -1   2    0.00    7.16
  -9   1  -2    9.09    5.80
   9  -1   2    2.08    6.01
 -10   1  -2   28.77    9.33
  10  -1   2    6.05    7.22
  10   0  -2   12.88   14.57
 -10   0   2    7.35    7.02
   9   0  -2   21.97    7.60
  -9   0   2   40.38    6.36
   8   0  -2    2.89    6.00
  -8   0   2    1.09    5.25
   7   0  -2   21.71    5.61
  -7   0   2   18.25    5.83
   6   0  -2  112.78    7.88
  -6   0   2  112.57    8.85
   5   0  -2   37.05    5.64
  -5   0   2   30.58    4.49
   4   0  -2  264.18    7.39
  -4   0   2  260.57    6.15
   3   0  -2   78.23    3.47
  -3   0   2   82.68    3.84
   2   0  -2  128.97    3.54
  -2   0   2  113.00    3.65
   1   0  -2   79.93    2.72
  -1   0   2   82.04    2.54
   0   0  -2  146.22    3.11
   0   0   2  148.59    3.58
  -1   0  -2  985.16   15.34
   1   0   2 1000.00   16.24
  -2   0  -2   19.30    2.01
   2   0   2   18.79    1.78
  -3   0  -2  126.71    3.97
   3   0   2  128.86    3.67
  -4   0  -2  197.71    6.59
   4   0   2  217.53    9.05
  -5   0  -2    3.24    3.80
   5   0   2    6.21    8.68
  -6   0  -2    7.11    4.85
   6   0   2    8.97    6.26
  -7   0  -2   48.88    5.71
   7   0   2   37.96    6.32
  -8   0  -2    4.36    4.77
   8   0   2    6.68    5.25
  -9   0  -2    4.94    5.85
   9   0   2    5.71    7.02
  10  -1  -2    0.45    7.57
 -10   1   2    4.86    8.82
   9  -1  -2   16.60    7.15
  -9   1   2    5.53    5.28
   8  -1  -2   28.64    8.22
  -8   1   2   37.69    8.76
   7  -1  -2   21.78   10.26
  -7   1   2   15.37    7.16
   6  -1  -2  100.90    9.16
  -6   1   2   91.10    7.28
   5  -1  -2  171.84    8.73
  -5   1   2  168.86    8.52
   4  -1  -2  112.94    3.87
  -4   1   2  111.11    3.63
   3  -1  -2    5.60    2.10
  -3   1   2    3.75    2.03
   2  -1  -2  340.91    6.44
  -2   1   2  320.35    6.81
   1  -1  -2   49.94    2.79
  -1   1   2   46.92    2.72
   0  -1  -2  548.73   10.36
   0   1   2  544.18    8.81
  -1  -1  -2   70.40    3.18
   1   1   2   72.12    2.94
  -2  -1  -2   12.25    2.74
   2   1   2   11.50    2.62
  -3  -1  -2   11.27    4.71
   3   1   2   12.68    4.55
  -4  -1  -2  137.53    5.09
   4   1   2  137.77    5.54
  -5  -1  -2   38.65    4.78
   5   1   2   50.56    4.48
  -6  -1  -2    0.65    4.91
   6   1   2    3.42    4.68
  -7  -1  -2   37.24    5.24
   7   1   2   37.97    5.26
  -8  -1  -2   18.74    5.24
   8   1   2   20.80    5.63
  -9  -1  -2   10.39    5.69
   9   1   2   17.57    6.64
  10  -2  -2    5.22   10.90
 -10   2   2    0.00   10.29
   9  -2  -2    3.97    8.16
  -9   2   2    4.63    9.43
   8  -2  -2   49.97    8.11
  -8   2   2   48.75    8.19
   7  -2  -2   28.84    7.64
  -7   2   2   27.75    8.64
   6  -2  -2   11.13    4.78
  -6   2   2   16.61    6.35
   5  -2  -2  180.95    7.29
  -5   2   2  172.56    7.32
   4  -2  -2    5.19    3.37
  -4   2   2    8.13    3.70
   3  -2  -2   91.63    3.37
  -3   2   2   96.78    3.39
   2  -2  -2  119.47    3.76
  -2   2   2  122.89    4.39
   1  -2  -2  150.05    4.35
  -1   2   2  150.11    4.36
   0  -2  -2   16.09    3.41
   0   2   2   11.21    3.22
  -1  -2  -2   17.09    3.73
   1   2   2   21.77    2.82
  -2  -2  -2   62.96    3.05
   2   2   2   70.98    3.08
  -3  -2  -2    0.00    2.89
   3   2   2    1.11    2.47
  -4  -2  -2   21.30    3.31
   4   2   2   31.71    3.44
  -5  -2  -2   48.40    5.27
   5   2   2   57.09    4.58
  -6  -2  -2   16.01    5.04
   6   2   2   12.07    5.40
  -7  -2  -2   10.64    5.07
   7   2   2   12.01    4.99
  -8  -2  -2   19.63   10.46
   8   2   2   16.94    6.83
  -9  -2  -2   10.08   10.13
   9   2   2   32.20    8.09
  10  -3  -2   10.89    9.18
 -10   3   2   23.69   11.48
   9  -3  -2    8.93    8.99
  -9   3   2   15.98    8.57
   8  -3  -2   51.75    5.80
  -8   3   2   30.69    7.53
   7  -3  -2   69.09    6.41
  -7   3   2   67.03    8.71
   6  -3  -2   20.21    5.47
  -6   3   2   24.20    6.11
   5  -3  -2   39.33    4.77
  -5   3   2   43.07    5.33
   4  -3  -2  144.75    7.00
  -4   3   2  150.44    7.33
   3  -3  -2   12.61    3.72
  -3   3   2   18.72    4.44
   2  -3  -2   10.27    3.10
  -2   3   2    8.57    3.47
   1  -3  -2  256.23    7.45
  -1   3   2  261.41    6.36
   0  -3  -2   17.32    2.62
   0   3   2   15.86    3.00
  -1  -3  -2    1.40    1.82
   1   3   2    2.95    2.36
  -2  -3  -2  101.62    3.99
   2   3   2   87.98    3.89
  -3  -3  -2    1.83    2.85
   3   3   2    2.18    3.72
  -4  -3  -2   10.03    4.10
   4   3   2    4.50    3.51
  -5  -3  -2   52.03    5.66
   5   3   2   64.43    5.37
  -6  -3  -2    1.88    4.39
   6   3   2    6.77    4.82
  -7  -3  -2    3.80    5.17
   7   3   2    3.88    6.64
  -8  -3  -2   10.02    5.67
   8   3   2   25.94    7.63
  10  -4  -2   16.82    9.06
 -10   4   2    5.45    8.75
   9  -4  -2    4.34    4.86
  -9   4   2    2.16   10.72
   8  -4  -2   15.67    5.04
  -8   4   2    1.28    9.91
   7  -4  -2  127.19    8.22
  -7   4   2  124.97   11.42
   6  -4  -2    7.53    6.34
  -6   4   2   14.70    7.69
   5  -4  -2    8.37    5.50
  -5   4   2   14.90    7.41
   4  -4  -2  204.55   10.74
  -4   4   2  222.02   12.85
   3  -4  -2    1.41    4.48
  -3   4   2    8.71    5.94
   2  -4  -2    6.67    4.46
  -2   4   2    6.73    4.04
   1  -4  -2  132.32    5.40
  -1   4   2  119.81    4.24
   0  -4  -2    3.20    2.65
   0   4   2    5.96    4.27
  -1  -4  -2    8.10    3.68
   1   4   2    2.26    4.29
  -2  -4  -2  119.23    5.78
   2   4   2  139.20    6.10
  -3  -4  -2    3.80    4.63
   3   4   2    7.28    5.04
  -4  -4  -2    5.24    4.24
   4   4   2    1.78    4.79
  -5  -4  -2   32.05    4.57
   5   4   2   35.71    5.31
  -6  -4  -2    9.09    5.36
   6   4   2    6.63    4.68
  -7  -4  -2    7.54    5.30
   7   4   2    0.88    5.49
  -8  -4  -2   12.74    5.71
   8   4   2    4.44    6.30
  10  -5  -2   20.77   11.37
 -10   5   2    0.36   18.26
   9  -5  -2   16.71   11.66
  -9   5   2   10.96   19.54
   8  -5  -2   14.19    7.80
  -8   5   2    7.09   11.71
   7  -5  -2   10.41    6.37
  -7   5   2   12.44    8.24
   6  -5  -2    4.08    9.55
  -6   5   2   19.28    9.91
   5  -5  -2   17.44    8.06
  -5   5   2   25.38    8.98
   4  -5  -2  105.42    7.47
  -4   5   2  103.83    8.00
   3  -5  -2    7.90    4.95
  -3   5   2   10.27    5.48
   2  -5  -2    3.21    4.29
  -2   5   2    8.52    5.33
   1  -5  -2   66.19    4.13
  -1   5   2   48.51    4.87
   0  -5  -2   20.55    3.24
   0   5   2   11.21    7.14
  -1  -5  -2    7.13    4.88
   1   5   2    4.20    5.58
  -2  -5  -2   37.77    5.61
   2   5   2   40.07    5.31
  -3  -5  -2   22.19    4.73
   3   5   2   26.76    6.26
  -4  -5  -2    0.00    6.69
   4   5   2    4.72    5.03
  -5  -5  -2   15.52    4.51
   5   5   2    9.32    5.53
  -6  -5  -2   23.55    5.22
   6   5   2   12.10    5.42
  -7  -5  -2    6.50    5.26
   7   5   2    3.97    6.11
   9  -6  -2   11.43    8.06
  -9   6   2   18.26   11.11
   8  -6  -2    3.48    6.25
  -8   6   2    0.00    9.06
   7  -6  -2   15.34    5.99
  -7   6   2    7.32    8.94
   6  -6  -2    7.14    6.21
  -6   6   2   20.76    7.88
   5  -6  -2    5.19    7.13
  -5   6   2   13.48    7.83
   4  -6  -2   32.64    8.29
  -4   6   2   33.08    7.81
   3  -6  -2   27.30    7.06
  -3   6   2   15.57    7.10
   2  -6  -2   13.88    4.88
  -2   6   2   14.85    5.45
   1  -6  -2    3.41    4.13
  -1   6   2    2.91    5.32
   0  -6  -2   44.76    4.77
   0   6   2   35.52    7.19
  -1  -6  -2    2.77    5.24
   1   6   2    6.55    6.48
  -2  -6  -2    3.42    5.63
   2   6   2    3.73    5.36
  -3  -6  -2   13.78    5.44
   3   6   2   12.91    5.98
  -4  -6  -2    0.54    3.69
   4   6   2    2.11    5.04
  -5  -6  -2    4.61    5.45
   5   6   2    6.14    5.83
  -6  -6  -2   16.39    5.47
   6   6   2   13.24    7.20
   9  -7  -2   20.90    7.66
  -9   7   2    5.65   10.76
   8  -7  -2    3.14    7.02
  -8   7   2    3.56   11.11
   7  -7  -2    6.75    6.31
  -7   7   2    2.13    7.28
   6  -7  -2    7.56    7.30
  -6   7   2   10.09    7.25
   5  -7  -2    2.64    8.67
  -5   7   2    0.68    6.44
   4  -7  -2    0.00   11.42
  -4   7   2    7.22    7.85
   3  -7  -2   55.27    9.71
  -3   7   2   33.09    6.84
   2  -7  -2    2.30    4.88
  -2   7   2   12.81    6.79
   1  -7  -2    5.41    4.67
  -1   7   2    9.99    5.24
   0  -7  -2   39.04    6.27
   0   7   2   15.01    8.32
  -1  -7  -2    6.90    5.23
   1   7   2    1.21    6.27
  -2  -7  -2    4.30    4.93
   2   7   2    4.18    6.73
  -3  -7  -2    5.60    6.32
   3   7   2    3.96    7.26
  -4  -7  -2    0.96    7.93
   4   7   2    7.74    7.63
  -5  -7  -2    9.27    6.10
   5   7   2    3.86    6.75
   8  -8  -2   14.25    9.64
  -8   8   2    4.45   10.65
   7  -8  -2   31.78   13.77
  -7   8   2    0.00   14.39
   6  -8  -2    4.99   10.25
  -6   8   2    2.10    8.96
   5  -8  -2    7.59    8.52
  -5   8   2    6.96    8.32
   4  -8  -2    0.00    9.18
  -4   8   2    5.52    7.09
   3  -8  -2   16.26    8.49
  -3   8   2   16.30    6.07
   2  -8  -2   14.73    4.50
  -2   8   2    6.42    5.66
   1  -8  -2    7.87    3.85
  -1   8   2    4.18    5.99
   0  -8  -2   15.02    4.60
   0   8   2    5.64    8.44
  -1  -8  -2    3.45    6.18
   1   8   2    1.54    8.37
  -2  -8  -2    4.22    6.60
   2   8   2    0.00    8.78
  -3  -8  -2    9.25    6.83
   3   8   2    0.00    8.36
  -4  -8  -2    4.86    6.61
   4   8   2    6.48    6.05
   7  -9  -2   18.64   14.25
  -7   9   2   13.13   11.07
   6  -9  -2   32.16   11.66
  -6   9   2    2.35   10.15
   5  -9  -2   15.49    9.30
  -5   9   2    6.58    8.27
   4  -9  -2    7.29    6.38
  -4   9   2    3.95    8.73
   3  -9  -2   17.44    5.53
  -3   9   2    4.60    6.28
   2  -9  -2   16.98    4.75
  -2   9   2   11.05    7.00
   1  -9  -2    0.00    6.16
  -1   9   2    3.14    9.75
   0  -9  -2    5.35    6.45
   0   9   2    0.00    8.56
  -1  -9  -2    9.22    6.45
   1   9   2    4.71   10.34
  -2  -9  -2    3.80    5.98
   2   9   2    0.28    8.38
  -3  -9  -2    9.26    6.49
   3   9   2   12.57    7.77
   5 -10  -2   15.66    8.44
  -5  10   2   19.49    8.68
   4 -10  -2   12.97    6.87
  -4  10   2    3.10    7.46
   3 -10  -2    3.25    6.48
  -3  10   2    7.79    7.06
   2 -10  -2    3.26    5.95
  -2  10   2   11.43    7.44
   1 -10  -2    8.49    6.16
  -1  10   2   13.29    8.84
   0 -10  -2    1.96    5.62
   0  10   2    9.57   14.45
  -1 -10  -2   13.36    6.10
   1  10   2    7.97    9.82
   1  12  -3    7.29    8.30
  -1 -12   3    0.00   11.81
   0  12  -3    3.54   10.39
   0 -12   3    2.57   11.75
  -1  12  -3   19.73   12.37
   1 -12   3   18.62   10.89
  -2  12  -3   14.93    7.01
   2 -12   3   23.28    9.86
  -3  12  -3    4.52    7.54
   3 -12   3   14.35    8.68
  -4  12  -3    0.00    7.65
   4 -12   3   21.18    8.32
   3  11  -3    6.69    6.97
  -3 -11   3   23.13   12.56
   2  11  -3    7.25    7.27
  -2 -11   3    2.36   10.55
   1  11  -3    3.65    8.65
  -1 -11   3    2.13   11.09
   0  11  -3   13.01    5.64
   0 -11   3    7.46    9.96
  -1  11  -3    4.43    5.00
   1 -11   3    9.78   10.39
  -2  11  -3    4.67    6.21
   2 -11   3    5.63    7.40
  -3  11  -3    8.70    6.24
   3 -11   3   13.72    8.78
  -4  11  -3    8.16    6.77
   4 -11   3   23.84    7.90
  -5  11  -3    2.38    7.64
   5 -11   3   14.77    7.73
  -6  11  -3   17.58   17.94
   6 -11   3   19.03    9.45
   5  10  -3    8.50    6.92
  -5 -10   3    0.00   10.42
   4  10  -3    5.15    8.45
  -4 -10   3   12.32    6.63
   3  10  -3   12.06    6.91
  -3 -10   3    4.30   10.73
   2  10  -3    2.73    3.72
  -2 -10   3    7.32    5.56
   1  10  -3    2.11    3.98
  -1 -10   3    2.51    4.83
   0  10  -3    4.16    4.54
   0 -10   3    9.78    8.26
  -1  10  -3   26.69    5.57
   1 -10   3   30.84    7.24
  -2  10  -3    0.62    5.89
   2 -10   3    0.56    6.94
  -3  10  -3    8.36    5.24
   3 -10   3   14.28    8.02
  -4  10  -3   19.79    7.42
   4 -10   3   18.92    3.73
  -5  10  -3   11.73    9.70
   5 -10   3   17.12    6.71
  -6  10  -3    2.34    7.81
   6 -10   3   17.52    6.59
  -7  10  -3    5.84    7.54
   7 -10   3   23.43    8.64
   6   9  -3    9.35    8.79
   5   9  -3   22.52    6.22
  -5  -9   3   14.27   12.84
   4   9  -3    5.47    3.59
  -4  -9   3    1.94   10.91
   3   9  -3    7.00    3.61
  -3  -9   3    9.16    8.18
   2   9  -3   23.33    4.12
  -2  -9   3   27.79    5.41
   1   9  -3    3.86    4.09
  -1  -9   3    2.25    6.66
   0   9  -3    3.10    4.15
   0  -9   3    5.15    5.15
  -1   9  -3   12.81    4.76
   1  -9   3   10.60    7.59
  -2   9  -3   13.93    5.88
   2  -9   3    8.79    6.01
  -3   9  -3    4.34    5.47
   3  -9   3    2.20    5.96
  -4   9  -3   38.64    7.08
   4  -9   3   43.84    4.78
  -5   9  -3    5.01    5.64
   5  -9   3    7.60    4.80
  -6   9  -3    1.95    6.35
   6  -9   3    4.10    7.90
  -7   9  -3   24.36    7.29
   7  -9   3   31.53    8.65
  -8   9  -3    3.73    8.41
   8  -9   3   26.29   10.30
   7   8  -3    8.45    6.39
  -7  -8   3   10.15   11.18
   6   8  -3    9.53    5.89
  -6  -8   3    2.49    7.47
   5   8  -3   20.14    4.83
  -5  -8   3    6.22    7.30
   4   8  -3    3.84    3.89
  -4  -8   3    6.65    8.84
   3   8  -3    2.94    3.49
  -3  -8   3    2.76    5.68
   2   8  -3   23.16    3.95
  -2  -8   3   38.06    5.69
   1   8  -3    6.44    3.37
  -1  -8   3   11.19    4.58
   0   8  -3    2.49    5.37
   0  -8   3    2.39    5.16
  -1   8  -3   74.39    6.39
   1  -8   3   66.46    8.37
  -2   8  -3    7.94    4.60
   2  -8   3    5.72    6.30
  -3   8  -3   27.35    7.15
   3  -8   3   15.03    4.12
  -4   8  -3   21.45    6.23
   4  -8   3   11.66    7.00
  -5   8  -3   13.26    6.53
   5  -8   3   14.05    6.19
  -6   8  -3    8.99    6.82
   6  -8   3   10.74    8.70
  -7   8  -3    5.44    7.11
   7  -8   3   28.50    9.59
  -8   8  -3    0.00   10.11
   8  -8   3   22.76    9.41
  -9   8  -3    0.00   10.17
   9  -8   3    4.99   13.08
   7   7  -3    7.77    5.52
  -7  -7   3    9.00    4.51
   6   7  -3   11.48    5.03
  -6  -7   3    0.63    3.03
   5   7  -3   16.68    4.18
  -5  -7   3   16.67    6.28
   4   7  -3   21.18    4.94
  -4  -7   3   22.13    6.77
   3   7  -3    6.87    3.53
  -3  -7   3    2.15    6.06
   2   7  -3   30.16    3.14
  -2  -7   3   25.96    5.08
   1   7  -3   20.01    2.52
  -1  -7   3   28.45    4.00
   0   7  -3   13.40    3.95
   0  -7   3   16.69    4.21
  -1   7  -3   63.15    4.57
   1  -7   3   51.32    4.37
  -2   7  -3   50.13    4.17
   2  -7   3   54.86    5.53
  -3   7  -3   21.19    4.61
   3  -7   3   18.88    4.62
  -4   7  -3    4.21    5.09
   4  -7   3    0.18    4.95
  -5   7  -3   90.03    7.23
   5  -7   3   79.69    6.72
  -6   7  -3    2.47    5.11
   6  -7   3    3.80    7.33
  -7   7  -3    4.62    5.62
   7  -7   3    4.04    6.10
  -8   7  -3   12.95    7.39
   8  -7   3   24.94    9.90
  -9   7  -3    0.47    6.67
   9  -7   3   11.40    7.12
   8   6  -3    4.30    6.82
  -8  -6   3    7.14    7.07
   7   6  -3   14.77    4.52
  -7  -6   3    2.94    6.78
   6   6  -3    6.30    4.31
  -6  -6   3    6.96    5.06
   5   6  -3    6.77    4.31
  -5  -6   3   11.32    4.53
   4   6  -3   77.35    4.64
  -4  -6   3   75.16    4.98
   3   6  -3    3.05    3.21
  -3  -6   3    6.10    4.79
   2   6  -3    8.19    2.95
  -2  -6   3    5.63    4.20
   1   6  -3   78.91    2.63
  -1  -6   3   77.07    4.24
   0   6  -3    7.68    2.78
   0  -6   3    4.38    3.19
  -1   6  -3    7.52    3.38
   1  -6   3    9.95    3.80
  -2   6  -3  124.25    4.16
   2  -6   3  130.38    4.56
  -3   6  -3    1.98    3.75
   3  -6   3    1.77    4.27
  -4   6  -3   22.05    4.09
   4  -6   3   23.39    4.50
  -5   6  -3  130.60    7.13
   5  -6   3  125.94    8.14
  -6   6  -3   23.92    5.36
   6  -6   3   10.97    6.09
  -7   6  -3    2.08    5.68
   7  -6   3    3.08    5.26
  -8   6  -3    9.85    6.21
   8  -6   3   18.30    7.85
  -9   6  -3    2.58    6.63
   9  -6   3   18.13   11.06
   9   5  -3    2.32    5.82
  -9  -5   3    3.97    8.72
   8   5  -3    4.73    5.66
  -8  -5   3   12.77    7.69
   7   5  -3    7.28    5.20
  -7  -5   3   11.18    7.46
   6   5  -3    2.96    4.29
  -6  -5   3    4.43    5.44
   5   5  -3   13.19    4.45
  -5  -5   3   13.15    4.47
   4   5  -3  119.03    5.98
  -4  -5   3  113.03    5.50
   3   5  -3   22.12    3.16
  -3  -5   3   21.20    3.27
   2   5  -3    5.91    2.65
  -2  -5   3    3.24    3.08
   1   5  -3   90.04    2.91
  -1  -5   3   92.28    3.93
   0   5  -3   93.22    2.57
   0  -5   3   93.87    4.06
  -1   5  -3   10.61    1.86
   1  -5   3   10.64    2.81
  -2   5  -3   68.02    2.73
   2  -5   3   64.67    3.06
  -3   5  -3   99.43    3.79
   3  -5   3  100.91    5.10
  -4   5  -3   13.32    3.38
   4  -5   3   13.67    3.09
  -5   5  -3  104.68    5.72
   5  -5   3   87.12    5.05
  -6   5  -3   89.02    6.84
   6  -5   3   74.95    7.42
  -7   5  -3    5.32    7.06
   7  -5   3    4.49    7.54
  -8   5  -3    4.07    7.34
   8  -5   3   10.17   11.79
  -9   5  -3   24.36   10.06
   9  -5   3   13.97    7.12
 -10   5  -3    4.62    6.52
  10  -5   3    4.00   11.45
   9   4  -3   10.11    9.25
  -9  -4   3   10.46    7.57
   8   4  -3    3.62    5.41
  -8  -4   3    2.09    7.57
   7   4  -3   42.82    5.88
  -7  -4   3   44.24    5.27
   6   4  -3   33.80    5.81
  -6  -4   3   45.03    5.93
   5   4  -3   24.48    4.21
  -5  -4   3   25.80    4.39
   4   4  -3   62.69    4.93
  -4  -4   3   63.85    4.59
   3   4  -3   81.10    4.47
  -3  -4   3   93.88    4.56
   2   4  -3  104.62    3.69
  -2  -4   3  108.08    3.93
   1   4  -3   35.10    1.61
  -1  -4   3   30.12    2.97
   0   4  -3  223.20    4.09
   0  -4   3  220.79    5.45
  -1   4  -3   68.60    2.43
   1  -4   3   64.08    2.74
  -2   4  -3    5.13    1.76
   2  -4   3    2.68    2.18
  -3   4  -3   67.73    2.49
   3  -4   3   77.97    3.23
  -4   4  -3   28.52    3.17
   4  -4   3   26.92    3.98
  -5   4  -3    6.12    4.58
   5  -4   3   17.61    5.25
  -6   4  -3  141.01    8.38
   6  -4   3  140.62    8.47
  -7   4  -3    8.31    7.76
   7  -4   3    3.19    6.42
  -8   4  -3    7.25    5.92
   8  -4   3    3.63    6.19
  -9   4  -3   58.99    8.64
   9  -4   3   53.97    7.73
 -10   4  -3    5.41    6.76
  10  -4   3    4.16    8.31
  10   3  -3    3.23    6.26
 -10  -3   3   17.93    8.30
   9   3  -3   15.80    6.38
  -9  -3   3   16.18    6.44
   8   3  -3    6.40    5.39
  -8  -3   3    2.23    5.53
   7   3  -3    8.06    6.67
  -7  -3   3    4.16    5.47
   6   3  -3  153.66    7.79
  -6  -3   3  144.75    7.82
   5   3  -3    3.34    3.86
  -5  -3   3    9.97    4.12
   4   3  -3    5.43    2.69
  -4  -3   3    5.37    2.75
   3   3  -3  321.94    5.20
  -3  -3   3  314.19    6.16
   2   3  -3    2.03    1.70
  -2  -3   3    0.33    1.89
   1   3  -3   22.70    1.55
  -1  -3   3   22.17    2.14
   0   3  -3  239.76    4.58
   0  -3   3  239.76    5.61
  -1   3  -3   93.66    2.68
   1  -3   3   92.48    3.12
  -2   3  -3    3.46    1.67
   2  -3   3    2.20    1.75
  -3   3  -3  222.28    4.86
   3  -3   3  218.53    6.11
  -4   3  -3    9.04    3.35
   4  -3   3    5.04    3.73
  -5   3  -3   25.61    5.51
   5  -3   3   39.66    5.26
  -6   3  -3  120.80    7.42
   6  -3   3  112.81    6.43
  -7   3  -3    8.13    6.33
   7  -3   3    4.69    5.80
  -8   3  -3    7.73    5.89
   8  -3   3    7.69    5.79
  -9   3  -3   10.82    7.45
   9  -3   3   18.68    8.48
 -10   3  -3    7.39    7.32
  10  -3   3    9.47   10.08
  10   2  -3    2.98    7.76
 -10  -2   3    9.08    8.38
   9   2  -3   34.59    7.16
  -9  -2   3   46.86    7.16
   8   2  -3    8.73    7.07
  -8  -2   3    1.60    6.75
   7   2  -3    6.97    7.10
  -7  -2   3    7.81    5.92
   6   2  -3  174.49    8.12
  -6  -2   3  187.74    8.22
   5   2  -3   63.22    5.03
  -5  -2   3   71.32    4.86
   4   2  -3   16.46    2.42
  -4  -2   3   25.60    2.95
   3   2  -3  264.66    5.00
  -3  -2   3  267.38    5.05
   2   2  -3   69.20    2.69
  -2  -2   3   64.45    2.37
   1   2  -3   16.23    1.77
  -1  -2   3   20.61    1.89
   0   2  -3  147.95    3.48
   0  -2   3  156.40    4.43
  -1   2  -3   24.62    2.26
   1  -2   3   29.04    1.94
  -2   2  -3   41.99    2.17
   2  -2   3   44.14    2.36
  -3   2  -3  171.45    3.85
   3  -2   3  170.53    4.10
  -4   2  -3   87.29    3.95
   4  -2   3   90.24    4.41
  -5   2  -3   71.85    4.20
   5  -2   3   71.98    4.69
  -6   2  -3   61.94    4.84
   6  -2   3   63.84    5.82
  -7   2  -3   46.96    5.06
   7  -2   3   57.97    7.44
  -8   2  -3    3.48    4.38
   8  -2   3    7.06    8.35
  -9   2  -3    3.44   10.31
   9  -2   3    0.19    7.76
 -10   2  -3   23.18   10.97
  10  -2   3    8.06    8.26
  10   1  -3    1.55    9.03
 -10  -1   3    2.80   10.20
   9   1  -3  102.15   20.36
  -9  -1   3    0.00   34.04
   8   1  -3   12.41    6.38
  -8  -1   3    8.18    5.92
   7   1  -3   13.18    5.90
  -7  -1   3   26.78    5.59
   6   1  -3  114.06    6.93
  -6  -1   3  126.21    7.43
   5   1  -3  152.33    6.21
  -5  -1   3  169.04    6.81
   4   1  -3   28.10    2.80
  -4  -1   3   28.14    3.66
   3   1  -3  178.45    4.17
  -3  -1   3  173.70    4.01
   2   1  -3  271.61    5.29
  -2  -1   3  268.47    4.87
   1   1  -3   32.81    2.38
  -1  -1   3   34.65    2.10
   0   1  -3   32.83    2.12
   0  -1   3   40.05    2.17
  -1   1  -3   55.91    2.62
   1  -1   3   69.66    3.20
  -2   1  -3   61.43    2.46
   2  -1   3   62.88    2.48
  -3   1  -3   43.37    2.26
   3  -1   3   45.30    2.35
  -4   1  -3  216.30    5.79
   4  -1   3  218.39    6.15
  -5   1  -3    2.24    3.02
   5  -1   3    7.84    4.22
  -6   1  -3    1.04    6.21
   6  -1   3   12.07    4.90
  -7   1  -3   42.87    5.38
   7  -1   3   50.89    5.84
  -8   1  -3   17.84    5.37
   8  -1   3    9.94    6.08
  -9   1  -3    4.90    6.26
   9  -1   3    8.40    7.53
  10   0  -3    2.91    7.31
 -10   0   3    1.19    8.20
   9   0  -3   11.39    8.37
  -9   0   3    5.87    6.44
   8   0  -3   21.17    8.01
  -8   0   3   20.12   10.37
   7   0  -3   28.39    8.58
  -7   0   3   35.49    8.49
   6   0  -3   42.16    6.88
  -6   0   3   39.83    4.99
   5   0  -3  107.57    6.98
  -5   0   3   96.98    5.90
   4   0  -3   81.99    3.74
  -4   0   3   84.21    3.62
   3   0  -3    4.11    2.01
  -3   0   3    2.88    2.08
   2   0  -3  271.20    5.97
  -2   0   3  264.63    5.26
   1   0  -3    5.98    2.06
  -1   0   3    7.04    2.16
   0   0  -3    4.84    1.81
   0   0   3    6.39    1.60
  -1   0  -3  396.92    7.55
   1   0   3  399.64    8.45
  -2   0  -3   17.76    1.86
   2   0   3   22.74    2.65
  -3   0  -3    4.39    2.10
   3   0   3    7.02    2.23
  -4   0  -3  126.42    4.65
   4   0   3  138.36    4.96
  -5   0  -3   35.15    3.75
   5   0   3   54.81    4.75
  -6   0  -3    8.59    5.67
   6   0   3    8.27    5.06
  -7   0  -3   30.11    5.28
   7   0   3   31.25    5.32
  -8   0  -3   23.49    5.35
   8   0   3   33.08    5.96
  -9   0  -3   10.51    5.49
   9   0   3    4.73    6.88
  10  -1  -3    6.52    9.96
 -10   1   3    0.00   15.14
   9  -1  -3    3.88    8.66
  -9   1   3    0.00   14.96
   8  -1  -3   41.17    8.20
  -8   1   3   20.92    6.65
   7  -1  -3   28.77    8.76
  -7   1   3   23.69    7.74
   6  -1  -3   14.30    5.72
  -6   1   3    9.42    4.40
   5  -1  -3  173.44    7.32
  -5   1   3  184.94    6.92
   4  -1  -3   23.34    3.18
  -4   1   3   25.42    3.39
   3  -1  -3   20.30    2.34
  -3   1   3   18.16    2.54
   2  -1  -3  171.94    4.48
  -2   1   3  172.85    4.16
   1  -1  -3  110.33    3.64
  -1   1   3   99.96    3.87
   0  -1  -3  177.43    6.85
   0   1   3  175.56    5.31
  -1  -1  -3    4.30    2.69
   1   1   3    2.62    4.24
  -2  -1  -3   18.45    2.76
   2   1   3   13.56    2.01
  -3  -1  -3    3.05    3.80
   3   1   3    9.96    2.46
  -4  -1  -3   29.24    3.34
   4   1   3   34.31    3.50
  -5  -1  -3   97.08    5.40
   5   1   3  113.68    6.48
  -6  -1  -3    4.34    5.42
   6   1   3    7.44    5.49
  -7  -1  -3   15.75    4.97
   7   1   3   14.99    5.37
  -8  -1  -3   27.18    7.02
   8   1   3   23.77    8.03
  -9  -1  -3   14.17    7.84
   9   1   3    2.82    9.08
  10  -2  -3   16.58    9.87
 -10   2   3   19.99   11.84
   9  -2  -3    0.65    8.10
  -9   2   3    6.15   10.39
   8  -2  -3   53.40    6.19
  -8   2   3   62.54    7.26
   7  -2  -3   49.19    6.38
  -7   2   3   50.35    6.62
   6  -2  -3   54.10    5.75
  -6   2   3   45.53    6.48
   5  -2  -3   37.87    5.08
  -5   2   3   46.97    5.21
   4  -2  -3  183.55    6.95
  -4   2   3  147.37    7.12
   3  -2  -3   20.96    3.44
  -3   2   3   22.48    3.53
   2  -2  -3    9.44    4.22
  -2   2   3   13.26    3.85
   1  -2  -3  335.19   11.50
  -1   2   3  351.15   11.27
   0  -2  -3    6.33    2.70
   0   2   3   10.36    2.64
  -1  -2  -3    3.38    2.96
   1   2   3    1.07    2.76
  -2  -2  -3   94.63    3.89
   2   2   3   87.39    3.66
  -3  -2  -3    7.60    3.34
   3   2   3   10.29    4.98
  -4  -2  -3    2.12    4.62
   4   2   3    4.55    4.04
  -5  -2  -3   51.44    5.47
   5   2   3   63.51    4.99
  -6  -2  -3    3.15    7.08
   6   2   3    2.89    6.81
  -7  -2  -3    8.48    8.97
   7   2   3    1.60    7.62
  -8  -2  -3   24.62    8.44
   8   2   3   23.86    7.90
  10  -3  -3   32.37    9.34
 -10   3   3   34.65   10.15
   9  -3  -3    3.43    5.37
  -9   3   3    1.93    8.39
   8  -3  -3   24.76    5.76
  -8   3   3    6.74    7.77
   7  -3  -3   66.33    6.78
  -7   3   3   56.22    8.18
   6  -3  -3   21.93    5.99
  -6   3   3   14.85    8.96
   5  -3  -3    9.39    5.52
  -5   3   3   19.16    8.78
   4  -3  -3  238.52    9.76
  -4   3   3  272.35   13.96
   3  -3  -3    5.21    4.96
  -3   3   3    3.73    5.50
   2  -3  -3    3.87    3.42
  -2   3   3    2.08    3.22
   1  -3  -3  212.80    7.52
  -1   3   3  210.21    5.39
   0  -3  -3   17.96    3.40
   0   3   3   19.86    3.23
  -1  -3  -3    0.71    3.16
   1   3   3    4.38    3.73
  -2  -3  -3  127.54    4.99
   2   3   3  121.02    5.55
  -3  -3  -3    3.53    3.45
   3   3   3    3.18    4.14
  -4  -3  -3    1.65    4.88
   4   3   3    7.43    4.61
  -5  -3  -3   29.58    7.56
   5   3   3   34.89    5.98
  -6  -3  -3    5.30    5.21
   6   3   3   18.11    6.48
  -7  -3  -3    2.30    5.06
   7   3   3    2.62    6.53
  -8  -3  -3   11.98    5.59
   8   3   3    3.79    7.04
  10  -4  -3   45.68    8.78
 -10   4   3   30.47   10.72
   9  -4  -3    8.12    7.59
  -9   4   3    0.00   12.29
   8  -4  -3    5.79    6.17
  -8   4   3   11.07   10.08
   7  -4  -3   68.24    9.71
  -7   4   3   83.76   10.03
   6  -4  -3   15.75    8.65
  -6   4   3   19.32   10.68
   5  -4  -3   22.53    8.01
  -5   4   3   62.22   16.38
   4  -4  -3  100.46    8.02
  -4   4   3  106.45    9.58
   3  -4  -3   12.04    4.97
  -3   4   3    8.17    6.13
   2  -4  -3    8.06    4.68
  -2   4   3    7.49    4.68
   1  -4  -3   34.90    4.56
  -1   4   3   26.64    4.79
   0  -4  -3   14.36    3.60
   0   4   3   17.02    4.41
  -1  -4  -3    4.67    2.70
   1   4   3    6.53    4.73
  -2  -4  -3   64.16    5.29
   2   4   3   60.77    5.15
  -3  -4  -3    7.01    5.34
   3   4   3   12.40    5.40
  -4  -4  -3    3.30    4.88
   4   4   3    4.08    5.21
  -5  -4  -3   10.58    4.38
   5   4   3    5.32    4.74
  -6  -4  -3   14.59    5.30
   6   4   3    9.29    5.61
  -7  -4  -3    4.89    5.28
   7   4   3    6.76    6.66
  10  -5  -3    0.00   32.56
 -10   5   3   34.12   12.44
   9  -5  -3   12.80   12.07
  -9   5   3   49.12   15.35
   8  -5  -3    5.39    9.19
  -8   5   3    1.16    9.94
   7  -5  -3   12.35    8.83
  -7   5   3   16.70   10.00
   6  -5  -3    7.28    7.68
  -6   5   3    5.80    9.89
   5  -5  -3   30.39    7.21
  -5   5   3   35.98    8.66
   4  -5  -3   13.49    7.14
  -4   5   3    5.52    7.45
   3  -5  -3   20.08    6.47
  -3   5   3   23.70    7.48
   2  -5  -3    2.05    5.33
  -2   5   3    4.62    5.51
   1  -5  -3    2.75    4.15
  -1   5   3    2.02    5.49
   0  -5  -3   58.47    4.57
   0   5   3   53.87    7.71
  -1  -5  -3    5.50    5.46
   1   5   3   11.87    6.98
  -2  -5  -3   11.04    4.99
   2   5   3    7.58    5.59
  -3  -5  -3   14.88    5.18
   3   5   3   16.31    5.79
  -4  -5  -3    3.75    5.03
   4   5   3    0.54    5.01
  -5  -5  -3    6.90    5.59
   5   5   3    1.23    5.92
  -6  -5  -3   12.29    5.98
   6   5   3   10.94    6.93
   9  -6  -3   17.89   11.41
  -9   6   3    9.47   11.68
   8  -6  -3   10.70    8.88
  -8   6   3    1.24   10.49
   7  -6  -3    8.99    6.95
  -7   6   3   10.69    8.22
   6  -6  -3   14.20    7.44
  -6   6   3   11.72    7.38
   5  -6  -3    3.76    7.26
  -5   6   3    8.55    7.33
   4  -6  -3    1.31    9.24
  -4   6   3    6.55    7.80
   3  -6  -3   28.91    8.12
  -3   6   3    7.12    6.23
   2  -6  -3    1.50    5.56
  -2   6   3   14.46    7.63
   1  -6  -3    6.22    4.80
  -1   6   3    1.59    6.44
   0  -6  -3   25.17    4.10
   0   6   3   24.40    6.18
  -1  -6  -3    1.31    6.34
   1   6   3    5.53    7.53
  -2  -6  -3    9.87    5.53
   2   6   3    2.30    5.52
  -3  -6  -3    6.90    6.10
   3   6   3   11.29    6.92
  -4  -6  -3    1.25    4.39
   4   6   3    4.10    6.12
  -5  -6  -3    3.72    6.07
   5   6   3    3.21    6.71
  -6  -6  -3   18.29    5.63
   6   6   3    4.37    6.84
   8  -7  -3    9.35    7.72
  -8   7   3    4.29    9.05
   7  -7  -3   16.50    6.87
  -7   7   3    1.50    8.56
   6  -7  -3    8.39   10.02
  -6   7   3    6.07    7.38
   5  -7  -3    0.11   10.60
  -5   7   3    2.04    6.08
   4  -7  -3   11.96   10.13
  -4   7   3    3.44    6.67
   3  -7  -3   25.17    7.67
  -3   7   3   11.43    5.80
   2  -7  -3    1.07    4.95
  -2   7   3    7.78    6.61
   1  -7  -3    3.00    4.21
  -1   7   3    5.19    8.54
   0  -7  -3   11.45    5.38
   0   7   3    4.63    5.39
  -1  -7  -3    4.95    6.38
   1   7   3    2.65    8.56
  -2  -7  -3    5.77    7.20
   2   7   3    5.07    6.29
  -3  -7  -3    4.88    6.82
   3   7   3    5.86    7.85
  -4  -7  -3    5.23    6.37
   4   7   3   10.35    6.42
  -5  -7  -3   10.85    6.12
   5   7   3    3.01    5.45
   8  -8  -3   18.97   10.90
  -8   8   3    4.88    7.26
   7  -8  -3    0.00    9.22
  -7   8   3    6.36    8.74
   6  -8  -3    8.56   10.84
  -6   8   3    1.56    8.38
   5  -8  -3    8.14   10.42
  -5   8   3   15.25    8.36
   4  -8  -3   14.16   11.10
  -4   8   3   12.44    6.77
   3  -8  -3    3.53    5.93
  -3   8   3    4.05    8.74
   2  -8  -3    9.62    6.28
  -2   8   3    7.71    6.84
   1  -8  -3   13.40    5.54
  -1   8   3   15.15   11.11
   0  -8  -3    0.62    6.49
   0   8   3    0.06    5.78
  -1  -8  -3   14.13    7.14
   1   8   3    1.78    9.42
  -2  -8  -3    3.70    6.28
   2   8   3    0.00    7.63
  -3  -8  -3    4.91    6.13
   3   8   3    0.93    8.17
   6  -9  -3    4.66    9.15
  -6   9   3   10.52    8.69
   5  -9  -3   23.17    9.59
  -5   9   3    5.20    9.21
   4  -9  -3    0.00   13.73
  -4   9   3    6.63    7.45
   3  -9  -3    3.09    6.88
  -3   9   3    6.79    7.89
   2  -9  -3    1.35    6.83
  -2   9   3    7.68    8.17
   1  -9  -3    1.70    9.36
  -1   9   3    5.60    9.86
   0  -9  -3    2.02    6.46
   0   9   3    6.88    8.57
  -1  -9  -3    7.78    7.25
   1   9   3    1.37    7.72
  -2  -9  -3   15.41    6.64
   2   9   3    2.50    8.14
   3 -10  -3    0.97    6.64
  -3  10   3   24.72   10.50
   2 -10  -3    6.50    6.26
  -2  10   3    0.00    9.95
   1  12  -4    9.06    5.80
  -1 -12   4   15.49   12.01
   0  12  -4   10.25    4.22
   0 -12   4   16.45   11.03
  -1  12  -4   12.41    4.89
   1 -12   4   12.70    8.64
  -2  12  -4    6.51    6.10
   2 -12   4   13.33    8.18
  -3  12  -4    0.00    8.82
   3 -12   4    9.95    8.19
  -4  12  -4    0.00    7.86
   4 -12   4    7.26    7.42
  -5  12  -4    3.51    9.26
   5 -12   4    9.63    8.28
   3  11  -4    4.73    5.57
  -3 -11   4   10.74   11.03
   2  11  -4    6.90    4.59
  -2 -11   4   13.95   14.70
   1  11  -4    3.12    4.75
  -1 -11   4    4.32    9.72
   0  11  -4   12.71    4.63
   0 -11   4    6.97    8.32
  -1  11  -4   18.17    5.23
   1 -11   4   19.09    7.96
  -2  11  -4    1.96    6.45
   2 -11   4    5.92    7.02
  -3  11  -4    1.39    7.71
   3 -11   4    5.82    7.07
  -4  11  -4    6.38    8.40
   4 -11   4   38.77   11.08
  -5  11  -4   13.62   19.92
   5 -11   4   14.02    7.57
  -6  11  -4    4.05    9.18
   6 -11   4    8.96    6.68
   5  10  -4   18.36    5.33
  -5 -10   4   33.33    7.35
   4  10  -4   12.10    6.29
  -4 -10   4    3.49    8.86
   3  10  -4    1.50    4.32
  -3 -10   4    3.66    9.96
   2  10  -4   14.93    4.25
  -2 -10   4   17.48    9.18
   1  10  -4    3.57    4.36
  -1 -10   4   14.19    4.33
   0  10  -4    7.06    3.53
   0 -10   4    3.43    4.78
  -1  10  -4   37.15    5.78
   1 -10   4   40.95    8.66
  -2  10  -4    2.66    6.84
   2 -10   4    2.58    6.18
  -3  10  -4    1.35    6.04
   3 -10   4    7.09    5.66
  -4  10  -4   21.53    6.75
   4 -10   4   31.90    7.12
  -5  10  -4    0.72    5.48
   5 -10   4    3.35    4.97
  -6  10  -4    0.00    6.32
   6 -10   4    7.08    6.11
  -7  10  -4    2.18    7.35
   7 -10   4   14.85    8.60
   6   9  -4    9.76    5.23
  -6  -9   4   12.97   12.53
   5   9  -4   13.99    6.15
  -5  -9   4   10.66    7.98
   4   9  -4    7.45    3.94
  -4  -9   4   11.51    6.17
   3   9  -4    3.77    2.87
  -3  -9   4    5.01    8.01
   2   9  -4   18.20    4.61
  -2  -9   4   15.06    8.29
   1   9  -4    4.00    4.24
  -1  -9   4    3.73    4.46
   0   9  -4   17.46    5.10
   0  -9   4   14.38    5.25
  -1   9  -4   11.59    4.63
   1  -9   4   22.76    5.95
  -2   9  -4   19.35    6.24
   2  -9   4    4.08    6.11
  -3   9  -4   12.25    7.07
   3  -9   4    8.98    6.18
  -4   9  -4    5.50    7.01
   4  -9   4   15.10    4.71
  -5   9  -4   11.35    5.85
   5  -9   4   31.07    6.25
  -6   9  -4    1.93    5.68
   6  -9   4    7.25    5.47
  -7   9  -4    5.49    7.23
   7  -9   4   24.75    8.59
  -8   9  -4    0.00    7.22
   8  -9   4   10.61   10.49
   7   8  -4   10.23    5.78
  -7  -8   4   12.77    7.62
   6   8  -4   16.44    5.73
  -6  -8   4    1.81    7.19
   5   8  -4    6.78    5.09
  -5  -8   4    8.70    7.41
   4   8  -4   13.57    4.93
  -4  -8   4   15.15    6.41
   3   8  -4    4.39    4.82
  -3  -8   4    0.04    8.48
   2   8  -4   14.85    3.82
  -2  -8   4    8.98    7.92
   1   8  -4   16.71    3.16
  -1  -8   4   31.13    4.45
   0   8  -4    4.78    3.07
   0  -8   4    3.60    5.28
  -1   8  -4   53.93    4.61
   1  -8   4   59.66    5.43
  -2   8  -4   59.80    5.00
   2  -8   4   50.46    6.73
  -3   8  -4   16.67    4.20
   3  -8   4   10.68    4.54
  -4   8  -4   10.19    5.52
   4  -8   4    4.89    5.06
  -5   8  -4   37.86    6.50
   5  -8   4   33.65    8.42
  -6   8  -4    2.00    4.52
   6  -8   4   11.67    7.66
  -7   8  -4    2.19    5.18
   7  -8   4    5.62    7.80
  -8   8  -4    6.80    7.06
   8  -8   4   12.07    9.65
   8   7  -4   10.90    6.22
  -8  -7   4   10.43    5.35
   7   7  -4   13.20    5.93
  -7  -7   4   16.87    5.62
   6   7  -4   14.52    5.25
  -6  -7   4    1.07    4.10
   5   7  -4    6.43    5.30
  -5  -7   4    2.97    3.76
   4   7  -4   41.15    5.78
  -4  -7   4   28.02    4.02
   3   7  -4    4.65    3.77
  -3  -7   4    8.33    5.82
   2   7  -4   18.57    3.83
  -2  -7   4   21.06    7.49
   1   7  -4   60.90    2.72
  -1  -7   4   56.18    4.32
   0   7  -4    8.09    2.74
   0  -7   4    3.44    3.57
  -1   7  -4    5.23    3.21
   1  -7   4    8.79    3.79
  -2   7  -4  115.63    4.85
   2  -7   4  101.70    6.53
  -3   7  -4    2.20    3.71
   3  -7   4    3.61    4.56
  -4   7  -4   14.18    4.30
   4  -7   4   16.10    5.30
  -5   7  -4   91.08    6.39
   5  -7   4   77.10    6.88
  -6   7  -4    9.29    5.07
   6  -7   4   25.06    7.09
  -7   7  -4   15.70    4.94
   7  -7   4   11.86    7.19
  -8   7  -4    8.98    7.90
   8  -7   4   12.42    6.38
  -9   7  -4    0.00    7.45
   9  -7   4    1.83   12.48
   8   6  -4    2.18    6.14
  -8  -6   4    0.00    5.32
   7   6  -4   17.07    6.46
  -7  -6   4   10.84    5.05
   6   6  -4    3.06    4.74
  -6  -6   4    6.25    4.56
   5   6  -4    4.58    5.06
  -5  -6   4   10.88    6.29
   4   6  -4   87.25    6.31
  -4  -6   4   72.77    5.31
   3   6  -4   15.76    3.42
  -3  -6   4    8.06    3.86
   2   6  -4    4.70    2.94
  -2  -6   4    5.38    4.17
   1   6  -4   84.01    2.79
  -1  -6   4   90.29    5.03
   0   6  -4   43.60    2.15
   0  -6   4   51.39    3.72
  -1   6  -4   20.75    2.19
   1  -6   4   25.13    3.45
  -2   6  -4   90.92    3.12
   2  -6   4  100.04    4.78
  -3   6  -4   80.21    3.95
   3  -6   4   87.65    5.57
  -4   6  -4   27.17    3.83
   4  -6   4   26.62    5.16
  -5   6  -4   40.02    4.70
   5  -6   4   49.38    5.94
  -6   6  -4   74.46    5.75
   6  -6   4   64.71    9.03
  -7   6  -4   12.59    4.90
   7  -6   4    1.92    5.95
  -8   6  -4    0.67    6.32
   8  -6   4    1.54    6.84
  -9   6  -4   13.01    6.92
   9  -6   4    9.37    6.50
   9   5  -4    4.69    7.38
  -9  -5   4    2.36    9.67
   8   5  -4    4.75    6.04
  -8  -5   4   16.00    7.02
   7   5  -4    8.60    5.13
  -7  -5   4   11.05    6.91
   6   5  -4   10.91    5.26
  -6  -5   4    3.82    5.40
   5   5  -4   28.95    4.86
  -5  -5   4   39.64    4.90
   4   5  -4   36.47    4.21
  -4  -5   4   41.29    5.46
   3   5  -4   68.85    3.72
  -3  -5   4   72.37    4.27
   2   5  -4    3.88    2.40
  -2  -5   4    4.13    3.07
   1   5  -4   57.18    2.19
  -1  -5   4   60.62    4.21
   0   5  -4  351.52    5.45
   0  -5   4  366.99   10.48
  -1   5  -4   75.81    2.65
   1  -5   4   70.98    3.68
  -2   5  -4    5.02    2.42
   2  -5   4    4.68    3.10
  -3   5  -4  165.66    4.45
   3  -5   4  168.87    6.41
  -4   5  -4    3.33    2.88
   4  -5   4    3.34    3.96
  -5   5  -4    3.11    4.93
   5  -5   4    0.74    5.58
  -6   5  -4   89.38    8.42
   6  -5   4  111.37    7.13
  -7   5  -4   10.46    4.62
   7  -5   4    2.20    6.05
  -8   5  -4    1.87    6.19
   8  -5   4    8.47    8.04
  -9   5  -4   35.37    6.96
   9  -5   4   26.88    9.16
   9   4  -4   17.52    6.18
  -9  -4   4   25.55    8.29
   8   4  -4    6.39    6.09
  -8  -4   4    0.09    7.18
   7   4  -4   19.02    5.83
  -7  -4   4   15.33    5.23
   6   4  -4  108.32    7.44
  -6  -4   4  117.83    7.03
   5   4  -4    0.89    3.53
  -5  -4   4    6.79    5.04
   4   4  -4    0.39    2.73
  -4  -4   4    4.05    3.50
   3   4  -4  148.85    4.32
  -3  -4   4  144.88    5.41
   2   4  -4   23.84    2.16
  -2  -4   4   20.85    2.74
   1   4  -4   15.80    1.58
  -1  -4   4   15.50    2.43
   0   4  -4  246.06    4.21
   0  -4   4  266.57    7.47
  -1   4  -4   64.71    2.39
   1  -4   4   61.66    3.54
  -2   4  -4   40.92    3.04
   2  -4   4   45.95    3.16
  -3   4  -4   93.15    5.03
   3  -4   4   87.76    4.75
  -4   4  -4    1.46    4.88
   4  -4   4    5.45    3.59
  -5   4  -4   28.95    6.41
   5  -4   4   34.36    5.12
  -6   4  -4   83.56    7.07
   6  -4   4   88.19    6.79
  -7   4  -4   18.46    6.13
   7  -4   4    6.28    5.43
  -8   4  -4    4.50    5.99
   8  -4   4    0.00    6.62
  -9   4  -4   30.58    8.16
   9  -4   4   26.79    7.37
  10   3  -4    0.91    5.78
 -10  -3   4    0.00    7.76
   9   3  -4   31.93    8.40
  -9  -3   4   29.53    6.39
   8   3  -4    4.62    6.99
  -8  -3   4    0.54    8.19
   7   3  -4    3.70    5.92
  -7  -3   4    1.25    6.94
   6   3  -4  175.96    7.95
  -6  -3   4  141.88    7.92
   5   3  -4   32.81    3.82
  -5  -3   4   34.91    4.06
   4   3  -4   36.44    2.92
  -4  -3   4   30.30    2.86
   3   3  -4  180.43    4.14
  -3  -3   4  175.42    5.15
   2   3  -4   77.95    2.56
  -2  -3   4   79.55    3.03
   1   3  -4   19.34    1.89
  -1  -3   4   18.61    2.25
   0   3  -4  107.71    2.62
   0  -3   4  113.72    3.56
  -1   3  -4    3.53    1.83
   1  -3   4    6.39    2.54
  -2   3  -4   74.84    3.89
   2  -3   4   62.74    3.35
  -3   3  -4  100.22    4.35
   3  -3   4   96.19    4.35
  -4   3  -4   56.97    3.44
   4  -3   4   66.76    3.97
  -5   3  -4   40.43    3.48
   5  -3   4   39.38    4.60
  -6   3  -4   32.05    4.53
   6  -3   4   36.47    5.89
  -7   3  -4   19.87    5.68
   7  -3   4   27.73    6.34
  -8   3  -4    4.31    6.51
   8  -3   4    0.00    7.09
  -9   3  -4    0.00   15.16
   9  -3   4    9.62    9.43
  10   2  -4    2.43    6.97
 -10  -2   4    2.49    8.30
   9   2  -4   27.27    7.36
  -9  -2   4   38.78    7.94
   8   2  -4    3.62    5.87
  -8  -2   4   14.33    5.94
   7   2  -4   17.88    6.24
  -7  -2   4   14.69    5.89
   6   2  -4  100.05    5.97
  -6  -2   4  103.56    5.94
   5   2  -4  146.03    6.19
  -5  -2   4  144.43    6.20
   4   2  -4   34.77    3.18
  -4  -2   4   31.43    2.48
   3   2  -4   52.06    2.53
  -3  -2   4   59.22    2.66
   2   2  -4  154.65    3.53
  -2  -2   4  159.90    3.80
   1   2  -4   52.47    2.54
  -1  -2   4   52.45    2.35
   0   2  -4   75.79    2.79
   0  -2   4   64.02    2.90
  -1   2  -4   73.20    2.60
   1  -2   4   75.18    3.60
  -2   2  -4  111.12    3.02
   2  -2   4  108.74    3.70
  -3   2  -4    7.25    2.00
   3  -2   4   11.26    2.54
  -4   2  -4   93.36    3.97
   4  -2   4   98.52    4.77
  -5   2  -4    3.14    3.40
   5  -2   4    7.93    4.19
  -6   2  -4    4.62    6.07
   6  -2   4    8.33    6.11
  -7   2  -4   53.22    8.17
   7  -2   4   56.59    6.89
  -8   2  -4   15.36    8.67
   8  -2   4   10.74    7.73
  -9   2  -4    8.24   11.26
   9  -2   4    4.77    7.31
  10   1  -4    2.72    6.95
 -10  -1   4    3.75    8.56
   9   1  -4   18.62    6.69
  -9  -1   4   16.41    9.48
   8   1  -4   56.85    6.98
  -8  -1   4   60.36    8.53
   7   1  -4   10.65    5.86
  -7  -1   4   26.62    6.96
   6   1  -4   23.13    5.63
  -6  -1   4   34.29    5.42
   5   1  -4  136.53    5.78
  -5  -1   4  128.26    5.46
   4   1  -4    4.65    2.82
  -4  -1   4    8.88    3.33
   3   1  -4    9.08    2.14
  -3  -1   4    5.85    2.01
   2   1  -4  135.11    4.04
  -2  -1   4  136.55    3.66
   1   1  -4   13.93    1.96
  -1  -1   4   12.71    2.09
   0   1  -4    7.08    1.49
   0  -1   4    4.00    1.28
  -1   1  -4  185.33    4.35
   1  -1   4  187.41    5.06
  -2   1  -4   21.64    2.72
   2  -1   4   21.32    2.56
  -3   1  -4   28.42    2.16
   3  -1   4   30.47    2.48
  -4   1  -4   65.57    3.63
   4  -1   4   71.87    3.85
  -5   1  -4   20.06    3.70
   5  -1   4   26.65    4.64
  -6   1  -4    8.17    5.90
   6  -1   4    9.94    6.15
  -7   1  -4   36.86    7.43
   7  -1   4   38.13    6.42
  -8   1  -4   30.88    5.89
   8  -1   4   33.33    6.74
  -9   1  -4   11.09    6.01
   9  -1   4    8.65    7.83
  10   0  -4    0.00    9.65
 -10   0   4    8.94   24.31
   9   0  -4    1.13    8.59
  -9   0   4    5.06   15.06
   8   0  -4   58.59    9.29
  -8   0   4   51.63   11.27
   7   0  -4   58.70   10.25
  -7   0   4   40.05    7.52
   6   0  -4    9.98    6.00
  -6   0   4    8.46    4.19
   5   0  -4   78.17    6.10
  -5   0   4   70.10    4.51
   4   0  -4    4.57    3.02
  -4   0   4    3.20    3.73
   3   0  -4   47.46    3.05
  -3   0   4   56.35    2.90
   2   0  -4   34.92    2.55
  -2   0   4   32.51    2.56
   1   0  -4   26.17    2.23
  -1   0   4   25.90    2.30
   0   0  -4   17.66    2.00
   0   0   4   14.50    1.68
  -1   0  -4  158.35    4.61
   1   0   4  155.35    4.50
  -2   0  -4  107.13    4.06
   2   0   4  107.03    4.94
  -3   0  -4   18.83    3.02
   3   0   4   27.01    2.74
  -4   0  -4    5.32    2.90
   4   0   4    8.58    3.18
  -5   0  -4   64.01    4.41
   5   0   4   64.04    5.29
  -6   0  -4   12.15    5.52
   6   0   4   11.78    4.97
  -7   0  -4    7.81    5.07
   7   0   4    7.58    5.31
  -8   0  -4   24.51    5.83
   8   0   4   40.06    8.25
  -9   0  -4    6.14    5.93
   9   0   4    5.30   11.30
  10  -1  -4    4.15   10.24
 -10   1   4   21.17   13.07
   9  -1  -4   16.33   16.34
  -9   1   4    0.00   15.39
   8  -1  -4  121.49   13.65
  -8   1   4   89.16    7.07
   7  -1  -4   81.95    8.90
  -7   1   4   93.23    6.52
   6  -1  -4    7.14    9.36
  -6   1   4    9.70    6.64
   5  -1  -4   63.58    5.65
  -5   1   4   65.44    6.23
   4  -1  -4  191.29    8.31
  -4   1   4  175.98   10.17
   3  -1  -4   25.24    5.45
  -3   1   4   16.09    4.82
   2  -1  -4    4.05    3.98
  -2   1   4    3.81    3.96
   1  -1  -4  102.59    5.29
  -1   1   4  103.04    6.00
   0  -1  -4  133.84    4.67
   0   1   4  129.67    3.99
  -1  -1  -4   24.53    3.10
   1   1   4   22.81    2.36
  -2  -1  -4   70.29    3.86
   2   1   4   75.63    3.44
  -3  -1  -4   24.99    4.42
   3   1   4   19.75    2.72
  -4  -1  -4    2.55    4.47
   4   1   4   11.90    3.81
  -5  -1  -4   34.30    4.64
   5   1   4   46.04    5.04
  -6  -1  -4    3.32    5.70
   6   1   4    1.16    7.16
  -7  -1  -4    6.80    6.02
   7   1   4    2.53    8.57
  -8  -1  -4   16.71    6.04
   8   1   4   16.65    7.93
  10  -2  -4   15.90   10.07
 -10   2   4   38.51   10.03
   9  -2  -4    1.71    8.45
  -9   2   4   14.45    6.39
   8  -2  -4   44.67    7.41
  -8   2   4   67.25    6.40
   7  -2  -4  171.46   10.12
  -7   2   4  163.68    8.97
   6  -2  -4   11.99    9.41
  -6   2   4    9.29    6.91
   5  -2  -4    7.92    8.85
  -5   2   4    0.72    6.46
   4  -2  -4  265.26   13.29
  -4   2   4  258.41   11.29
   3  -2  -4   12.91    6.25
  -3   2   4    6.81    5.93
   2  -2  -4    8.63    3.89
  -2   2   4    8.86    3.41
   1  -2  -4  135.06    6.14
  -1   2   4  137.16    5.98
   0  -2  -4    2.47    3.07
   0   2   4    2.99    2.92
  -1  -2  -4    7.32    3.75
   1   2   4    3.66    3.36
  -2  -2  -4  110.09    4.94
   2   2   4  109.41    4.59
  -3  -2  -4    2.55    4.43
   3   2   4    2.56    3.52
  -4  -2  -4   22.00    7.74
   4   2   4   31.86    7.65
  -5  -2  -4    0.00   10.59
   5   2   4   31.66   11.53
  -6  -2  -4    1.60    7.36
   6   2   4   13.90    8.18
  -7  -2  -4    3.82    5.82
   7   2   4    3.51    6.74
  -8  -2  -4    5.48    5.44
   8   2   4   12.21    6.33
  10  -3  -4   18.03    8.00
 -10   3   4   30.37    9.25
   9  -3  -4    0.00    6.87
  -9   3   4   10.96    7.20
   8  -3  -4    3.08    8.38
  -8   3   4    8.46    7.81
   7  -3  -4  139.65   10.63
  -7   3   4  130.37   11.46
   6  -3  -4   37.58   13.61
  -6   3   4   29.83   15.10
   5  -3  -4   40.75   10.78
  -5   3   4   42.88   15.29
   4  -3  -4  143.41    9.34
  -4   3   4  125.57   10.06
   3  -3  -4   25.59    4.99
  -3   3   4   16.43    5.48
   2  -3  -4    3.17    3.73
  -2   3   4    3.68    3.77
   1  -3  -4   18.53    5.06
  -1   3   4   17.98    4.33
   0  -3  -4   15.24    3.70
   0   3   4    8.26    3.96
  -1  -3  -4    3.47    3.87
   1   3   4    6.52    4.77
  -2  -3  -4   50.38    6.44
   2   3   4   47.27    5.22
  -3  -3  -4    1.11    7.42
   3   3   4   11.15    6.61
  -4  -3  -4   13.23    7.00
   4   3   4    9.68    6.22
  -5  -3  -4    2.40    4.96
   5   3   4    4.96    5.19
  -6  -3  -4   19.66    5.10
   6   3   4    9.72    5.22
  -7  -3  -4    3.86    6.54
   7   3   4    4.21    5.84
  10  -4  -4    7.88    8.39
 -10   4   4    6.22    9.21
   9  -4  -4   21.69    9.63
  -9   4   4    4.86   11.96
   8  -4  -4    0.00    9.24
  -8   4   4    3.70   10.18
   7  -4  -4   67.16    9.40
  -7   4   4   92.72   12.66
   6  -4  -4   67.53    9.76
  -6   4   4   78.51   11.58
   5  -4  -4    3.77    6.66
  -5   4   4    2.78    8.54
   4  -4  -4   24.69    7.16
  -4   4   4   21.33    9.72
   3  -4  -4   43.31    6.41
  -3   4   4   35.64    6.48
   2  -4  -4    2.93    5.64
  -2   4   4    1.63    6.06
   1  -4  -4    4.26    4.53
  -1   4   4    5.04    6.80
   0  -4  -4   20.83    5.33
   0   4   4   26.38    7.95
  -1  -4  -4    8.66    5.27
   1   4   4    5.30    5.09
  -2  -4  -4    3.38    3.90
   2   4   4    9.39    5.42
  -3  -4  -4   17.78    4.36
   3   4   4    8.04    5.42
  -4  -4  -4    4.30    6.38
   4   4   4    4.67    5.16
  -5  -4  -4    6.58    5.64
   5   4   4    1.96    5.02
  -6  -4  -4    4.88    7.33
   6   4   4    5.12    5.54
  -7  -4  -4    4.41    5.96
   7   4   4    3.83    5.78
   9  -5  -4   17.08   10.94
  -9   5   4    2.96   13.22
   8  -5  -4    7.63    9.28
  -8   5   4    6.72   10.78
   7  -5  -4    4.97    6.94
  -7   5   4    6.33    8.31
   6  -5  -4   19.25    7.31
  -6   5   4   21.55    8.19
   5  -5  -4    4.23    7.13
  -5   5   4    5.01    8.65
   4  -5  -4    2.55    6.95
  -4   5   4    2.57    8.32
   3  -5  -4   56.89   10.44
  -3   5   4   43.88    7.30
   2  -5  -4   11.00    7.86
  -2   5   4    1.02    6.94
   1  -5  -4    2.61    4.93
  -1   5   4    3.64    9.37
   0  -5  -4   18.79    4.80
   0   5   4   24.90    8.19
  -1  -5  -4    4.06    4.02
   1   5   4    1.79    7.92
  -2  -5  -4    1.05    8.05
   2   5   4    4.14    5.70
  -3  -5  -4    8.61    6.11
   3   5   4    7.45    5.39
  -4  -5  -4    2.88    6.36
   4   5   4    6.45    6.01
  -5  -5  -4    1.66    7.66
   5   5   4    4.35    5.83
  -6  -5  -4    9.95    5.83
   6   5   4    9.14    5.61
   9  -6  -4   29.41    8.18
  -9   6   4    4.13   10.38
   8  -6  -4   10.94    8.78
  -8   6   4    3.07    9.23
   7  -6  -4    5.61    8.15
  -7   6   4    3.45    8.66
   6  -6  -4   38.53    7.55
  -6   6   4   11.97    7.95
   5  -6  -4   26.20   10.32
  -5   6   4   18.73    7.34
   4  -6  -4   10.09   15.10
  -4   6   4    6.58    6.67
   3  -6  -4   10.56    8.63
  -3   6   4   12.33    6.59
   2  -6  -4   11.95    6.97
  -2   6   4    1.89    6.82
   1  -6  -4    4.41    5.98
  -1   6   4   19.11    8.07
   0  -6  -4    6.40    4.65
   0   6   4    4.36    6.66
  -1  -6  -4   10.71    5.90
   1   6   4    7.17    6.87
  -2  -6  -4    4.96    6.32
   2   6   4    2.92    5.80
  -3  -6  -4    0.00    6.42
   3   6   4    0.93    6.68
  -4  -6  -4    5.13    9.60
   4   6   4    7.63    6.26
  -5  -6  -4    2.90    6.75
   5   6   4    6.43    5.01
   8  -7  -4   12.15    8.43
  -8   7   4    7.98    8.62
   7  -7  -4    2.54   12.72
  -7   7   4    0.87    8.47
   6  -7  -4    0.00   17.36
  -6   7   4    2.52    7.62
   5  -7  -4   29.62   12.31
  -5   7   4   14.53    6.28
   4  -7  -4    2.60   10.52
  -4   7   4    2.45    6.81
   3  -7  -4   11.35    8.42
  -3   7   4    8.90    6.52
   2  -7  -4   15.58    6.58
  -2   7   4   10.65    6.60
   1  -7  -4    4.88    4.83
  -1   7   4   10.67    9.00
   0  -7  -4    2.66    6.12
   0   7   4    3.16    6.39
  -1  -7  -4    7.69    6.24
   1   7   4    2.65    8.38
  -2  -7  -4    0.00    7.19
   2   7   4    3.83    6.13
  -3  -7  -4    3.84    6.61
   3   7   4    2.88    7.34
  -4  -7  -4   13.09    6.95
   4   7   4    6.49    6.52
   7  -8  -4    1.53   12.20
  -7   8   4    8.50   11.13
   6  -8  -4    0.00   12.16
  -6   8   4    8.39    8.77
   5  -8  -4   25.83   11.88
  -5   8   4    9.48    8.38
   4  -8  -4    0.00   10.59
  -4   8   4    3.35    6.93
   3  -8  -4    7.00    6.91
  -3   8   4    5.07    7.92
   2  -8  -4   12.87    9.55
  -2   8   4   12.91   12.95
   1  -8  -4   12.07    4.67
  -1   8   4   13.23    7.65
   0  -8  -4    3.73    6.77
   0   8   4    5.46    6.38
  -1  -8  -4    1.75    6.54
   1   8   4    6.26    6.34
  -2  -8  -4    7.29    6.61
   2   8   4    9.96    7.35
   5  -9  -4    6.85   13.79
  -5   9   4    7.53    8.13
   4  -9  -4   14.88   10.04
  -4   9   4   15.30    8.19
   3  -9  -4    7.68    6.96
  -3   9   4    9.87    8.81
   2  -9  -4    2.73    6.83
  -2   9   4    1.48    9.45
   1  -9  -4    3.04    6.08
  -1   9   4    0.00    6.96
   0  -9  -4    4.21    8.13
   0   9   4    0.43    9.24
   2  12  -5   13.14    9.54
  -2 -12   5   12.32   12.36
   1  12  -5    4.75    4.76
  -1 -12   5   14.41   10.67
   0  12  -5   11.29    4.24
   0 -12   5    4.58    8.87
  -1  12  -5   17.04    5.11
   1 -12   5   26.11    9.48
  -2  12  -5    4.23    5.13
   2 -12   5   11.58    8.72
  -3  12  -5    2.61    7.40
   3 -12   5   12.71    7.52
  -4  12  -5    5.36    7.60
   4 -12   5   18.31    7.77
   4  11  -5    3.49    9.55
  -4 -11   5   29.25   12.48
   3  11  -5    6.21    4.76
  -3 -11   5    0.00    9.68
   2  11  -5   16.00    5.03
  -2 -11   5   35.81   10.73
   1  11  -5    2.24    4.72
  -1 -11   5    8.45    8.59
   0  11  -5    7.18    3.44
   0 -11   5   16.24    6.24
  -1  11  -5   27.74    5.89
   1 -11   5   25.89    9.32
  -2  11  -5    5.55    5.90
   2 -11   5   12.30    5.83
  -3  11  -5    0.64    6.88
   3 -11   5    6.27    6.64
  -4  11  -5    7.45    7.86
   4 -11   5   31.32    9.50
  -5  11  -5    2.47    8.24
   5 -11   5    8.83    6.93
  -6  11  -5    0.00   11.15
   6 -11   5    4.63    6.30
   5  10  -5   14.01    4.65
  -5 -10   5   22.04   11.29
   4  10  -5    6.60    4.25
  -4 -10   5    2.48   10.88
   3  10  -5    3.15    3.36
  -3 -10   5    0.00    8.44
   2  10  -5   17.24    4.92
  -2 -10   5   16.27    9.10
   1  10  -5    0.00    5.06
  -1 -10   5    1.50   10.15
   0  10  -5    5.36    4.86
   0 -10   5   17.08    4.85
  -1  10  -5   31.97    4.55
   1 -10   5   30.07    5.51
  -2  10  -5   16.59    4.86
   2 -10   5   20.70    6.18
  -3  10  -5    1.24    6.14
   3 -10   5    7.85    5.97
  -4  10  -5    2.16    4.96
   4 -10   5   17.56    7.09
  -5  10  -5    3.90    5.86
   5 -10   5    4.79    6.60
  -6  10  -5    4.98    8.93
   6 -10   5    9.47    7.82
  -7  10  -5    1.11    7.74
   7 -10   5    8.38    8.75
   6   9  -5    6.70    5.52
  -6  -9   5    0.22    7.52
   5   9  -5   14.35    5.76
  -5  -9   5    0.64   10.55
   4   9  -5    8.35    5.00
  -4  -9   5   12.10   10.19
   3   9  -5    5.12    3.80
  -3  -9   5    2.49    9.60
   2   9  -5   13.99    4.96
  -2  -9   5    7.75    8.95
   1   9  -5   28.49    3.74
  -1  -9   5   32.54    7.91
   0   9  -5   10.13    3.61
   0  -9   5   11.11    5.13
  -1   9  -5    9.00    3.89
   1  -9   5    4.77    8.63
  -2   9  -5   11.47    3.91
   2  -9   5    3.11    6.19
  -3   9  -5   11.09    4.25
   3  -9   5   13.15    6.71
  -4   9  -5    0.57    5.06
   4  -9   5    9.73    4.70
  -5   9  -5   12.69    4.96
   5  -9   5   26.14    6.22
  -6   9  -5    2.98    5.10
   6  -9   5    4.96    7.80
  -7   9  -5    4.89    7.74
   7  -9   5    3.87    7.73
  -8   9  -5   11.40    7.70
   8  -9   5   26.25    8.82
   7   8  -5   14.09    5.65
  -7  -8   5   10.27    4.18
   6   8  -5    5.35    5.25
  -6  -8   5    3.59    3.52
   5   8  -5    2.23    5.10
  -5  -8   5    2.69    6.54
   4   8  -5   26.28    6.65
  -4  -8   5   23.56   10.46
   3   8  -5    2.06    4.72
  -3  -8   5    6.67    7.31
   2   8  -5    4.91    3.48
  -2  -8   5    6.92    7.12
   1   8  -5   65.54    3.75
  -1  -8   5   68.86    8.57
   0   8  -5   10.11    2.98
   0  -8   5   13.04    4.46
  -1   8  -5   21.25    3.61
   1  -8   5   25.20    4.95
  -2   8  -5  102.35    4.64
   2  -8   5   80.30    7.54
  -3   8  -5    0.24    5.13
   3  -8   5   10.93    5.03
  -4   8  -5   18.64    6.02
   4  -8   5   18.77    5.49
  -5   8  -5   22.95    6.23
   5  -8   5   22.60    7.24
  -6   8  -5    3.61    6.53
   6  -8   5    8.13    7.50
  -7   8  -5   18.45    5.32
   7  -8   5    8.55    8.08
  -8   8  -5    7.04    7.29
   8  -8   5   18.71    8.04
   8   7  -5    0.00    6.64
  -8  -7   5    8.53    6.16
   7   7  -5   91.39   38.86
  -7  -7   5   13.59    5.13
   6   7  -5   12.33    6.23
  -6  -7   5    4.64    4.79
   5   7  -5    9.28    4.81
  -5  -7   5    0.00    6.49
   4   7  -5   46.27    5.72
  -4  -7   5   32.86    5.77
   3   7  -5    9.93    4.08
  -3  -7   5   11.39    4.89
   2   7  -5    9.57    3.98
  -2  -7   5    6.28    5.82
   1   7  -5   90.99    3.48
  -1  -7   5  102.34    6.04
   0   7  -5   51.57    2.90
   0  -7   5   61.95    5.49
  -1   7  -5    4.96    2.55
   1  -7   5    2.64    4.14
  -2   7  -5   80.96    3.86
   2  -7   5   67.27    5.92
  -3   7  -5   41.46    4.72
   3  -7   5   47.89    5.23
  -4   7  -5   26.33    8.17
   4  -7   5   23.85    6.01
  -5   7  -5    8.50    5.86
   5  -7   5   13.94    8.14
  -6   7  -5   14.89    6.72
   6  -7   5   24.41    6.43
  -7   7  -5    6.08    6.92
   7  -7   5   14.51    7.73
  -8   7  -5    9.95    6.82
   8  -7   5    0.00    8.57
  -9   7  -5   20.81    9.26
   9  -7   5   17.85    5.77
   8   6  -5    8.25    6.31
  -8  -6   5    3.07    5.66
   7   6  -5    9.84    5.98
  -7  -6   5    6.80    5.57
   6   6  -5   21.19    5.69
  -6  -6   5   27.66    5.88
   5   6  -5    1.78    4.65
  -5  -6   5    1.40    5.30
   4   6  -5   47.62    5.51
  -4  -6   5   39.76    5.70
   3   6  -5   34.06    3.81
  -3  -6   5   37.32    5.18
   2   6  -5    7.16    2.77
  -2  -6   5   12.96    4.55
   1   6  -5   77.47    3.21
  -1  -6   5   77.44    5.16
   0   6  -5  288.72    5.56
   0  -6   5  283.44    8.92
  -1   6  -5   19.33    2.44
   1  -6   5   18.65    4.25
  -2   6  -5   16.10    2.83
   2  -6   5   20.34    4.89
  -3   6  -5  162.14    5.97
   3  -6   5  166.22    7.14
  -4   6  -5    3.58    4.28
   4  -6   5    9.64    5.29
  -5   6  -5    4.75    6.39
   5  -6   5   11.82    6.77
  -6   6  -5   30.29    6.73
   6  -6   5   55.08    5.98
  -7   6  -5    4.41    5.92
   7  -6   5    2.70    5.51
  -8   6  -5    4.89    5.98
   8  -6   5    7.40   10.26
  -9   6  -5   25.89    9.47
   9  -6   5   28.45   11.22
   9   5  -5   10.99    6.81
  -9  -5   5   14.81    8.24
   8   5  -5    4.76    5.93
  -8  -5   5   10.05    6.57
   7   5  -5    5.55    5.77
  -7  -5   5    5.59    4.99
   6   5  -5   24.78    5.64
  -6  -5   5   55.60    5.77
   5   5  -5    8.01    5.03
  -5  -5   5    6.56    5.78
   4   5  -5    4.58    4.18
  -4  -5   5    3.65    4.81
   3   5  -5  106.86    4.59
  -3  -5   5  113.60    5.80
   2   5  -5    4.24    2.28
  -2  -5   5    7.55    3.25
   1   5  -5   26.16    2.03
  -1  -5   5   29.52    3.64
   0   5  -5  578.38    8.74
   0  -5   5  580.62   13.72
  -1   5  -5    3.13    2.04
   1  -5   5    1.80    3.41
  -2   5  -5    7.81    2.67
   2  -5   5   10.19    3.30
  -3   5  -5  121.54    4.64
   3  -5   5  138.12    6.13
  -4   5  -5   18.94    3.87
   4  -5   5   24.48    5.02
  -5   5  -5   22.74    4.49
   5  -5   5   25.13    4.25
  -6   5  -5   27.62    5.94
   6  -5   5    9.77    4.85
  -7   5  -5    6.28    5.18
   7  -5   5    8.20    6.81
  -8   5  -5    5.36    5.82
   8  -5   5    2.31    7.30
  -9   5  -5   12.53    6.13
   9  -5   5    4.28    8.14
   9   4  -5   27.34    8.43
  -9  -4   5   13.22    5.86
   8   4  -5    3.22    6.65
  -8  -4   5    0.00    8.89
   7   4  -5   12.76    4.68
  -7  -4   5    4.70    5.68
   6   4  -5  183.70    7.86
  -6  -4   5  169.59    8.31
   5   4  -5   48.15    4.34
  -5  -4   5   49.08    5.23
   4   4  -5    4.74    2.99
  -4  -4   5    4.49    3.85
   3   4  -5  148.10    4.30
  -3  -4   5  145.02    5.85
   2   4  -5    4.95    1.90
  -2  -4   5    7.97    2.69
   1   4  -5    9.38    1.90
  -1  -4   5    9.81    3.19
   0   4  -5  202.51    3.94
   0  -4   5  206.97    5.50
  -1   4  -5   80.79    3.46
   1  -4   5   84.18    5.66
  -2   4  -5   17.26    3.07
   2  -4   5   15.97    3.28
  -3   4  -5   33.92    2.96
   3  -4   5   40.98    3.85
  -4   4  -5   25.38    3.36
   4  -4   5   34.01    4.45
  -5   4  -5   37.17    3.79
   5  -4   5   56.47    5.25
  -6   4  -5    1.51    4.17
   6  -4   5    2.36    5.11
  -7   4  -5    6.30    5.28
   7  -4   5    4.23    5.27
  -8   4  -5    6.26    6.21
   8  -4   5    0.00    9.89
  -9   4  -5   10.60    8.83
   9  -4   5    5.21   12.83
  10   3  -5    0.21    7.12
 -10  -3   5    2.17   11.10
   9   3  -5   29.98   12.57
  -9  -3   5   25.32    9.78
   8   3  -5    4.92    5.59
  -8  -3   5   10.94    7.35
   7   3  -5   18.07    5.89
  -7  -3   5    6.69    4.91
   6   3  -5   80.83    5.51
  -6  -3   5   73.67    6.47
   5   3  -5  141.86    6.20
  -5  -3   5  115.32    6.16
   4   3  -5    6.83    2.87
  -4  -3   5    5.05    3.22
   3   3  -5  114.43    4.13
  -3  -3   5  111.58    5.12
   2   3  -5  202.87    4.95
  -2  -3   5  202.48    4.85
   1   3  -5   23.74    3.04
  -1  -3   5   26.47    3.32
   0   3  -5   82.63    2.89
   0  -3   5   92.56    4.74
  -1   3  -5  244.18    5.33
   1  -3   5  250.82    6.50
  -2   3  -5    3.10    2.05
   2  -3   5    3.78    3.02
  -3   3  -5   29.51    2.70
   3  -3   5   35.37    2.95
  -4   3  -5   78.88    3.88
   4  -3   5   95.49    5.49
  -5   3  -5    5.13    3.34
   5  -3   5    5.87    4.59
  -6   3  -5    3.88    6.40
   6  -3   5    8.40    6.63
  -7   3  -5   15.39    8.02
   7  -3   5    4.88    7.04
  -8   3  -5   19.19    7.03
   8  -3   5    2.94    7.22
  -9   3  -5    8.74   10.41
   9  -3   5    4.35    8.62
  10   2  -5    1.65    6.13
 -10  -2   5   17.19    8.45
   9   2  -5    2.76    5.91
  -9  -2   5    0.00    6.79
   8   2  -5   16.94    5.65
  -8  -2   5   16.02    6.02
   7   2  -5   14.55    5.82
  -7  -2   5    6.72    5.42
   6   2  -5   11.89    5.33
  -6  -2   5    9.68    4.75
   5   2  -5  160.22    6.62
  -5  -2   5  156.08    5.51
   4   2  -5   16.81    3.44
  -4  -2   5   13.55    3.34
   3   2  -5   44.24    4.23
  -3  -2   5   35.02    3.43
   2   2  -5  204.58    6.46
  -2  -2   5  205.31    5.23
   1   2  -5   39.15    2.57
  -1  -2   5   37.16    1.74
   0   2  -5   29.06    2.08
   0  -2   5   33.84    2.60
  -1   2  -5  369.08    6.41
   1  -2   5  355.93    9.21
  -2   2  -5   19.33    1.79
   2  -2   5   20.99    3.60
  -3   2  -5    2.11    1.86
   3  -2   5    2.12    2.38
  -4   2  -5   53.89    4.44
   4  -2   5   62.76    4.69
  -5   2  -5    9.19    7.24
   5  -2   5   11.73    5.00
  -6   2  -5   34.24    6.84
   6  -2   5   22.04    5.68
  -7   2  -5   23.56    7.36
   7  -2   5   15.63    6.37
  -8   2  -5   16.99    6.84
   8  -2   5    3.77    7.64
  -9   2  -5    7.83    5.02
   9  -2   5   16.31    8.88
  10   1  -5    3.39    6.66
 -10  -1   5   18.17   12.39
   9   1  -5    6.23    6.48
  -9  -1   5    0.00    8.62
   8   1  -5   49.46    6.74
  -8  -1   5   47.82    7.23
   7   1  -5   20.66    7.16
  -7  -1   5   26.08    6.51
   6   1  -5   15.38    6.08
  -6  -1   5   12.87    5.54
   5   1  -5   70.80    6.16
  -5  -1   5   83.34    6.68
   4   1  -5   54.28    3.89
  -4  -1   5   64.27    4.07
   3   1  -5   17.74    3.16
  -3  -1   5   19.63    2.65
   2   1  -5  139.98    4.85
  -2  -1   5  144.27    4.11
   1   1  -5   68.85    3.00
  -1  -1   5   61.52    2.99
   0   1  -5    7.52    1.81
   0  -1   5    5.92    1.48
  -1   1  -5  194.56    5.06
   1  -1   5  197.78    5.74
  -2   1  -5  129.76    5.52
   2  -1   5  145.89    4.97
  -3   1  -5    1.26    4.23
   3  -1   5    7.38    3.68
  -4   1  -5    9.62    4.60
   4  -1   5   12.12    4.25
  -5   1  -5   58.38    6.56
   5  -1   5   57.72    5.91
  -6   1  -5   15.56    3.92
   6  -1   5    8.93    5.27
  -7   1  -5    3.90    5.23
   7  -1   5    5.41    6.18
  -8   1  -5    8.90    5.11
   8  -1   5    7.62    5.73
  10   0  -5    0.00   12.70
 -10   0   5   19.81   17.67
   9   0  -5   15.78   12.21
  -9   0   5   26.32   10.77
   8   0  -5    8.38    8.10
  -8   0   5   24.58    7.13
   7   0  -5   49.38    9.65
  -7   0   5   45.45    5.66
   6   0  -5   12.71    6.60
  -6   0   5    4.94    5.16
   5   0  -5   22.00    5.17
  -5   0   5   24.48    5.30
   4   0  -5  118.92    6.89
  -4   0   5  110.58    6.07
   3   0  -5   11.82    3.87
  -3   0   5    3.53    3.19
   2   0  -5   29.60    3.70
  -2   0   5   27.51    3.16
   1   0  -5  129.73    4.68
  -1   0   5  119.23    4.39
   0   0  -5   42.78    2.84
   0   0   5   41.87    2.32
  -1   0  -5   32.21    3.71
   1   0   5   28.99    3.57
  -2   0  -5  350.11    8.49
   2   0   5  351.18    9.21
  -3   0  -5    2.37    4.99
   3   0   5    2.14    4.31
  -4   0  -5    3.23    4.84
   4   0   5    1.63    3.33
  -5   0  -5   41.52    5.03
   5   0   5   42.48    6.15
  -6   0  -5    8.01    3.57
   6   0   5    0.25    5.09
  -7   0  -5    2.43    5.71
   7   0   5    0.53    5.89
  -8   0  -5    8.92    7.00
   8   0   5    4.31    6.52
  10  -1  -5    0.00   28.65
 -10   1   5   17.04    9.39
   9  -1  -5    0.63    8.80
  -9   1   5    6.14    9.35
   8  -1  -5    8.67    7.18
  -8   1   5   11.99    6.25
   7  -1  -5   61.52    7.61
  -7   1   5   62.55    7.15
   6  -1  -5   12.16    7.43
  -6   1   5    2.86    7.86
   5  -1  -5   14.62    9.15
  -5   1   5    0.00    7.33
   4  -1  -5  299.75   13.66
  -4   1   5  272.94   12.58
   3  -1  -5   18.03    6.58
  -3   1   5   15.82    5.64
   2  -1  -5   21.19    3.67
  -2   1   5   18.53    3.87
   1  -1  -5  174.21    5.42
  -1   1   5  167.07    5.45
   0  -1  -5   16.55    4.31
   0   1   5   15.64    2.70
  -1  -1  -5   34.15    4.64
   1   1   5   28.31    2.65
  -2  -1  -5  104.17    5.38
   2   1   5  105.82    3.54
  -3  -1  -5    9.18    4.82
   3   1   5    4.77    2.97
  -4  -1  -5    7.84    5.84
   4   1   5   10.59    4.36
  -5  -1  -5   15.57    5.54
   5   1   5   17.99    6.21
  -6  -1  -5    7.22    5.27
   6   1   5    4.40    4.89
  -7  -1  -5    6.77    6.99
   7   1   5    7.24    7.06
  -8  -1  -5   10.60    7.20
   8   1   5   11.18    6.17
  10  -2  -5   10.30    9.13
 -10   2   5   12.44    8.55
   9  -2  -5    0.00    8.89
  -9   2   5    6.57    8.44
   8  -2  -5    7.29   10.86
  -8   2   5   15.07   10.81
   7  -2  -5   79.50   11.83
  -7   2   5   76.73   12.24
   6  -2  -5   37.06   11.57
  -6   2   5   11.31   10.96
   5  -2  -5   17.72    9.55
  -5   2   5    5.70   10.79
   4  -2  -5  154.05   12.62
  -4   2   5  156.50   10.28
   3  -2  -5   38.58    5.03
  -3   2   5   33.67    5.42
   2  -2  -5    3.23    4.79
  -2   2   5    1.50    3.63
   1  -2  -5   57.97    5.69
  -1   2   5   51.98    5.03
   0  -2  -5   41.60    4.42
   0   2   5   36.96    3.59
  -1  -2  -5    8.38    5.18
   1   2   5    6.17    3.42
  -2  -2  -5   51.44    6.01
   2   2   5   56.23    7.08
  -3  -2  -5   17.15    6.35
   3   2   5   13.11    9.14
  -4  -2  -5    1.45    6.88
   4   2   5   12.06    8.36
  -5  -2  -5    4.02    5.06
   5   2   5    3.23    4.51
  -6  -2  -5    6.98    5.20
   6   2   5    6.81    4.61
  -7  -2  -5   10.31    6.54
   7   2   5   11.87    7.55
  10  -3  -5   11.75    9.78
 -10   3   5   20.22   11.23
   9  -3  -5    6.99   10.57
  -9   3   5    9.62   11.51
   8  -3  -5   11.34    9.63
  -8   3   5   30.19   12.35
   7  -3  -5   21.31   10.24
  -7   3   5   24.65   13.01
   6  -3  -5   32.52    9.92
  -6   3   5   28.91   13.01
   5  -3  -5    4.44    7.60
  -5   3   5   10.51    8.94
   4  -3  -5   30.03    6.26
  -4   3   5   23.25    8.11
   3  -3  -5   62.24    6.69
  -3   3   5   50.07    6.98
   2  -3  -5    1.52    5.90
  -2   3   5    1.62    6.56
   1  -3  -5   12.17    4.91
  -1   3   5    4.18    4.63
   0  -3  -5   63.49    5.98
   0   3   5   67.29    7.14
  -1  -3  -5    4.29    9.78
   1   3   5    1.82    8.42
  -2  -3  -5   10.07    7.98
   2   3   5    7.46    5.93
  -3  -3  -5   26.48    5.86
   3   3   5   16.90    5.76
  -4  -3  -5    0.28    5.03
   4   3   5    0.13    4.19
  -5  -3  -5    0.50    4.38
   5   3   5    3.31    4.32
  -6  -3  -5    6.84    5.38
   6   3   5    7.76    5.24
  -7  -3  -5    7.49    6.94
   7   3   5    7.86    8.81
   9  -4  -5    6.21   11.58
  -9   4   5   17.67   18.65
   8  -4  -5   11.38    8.53
  -8   4   5    3.30   10.57
   7  -4  -5    9.63    7.53
  -7   4   5    3.55    9.09
   6  -4  -5   22.00    7.34
  -6   4   5   25.55    8.88
   5  -4  -5    3.82    6.92
  -5   4   5    6.86    7.49
   4  -4  -5    8.17    7.03
  -4   4   5    2.31    7.51
   3  -4  -5   37.18    8.91
  -3   4   5   18.90    8.37
   2  -4  -5    2.04   10.10
  -2   4   5    0.70    8.01
   1  -4  -5   11.81    7.61
  -1   4   5   18.87   10.16
   0  -4  -5   30.22    6.26
   0   4   5   32.13    7.87
  -1  -4  -5    0.99    5.27
   1   4   5    6.09    7.27
  -2  -4  -5    4.19    4.49
   2   4   5   13.17    5.29
  -3  -4  -5    3.19    4.12
   3   4   5   17.12    5.04
  -4  -4  -5    4.46    6.21
   4   4   5   11.53    5.08
  -5  -4  -5    3.20    6.63
   5   4   5    1.80    5.08
  -6  -4  -5    7.18    6.51
   6   4   5    7.53    6.63
   9  -5  -5   26.76   10.40
  -9   5   5    8.95   12.20
   8  -5  -5   13.68    9.08
  -8   5   5    0.00   14.73
   7  -5  -5   11.54    7.08
  -7   5   5    7.51    8.99
   6  -5  -5   10.40    6.85
  -6   5   5    7.46    8.50
   5  -5  -5    7.69    6.74
  -5   5   5    5.34    7.36
   4  -5  -5    7.22   11.53
  -4   5   5    1.93    7.92
   3  -5  -5   12.63   11.91
  -3   5   5   16.43    8.40
   2  -5  -5    5.62    7.43
  -2   5   5    2.27    9.45
   1  -5  -5    3.86    6.03
  -1   5   5    4.84    7.18
   0  -5  -5    7.16    5.82
   0   5   5    8.73    6.97
  -1  -5  -5   19.54    5.75
   1   5   5    7.38    7.75
  -2  -5  -5    3.50    6.35
   2   5   5    2.88    5.52
  -3  -5  -5    2.09    6.23
   3   5   5   11.30    5.39
  -4  -5  -5    5.79    8.33
   4   5   5    5.18    5.92
  -5  -5  -5    0.00    6.52
   5   5   5    5.17    5.28
   8  -6  -5    9.47    7.74
  -8   6   5    7.64    9.60
   7  -6  -5   10.80    9.71
  -7   6   5   19.86   17.02
   6  -6  -5    3.60    9.51
  -6   6   5    1.43    7.66
   5  -6  -5   19.35   15.66
  -5   6   5   20.07    6.88
   4  -6  -5    8.74   11.35
  -4   6   5    1.18    6.70
   3  -6  -5    3.68    7.50
  -3   6   5    6.79    6.60
   2  -6  -5   14.00    6.78
  -2   6   5   14.55    9.34
   1  -6  -5    3.64    6.31
  -1   6   5    1.15    6.59
   0  -6  -5    3.94    6.34
   0   6   5    6.38    6.61
  -1  -6  -5    4.59    6.54
   1   6   5   12.69    8.38
  -2  -6  -5    3.59    6.37
   2   6   5    1.29    5.97
  -3  -6  -5    0.84    6.32
   3   6   5    5.11    8.06
  -4  -6  -5    6.88    7.00
   4   6   5   12.36    6.78
   7  -7  -5    1.21   16.25
  -7   7   5    7.32    9.11
   6  -7  -5    0.00   12.45
  -6   7   5    0.19    6.37
   5  -7  -5   13.57   12.44
  -5   7   5   14.34    8.57
   4  -7  -5    8.97   11.36
  -4   7   5    5.93    6.99
   3  -7  -5    4.23    6.75
  -3   7   5    7.47    8.28
   2  -7  -5   21.95    7.30
  -2   7   5   17.28   10.14
   1  -7  -5    5.62    5.60
  -1   7   5    3.21    8.79
   0  -7  -5    1.34    5.99
   0   7   5    3.82    8.05
  -1  -7  -5    4.83    6.99
   1   7   5    6.40    6.66
  -2  -7  -5    4.38    6.79
   2   7   5    6.33    8.45
   6  -8  -5   27.93   18.63
  -6   8   5    9.46    9.22
   5  -8  -5   15.38   13.71
  -5   8   5    5.29    6.87
   4  -8  -5    7.42   11.37
  -4   8   5   10.64    7.67
   3  -8  -5    7.43    7.14
  -3   8   5    3.88    9.68
   2  -8  -5    3.05    7.63
  -2   8   5    5.59   10.19
   1  -8  -5    0.62    7.59
  -1   8   5    3.33    7.70
   0  -8  -5    0.70    8.15
   0   8   5    2.86    9.55
  -1  -8  -5    0.50    6.77
   1   8   5    4.92    6.83
   2  12  -6    7.64    5.31
  -2 -12   6    0.56    9.78
   1  12  -6    6.44    5.56
  -1 -12   6    3.05    9.55
   0  12  -6    8.81    4.18
   0 -12   6    0.00    8.65
  -1  12  -6   25.47    5.10
   1 -12   6   36.25   11.65
  -2  12  -6   10.23    5.55
   2 -12   6    5.28    6.54
  -3  12  -6    8.56    5.77
   3 -12   6   10.64    7.44
  -4  12  -6   25.83    5.72
   4 -12   6   13.99    7.32
   4  11  -6    7.11    6.02
  -4 -11   6    6.40   10.83
   3  11  -6    8.08    4.97
  -3 -11   6    9.20    9.27
   2  11  -6    5.58    5.41
  -2 -11   6   13.81    8.34
   1  11  -6    4.18    4.80
  -1 -11   6    5.35    8.60
   0  11  -6    9.32    3.74
   0 -11   6    5.05    8.41
  -1  11  -6   27.67    6.86
   1 -11   6   30.65    8.13
  -2  11  -6   12.23    4.94
   2 -11   6   19.19    6.94
  -3  11  -6    5.50    4.72
   3 -11   6    0.16    6.96
  -4  11  -6   17.62    4.74
   4 -11   6   12.75    7.81
  -5  11  -6    0.00    5.51
   5 -11   6    2.28    6.78
  -6  11  -6    0.00    8.84
   6 -11   6    5.63    8.73
   5  10  -6    9.41    5.71
  -5 -10   6   11.52   10.39
   4  10  -6    8.94    4.60
  -4 -10   6    0.00   13.86
   3  10  -6    5.58    3.54
  -3 -10   6   11.96    8.40
   2  10  -6    9.36    4.40
  -2 -10   6   10.34    8.53
   1  10  -6   12.56    4.17
  -1 -10   6   16.07    7.61
   0  10  -6    8.64    3.41
   0 -10   6    4.33    7.41
  -1  10  -6   13.20    3.59
   1 -10   6   11.83    6.22
  -2  10  -6   39.45    4.04
   2 -10   6   41.84    7.07
  -3  10  -6    3.62    5.13
   3 -10   6    1.64    6.36
  -4  10  -6    1.87    5.09
   4 -10   6    3.24    6.51
  -5  10  -6   13.55    6.08
   5 -10   6   23.11    6.92
  -6  10  -6    1.88    6.26
   6 -10   6    4.39    8.18
  -7  10  -6    6.38    7.09
   7 -10   6   10.84    8.17
   6   9  -6    2.39    5.40
  -6  -9   6   10.72   11.16
   5   9  -6    6.71    7.08
  -5  -9   6    9.27   11.16
   4   9  -6   29.27    6.38
  -4  -9   6   32.97   10.14
   3   9  -6    4.35    4.81
  -3  -9   6    0.00    7.48
   2   9  -6    5.51    3.36
  -2  -9   6    3.88    6.71
   1   9  -6   25.41    3.39
  -1  -9   6   35.65    7.95
   0   9  -6    2.43    3.45
   0  -9   6    3.28    7.26
  -1   9  -6    9.49    4.00
   1  -9   6   12.51    6.93
  -2   9  -6   34.89    3.66
   2  -9   6   21.72    6.33
  -3   9  -6   11.12    7.05
   3  -9   6    5.87    6.17
  -4   9  -6    6.51    5.29
   4  -9   6    2.05    6.07
  -5   9  -6   30.80    6.23
   5  -9   6   28.99    6.29
  -6   9  -6   10.88    7.44
   6  -9   6   12.73    7.49
  -7   9  -6    5.50    6.70
   7  -9   6    2.52    7.69
   7   8  -6   18.35    6.63
  -7  -8   6   10.04    5.16
   6   8  -6    8.51    6.81
  -6  -8   6    7.52    5.47
   5   8  -6    4.68    5.80
  -5  -8   6    6.58    8.96
   4   8  -6   19.56    5.17
  -4  -8   6    8.87    7.20
   3   8  -6    6.85    4.03
  -3  -8   6    7.74    6.67
   2   8  -6    7.32    3.63
  -2  -8   6   10.18    5.97
   1   8  -6   25.61    2.48
  -1  -8   6   35.66    5.98
   0   8  -6   41.53    2.87
   0  -8   6   49.13    8.04
  -1   8  -6    5.30    3.15
   1  -8   6    2.90    6.19
  -2   8  -6   95.73    4.70
   2  -8   6   79.72    6.96
  -3   8  -6   75.04    6.80
   3  -8   6   72.02    7.66
  -4   8  -6    1.99    5.89
   4  -8   6    1.00    5.84
  -5   8  -6   22.81    6.33
   5  -8   6   20.74    5.57
  -6   8  -6   27.26    7.11
   6  -8   6   10.36    6.99
  -7   8  -6   15.51    8.32
   7  -8   6   15.87    9.75
  -8   8  -6    5.73    7.08
   8  -8   6    6.64    7.82
   8   7  -6    4.95    6.15
  -8  -7   6    9.50    5.79
   7   7  -6    8.32    6.58
  -7  -7   6    5.14    5.52
   6   7  -6    7.21    5.40
  -6  -7   6    5.15    6.49
   5   7  -6    3.11    5.28
  -5  -7   6    3.13    5.78
   4   7  -6   18.30    5.04
  -4  -7   6   15.40    5.73
   3   7  -6   21.29    4.53
  -3  -7   6   16.27    6.85
   2   7  -6    6.67    3.89
  -2  -7   6   14.56    5.81
   1   7  -6   14.33    2.59
  -1  -7   6   11.67    5.43
   0   7  -6  104.97    3.95
   0  -7   6  104.76    6.71
  -1   7  -6   15.06    3.04
   1  -7   6   12.10    5.52
  -2   7  -6   19.20    3.73
   2  -7   6   28.67    6.23
  -3   7  -6  155.58    8.30
   3  -7   6  165.29    8.75
  -4   7  -6    5.80    5.20
   4  -7   6    8.43    5.76
  -5   7  -6    4.60    6.19
   5  -7   6   15.22    6.79
  -6   7  -6   60.89    7.71
   6  -7   6   73.58    7.35
  -7   7  -6    7.15    6.78
   7  -7   6    6.85    6.63
  -8   7  -6    8.19    7.55
   8  -7   6    0.00    6.41
   8   6  -6    5.19    6.06
  -8  -6   6    7.03    7.36
   7   6  -6    2.11    5.56
  -7  -6   6    6.50    5.86
   6   6  -6   19.06    5.97
  -6  -6   6   32.59    6.85
   5   6  -6    3.82    5.33
  -5  -6   6    3.90    6.77
   4   6  -6    7.91    4.56
  -4  -6   6    2.09    6.16
   3   6  -6   57.39    4.56
  -3  -6   6   60.89    5.46
   2   6  -6   23.74    2.21
  -2  -6   6   23.46    5.22
   1   6  -6    3.40    2.33
  -1  -6   6    3.44    4.45
   0   6  -6  197.85    4.34
   0  -6   6  196.10    7.95
  -1   6  -6    3.45    2.98
   1  -6   6    6.41    4.28
  -2   6  -6    2.68    3.61
   2  -6   6    2.53    5.89
  -3   6  -6  189.18    7.29
   3  -6   6  162.30   10.52
  -4   6  -6   54.81    4.93
   4  -6   6   61.67    6.65
  -5   6  -6    5.62    4.76
   5  -6   6    1.78    5.94
  -6   6  -6   79.85    7.76
   6  -6   6   69.93    6.67
  -7   6  -6   14.28    7.67
   7  -6   6    2.90    6.16
  -8   6  -6    2.89    6.82
   8  -6   6    0.00    7.23
   9   5  -6   22.71    7.37
  -9  -5   6   25.34    7.94
   8   5  -6    5.14    8.89
   7   5  -6    4.09    5.58
  -7  -5   6    3.35    6.38
   6   5  -6   27.72    4.27
  -6  -5   6   26.72    7.03
   5   5  -6    3.79    5.22
  -5  -5   6    3.68    6.04
   4   5  -6   21.33    5.84
  -4  -5   6   25.49    5.01
   3   5  -6   86.83    4.17
  -3  -5   6   90.70    5.53
   2   5  -6    3.24    2.31
  -2  -5   6    3.17    3.81
   1   5  -6   19.85    2.17
  -1  -5   6   12.75    4.13
   0   5  -6  125.56    3.15
   0  -5   6  127.49    5.76
  -1   5  -6   66.22    3.34
   1  -5   6   64.83    5.06
  -2   5  -6   16.29    3.27
   2  -5   6   11.61    4.23
  -3   5  -6   59.43    3.64
   3  -5   6   58.30    5.11
  -4   5  -6  101.60    5.13
   4  -5   6   92.12    6.58
  -5   5  -6    3.59    4.45
   5  -5   6    4.78    4.78
  -6   5  -6   44.40    4.61
   6  -5   6   14.31    5.61
  -7   5  -6   32.65    7.03
   7  -5   6    6.19    8.50
  -8   5  -6   17.87    6.18
   8  -5   6    0.00    9.73
   9   4  -6   13.13    8.59
  -9  -4   6    7.45    8.45
   8   4  -6    1.49    5.67
  -8  -4   6    0.75    6.51
   7   4  -6    8.48    4.05
  -7  -4   6    9.63    4.98
   6   4  -6   70.62    7.65
  -6  -4   6   79.12    7.58
   5   4  -6   62.24    5.01
  -5  -4   6   65.58    6.15
   4   4  -6    7.76    3.47
  -4  -4   6    9.90    4.43
   3   4  -6   66.19    3.98
  -3  -4   6   71.76    4.69
   2   4  -6   69.86    3.51
  -2  -4   6   71.60    3.65
   1   4  -6   50.11    3.83
  -1  -4   6   59.13    4.18
   0   4  -6    4.00    2.52
   0  -4   6    4.87    2.71
  -1   4  -6  116.13    3.59
   1  -4   6  125.33    5.24
  -2   4  -6    2.07    2.32
   2  -4   6    7.01    4.00
  -3   4  -6    8.85    2.80
   3  -4   6    4.31    2.82
  -4   4  -6   55.45    4.58
   4  -4   6   60.67    4.08
  -5   4  -6    1.55    3.60
   5  -4   6    0.00    4.86
  -6   4  -6    4.03    4.40
   6  -4   6    0.00    5.84
  -7   4  -6   26.79    4.86
   7  -4   6   19.75    6.95
  -8   4  -6    5.31    7.53
   8  -4   6    6.81    7.26
   9   3  -6    0.00    6.90
  -9  -3   6   17.33    6.63
   8   3  -6   12.47    5.74
  -8  -3   6   12.93    5.74
   7   3  -6    5.48    5.43
  -7  -3   6    5.94    5.43
   6   3  -6    7.01    4.70
  -6  -3   6    0.00    6.13
   5   3  -6   63.92    5.83
  -5  -3   6   66.02    6.62
   4   3  -6    5.93    5.61
  -4  -3   6    0.23    5.12
   3   3  -6   18.85    4.43
  -3  -3   6   17.71    4.11
   2   3  -6  235.66    9.06
  -2  -3   6  237.06    6.14
   1   3  -6   21.48    2.86
  -1  -3   6   19.63    3.29
   0   3  -6    2.33    2.13
   0  -3   6    6.04    3.40
  -1   3  -6  123.91    4.22
   1  -3   6  125.66    4.84
  -2   3  -6   17.74    2.11
   2  -3   6   29.30    3.60
  -3   3  -6    3.75    2.45
   3  -3   6    4.30    2.93
  -4   3  -6   63.72    4.63
   4  -3   6   68.10    4.21
  -5   3  -6   32.73    6.91
   5  -3   6   23.37    5.04
  -6   3  -6    0.00    6.23
   6  -3   6    3.41    4.88
  -7   3  -6   17.66    6.57
   7  -3   6   38.35    7.77
  -8   3  -6   14.20    7.23
   8  -3   6    1.87    7.38
  10   2  -6    2.06    7.70
 -10  -2   6   16.37    8.11
   9   2  -6    3.60   12.67
  -9  -2   6    7.68    6.54
   8   2  -6   20.54    5.80
  -8  -2   6   35.92    5.24
   7   2  -6    3.56    6.35
  -7  -2   6   13.22    5.09
   6   2  -6    7.48    6.71
  -6  -2   6   14.09    5.06
   5   2  -6   52.46    8.26
  -5  -2   6   40.49    5.43
   4   2  -6   34.17    5.79
  -4  -2   6   14.21    6.77
   3   2  -6    5.24    3.16
  -3  -2   6    1.57    3.25
   2   2  -6  118.55    4.93
  -2  -2   6  119.77    3.97
   1   2  -6   87.74    4.20
  -1  -2   6   82.04    2.72
   0   2  -6   13.21    2.46
   0  -2   6   15.21    3.20
  -1   2  -6   74.25    6.18
   1  -2   6   81.03    4.90
  -2   2  -6   76.00    5.40
   2  -2   6  104.16    6.16
  -3   2  -6    7.54    7.32
   3  -2   6    1.83    3.25
  -4   2  -6   10.97    4.54
   4  -2   6   14.87    3.56
  -5   2  -6   68.96    6.48
   5  -2   6   50.72    6.84
  -6   2  -6    3.26    5.83
   6  -2   6    4.34    5.64
  -7   2  -6   14.22    5.50
   7  -2   6   18.37    5.72
  -8   2  -6   22.24    6.52
   8  -2   6   27.98    7.40
  10   1  -6    3.33    7.94
 -10  -1   6   22.54    7.46
   9   1  -6    0.00    8.76
  -9  -1   6   13.58    7.80
   8   1  -6   19.94    7.01
  -8  -1   6   27.66    7.04
   7   1  -6   31.44    7.52
  -7  -1   6   38.56    5.32
   6   1  -6   20.29    7.06
  -6  -1   6    7.57    4.89
   5   1  -6   14.92    5.18
  -5  -1   6    2.33    4.99
   4   1  -6   56.96    5.56
  -4  -1   6   62.91    4.79
   3   1  -6   10.00    3.79
  -3  -1   6    6.99    3.92
   2   1  -6   48.90    4.07
  -2  -1   6   46.44    3.26
   1   1  -6  135.13    6.13
  -1  -1   6  133.64    4.14
   0   1  -6   27.72    2.56
   0  -1   6   25.43    2.37
  -1   1  -6    8.53    4.05
   1  -1   6   11.00    3.31
  -2   1  -6  183.48    9.15
   2  -1   6  193.49    7.13
  -3   1  -6    3.12    9.20
   3  -1   6    0.53    4.71
  -4   1  -6    2.89    5.05
   4  -1   6    3.40    4.61
  -5   1  -6   43.01    4.28
   5  -1   6   45.17    4.24
  -6   1  -6    6.56    4.02
   6  -1   6    2.43    4.93
  -7   1  -6    6.82    4.42
   7  -1   6    9.61    6.48
  -8   1  -6   20.21    6.69
   8  -1   6   29.32    7.31
  10   0  -6    4.82    8.12
 -10   0   6   39.07   10.16
   9   0  -6    0.76   10.83
  -9   0   6   12.55   12.01
   8   0  -6    3.50    7.14
  -8   0   6    4.12    4.79
   7   0  -6   33.71    6.55
  -7   0   6   35.29    5.73
   6   0  -6    7.35    6.68
  -6   0   6    2.75    5.29
   5   0  -6   14.05    6.33
  -5   0   6    3.18    7.58
   4   0  -6   92.39    7.24
  -4   0   6   96.78    8.51
   3   0  -6   13.92    4.13
  -3   0   6   16.96    4.57
   2   0  -6    2.65    3.90
  -2   0   6    1.21    3.15
   1   0  -6  116.80    5.58
  -1   0   6  109.78    4.53
   0   0  -6    4.55    4.18
   0   0   6    2.92    2.11
  -1   0  -6    8.52    4.44
   1   0   6    6.32    4.46
  -2   0  -6  144.77    6.93
   2   0   6  158.19    7.11
  -3   0  -6   17.29    6.26
   3   0   6   18.88    5.10
  -4   0  -6    2.52    5.52
   4   0   6    9.36    6.53
  -5   0  -6   20.05    5.18
   5   0   6   24.13    3.61
  -6   0  -6   13.16    5.40
   6   0   6   20.20    5.68
  -7   0  -6    6.24    5.31
   7   0   6    8.95    6.84
  10  -1  -6    8.18   11.52
 -10   1   6   16.58   10.68
   9  -1  -6    4.34   15.73
  -9   1   6   16.94   10.78
   8  -1  -6    1.14    8.70
  -8   1   6    8.59    6.92
   7  -1  -6   62.48   10.56
  -7   1   6   82.04   12.13
   6  -1  -6   33.90   11.27
  -6   1   6   19.21   14.05
   5  -1  -6    8.95   10.14
  -5   1   6    1.22   10.19
   4  -1  -6  111.82    7.59
  -4   1   6  122.84    8.82
   3  -1  -6   16.34    5.27
  -3   1   6   11.71    5.67
   2  -1  -6    0.80    4.38
  -2   1   6    1.47    3.61
   1  -1  -6   70.88    5.20
  -1   1   6   68.18    3.96
   0  -1  -6   34.57    4.67
   0   1   6   26.06    3.12
  -1  -1  -6   32.29    5.75
   1   1   6   23.38    2.60
  -2  -1  -6    8.11    5.53
   2   1   6    9.57    5.31
  -3  -1  -6   12.23    6.06
   3   1   6   10.87    6.77
  -4  -1  -6    9.02    6.12
   4   1   6    2.18    3.54
  -5  -1  -6    5.55    5.07
   5   1   6   10.26    5.06
  -6  -1  -6    7.73    5.43
   6   1   6   13.06    5.16
  -7  -1  -6    7.22    6.85
   7   1   6    4.96    6.57
   9  -2  -6    9.48   13.87
  -9   2   6   14.12   13.53
   8  -2  -6    9.96   10.25
  -8   2   6   16.84   11.89
   7  -2  -6   24.34   10.11
  -7   2   6   33.26   11.25
   6  -2  -6   15.41   10.69
  -6   2   6   11.93    9.42
   5  -2  -6    6.14    8.77
  -5   2   6    7.33    7.76
   4  -2  -6   23.94    6.57
  -4   2   6   17.32    7.64
   3  -2  -6   50.94    6.35
  -3   2   6   45.33    8.50
   2  -2  -6    4.77    5.48
  -2   2   6    9.48    5.84
   1  -2  -6   13.11    6.23
  -1   2   6    6.20    4.25
   0  -2  -6  107.50    7.60
   0   2   6   92.15    6.39
  -1  -2  -6    2.36    7.55
   1   2   6    4.40    4.49
  -2  -2  -6    5.02    5.92
   2   2   6    4.05    3.31
  -3  -2  -6    9.79    5.85
   3   2   6   14.78    3.21
  -4  -2  -6    4.74    5.74
   4   2   6    0.06    4.90
  -5  -2  -6    2.52    5.29
   5   2   6    7.38    6.89
  -6  -2  -6    5.69    5.68
   6   2   6   10.91    7.82
   9  -3  -6    0.00   17.19
  -9   3   6   13.23   17.04
   8  -3  -6    6.71   11.59
  -8   3   6   14.02   13.40
   7  -3  -6   11.75    7.36
  -7   3   6   10.23    9.82
   6  -3  -6   19.64    6.78
  -6   3   6   15.90    8.06
   5  -3  -6    6.42    6.44
  -5   3   6   10.85    7.82
   4  -3  -6    0.03    6.44
  -4   3   6    4.77    7.43
   3  -3  -6   47.95    8.97
  -3   3   6   43.12    8.76
   2  -3  -6    0.00   14.66
  -2   3   6    0.00   15.72
   1  -3  -6    6.26    9.07
  -1   3   6    0.97    7.95
   0  -3  -6   44.43    6.94
   0   3   6   34.97    5.70
  -1  -3  -6    8.14    6.38
   1   3   6    4.83    6.98
  -2  -3  -6    3.83    5.08
   2   3   6    6.15    4.33
  -3  -3  -6    7.24    4.90
   3   3   6    6.72    4.62
  -4  -3  -6    7.19    5.45
   4   3   6    5.33    4.66
  -5  -3  -6    2.45    5.63
   5   3   6    1.98    5.41
  -6  -3  -6    8.58    6.85
   6   3   6   13.92    8.43
   9  -4  -6   16.82    8.91
  -9   4   6   32.63   14.90
   8  -4  -6   18.62   12.19
  -8   4   6   13.45   14.70
   7  -4  -6   12.82    8.96
  -7   4   6    6.37    9.99
   6  -4  -6   12.20    6.42
  -6   4   6   18.18    7.54
   5  -4  -6   19.91    7.38
  -5   4   6   24.82    7.52
   4  -4  -6    0.25    6.79
  -4   4   6    2.68    7.54
   3  -4  -6   15.91   11.29
  -3   4   6   18.33   14.65
   2  -4  -6   13.76   11.19
  -2   4   6    5.65    9.78
   1  -4  -6    0.54    6.93
  -1   4   6    2.23    7.94
   0  -4  -6    7.47    6.00
   0   4   6    6.02    7.49
  -1  -4  -6   14.29    6.57
   1   4   6   14.73    8.44
  -2  -4  -6    4.49    5.12
   2   4   6    8.77    4.31
  -3  -4  -6    3.91    5.81
   3   4   6    0.85    4.85
  -4  -4  -6    2.31    8.57
   4   4   6    5.17    5.11
  -5  -4  -6   14.03    9.32
   5   4   6    5.28    6.60
   8  -5  -6   13.37    7.89
  -8   5   6   22.03   11.41
   7  -5  -6    4.79    8.52
  -7   5   6    4.12    9.84
   6  -5  -6   12.53    7.71
  -6   5   6    2.91    7.57
   5  -5  -6   13.80    9.32
  -5   5   6   11.05    7.63
   4  -5  -6    0.00   10.01
  -4   5   6    2.89    6.88
   3  -5  -6    0.00   10.54
  -3   5   6    3.35    7.55
   2  -5  -6   17.34    6.56
  -2   5   6   17.11    8.19
   1  -5  -6    0.29    5.93
  -1   5   6    0.00    7.34
   0  -5  -6    3.73    6.34
   0   5   6    7.57    7.90
  -1  -5  -6    9.90    7.59
   1   5   6   12.73    8.80
  -2  -5  -6    1.03    5.42
   2   5   6    4.08    6.02
  -3  -5  -6    0.44    6.25
   3   5   6    3.58    6.85
  -4  -5  -6    0.00    7.20
   4   5   6    2.30    5.60
   7  -6  -6    0.00    9.61
  -7   6   6    7.42    8.18
   6  -6  -6    0.00   18.26
  -6   6   6    8.57    6.81
   5  -6  -6   24.02   13.52
  -5   6   6   10.93    7.54
   4  -6  -6    0.33   11.42
  -4   6   6    3.81    7.26
   3  -6  -6    7.92    6.99
  -3   6   6   10.69    9.52
   2  -6  -6    9.69    7.00
  -2   6   6   23.23   10.66
   1  -6  -6    3.20    6.68
  -1   6   6    2.95    7.61
   0  -6  -6    3.77    6.54
   0   6   6    9.53    7.29
  -1  -6  -6    3.71    6.38
   1   6   6    8.65    6.54
  -2  -6  -6    4.40    6.82
   2   6   6    7.65    6.08
  -3  -6  -6    1.85    7.66
   3   6   6    7.47    6.36
   6  -7  -6   20.24   19.97
  -6   7   6   13.33    6.78
   5  -7  -6    8.91   12.44
  -5   7   6    9.60    7.50
   4  -7  -6    2.54   12.96
  -4   7   6    4.96    8.78
   3  -7  -6    3.90    7.50
  -3   7   6    0.29   11.45
   2  -7  -6    0.63    7.20
  -2   7   6    4.60    9.22
   1  -7  -6    4.10    6.99
  -1   7   6    9.80    7.64
   0  -7  -6    0.56    7.05
   0   7   6    5.81    8.76
  -1  -7  -6    1.41    7.15
   1   7   6    4.20    6.61
   2  12  -7    7.27    5.65
  -2 -12   7    2.59    8.93
   1  12  -7    5.89    5.09
  -1 -12   7   10.85    8.90
   0  12  -7    6.42    4.35
   0 -12   7    3.76    8.24
  -1  12  -7   15.08    4.91
   1 -12   7    5.14    8.06
  -2  12  -7    7.91    5.02
   2 -12   7   12.50    6.76
  -3  12  -7   11.02    5.10
   3 -12   7   15.11    8.36
  -4  12  -7    1.86   10.67
   4 -12   7   18.71    7.84
   4  11  -7    9.49    4.84
  -4 -11   7    6.99   10.30
   3  11  -7    2.92    4.95
  -3 -11   7    0.00   14.91
   2  11  -7    8.63    5.09
  -2 -11   7    1.75   10.72
   1  11  -7    6.03    4.34
  -1 -11   7    1.33    7.95
   0  11  -7   10.91    5.28
   0 -11   7    9.56    7.99
  -1  11  -7    8.17    4.33
   1 -11   7    6.67    6.76
  -2  11  -7    9.94    4.36
   2 -11   7   21.00    7.04
  -3  11  -7    1.46    5.47
   3 -11   7    9.61    9.03
  -4  11  -7    1.04    7.03
   4 -11   7    8.31    7.91
  -5  11  -7    8.93    5.97
   5 -11   7    9.26    6.78
   5  10  -7    8.49    6.34
  -5 -10   7    3.26   10.54
   4  10  -7   18.54    5.95
  -4 -10   7   15.65    9.74
   3  10  -7    8.61    4.40
  -3 -10   7    0.55    7.89
   2  10  -7    6.06    2.60
  -2 -10   7    2.13    8.99
   1  10  -7   18.33    4.53
  -1 -10   7   20.02    7.78
   0  10  -7    6.87    4.06
   0 -10   7    4.76    6.26
  -1  10  -7    7.17    3.69
   1 -10   7    5.32    6.34
  -2  10  -7   10.57    3.53
   2 -10   7   14.01    6.57
  -3  10  -7    5.32    5.75
   3 -10   7    4.34    8.01
  -4  10  -7    2.94    5.45
   4 -10   7    6.23    7.75
  -5  10  -7   17.35    6.28
   5 -10   7   22.69    6.70
  -6  10  -7   10.06    7.67
   6 -10   7   13.78    7.90
   6   9  -7    1.85    5.68
  -6  -9   7    3.18    6.78
   5   9  -7    2.94    7.31
   4   9  -7   30.72    5.73
  -4  -9   7   15.97    5.94
   3   9  -7   17.49    4.05
  -3  -9   7    3.86    5.84
   2   9  -7    8.99    3.51
  -2  -9   7    0.22    5.58
   1   9  -7   11.15    2.49
  -1  -9   7   15.83    5.69
   0   9  -7   14.88    2.64
   0  -9   7   18.62    7.08
  -1   9  -7   17.62    3.39
   1  -9   7   19.61    6.57
  -2   9  -7    1.69    4.33
   2  -9   7    1.22    6.99
  -3   9  -7    8.70    5.30
   3  -9   7    1.72    5.73
  -4   9  -7    6.18    5.72
   4  -9   7    3.21    5.95
  -5   9  -7   12.08    6.27
   5  -9   7   11.00    6.03
  -6   9  -7   24.31    7.73
   6  -9   7   21.80    8.71
  -7   9  -7    4.44    6.91
   7  -9   7    2.09    7.74
   7   8  -7    8.64    6.11
  -7  -8   7    7.19    6.40
   6   8  -7   18.96    7.36
  -6  -8   7   19.34    7.01
   5   8  -7    4.62    5.26
  -5  -8   7    5.09    6.14
   4   8  -7   19.06    5.26
  -4  -8   7   10.76    5.59
   3   8  -7   24.89    5.71
  -3  -8   7   17.14    6.21
   2   8  -7    7.39    4.17
  -2  -8   7   11.83    6.71
   1   8  -7    6.88    2.96
  -1  -8   7    5.86    6.34
   0   8  -7   78.64    4.10
   0  -8   7  100.88    7.19
  -1   8  -7    0.00    3.18
   1  -8   7    4.50    6.04
  -2   8  -7    8.64    5.01
   2  -8   7   15.72    7.42
  -3   8  -7   51.11    5.77
   3  -8   7   42.45    6.63
  -4   8  -7    6.56    5.68
   4  -8   7    6.28    8.12
  -5   8  -7    7.56    6.53
   5  -8   7    6.72    6.51
  -6   8  -7   34.83    7.45
   6  -8   7   32.45    7.53
  -7   8  -7   10.79    7.00
   7  -8   7    9.81    7.25
   8   7  -7    4.63    5.97
  -8  -7   7   11.99    7.45
   7   7  -7   11.80    7.06
  -7  -7   7   12.39    8.04
   6   7  -7   17.24    5.81
  -6  -7   7   22.17    6.92
   5   7  -7    3.85    4.99
  -5  -7   7    0.00    5.28
   4   7  -7    3.11    5.01
  -4  -7   7    7.69    5.98
   3   7  -7   75.16    5.77
  -3  -7   7   66.38    7.10
   2   7  -7    3.30    2.60
  -2  -7   7    0.00    5.98
   1   7  -7    2.41    2.86
  -1  -7   7    2.15    6.32
   0   7  -7   92.17    4.28
   0  -7   7   82.80    6.64
  -1   7  -7    3.21    2.90
   1  -7   7    7.54    5.26
  -2   7  -7    4.36    4.28
   2  -7   7    3.25    5.79
  -3   7  -7   69.44    6.25
   3  -7   7   61.31    6.54
  -4   7  -7    5.32    5.22
   4  -7   7    2.61    5.20
  -5   7  -7    6.64    5.17
   5  -7   7    6.17    5.14
  -6   7  -7   55.09    8.45
   6  -7   7   54.29    6.54
  -7   7  -7    6.12   12.89
   7  -7   7    9.74    6.14
  -8   7  -7    1.35    8.00
   8  -7   7    7.57    6.28
   8   6  -7    2.57    5.92
  -8  -6   7    6.61    8.14
   7   6  -7    2.07    5.63
  -7  -6   7    2.77    8.08
   6   6  -7   35.01    6.24
  -6  -6   7   37.33    7.05
   5   6  -7    1.00    4.95
  -5  -6   7    8.95    5.62
   4   6  -7    5.13    5.89
  -4  -6   7    5.41    5.33
   3   6  -7   86.70    6.05
  -3  -6   7   72.64    7.19
   2   6  -7    6.31    2.55
  -2  -6   7    1.85    5.81
   1   6  -7    9.97    2.21
  -1  -6   7   16.92    4.47
   0   6  -7   62.18    2.78
   0  -6   7   72.36    6.62
  -1   6  -7   27.11    2.99
   1  -6   7   21.35    5.43
  -2   6  -7   12.05    3.89
   2  -6   7   10.57    5.04
  -3   6  -7   37.35    4.92
   3  -6   7   38.57    5.22
  -4   6  -7   20.51    6.73
   4  -6   7   23.17    5.45
  -5   6  -7   20.33    5.79
   5  -6   7    6.25    7.56
  -6   6  -7   23.24    4.79
   6  -6   7   19.95    5.53
  -7   6  -7   32.22    7.43
   7  -6   7   21.85    5.80
  -8   6  -7    5.16    6.48
   8  -6   7    0.93    6.44
   9   5  -7    2.35    9.80
   8   5  -7    7.04    6.75
  -8  -5   7    9.46    7.92
   7   5  -7    7.78    5.02
  -7  -5   7   10.81    7.00
   6   5  -7   21.97    3.96
  -6  -5   7   11.43    6.89
   5   5  -7    1.85    4.05
  -5  -5   7    8.48    7.02
   4   5  -7   34.19    4.32
  -4  -5   7   38.93    5.47
   3   5  -7   39.42    3.76
  -3  -5   7   42.59    4.87
   2   5  -7   58.46    4.43
  -2  -5   7   57.59    6.13
   1   5  -7    9.95    3.05
  -1  -5   7    8.62    3.96
   0   5  -7    9.79    2.33
   0  -5   7    4.99    4.16
  -1   5  -7  125.68    4.03
   1  -5   7  129.14    7.17
  -2   5  -7    4.91    3.16
   2  -5   7    4.96    5.56
  -3   5  -7    5.47    3.30
   3  -5   7   11.42    6.38
  -4   5  -7   36.22    4.26
   4  -5   7   33.48    4.34
  -5   5  -7    1.94    3.44
   5  -5   7   11.19    4.77
  -6   5  -7    6.62    4.31
   6  -5   7    5.55    4.41
  -7   5  -7   45.09    5.31
   7  -5   7   21.43    8.27
  -8   5  -7    4.47    6.21
   8  -5   7    2.01    7.97
   9   4  -7    3.21    6.72
  -9  -4   7   13.98    5.81
   8   4  -7    8.63    6.31
  -8  -4   7   24.86    8.44
   7   4  -7    3.39    6.02
  -7  -4   7    3.72    7.06
   6   4  -7   12.43    4.49
  -6  -4   7    9.21    7.34
   5   4  -7   85.82    6.33
  -5  -4   7   85.04    8.00
   4   4  -7    3.74    4.41
  -4  -4   7    2.07    5.25
   3   4  -7    9.16    4.23
  -3  -4   7    4.68    4.42
   2   4  -7  131.41    5.89
  -2  -4   7  116.81    8.14
   1   4  -7   10.64    3.26
  -1  -4   7    2.59    3.14
   0   4  -7   35.12    2.95
   0  -4   7   34.51    4.46
  -1   4  -7   80.59    3.65
   1  -4   7   83.74    4.74
  -2   4  -7   17.39    2.28
   2  -4   7   27.56    4.56
  -3   4  -7    2.15    3.14
   3  -4   7    4.09    4.62
  -4   4  -7   16.62    3.58
   4  -4   7   39.83    4.54
  -5   4  -7    4.46    4.93
   5  -4   7    2.25    2.93
  -6   4  -7    4.81    4.64
   6  -4   7    0.00    5.11
  -7   4  -7   18.67    5.22
   7  -4   7   22.84    6.06
  -8   4  -7   20.86    6.59
   8  -4   7    7.64   10.94
   9   3  -7    0.00    6.38
  -9  -3   7   11.82   10.46
   8   3  -7   20.81    6.53
  -8  -3   7   15.29    6.82
   7   3  -7    1.11    7.77
  -7  -3   7   10.86    9.13
   6   3  -7   10.27    6.95
  -6  -3   7    6.32    8.33
   5   3  -7   53.92    9.35
  -5  -3   7   40.61    8.74
   4   3  -7   17.85    5.51
  -4  -3   7   12.79    6.24
   3   3  -7   12.18    3.68
  -3  -3   7    9.79    4.25
   2   3  -7  130.14    6.28
  -2  -3   7  107.78    4.75
   1   3  -7  125.93    5.71
  -1  -3   7  116.28    5.07
   0   3  -7   11.27    2.36
   0  -3   7   14.52    2.76
  -1   3  -7   33.84    2.56
   1  -3   7   39.76    4.21
  -2   3  -7   76.66    5.08
   2  -3   7  104.33    6.16
  -3   3  -7    1.82    6.92
   3  -3   7   12.37    5.34
  -4   3  -7   17.48    8.41
   4  -3   7   26.02    6.04
  -5   3  -7   34.28    4.95
   5  -3   7   36.67    3.92
  -6   3  -7   18.12    6.41
   6  -3   7    4.69    4.14
  -7   3  -7   17.66    6.34
   7  -3   7   13.94    7.19
  -8   3  -7   32.96    7.84
   8  -3   7   13.47    9.28
   9   2  -7    1.50    8.76
  -9  -2   7   24.53    6.79
   8   2  -7   11.61    8.14
  -8  -2   7    4.08    8.13
   7   2  -7   23.29    7.42
  -7  -2   7    3.93    6.80
   6   2  -7   27.22    8.08
  -6  -2   7    0.49    7.69
   5   2  -7   12.51    6.20
  -5  -2   7    6.92    7.06
   4   2  -7   60.63    6.03
  -4  -2   7   68.55    5.50
   3   2  -7   14.22    4.40
  -3  -2   7   18.93    4.16
   2   2  -7   15.19    3.78
  -2  -2   7   18.37    2.60
   1   2  -7  138.52    5.89
  -1  -2   7  133.50    4.95
   0   2  -7   12.56    3.38
   0  -2   7    1.07    3.82
  -1   2  -7   16.36   11.48
   1  -2   7    8.31    4.68
  -2   2  -7  126.06    7.62
   2  -2   7  147.59    8.75
  -3   2  -7    0.57    7.51
   3  -2   7   17.74    6.31
  -4   2  -7    4.14    6.48
   4  -2   7    2.17    3.71
  -5   2  -7   34.69    5.14
   5  -2   7   51.66    5.06
  -6   2  -7    4.55    3.72
   6  -2   7    1.82    3.69
  -7   2  -7    4.79    5.93
   7  -2   7    8.03    7.35
   9   1  -7    0.00    8.62
  -9  -1   7   16.04    7.90
   8   1  -7    4.63    6.19
  -8  -1   7    5.60    7.41
   7   1  -7   33.58    6.31
  -7  -1   7   31.43    5.59
   6   1  -7    5.25    6.43
  -6  -1   7    1.64    6.20
   5   1  -7   18.86    6.11
  -5  -1   7    4.74    7.06
   4   1  -7   72.82    6.82
  -4  -1   7   71.55    5.94
   3   1  -7   11.66    4.69
  -3  -1   7    4.08    4.72
   2   1  -7    4.85    4.01
  -2  -1   7    3.94    3.73
   1   1  -7   97.89    6.26
  -1  -1   7  104.37    6.63
   0   1  -7    4.84    5.11
   0  -1   7    6.86    5.14
  -1   1  -7   10.41    5.60
   1  -1   7    4.05    5.79
  -2   1  -7   75.82    8.14
   2  -1   7   95.43    9.31
  -3   1  -7   11.12    6.72
   3  -1   7    0.77    4.08
  -4   1  -7    4.68    4.97
   4  -1   7    1.66    5.24
  -5   1  -7   21.15    5.18
   5  -1   7   36.02    4.99
  -6   1  -7    5.58    5.35
   6  -1   7    7.91    7.01
  -7   1  -7    7.24    6.48
   7  -1   7   11.72    6.68
   9   0  -7    2.79    6.66
  -9   0   7   17.16    9.82
   8   0  -7    0.83    7.14
  -8   0   7   11.86    7.29
   7   0  -7   11.06    5.95
  -7   0   7   19.26    5.92
   6   0  -7    8.16    5.88
  -6   0   7    1.65    6.41
   5   0  -7    9.25    6.16
  -5   0   7    7.75    7.26
   4   0  -7   63.00    7.43
  -4   0   7   65.80    7.67
   3   0  -7    6.45    5.36
  -3   0   7    2.49    5.72
   2   0  -7   15.44    4.52
  -2   0   7    8.85    3.98
   1   0  -7   26.06    4.47
  -1   0   7   27.08    3.46
   0   0  -7   19.62    7.03
   0   0   7   19.59    2.70
  -1   0  -7   11.09    5.47
   1   0   7   16.64    5.39
  -2   0  -7   27.07    5.89
   2   0   7   25.47    4.95
  -3   0  -7   16.41    6.95
   3   0   7   21.62    6.69
  -4   0  -7    1.59    5.25
   4   0   7    8.95    5.63
  -5   0  -7   10.69    5.77
   5   0   7    8.50    6.08
  -6   0  -7    9.22    7.60
   6   0   7    9.17    7.38
  -7   0  -7    2.86    8.17
   7   0   7    6.08    6.72
   9  -1  -7   36.00   11.73
  -9   1   7   38.56    9.48
   8  -1  -7    5.50    9.98
  -8   1   7    8.36   12.22
   7  -1  -7   11.11    9.48
  -7   1   7   14.80    7.34
   6  -1  -7    5.80    6.61
  -6   1   7    4.32    8.12
   5  -1  -7    5.36    7.00
  -5   1   7    6.11    8.36
   4  -1  -7   22.70    6.48
  -4   1   7   29.98    9.83
   3  -1  -7   67.47    6.74
  -3   1   7   57.46    8.75
   2  -1  -7    1.13    5.41
  -2   1   7    3.03    4.75
   1  -1  -7    5.07    7.23
  -1   1   7    5.97    3.84
   0  -1  -7   76.76    5.88
   0   1   7   71.78    4.45
  -1  -1  -7    3.64    6.22
   1   1   7    0.33    6.41
  -2  -1  -7    7.39    5.99
   2   1   7    9.30    5.51
  -3  -1  -7    5.51    5.71
   3   1   7    5.76    7.76
  -4  -1  -7    2.23    6.07
   4   1   7    4.70    7.66
  -5  -1  -7    0.21    5.09
   5   1   7    4.26    6.84
  -6  -1  -7   11.51    7.48
   6   1   7    9.29    7.04
   9  -2  -7    7.33   11.47
  -9   2   7   31.56   19.01
   8  -2  -7    3.99   12.65
  -8   2   7   22.40   12.97
   7  -2  -7    2.33    7.70
  -7   2   7   13.11    8.74
   6  -2  -7    5.25    6.27
  -6   2   7   15.31    7.49
   5  -2  -7    2.55    6.26
  -5   2   7    6.60    7.93
   4  -2  -7    5.48    6.63
  -4   2   7   10.84    9.63
   3  -2  -7   52.34    6.76
  -3   2   7   59.10   12.66
   2  -2  -7    1.35    7.00
  -2   2   7    2.08    6.90
   1  -2  -7    1.13    8.27
  -1   2   7    2.30    4.43
   0  -2  -7   63.78    6.89
   0   2   7   48.29    4.78
  -1  -2  -7   14.80    6.96
   1   2   7    9.68    3.76
  -2  -2  -7    1.02    5.65
   2   2   7    2.32    7.41
  -3  -2  -7    7.19    5.51
   3   2   7   12.06    7.67
  -4  -2  -7    5.27    6.20
   4   2   7    2.56    8.66
  -5  -2  -7    4.52    7.85
   5   2   7    8.43    7.99
  -6  -2  -7   14.21    5.93
   6   2   7   16.31    8.57
   9  -3  -7   16.56    8.76
  -9   3   7   30.91    8.43
   8  -3  -7    4.83    9.48
  -8   3   7   10.32    9.39
   7  -3  -7   11.49    7.48
  -7   3   7    9.49    8.23
   6  -3  -7    5.47    6.35
  -6   3   7    5.61    7.75
   5  -3  -7    9.50    7.85
  -5   3   7   14.90    7.55
   4  -3  -7    2.14    7.57
  -4   3   7   15.83   11.90
   3  -3  -7   10.81    8.35
  -3   3   7   16.09   13.08
   2  -3  -7   10.38   10.86
  -2   3   7    9.27    9.07
   1  -3  -7    4.20    6.15
  -1   3   7   12.07    7.96
   0  -3  -7   10.67    6.28
   0   3   7    8.08    5.67
  -1  -3  -7   15.32    7.12
   1   3   7    9.21    5.16
  -2  -3  -7   11.34    5.79
   2   3   7    7.13    4.66
  -3  -3  -7    5.92    6.13
   3   3   7    2.73    5.10
  -4  -3  -7    9.63    7.44
   4   3   7    7.25    8.36
  -5  -3  -7    4.12    6.44
   5   3   7   10.33   11.42
   8  -4  -7   20.33    8.27
  -8   4   7   19.06    9.13
   7  -4  -7   12.72    9.52
  -7   4   7   16.57   11.97
   6  -4  -7    5.51    7.55
  -6   4   7    9.89    8.52
   5  -4  -7   22.07    7.73
  -5   4   7   14.64   12.73
   4  -4  -7    5.38    6.68
  -4   4   7    0.00   12.69
   3  -4  -7    0.00   10.28
  -3   4   7    5.98   10.47
   2  -4  -7   25.01    6.68
  -2   4   7   24.97    8.05
   1  -4  -7    8.33    6.52
  -1   4   7    3.76    7.73
   0  -4  -7    3.06    5.96
   0   4   7    3.24    7.64
  -1  -4  -7   10.78    6.14
   1   4   7   15.35    5.15
  -2  -4  -7    5.08    6.20
   2   4   7    6.23    5.92
  -3  -4  -7    0.00    7.27
   3   4   7    1.92    6.16
  -4  -4  -7    5.64    7.44
   4   4   7    0.28    9.09
   7  -5  -7   10.59    8.38
  -7   5   7   10.45    9.14
   6  -5  -7    8.04    7.81
  -6   5   7    1.43    8.93
   5  -5  -7    6.30    8.88
  -5   5   7   13.03    8.82
   4  -5  -7   15.98   11.58
  -4   5   7    4.91    8.20
   3  -5  -7    5.26    9.04
  -3   5   7    6.99    9.26
   2  -5  -7   19.31    7.39
  -2   5   7    8.64    7.66
   1  -5  -7    2.32    6.62
  -1   5   7    5.82    9.01
   0  -5  -7    0.26    6.62
   0   5   7    1.46    9.39
  -1  -5  -7   13.46    7.37
   1   5   7   15.14    7.24
  -2  -5  -7    5.56    6.58
   2   5   7   10.27    7.04
  -3  -5  -7    2.98    6.80
   3   5   7    3.41    5.71
   6  -6  -7    5.56    9.51
  -6   6   7    5.05    6.97
   5  -6  -7   16.75   13.44
  -5   6   7    9.13    8.38
   4  -6  -7    0.00    9.77
  -4   6   7    0.00   13.51
   3  -6  -7    0.00    8.26
  -3   6   7    6.33   10.29
   2  -6  -7   10.23    7.40
  -2   6   7   27.94   15.92
   1  -6  -7   10.62    7.05
  -1   6   7    5.48    9.02
   0  -6  -7    3.85    6.63
   0   6   7    6.24    7.96
  -1  -6  -7    0.08    7.04
   1   6   7    5.82    6.71
   3  -7  -7   20.28    8.54
  -3   7   7   16.91    9.53
   2  -7  -7    7.27    7.80
  -2   7   7    3.88    9.23
   1  12  -8    9.29    5.10
  -1 -12   8    7.68    8.52
   0  12  -8    8.35    4.94
   0 -12   8    3.42    9.27
  -1  12  -8    5.08    4.80
   1 -12   8    2.92    6.80
  -2  12  -8    7.89    4.88
   2 -12   8    8.89    7.26
  -3  12  -8    0.00   10.84
   3 -12   8    0.00    9.40
   3  11  -8   12.90    4.13
  -3 -11   8    2.75   10.45
   2  11  -8    2.84    4.90
  -2 -11   8    2.83    8.38
   1  11  -8   17.13    5.58
  -1 -11   8   11.28    8.14
   0  11  -8    2.59    5.11
   0 -11   8    4.19    6.63
  -1  11  -8    1.23    3.90
   1 -11   8    2.71    6.71
  -2  11  -8   20.66    5.58
   2 -11   8   10.76    9.07
  -3  11  -8    1.84    6.61
   3 -11   8    3.33    7.61
  -4  11  -8    3.15    5.50
   4 -11   8    0.32    7.90
  -5  11  -8   16.32    6.45
   5 -11   8   11.42    6.75
   5  10  -8    9.19    5.93
  -5 -10   8    6.34   10.30
   4  10  -8   15.41    6.02
  -4 -10   8    3.05    5.83
   3  10  -8   12.89    8.87
  -3 -10   8    3.29    6.71
   2  10  -8   10.59    4.00
  -2 -10   8    2.78    6.79
   1  10  -8    9.88    2.97
  -1 -10   8   12.37    6.54
   0  10  -8    4.98    2.59
   0 -10   8   11.23    6.75
  -1  10  -8    5.18    2.70
   1 -10   8   11.72    6.87
  -2  10  -8   11.39    5.90
   2 -10   8    8.20    7.67
  -3  10  -8   14.77    5.53
   3 -10   8    2.93    7.33
  -4  10  -8    3.75    5.74
   4 -10   8    1.47    6.91
  -5  10  -8    5.01    6.21
   5 -10   8   14.04    7.56
  -6  10  -8   11.11    7.24
   6 -10   8   16.40    7.81
   6   9  -8    5.48    5.81
  -6  -9   8    2.79    6.27
   5   9  -8    3.99    6.01
  -5  -9   8    3.62    5.91
   4   9  -8   10.44    5.71
  -4  -9   8    3.28    6.14
   3   9  -8   27.13    5.34
  -3  -9   8   24.52    6.70
   2   9  -8    4.67    3.67
  -2  -9   8    1.92    6.48
   1   9  -8    3.28    3.29
  -1  -9   8    7.98    6.02
   0   9  -8   33.51    2.95
   0  -9   8   39.89    6.09
  -1   9  -8    3.85    3.12
   1  -9   8    2.19    5.93
  -2   9  -8    1.95    4.87
   2  -9   8    1.98    6.79
  -3   9  -8   16.86    5.80
   3  -9   8   13.15    6.76
  -4   9  -8    4.43    6.04
   4  -9   8    6.19    5.88
  -5   9  -8    2.70    6.63
   5  -9   8    1.83    7.11
  -6   9  -8   43.43    9.49
   6  -9   8   28.70    7.42
   7   8  -8    4.33    6.18
  -7  -8   8    4.09    7.23
   6   8  -8   22.50    6.17
  -6  -8   8   21.69    7.24
   5   8  -8    2.25    5.33
  -5  -8   8    3.61    5.82
   4   8  -8    4.66    5.00
  -4  -8   8    2.81    5.70
   3   8  -8   49.34    6.03
  -3  -8   8   49.97    7.11
   2   8  -8    3.06    2.68
  -2  -8   8    8.87    6.45
   1   8  -8    2.49    3.03
  -1  -8   8    6.02    6.74
   0   8  -8   47.68    3.17
   0  -8   8   52.04    6.44
  -1   8  -8    4.99    3.19
   1  -8   8    4.15    6.71
  -2   8  -8    8.08    4.04
   2  -8   8    3.83    6.03
  -3   8  -8   57.23    6.29
   3  -8   8   60.26    6.68
  -4   8  -8    2.93    5.26
   4  -8   8    4.65    5.78
  -5   8  -8    3.74    8.62
   5  -8   8    3.61    6.32
  -6   8  -8   38.61    7.40
   6  -8   8   21.67    6.34
  -7   8  -8   11.68    8.34
   7  -8   8   15.04    6.40
   7   7  -8    7.96    6.68
  -7  -7   8    2.64    7.12
   6   7  -8   17.77    6.11
  -6  -7   8   25.46    6.78
   5   7  -8    0.48    4.80
  -5  -7   8    6.36    5.90
   4   7  -8    5.58    5.31
  -4  -7   8    8.12    5.90
   3   7  -8   51.70    5.46
  -3  -7   8   42.72    6.78
   2   7  -8   17.04    3.35
  -2  -7   8    8.04    6.85
   1   7  -8    5.96    3.82
  -1  -7   8    9.27    5.92
   0   7  -8   23.98    3.59
   0  -7   8   30.91    6.86
  -1   7  -8    4.28    3.34
   1  -7   8    6.70    9.45
  -2   7  -8   15.63    3.97
   2  -7   8    8.52    5.58
  -3   7  -8   31.52    5.15
   3  -7   8   20.10    5.07
  -4   7  -8   12.85    8.96
   4  -7   8   21.18    5.19
  -5   7  -8   11.90    6.24
   5  -7   8    4.50    4.51
  -6   7  -8   24.03    7.06
   6  -7   8   22.80    5.10
  -7   7  -8   22.37    6.77
   7  -7   8   23.64    5.50
   8   6  -8    2.47    6.51
  -8  -6   8   10.69    7.67
   7   6  -8    1.90    6.38
  -7  -6   8    0.53    7.15
   6   6  -8   15.11    5.72
  -6  -6   8   14.66    5.94
   5   6  -8   11.20    5.12
  -5  -6   8   17.59    5.98
   4   6  -8   14.80    5.09
  -4  -6   8   14.73    6.50
   3   6  -8   26.60    3.79
  -3  -6   8   20.75    6.51
   2   6  -8   36.07    3.37
  -2  -6   8   35.80    6.48
   1   6  -8    5.09    2.89
  -1  -6   8    8.00    4.57
   0   6  -8    4.81    2.78
   0  -6   8    7.65    4.87
  -1   6  -8   35.12    3.43
   1  -6   8   29.98    9.95
  -2   6  -8    8.95    3.99
   2  -6   8   13.20    8.80
  -3   6  -8    3.49    4.54
   3  -6   8   18.39   12.03
  -4   6  -8   35.36    5.53
   4  -6   8   38.96    9.11
  -5   6  -8    5.90    5.44
   5  -6   8    1.06    3.26
  -6   6  -8   19.55    5.08
   6  -6   8    7.40    4.04
  -7   6  -8   31.62    6.91
   7  -6   8   71.79   13.68
   8   5  -8    8.98    6.26
  -8  -5   8   21.70    7.84
   7   5  -8    4.61    4.59
  -7  -5   8    8.49    7.53
   6   5  -8    0.61    3.99
  -6  -5   8    6.81    5.28
   5   5  -8   12.19    4.32
  -5  -5   8   19.03    5.92
   4   5  -8   18.49    5.63
  -4  -5   8   15.04    5.25
   3   5  -8   10.23    4.56
  -3  -5   8    4.21    6.05
   2   5  -8   89.68    5.04
  -2  -5   8   80.78    6.56
   1   5  -8    3.08    3.90
  -1  -5   8    7.41    3.84
   0   5  -8    7.90    3.18
   0  -5   8   14.96    4.98
  -1   5  -8   36.00    3.79
   1  -5   8   66.05    5.32
  -2   5  -8    3.84    2.49
   2  -5   8    9.37    7.02
  -3   5  -8    4.98    3.33
   3  -5   8    5.04    7.88
  -4   5  -8   11.85    3.47
   4  -5   8    7.05    7.86
  -5   5  -8   14.23    5.21
   5  -5   8    4.72    6.65
  -6   5  -8    7.11    4.32
   6  -5   8    6.35    3.51
  -7   5  -8   32.65    7.61
   7  -5   8   20.70    5.91
   9   4  -8    3.53    7.37
  -9  -4   8    8.64    9.07
   8   4  -8    3.04    8.41
  -8  -4   8   27.16    8.56
   7   4  -8    1.62    5.78
  -7  -4   8    6.28    7.26
   6   4  -8    7.08    6.15
  -6  -4   8    5.52    7.11
   5   4  -8   75.77    7.09
  -5  -4   8   73.99    6.11
   4   4  -8   21.17    5.96
  -4  -4   8   19.87    5.26
   3   4  -8   13.23    4.55
  -3  -4   8    9.63    3.69
   2   4  -8   84.02    5.58
  -2  -4   8   74.30    6.18
   1   4  -8   58.32    4.12
  -1  -4   8   69.17    5.88
   0   4  -8   27.58    2.98
   0  -4   8   31.23    6.43
  -1   4  -8    7.40    3.25
   1  -4   8    8.83    3.89
  -2   4  -8   24.34    2.61
   2  -4   8   29.02    4.75
  -3   4  -8    2.26    2.07
   3  -4   8   14.46    5.66
  -4   4  -8    5.11    3.00
   4  -4   8   10.78    3.87
  -5   4  -8   15.82    2.58
   5  -4   8   22.28    6.59
  -6   4  -8   10.31    3.09
   6  -4   8    1.20    2.31
  -7   4  -8   23.17    6.49
   7  -4   8    3.13    6.37
   9   3  -8    0.00   11.27
  -9  -3   8    8.59   13.21
   8   3  -8    6.19   10.35
  -8  -3   8   20.15   26.71
   7   3  -8    5.04    7.96
  -7  -3   8   15.75    6.94
   6   3  -8   24.21    7.77
  -6  -3   8   31.10    9.49
   5   3  -8    8.30    5.48
  -5  -3   8    6.35    5.61
   4   3  -8   45.71    7.04
  -4  -3   8   63.99    5.52
   3   3  -8   16.54    4.76
  -3  -3   8   16.78    3.83
   2   3  -8   21.64    4.98
  -2  -3   8   19.84    3.70
   1   3  -8  161.51    7.31
  -1  -3   8  153.76    8.58
   0   3  -8    1.56    3.93
   0  -3   8    1.35    3.46
  -1   3  -8   10.92    5.86
   1  -3   8    1.64    4.39
  -2   3  -8   88.85    8.94
   2  -3   8   68.17    7.10
  -3   3  -8    1.56    5.93
   3  -3   8    8.91    6.06
  -4   3  -8    4.58    5.81
   4  -3   8    4.58    4.68
  -5   3  -8   24.42    5.04
   5  -3   8   48.40    5.94
  -6   3  -8    8.97    5.23
   6  -3   8    6.83    3.75
  -7   3  -8   11.45    5.53
   7  -3   8    0.76    6.42
   9   2  -8    0.00   11.99
  -9  -2   8    7.82   25.91
   8   2  -8    1.06    9.59
  -8  -2   8    2.89   22.61
   7   2  -8   33.96    7.14
  -7  -2   8   41.34   11.25
   6   2  -8    6.40    5.94
  -6  -2   8    3.83    5.32
   5   2  -8    8.32    5.71
  -5  -2   8    9.63    6.73
   4   2  -8   77.00    7.52
  -4  -2   8   72.31    5.88
   3   2  -8   12.70    6.72
  -3  -2   8    8.79    3.81
   2   2  -8   12.61    6.87
  -2  -2   8    3.37    3.26
   1   2  -8   85.67    8.41
  -1  -2   8   84.52    6.59
   0   2  -8   16.72    4.86
   0  -2   8   13.67    6.62
  -1   2  -8   18.78   24.46
   1  -2   8    2.73    7.45
  -2   2  -8   38.12   11.97
   2  -2   8   40.26    8.73
  -3   2  -8    2.98    5.11
   3  -2   8    3.39    7.58
  -4   2  -8    0.27    4.77
   4  -2   8    6.25    5.08
  -5   2  -8   16.18    5.02
   5  -2   8   29.19    3.90
  -6   2  -8   12.57    7.06
   6  -2   8    7.81    6.08
  -7   2  -8   11.44    6.70
   7  -2   8    6.00    6.98
   9   1  -8    5.05    6.65
  -9  -1   8   13.01    6.32
   8   1  -8    3.78    5.64
  -8  -1   8    4.03    5.21
   7   1  -8   33.70    6.44
  -7  -1   8   34.83    6.64
   6   1  -8    2.38    5.22
  -6  -1   8    3.29    5.55
   5   1  -8   13.52    6.75
  -5  -1   8    4.45    8.72
   4   1  -8  107.61   12.30
  -4  -1   8   47.08    5.86
   3   1  -8    2.59    7.75
  -3  -1   8    0.00    7.63
   2   1  -8   16.50    7.56
  -2  -1   8   10.55    5.73
   1   1  -8   14.56    5.17
  -1  -1   8   11.84    5.28
   0   1  -8   49.97    7.54
   0  -1   8   42.18    8.14
  -1   1  -8    4.40    4.72
   1  -1   8    3.15    4.86
  -2   1  -8   21.92    6.69
   2  -1   8   24.71    5.84
  -3   1  -8   14.58    6.00
   3  -1   8    2.65    7.85
  -4   1  -8    4.19    5.27
   4  -1   8    6.17    4.35
  -5   1  -8    4.75    5.98
   5  -1   8   19.50    6.65
  -6   1  -8   31.86    8.83
   6  -1   8   24.79    6.80
   9   0  -8    6.04    6.56
  -9   0   8   21.98    8.27
   8   0  -8    3.64    7.82
  -8   0   8    9.14    7.80
   7   0  -8    3.75    5.84
  -7   0   8   11.24    7.23
   6   0  -8    4.41    5.82
  -6   0   8    5.36    6.96
   5   0  -8    4.04    6.64
  -5   0   8    6.39    8.17
   4   0  -8   11.64    7.74
  -4   0   8   16.97    8.44
   3   0  -8   12.18    5.68
  -3   0   8   28.88   10.19
   2   0  -8   11.86    5.18
  -2   0   8   13.09    4.10
   1   0  -8    4.38    4.79
  -1   0   8    0.51    3.43
   0   0  -8   69.83    5.42
   0   0   8   69.34    5.12
  -1   0  -8    4.06    6.81
   1   0   8    7.24    5.92
  -2   0  -8    8.81    6.55
   2   0   8    2.09    7.67
  -3   0  -8   23.89   10.12
   3   0   8   10.91    7.85
  -4   0  -8    2.88    7.23
   4   0   8    1.29    5.74
  -5   0  -8   12.34   11.24
   5   0   8    5.52    7.54
  -6   0  -8   14.88    8.55
   6   0   8   16.87    7.03
   9  -1  -8    7.01   10.31
  -9   1   8   23.51    8.90
   8  -1  -8    1.97    8.08
  -8   1   8    8.92    7.53
   7  -1  -8    3.94    6.47
  -7   1   8   15.09    7.12
   6  -1  -8    6.32    6.04
  -6   1   8    2.30    8.51
   5  -1  -8    4.06    5.62
  -5   1   8    7.90    9.10
   4  -1  -8    4.69    5.88
  -4   1   8    0.68   13.45
   3  -1  -8   41.19    7.07
  -3   1   8   43.57    8.19
   2  -1  -8    4.09    5.59
  -2   1   8    3.55    5.36
   1  -1  -8    0.72    8.04
  -1   1   8    1.08    5.55
   0  -1  -8   54.05    6.07
   0   1   8   43.19    3.97
  -1  -1  -8   16.20    6.49
   1   1   8   14.41    5.88
  -2  -1  -8    1.01    5.66
   2   1   8    1.61    8.14
  -3  -1  -8    7.27    8.59
   3   1   8    2.65    7.82
  -4  -1  -8    3.50    6.54
   4   1   8    6.80    8.63
  -5  -1  -8    3.76    5.71
   5   1   8    7.60    6.33
   8  -2  -8    5.19    8.59
  -8   2   8    2.17    7.36
   7  -2  -8    2.58    7.06
  -7   2   8    3.73    8.84
   6  -2  -8    1.22    6.17
  -6   2   8    5.68    9.41
   5  -2  -8    0.65    5.18
  -5   2   8    2.39   10.78
   4  -2  -8    7.49    6.22
  -4   2   8    5.96   17.62
   3  -2  -8   10.05    5.71
  -3   2   8   26.43   10.00
   2  -2  -8    7.02   10.42
  -2   2   8    5.15    7.97
   1  -2  -8    0.77    5.64
  -1   2   8    2.79    4.34
   0  -2  -8    8.52    5.44
   0   2   8    5.94    4.65
  -1  -2  -8   28.33    6.29
   1   2   8   25.95    3.31
  -2  -2  -8    2.35    6.44
   2   2   8    1.22    8.11
  -3  -2  -8    2.73    5.55
   3   2   8   16.95    8.47
  -4  -2  -8    8.46    6.14
   4   2   8    7.96    8.80
  -5  -2  -8    0.81    5.40
   5   2   8    3.49    6.89
   8  -3  -8    2.09    8.11
  -8   3   8    6.93    8.67
   7  -3  -8    6.45    7.93
  -7   3   8   20.02   14.19
   6  -3  -8   16.09    8.54
  -6   3   8   13.29   16.74
   5  -3  -8   11.46    7.27
  -5   3   8    7.54   18.23
   4  -3  -8    8.33    6.46
  -4   3   8   12.98   13.12
   3  -3  -8    1.22   10.74
  -3   3   8    5.45    7.90
   2  -3  -8   18.48    8.55
  -2   3   8   17.55    8.10
   1  -3  -8    1.82    6.57
  -1   3   8    1.79    7.69
   0  -3  -8    5.45    5.76
   0   3   8   10.40    7.59
  -1  -3  -8   17.39    6.90
   1   3   8   19.28    7.03
  -2  -3  -8    3.75    7.44
   2   3   8    0.56    4.13
  -3  -3  -8    3.67    7.22
   3   3   8    0.00    7.98
  -4  -3  -8    8.66    7.93
   4   3   8   11.94    9.45
   7  -4  -8   12.51    9.57
  -7   4   8    0.00   12.95
   6  -4  -8    5.29    6.38
  -6   4   8    0.00   23.48
   5  -4  -8   13.44    6.88
  -5   4   8   15.81   10.94
   4  -4  -8    3.38    6.63
  -4   4   8    5.21   14.65
   3  -4  -8    2.19   10.74
  -3   4   8    9.52    8.27
   2  -4  -8   16.25    7.46
  -2   4   8   13.01    8.24
   1  -4  -8    1.71    7.39
  -1   4   8    0.73    8.80
   0  -4  -8    0.00    7.29
   0   4   8    8.75    8.00
  -1  -4  -8    4.19    7.29
   1   4   8   21.92    8.62
  -2  -4  -8   11.73    7.39
   2   4   8    2.92    6.91
   6  -5  -8    6.49    7.31
  -6   5   8    7.40    9.24
   5  -5  -8    4.55   11.91
  -5   5   8    7.85    9.35
   4  -5  -8   10.19   12.42
  -4   5   8   15.63   14.72
   3  -5  -8    8.38    7.81
  -3   5   8    8.08    9.26
   2  -5  -8    8.90    7.03
  -2   5   8    0.60    7.82
   1  -5  -8    7.88    7.63
  -1   5   8    4.35   10.24
   0  -5  -8    0.00    8.44
   0   5   8    6.40    8.50
  -1  -5  -8   13.91    6.50
   1   5   8   13.54    5.99
   3  -6  -8    7.59    9.83
  -3   6   8    5.48    9.09
   2  -6  -8   10.92    7.76
  -2   6   8    6.66    8.61
   0  12  -9    8.40    5.39
   0 -12   9   14.72    7.13
  -1  12  -9   11.47    6.02
   1 -12   9    2.60    7.50
  -2  12  -9   20.71    6.74
   2 -12   9    2.26    8.21
   3  11  -9   12.44    4.21
  -3 -11   9    0.73    8.85
   2  11  -9    5.92    4.88
  -2 -11   9    1.00    9.10
   1  11  -9    8.02    3.50
  -1 -11   9   15.69    9.29
   0  11  -9    9.75    3.03
   0 -11   9    1.20    6.76
  -1  11  -9    3.99    4.12
   1 -11   9    4.97    6.69
  -2  11  -9   10.98    3.85
   2 -11   9    1.73    7.86
  -3  11  -9    9.11    5.34
   3 -11   9   14.23    9.79
  -4  11  -9   12.27    6.01
   4 -11   9    6.70    7.41
   4  10  -9   12.43    5.51
  -4 -10   9    1.70    6.47
   3  10  -9   16.23    5.50
  -3 -10   9   13.40    7.07
   2  10  -9   10.44    4.09
  -2 -10   9    2.26    6.92
   1  10  -9    4.03    3.23
  -1 -10   9   14.11    7.02
   0  10  -9   16.37    3.14
   0 -10   9   25.21    7.21
  -1  10  -9    6.82    3.82
   1 -10   9    9.10    7.31
  -2  10  -9    6.83    4.50
   2 -10   9    3.33    7.61
  -3  10  -9   10.06    5.88
   3 -10   9   11.25    7.70
  -4  10  -9    7.96    6.20
   4 -10   9    0.16    7.81
  -5  10  -9    8.07    7.18
   5 -10   9    0.00    7.63
   5   9  -9    8.57    5.35
  -5  -9   9    5.47    6.29
   4   9  -9   11.36    5.34
  -4  -9   9    0.33    7.82
   3   9  -9   36.57    5.17
  -3  -9   9   28.03    7.42
   2   9  -9    7.88    4.24
  -2  -9   9    4.59    7.39
   1   9  -9    1.54    2.98
  -1  -9   9    7.46    7.33
   0   9  -9   37.39    2.98
   0  -9   9   41.83    7.09
  -1   9  -9    3.96    3.06
   1  -9   9    3.94    6.39
  -2   9  -9    6.46    3.73
   2  -9   9    2.01    6.50
  -3   9  -9   15.04    5.89
   3  -9   9   17.74    6.52
  -4   9  -9    4.14    5.83
   4  -9   9    0.00    7.00
  -5   9  -9    8.79    7.02
   5  -9   9    4.36    6.55
  -6   9  -9   26.51    6.56
   6  -9   9    8.80    5.61
   6   8  -9   22.61    6.08
  -6  -8   9   16.05    6.27
   5   8  -9    4.26    5.32
  -5  -8   9    0.00    8.22
   4   8  -9   13.27    5.07
  -4  -8   9   11.24    6.24
   3   8  -9   21.49    4.58
  -3  -8   9   10.88    6.46
   2   8  -9    9.49    3.65
  -2  -8   9    3.76    6.20
   1   8  -9    6.43    3.17
  -1  -8   9    2.06    6.18
   0   8  -9   18.87    3.59
   0  -8   9   20.06    6.18
  -1   8  -9   17.76    2.83
   1  -8   9    5.99    8.06
  -2   8  -9    6.42    3.36
   2  -8   9    4.39    8.53
  -3   8  -9   29.05    5.75
   3  -8   9   25.06    5.10
  -4   8  -9   18.92    7.58
   4  -8   9    1.61    4.52
  -5   8  -9   13.63    6.13
   5  -8   9    0.17    4.52
  -6   8  -9    9.38    6.04
   6  -8   9    0.00    4.81
   7   7  -9    8.80    7.35
  -7  -7   9    7.84    7.65
   6   7  -9   13.58    6.07
  -6  -7   9    2.99    6.57
   5   7  -9   10.67    5.31
  -5  -7   9   14.19    6.37
   4   7  -9    6.43    5.27
  -4  -7   9    4.89    6.24
   3   7  -9    3.05    3.96
  -3  -7   9   11.94    6.37
   2   7  -9   21.56    3.47
  -2  -7   9   25.16    6.94
   1   7  -9    1.65    3.22
  -1  -7   9   10.41    4.86
   0   7  -9    8.41    3.32
   0  -7   9    3.81    8.64
  -1   7  -9   18.27    3.46
   1  -7   9   22.14    8.79
  -2   7  -9    9.23    3.81
   2  -7   9    7.77    9.97
  -3   7  -9    9.84    4.32
   3  -7   9   16.30   14.87
  -4   7  -9   22.29    6.36
   4  -7   9   27.63   15.35
  -5   7  -9   11.28    5.67
   5  -7   9    6.13    8.67
  -6   7  -9    7.62    5.93
   6  -7   9    4.89    9.97
   7   6  -9    0.00    6.10
  -7  -6   9    7.51    7.76
   6   6  -9    0.39    4.16
  -6  -6   9    7.31    6.10
   5   6  -9   14.51    5.19
  -5  -6   9   28.67    5.30
   4   6  -9    2.06    4.36
  -4  -6   9    8.94    6.11
   3   6  -9    8.37    4.17
  -3  -6   9    0.78    5.83
   2   6  -9   20.67    5.16
  -2  -6   9   23.32    6.31
   1   6  -9    4.31    4.05
  -1  -6   9    7.30    4.28
   0   6  -9    3.80    4.56
   0  -6   9    6.14    5.22
  -1   6  -9   37.90    6.08
   1  -6   9   36.40   12.24
  -2   6  -9    2.54    3.13
   2  -6   9    0.32   10.89
  -3   6  -9    2.27    2.93
   3  -6   9   12.75    6.81
  -4   6  -9   19.67    4.03
   4  -6   9   28.89    8.03
  -5   6  -9   12.35    5.43
   5  -6   9    6.39   16.39
  -6   6  -9   13.97    6.98
   6  -6   9   24.08   18.02
   8   5  -9   15.02    6.65
  -8  -5   9   26.03    8.34
   7   5  -9    0.95    5.95
  -7  -5   9   10.85    7.46
   6   5  -9    4.91    5.49
  -6  -5   9    9.57    6.20
   5   5  -9   20.34    5.04
  -5  -5   9   18.66    4.91
   4   5  -9    4.81    5.54
  -4  -5   9    6.14    4.28
   3   5  -9   21.88    5.26
  -3  -5   9   23.16    6.35
   2   5  -9   13.24    4.89
  -2  -5   9   14.65    5.35
   1   5  -9   14.99    4.10
  -1  -5   9   10.86    8.45
   0   5  -9    9.18    3.33
   0  -5   9   16.53    5.91
  -1   5  -9   21.22    3.84
   1  -5   9   37.46    5.90
  -2   5  -9   30.03    3.05
   2  -5   9   42.05    7.02
  -3   5  -9    7.56    2.38
   3  -5   9    6.74    6.59
  -4   5  -9    4.19    1.98
   4  -5   9    5.87    7.43
  -5   5  -9   19.52    2.42
   5  -5   9    7.16    9.54
  -6   5  -9   11.59   12.09
   6  -5   9    0.00   24.43
   8   4  -9    7.68    6.33
  -8  -4   9   41.05    9.31
   7   4  -9    4.88    6.08
  -7  -4   9   26.55    6.31
   6   4  -9    0.84    5.47
  -6  -4   9    6.79    6.27
   5   4  -9   23.89    6.22
  -5  -4   9   29.74    5.03
   4   4  -9   62.70    6.58
  -4  -4   9   78.38    5.42
   3   4  -9   11.20    5.43
  -3  -4   9   10.15    5.57
   2   4  -9    2.43    4.23
  -2  -4   9    8.11    7.85
   1   4  -9   25.83    3.90
  -1  -4   9   29.10    7.28
   0   4  -9    8.08    3.63
   0  -4   9   15.18    6.67
  -1   4  -9    1.32    3.34
   1  -4   9    1.22    5.02
  -2   4  -9   50.74    5.87
   2  -4   9   65.99    8.75
  -3   4  -9    3.05    3.43
   3  -4   9    1.86    6.58
  -4   4  -9    5.63    4.81
   4  -4   9    4.39    4.58
  -5   4  -9   34.38    5.87
   5  -4   9   37.05    6.14
  -6   4  -9   14.44    8.15
   6  -4   9    3.59    5.96
   8   3  -9    3.46    9.27
  -8  -3   9   24.69   24.18
   7   3  -9   24.48    6.96
  -7  -3   9   44.62    7.47
   6   3  -9    3.80    5.62
  -6  -3   9    5.24    6.22
   5   3  -9    0.00    5.45
  -5  -3   9    9.62    4.58
   4   3  -9   55.50    6.48
  -4  -3   9   73.23    5.36
   3   3  -9    8.48    5.37
  -3  -3   9    2.86    3.41
   2   3  -9   15.83    5.85
  -2  -3   9   15.05    6.55
   1   3  -9   17.85    7.01
  -1  -3   9   21.83    9.94
   0   3  -9    7.06    5.86
   0  -3   9    1.75    4.87
  -1   3  -9    1.42    9.62
   1  -3   9    1.56    6.35
  -2   3  -9   60.31    6.79
   2  -3   9   38.11    6.49
  -3   3  -9    1.22    4.61
   3  -3   9    2.59    5.66
  -4   3  -9    5.85    4.92
   4  -3   9    1.86    4.93
  -5   3  -9   18.39    5.45
   5  -3   9   36.57    5.96
  -6   3  -9    2.74    5.46
   6  -3   9   18.23    6.12
   8   2  -9    0.24    8.82
  -8  -2   9    5.35    7.00
   7   2  -9   43.92    7.43
  -7  -2   9   43.29    7.02
   6   2  -9    4.76    6.36
  -6  -2   9    4.55    5.85
   5   2  -9    7.95    8.03
  -5  -2   9   13.49    6.80
   4   2  -9   41.58    9.53
  -4  -2   9   54.13    6.87
   3   2  -9   10.79   11.76
  -3  -2   9    5.20    5.61
   2   2  -9   26.12    7.30
  -2  -2   9   30.27    4.50
   1   2  -9    3.04    5.63
  -1  -2   9    3.33    6.60
   0   2  -9   11.14    4.16
   0  -2   9    3.27    7.63
  -1   2  -9    6.81    8.71
   1  -2   9    0.00    7.22
  -2   2  -9   24.40    5.38
   2  -2   9   18.46    7.96
  -3   2  -9    8.08    5.93
   3  -2   9    3.37    7.04
  -4   2  -9    2.10    4.96
   4  -2   9    2.39    9.20
  -5   2  -9   15.91    8.61
   5  -2   9   20.18    7.27
  -6   2  -9   13.37    6.46
   6  -2   9   11.43    9.58
   8   1  -9    5.41   11.70
  -8  -1   9   14.42    8.37
   7   1  -9   12.25    9.57
  -7  -1   9   33.82    8.71
   6   1  -9   25.57    9.67
  -6  -1   9   31.05   11.19
   5   1  -9    0.82    9.23
  -5  -1   9    0.00   15.79
   4   1  -9    6.71    8.76
  -4  -1   9   11.35    7.74
   3   1  -9   24.35    9.00
  -3  -1   9   12.11    7.90
   2   1  -9   12.10    6.18
  -2  -1   9   21.48    5.69
   1   1  -9    5.13    4.63
  -1  -1   9    7.84    3.63
   0   1  -9   13.52    6.92
   0  -1   9   10.40    7.03
  -1   1  -9    2.27    4.20
   1  -1   9    6.20    4.29
  -2   1  -9   15.85    7.07
   2  -1   9    5.06    7.64
  -3   1  -9   11.85    9.51
   3  -1   9   19.83    9.46
  -4   1  -9    0.00    8.47
   4  -1   9    8.71    9.24
  -5   1  -9    0.00    7.37
   5  -1   9   12.23    8.04
   8   0  -9    6.81   11.29
  -8   0   9    4.34    8.03
   7   0  -9    0.00    8.32
  -7   0   9   16.88    9.05
   6   0  -9   16.47    8.20
  -6   0   9   15.52    9.39
   5   0  -9    2.90    6.64
  -5   0   9   14.78    8.71
   4   0  -9    4.07    5.97
  -4   0   9    0.91    9.68
   3   0  -9   27.91    5.77
  -3   0   9   19.30    7.63
   2   0  -9    3.22    5.26
  -2   0   9    2.73    3.83
   1   0  -9    9.22    7.19
  -1   0   9    5.10    3.51
   0   0  -9    7.58    4.45
   0   0   9   13.08    5.01
  -1   0  -9    6.31    6.56
   1   0   9    4.78    8.09
  -2   0  -9    5.50    8.09
   2   0   9   14.09   10.62
  -3   0  -9   19.79   10.29
   3   0   9   10.44    8.77
  -4   0  -9   15.36    7.55
   4   0   9   13.58    8.56
  -5   0  -9    1.46    5.13
   5   0   9   11.72    6.79
   8  -1  -9    7.33    7.54
  -8   1   9   19.66    8.75
   7  -1  -9    2.25    6.88
  -7   1   9    1.61    8.93
   6  -1  -9   11.43    7.03
  -6   1   9   23.28   14.58
   5  -1  -9    5.59    6.63
  -5   1   9   11.81   14.01
   4  -1  -9    2.53    5.49
  -4   1   9    9.20   10.54
   3  -1  -9   13.42    5.71
  -3   1   9   20.48    8.10
   2  -1  -9    5.90    5.03
  -2   1   9    5.24    6.08
   1  -1  -9    6.83    7.47
  -1   1   9    0.70    4.45
   0  -1  -9    6.92    5.06
   0   1   9    7.49    5.56
  -1  -1  -9   11.65    6.97
   1   1   9   16.20    8.41
  -2  -1  -9    5.59    6.38
   2   1   9   12.78    8.35
  -3  -1  -9   17.96   11.02
   3   1   9   15.94   10.76
  -4  -1  -9    6.30    7.62
   4   1   9    5.26    8.69
   7  -2  -9    7.44    8.34
  -7   2   9    0.00   29.29
   6  -2  -9    7.57    7.84
  -6   2   9   10.39   23.43
   5  -2  -9   30.97    7.01
  -5   2   9   17.34   15.67
   4  -2  -9    1.94    6.36
  -4   2   9    5.09   11.02
   3  -2  -9    0.61    6.07
  -3   2   9    1.41    8.55
   2  -2  -9   18.65    9.26
  -2   2   9   28.30    8.30
   1  -2  -9    0.00    6.66
  -1   2   9    1.47    8.08
   0  -2  -9    8.04    7.20
   0   2   9    1.11    3.41
  -1  -2  -9    5.98    6.85
   1   2   9    6.10    8.47
  -2  -2  -9    1.66    8.75
   2   2   9    6.80   10.15
  -3  -2  -9    3.33    6.63
   3   2   9    0.57    8.30
   7  -3  -9    4.01    7.29
  -7   3   9    3.70   19.00
   6  -3  -9    2.02    7.78
  -6   3   9    0.00   15.14
   5  -3  -9    9.95    7.72
  -5   3   9   37.64   25.88
   4  -3  -9    4.33    6.61
  -4   3   9    5.92   11.02
   3  -3  -9   11.09   11.14
  -3   3   9    5.01    8.61
   2  -3  -9   13.16    7.68
  -2   3   9   29.34    9.25
   1  -3  -9    0.88    6.22
  -1   3   9    7.69    8.22
   0  -3  -9    0.00    7.87
   0   3   9    4.83    7.40
  -1  -3  -9    7.41    7.63
   1   3   9    4.21    8.48
  -2  -3  -9   11.65    7.96
   2   3   9    5.40    8.54
   6  -4  -9    9.28    7.42
  -6   4   9    7.53   14.94
   5  -4  -9   10.25    7.90
  -5   4   9    5.78   15.06
   4  -4  -9   25.22   11.64
  -4   4   9   13.33   11.73
   3  -4  -9    2.52    8.88
  -3   4   9   13.06    8.58
   2  -4  -9   16.11   10.20
  -2   4   9    0.16    8.83
   1  -4  -9    3.46    9.03
  -1   4   9   13.33    8.97
   0  -4  -9    3.68    8.48
   0   4   9    1.75    8.56
  -1  -4  -9    3.76    7.00
   1   4   9    2.21   10.32
   2  11 -10    6.42    4.04
  -2 -11  10    3.78    9.24
   1  11 -10    9.27    4.16
  -1 -11  10    1.00    6.76
   0  11 -10    6.39    3.75
   0 -11  10   12.13    9.17
  -1  11 -10    5.55    4.19
   1 -11  10    4.20    8.14
  -2  11 -10    8.30    4.06
   2 -11  10    8.17    7.63
  -3  11 -10   19.85    5.15
   3 -11  10    7.21    7.29
   4  10 -10    7.96    5.24
  -4 -10  10    0.00    7.32
   3  10 -10    2.12    8.42
  -3 -10  10   10.55    7.46
   2  10 -10   12.88    3.89
  -2 -10  10    6.23    8.76
   1  10 -10    6.83    4.39
  -1 -10  10    1.17    7.68
   0  10 -10   15.40    4.34
   0 -10  10   23.03    7.12
  -1  10 -10   10.17    3.81
   1 -10  10    4.87    8.58
  -2  10 -10    0.91    4.89
   2 -10  10    2.14    9.95
  -3  10 -10   15.53    5.58
   3 -10  10    4.05    6.21
  -4  10 -10   16.87    6.61
   4 -10  10    0.81    5.78
   5   9 -10    3.10    5.31
  -5  -9  10    6.07    7.14
   4   9 -10    6.64    5.67
  -4  -9  10   12.68    7.29
   3   9 -10   18.66    6.11
  -3  -9  10   27.48    8.20
   2   9 -10    6.32    3.51
  -2  -9  10    8.20    7.15
   1   9 -10    3.41    4.09
  -1  -9  10    2.79    6.59
   0   9 -10   13.68    4.09
   0  -9  10   12.51    8.64
  -1   9 -10    6.47    4.33
   1  -9  10    4.81    9.08
  -2   9 -10    9.85    3.04
   2  -9  10    7.32    9.51
  -3   9 -10    3.60    4.83
   3  -9  10    2.88   10.23
  -4   9 -10    7.04    6.78
   4  -9  10    9.84   14.12
  -5   9 -10    9.60    6.30
   5  -9  10    0.00   15.41
   6   8 -10    0.00    6.18
  -6  -8  10    8.31    6.34
   5   8 -10    8.45    5.25
  -5  -8  10   14.43    6.75
   4   8 -10    6.83    5.74
  -4  -8  10    8.06    7.12
   3   8 -10    8.27    3.86
  -3  -8  10    7.73    6.38
   2   8 -10   14.37    3.33
  -2  -8  10   14.62    6.67
   1   8 -10    5.42    3.42
  -1  -8  10    3.75    5.96
   0   8 -10    8.88    3.17
   0  -8  10    4.38    8.46
  -1   8 -10    8.53    4.37
   1  -8  10   19.49    8.72
  -2   8 -10    3.64    3.56
   2  -8  10    6.49   10.29
  -3   8 -10    7.19    3.58
   3  -8  10   10.83   12.13
  -4   8 -10   22.10    4.35
   4  -8  10   15.35   14.83
  -5   8 -10   20.61    5.52
   5  -8  10   16.85   15.93
   6   7 -10    8.03    7.84
  -6  -7  10    1.10    6.21
   5   7 -10   19.71    5.98
  -5  -7  10   40.16    8.12
   4   7 -10    1.75    4.18
  -4  -7  10   11.13    6.76
   3   7 -10    4.09    4.18
  -3  -7  10    6.64    5.96
   2   7 -10   30.03    4.36
  -2  -7  10   32.60    6.57
   1   7 -10    1.75    3.70
  -1  -7  10    6.62    8.34
   0   7 -10    7.68    3.74
   0  -7  10   10.23    6.10
  -1   7 -10   20.61    4.66
   1  -7  10   10.70   13.40
  -2   7 -10    3.55    3.98
   2  -7  10    1.95    8.47
  -3   7 -10    8.61    2.83
   3  -7  10    2.65   11.27
  -4   7 -10   21.25    3.59
   4  -7  10   17.47   27.29
  -5   7 -10   13.71    4.51
   5  -7  10   11.83    8.47
   7   6 -10    1.78    7.45
  -7  -6  10    7.75    7.90
   6   6 -10    1.80    6.32
  -6  -6  10    6.73    6.59
   5   6 -10    8.17    5.96
  -5  -6  10   36.12    7.94
   4   6 -10   28.59    5.90
  -4  -6  10   30.41    6.89
   3   6 -10    0.74    4.82
  -3  -6  10    2.10    5.65
   2   6 -10   15.49    6.73
  -2  -6  10   25.22    6.78
   1   6 -10    4.57    4.01
  -1  -6  10   25.99   10.98
   0   6 -10   10.27    2.92
   0  -6  10    9.61    4.81
  -1   6 -10   15.90    3.87
   1  -6  10   18.21    5.46
  -2   6 -10   12.07    3.26
   2  -6  10   21.11   11.75
  -3   6 -10    4.79    4.19
   3  -6  10   20.43    6.89
  -4   6 -10    5.27    3.15
   4  -6  10    7.58    7.49
  -5   6 -10   18.01    3.55
   5  -6  10   10.87   16.69
  -6   6 -10   27.13    6.85
   6  -6  10   11.13   16.83
   7   5 -10   13.80    9.37
  -7  -5  10   25.65    6.58
   6   5 -10    0.18    6.35
  -6  -5  10    5.50    6.39
   5   5 -10    4.54    6.66
  -5  -5  10    7.73    4.61
   4   5 -10   58.08    8.73
  -4  -5  10   57.90    6.45
   3   5 -10    2.91    5.13
  -3  -5  10    4.28    7.00
   2   5 -10   12.88    4.36
  -2  -5  10   19.33    8.20
   1   5 -10   33.93    3.90
  -1  -5  10   41.10    7.26
   0   5 -10    6.11    3.58
   0  -5  10    5.55    5.58
  -1   5 -10    6.96    6.05
   1  -5  10    3.33    7.25
  -2   5 -10   26.07    2.62
   2  -5  10   43.79    5.02
  -3   5 -10    4.26    5.46
   3  -5  10    0.61    9.82
  -4   5 -10    7.00    6.84
   4  -5  10    0.57   12.10
  -5   5 -10   54.78   10.68
   5  -5  10    2.15   10.04
   8   4 -10    0.26    8.52
  -8  -4  10   14.27    8.31
   7   4 -10    9.49    7.67
  -7  -4  10   29.91    8.64
   6   4 -10    4.52    6.09
  -6  -4  10   10.74    6.66
   5   4 -10    2.77    5.85
  -5  -4  10   16.35    6.41
   4   4 -10   99.19    7.26
  -4  -4  10  122.00    5.80
   3   4 -10   11.22    5.44
  -3  -4  10   21.95    4.06
   2   4 -10    6.31    4.51
  -2  -4  10    7.40    6.34
   1   4 -10   41.05    4.26
  -1  -4  10   43.39    9.93
   0   4 -10    0.56    6.96
   0  -4  10   15.82   10.76
  -1   4 -10    1.60    8.36
   1  -4  10   11.19   10.84
  -2   4 -10   23.59    6.40
   2  -4  10   41.90   11.98
  -3   4 -10    0.87    6.38
   3  -4  10    1.95    6.86
  -4   4 -10    5.78    5.18
   4  -4  10   12.88    5.03
  -5   4 -10   16.68    5.56
   5  -4  10   12.74    5.14
   8   3 -10    4.42    7.52
  -8  -3  10    7.07    7.94
   7   3 -10   10.73    7.71
  -7  -3  10   34.83    7.21
   6   3 -10    2.08    6.61
  -6  -3  10    6.78    6.16
   5   3 -10    7.66    7.02
  -5  -3  10    4.24    6.28
   4   3 -10   34.56    8.07
  -4  -3  10   46.11    4.07
   3   3 -10   29.39    8.88
  -3  -3  10   25.41    2.71
   2   3 -10   11.70    7.96
  -2  -3  10    4.68    8.47
   1   3 -10   24.38    4.01
  -1  -3  10   20.04    9.46
   0   3 -10   18.46    3.73
   0  -3  10   28.22    5.14
  -1   3 -10   13.05    9.04
   1  -3  10    3.21    5.98
  -2   3 -10   11.98    8.83
   2  -3  10   11.39    6.69
  -3   3 -10   12.69    6.34
   3  -3  10    7.39    7.35
  -4   3 -10    6.32    5.68
   4  -3  10   14.66    6.44
  -5   3 -10    3.45    5.19
   5  -3  10   12.01    5.70
   8   2 -10    0.00    6.98
  -8  -2  10    7.78    8.36
   7   2 -10   10.07   10.34
  -7  -2  10    0.00   11.64
   6   2 -10    7.89    9.40
  -6  -2  10   28.54   15.54
   5   2 -10    8.76    8.85
  -5  -2  10    7.30   11.14
   4   2 -10   11.58    9.83
  -4  -2  10   19.25    5.69
   3   2 -10   43.68    8.80
  -3  -2  10   48.50    6.32
   2   2 -10    0.82    4.81
  -2  -2  10    0.32    5.14
   1   2 -10    3.84    5.89
  -1  -2  10    7.42    5.77
   0   2 -10   20.85    3.90
   0  -2  10   34.37    6.54
  -1   2 -10    5.60    8.38
   1  -2  10    8.22    6.96
  -2   2 -10    0.00    8.49
   2  -2  10    3.56    7.69
  -3   2 -10    3.79   12.16
   3  -2  10   19.12    8.44
  -4   2 -10   11.67    7.73
   4  -2  10    1.24    9.15
  -5   2 -10    4.75    5.65
   5  -2  10   13.67    7.42
   8   1 -10    7.74   11.17
  -8  -1  10   26.56   23.42
   7   1 -10    6.64   10.09
  -7  -1  10   14.50   22.89
   6   1 -10   12.25   10.86
  -6  -1  10   35.77   14.78
   5   1 -10    8.42    9.23
  -5  -1  10    0.00   15.99
   4   1 -10    5.90    6.86
  -4  -1  10    5.99    6.26
   3   1 -10   25.57    5.38
  -3  -1  10   41.60    4.58
   2   1 -10    6.25    5.29
  -2  -1  10    7.28    2.95
   1   1 -10    3.99    4.50
  -1  -1  10    4.92    3.65
   0   1 -10   13.79    7.86
   0  -1  10   23.77    7.67
  -1   1 -10   18.14   12.23
   1  -1  10    5.38    7.99
  -2   1 -10    9.69   12.23
   2  -1  10    3.67    9.30
  -3   1 -10   11.15   11.96
   3  -1  10   12.07    9.60
  -4   1 -10    3.70    6.62
   4  -1  10   13.00    8.88
   7   0 -10    4.40    8.98
  -7   0  10   20.01   11.14
   6   0 -10    4.63    8.72
  -6   0  10    8.82    9.09
   5   0 -10    8.44    6.55
  -5   0  10   14.83    8.40
   4   0 -10    3.62    6.43
  -4   0  10    6.23   11.19
   3   0 -10   11.47    6.15
  -3   0  10    9.27    5.78
   2   0 -10    5.46    6.51
  -2   0  10   12.25    5.52
   1   0 -10   11.25    9.44
  -1   0  10   22.58    5.80
   0   0 -10   11.36    8.65
   0   0  10    4.25    8.09
  -1   0 -10    7.83    6.89
   1   0  10    0.00    9.22
  -2   0 -10    8.44   11.86
   2   0  10   16.06    8.35
  -3   0 -10    5.47    9.25
   3   0  10   10.88    9.02
  -4   0 -10   10.81    6.68
   4   0  10   10.06   10.56
   7  -1 -10    7.49    7.41
  -7   1  10    8.59   10.27
   6  -1 -10    2.57    7.06
  -6   1  10   11.56    9.89
   5  -1 -10    9.67    6.56
  -5   1  10    4.68   13.20
   4  -1 -10    6.26    6.64
  -4   1  10    3.04   10.94
   3  -1 -10    3.70    7.54
  -3   1  10    2.45    9.07
   2  -1 -10   22.04    9.45
  -2   1  10   12.26    9.29
   1  -1 -10    0.20    6.40
  -1   1  10    8.91    4.19
   0  -1 -10    0.00    9.02
   0   1  10    4.20    7.68
  -1  -1 -10   21.37    7.63
   1   1  10    6.62    8.30
  -2  -1 -10    1.43    7.70
   2   1  10    3.18    8.58
  -3  -1 -10   10.38    7.93
   3   1  10    9.02    8.87
   6  -2 -10    5.91    6.53
  -6   2  10    0.00   20.52
   5  -2 -10    7.18    6.67
  -5   2  10    9.35   12.74
   4  -2 -10    2.32    6.74
  -4   2  10   11.54    9.89
   3  -2 -10   19.87   13.26
  -3   2  10    9.80    8.44
   2  -2 -10    7.74   11.92
  -2   2  10   19.05    9.59
   1  -2 -10    0.00    9.38
  -1   2  10    4.18    7.65
   0  -2 -10    0.90    7.09
   0   2  10    3.07    7.75
  -1  -2 -10    3.32    7.04
   1   2  10    0.99    8.44
  -2  -2 -10    9.31    7.75
   2   2  10    6.97    9.74
   5  -3 -10   13.36    6.83
  -5   3  10    6.01   14.35
   4  -3 -10   24.70   11.23
  -4   3  10    6.79   10.18
   3  -3 -10   11.75    9.51
  -3   3  10    4.77    8.68
   2  -3 -10    1.39    7.17
  -2   3  10    1.83    9.54
   1  -3 -10    7.76    6.91
  -1   3  10    5.50    8.59
   0  -3 -10    0.00    7.46
   0   3  10    0.00    9.40
   3  10 -11   15.58    5.64
  -3 -10  11   12.77    8.10
   2  10 -11    9.01    4.84
  -2 -10  11   16.90    8.39
   1  10 -11    0.64    4.11
  -1 -10  11   12.33    6.99
   0  10 -11   15.82    4.86
   0 -10  11   16.94   10.25
  -1  10 -11   14.37    4.97
   1 -10  11    8.18    9.41
  -2  10 -11   10.04    4.64
   2 -10  11   17.09   15.87
  -3  10 -11    8.94    4.96
   3 -10  11    8.55   11.10
   4   9 -11    0.00   12.10
  -4  -9  11    2.53    6.97
   3   9 -11    6.42    4.66
  -3  -9  11    1.83    7.32
   2   9 -11   16.13    4.38
  -2  -9  11   16.41    7.53
   1   9 -11    5.57    4.46
  -1  -9  11    8.73    5.97
   0   9 -11   10.14    4.66
   0  -9  11    6.90    9.31
  -1   9 -11   23.27    5.01
   1  -9  11   21.37   10.22
  -2   9 -11    1.79    4.47
   2  -9  11    4.53   11.90
  -3   9 -11   12.03    5.21
   3  -9  11   13.46   14.73
   5   8 -11    1.94    7.40
  -5  -8  11   10.71    6.82
   4   8 -11    5.26    3.80
  -4  -8  11    8.44    6.92
   3   8 -11    4.20    4.43
  -3  -8  11    8.31    7.60
   2   8 -11   15.21    4.15
  -2  -8  11   13.28    5.95
   1   8 -11    4.80    3.77
  -1  -8  11   22.51    9.31
   0   8 -11    5.37    4.14
   0  -8  11   11.76   10.29
  -1   8 -11   31.19    4.78
   1  -8  11   32.47   10.64
  -2   8 -11    6.79    4.55
   2  -8  11    2.43   19.58
  -3   8 -11    0.36    4.17
   3  -8  11    0.51   12.89
  -4   8 -11   16.09    4.24
   4  -8  11   14.30   14.72
   6   7 -11    0.00    7.82
  -6  -7  11   15.77    7.17
   5   7 -11    5.71    6.33
  -5  -7  11    5.58    7.92
   4   7 -11    1.94    5.68
  -4  -7  11   15.66    6.91
   3   7 -11    2.08    5.22
  -3  -7  11    4.19    5.98
   2   7 -11   20.35    5.36
  -2  -7  11   29.48   10.13
   1   7 -11   13.86    3.77
  -1  -7  11   21.26   10.32
   0   7 -11    9.28    3.72
   0  -7  11    7.36    6.95
  -1   7 -11   12.89    4.23
   1  -7  11    4.40    8.48
  -2   7 -11   13.98    4.15
   2  -7  11   17.52   13.90
  -3   7 -11    4.70    3.88
   3  -7  11    6.51   13.25
  -4   7 -11    2.01    6.46
   4  -7  11   20.33   12.78
   6   6 -11    3.36    7.54
  -6  -6  11    6.92    6.82
   5   6 -11    0.00   22.90
  -5  -6  11    7.04    7.71
   4   6 -11   28.11    8.91
  -4  -6  11   19.32    8.75
   3   6 -11    1.83    6.07
  -3  -6  11    9.47    8.21
   2   6 -11    9.68    4.97
  -2  -6  11   15.15    8.77
   1   6 -11   23.26    4.12
  -1  -6  11   20.59    9.55
   0   6 -11    5.85    3.53
   0  -6  11   10.84    4.93
  -1   6 -11    5.05    3.74
   1  -6  11   14.49    4.60
  -2   6 -11   20.43    3.29
   2  -6  11   37.23   13.89
  -3   6 -11    0.00   10.18
   3  -6  11   22.58   16.63
  -4   6 -11    5.40    9.27
   4  -6  11    1.00    7.23
   7   5 -11    6.55    7.82
  -7  -5  11   14.31    8.12
   6   5 -11    7.79    9.97
  -6  -5  11   16.54    7.95
   5   5 -11    0.83    7.52
  -5  -5  11    8.97    8.28
   4   5 -11   20.87    6.36
  -4  -5  11   22.26    6.39
   3   5 -11    3.11    6.06
  -3  -5  11    5.51    7.99
   2   5 -11    2.83    4.54
  -2  -5  11    6.49    7.76
   1   5 -11   32.13    3.92
  -1  -5  11   39.48   11.27
   0   5 -11    3.04    5.63
   0  -5  11   18.53   11.41
  -1   5 -11    1.25    4.05
   1  -5  11    4.03    6.90
  -2   5 -11   31.49    9.80
   2  -5  11   47.51    5.31
  -3   5 -11    4.87    9.67
   3  -5  11   11.17   13.32
  -4   5 -11   14.81    8.67
   4  -5  11   12.62   13.37
   7   4 -11    5.62    7.15
  -7  -4  11   38.59    8.18
   6   4 -11    1.01    7.83
  -6  -4  11    3.77    6.75
   5   4 -11    0.00    5.82
  -5  -4  11    3.62    4.19
   4   4 -11   25.43    6.19
  -4  -4  11   21.46    4.57
   3   4 -11   16.37    5.47
  -3  -4  11   19.67   10.62
   2   4 -11    2.32    5.05
  -2  -4  11   11.45    9.32
   1   4 -11   13.79    3.33
  -1  -4  11   13.25    9.82
   0   4 -11    8.11    3.84
   0  -4  11   15.70   11.38
  -1   4 -11    3.64   12.99
   1  -4  11   10.25   12.25
  -2   4 -11   20.02    7.24
   2  -4  11   19.61   12.23
  -3   4 -11    1.38   10.97
   3  -4  11    6.16    6.91
  -4   4 -11    0.02    8.36
   4  -4  11   12.78    4.68
   7   3 -11    3.22    8.29
  -7  -3  11   22.63    7.19
   6   3 -11    3.42    6.71
  -6  -3  11   18.25    8.99
   5   3 -11    0.75   10.44
  -5  -3  11   17.99    8.14
   4   3 -11    8.83    9.63
  -4  -3  11    6.95    2.87
   3   3 -11   11.25    6.35
  -3  -3  11   52.11   13.17
   2   3 -11    3.17    4.31
  -2  -3  11   10.08    9.20
   1   3 -11    4.96    4.01
  -1  -3  11   11.83    9.54
   0   3 -11   23.44    5.77
   0  -3  11   24.87    5.30
  -1   3 -11    0.08    8.70
   1  -3  11    1.85    5.82
  -2   3 -11   11.90    9.89
   2  -3  11    1.01    6.93
  -3   3 -11   11.18    6.64
   3  -3  11    5.32    7.38
  -4   3 -11    8.79    7.30
   4  -3  11    8.55    5.54
   7   2 -11    5.25   10.97
  -7  -2  11    0.00   21.67
   6   2 -11   21.36   20.08
  -6  -2  11   52.79   10.90
   5   2 -11   13.42   11.46
  -5  -2  11   45.79   13.33
   4   2 -11    4.57    6.49
  -4  -2  11   25.48    4.97
   3   2 -11   10.16    5.41
  -3  -2  11   17.23    6.55
   2   2 -11    3.44    4.65
  -2  -2  11    0.00   12.16
   1   2 -11    0.58    5.01
  -1  -2  11    4.10    6.25
   0   2 -11    8.28   12.57
   0  -2  11   22.93    7.21
  -1   2 -11    0.00   14.15
   1  -2  11    1.72    7.50
  -2   2 -11    3.73   10.01
   2  -2  11   13.82    8.44
  -3   2 -11   10.36    7.73
   3  -2  11   18.15    8.21
   6   1 -11   15.23    7.75
  -6  -1  11   31.18   10.37
   5   1 -11    8.65    6.71
  -5  -1  11   27.70    8.41
   4   1 -11    4.59    5.91
  -4  -1  11    9.23    4.87
   3   1 -11    8.19    5.69
  -3  -1  11   12.18    4.29
   2   1 -11   18.28    6.78
  -2  -1  11    4.46    7.09
   1   1 -11    3.03    8.40
  -1  -1  11    1.80    7.17
   0   1 -11    0.00    9.30
   0  -1  11    6.70    7.84
  -1   1 -11   11.28   11.00
   1  -1  11    7.27    8.39
  -2   1 -11    8.82   11.90
   2  -1  11   15.44    9.81
  -3   1 -11    6.76    7.11
   3  -1  11   11.95    8.95
   6   0 -11    3.04    7.93
  -6   0  11   12.21    8.66
   5   0 -11    5.72    8.92
  -5   0  11    2.67   12.80
   4   0 -11    3.47    7.47
  -4   0  11   12.82    8.23
   3   0 -11    8.21    9.70
  -3   0  11    9.69    9.97
   2   0 -11   42.09   12.78
  -2   0  11   20.25    8.72
   1   0 -11    3.63    5.90
  -1   0  11    4.55    8.54
   0   0 -11    0.00    8.26
   0   0  11    1.52   12.12
  -1   0 -11    9.08    8.31
   1   0  11   17.31    9.92
  -2   0 -11    5.47    7.35
   2   0  11   20.32    8.69
   5  -1 -11    9.70    8.26
  -5   1  11    6.23   16.66
   4  -1 -11    7.75    8.27
  -4   1  11    6.00    9.61
   3  -1 -11   11.21   11.09
  -3   1  11    6.51    8.49
   2  -1 -11   29.42   12.80
  -2   1  11    3.55    7.84
   1  -1 -11   19.05   10.11
  -1   1  11    6.25    7.87
   0  -1 -11    0.00    8.07
   0   1  11    5.81    9.43
  -1  -1 -11   19.33    7.69
   1   1  11    5.44    8.12
   3  -2 -11    3.25    9.44
  -3   2  11    9.07    9.42
   2  -2 -11    2.31    6.93
  -2   2  11    6.37    9.24
   3   9 -12    8.74    4.33
  -3  -9  12    7.74    7.05
   2   9 -12   19.60    4.70
  -2  -9  12   10.42    9.88
   1   9 -12    8.30    4.02
  -1  -9  12    3.96    9.20
   0   9 -12    2.32    4.47
   0  -9  12    1.03   11.62
  -1   9 -12   13.77    4.83
   1  -9  12   27.22   11.10
  -2   9 -12    7.66    7.48
   2  -9  12    8.66   13.18
   4   8 -12   13.13    4.77
  -4  -8  12    0.30    6.78
   3   8 -12    6.93    4.60
  -3  -8  12    3.63    5.66
   2   8 -12    8.91    5.25
  -2  -8  12    4.61    9.31
   1   8 -12   10.42    4.01
  -1  -8  12   15.66   12.51
   0   8 -12    3.99    5.61
   0  -8  12   16.37   13.27
  -1   8 -12    2.39    4.16
   1  -8  12    4.39    9.30
  -2   8 -12   14.43    4.28
   2  -8  12   19.79   13.96
   5   7 -12    2.86    7.39
  -5  -7  12    7.08   10.27
   4   7 -12    6.53    6.14
  -4  -7  12   18.23    6.60
   3   7 -12    5.30    6.02
  -3  -7  12    0.00    8.69
   2   7 -12    8.14    4.33
  -2  -7  12    7.86    9.92
   1   7 -12   21.74    4.36
  -1  -7  12   17.37   10.12
   0   7 -12    3.26    4.27
   0  -7  12    8.10    9.35
  -1   7 -12    1.90    3.98
   1  -7  12    9.19   13.57
  -2   7 -12    9.10    3.72
   2  -7  12   31.51   13.67
  -3   7 -12    4.31    7.67
   3  -7  12   35.56   17.66
   5   6 -12    3.41    8.09
  -5  -6  12   16.94   12.50
   4   6 -12    4.75    6.62
  -4  -6  12   19.97    8.82
   3   6 -12    0.01    6.76
  -3  -6  12   10.58    8.58
   2   6 -12   11.59    6.32
  -2  -6  12   11.39   10.07
   1   6 -12   19.15    5.15
  -1  -6  12   26.19   12.46
   0   6 -12    1.69    4.21
   0  -6  12    3.42   12.36
  -1   6 -12    3.31    7.69
   1  -6  12    0.78   18.22
  -2   6 -12   10.10    8.87
   2  -6  12   26.41   15.32
  -3   6 -12   11.22    9.61
   3  -6  12   18.05   17.19
   5   5 -12    2.64    7.53
  -5  -5  12   12.29    6.22
   4   5 -12    7.79    6.34
  -4  -5  12    9.92    5.34
   3   5 -12    2.65    5.65
  -3  -5  12   15.00    8.97
   2   5 -12    7.77    5.78
  -2  -5  12   15.36   12.46
   1   5 -12   29.58    8.24
  -1  -5  12   46.40   15.81
   0   5 -12    0.24   16.89
   0  -5  12   37.67   15.50
  -1   5 -12    7.57   12.24
   1  -5  12   13.99   14.78
  -2   5 -12   15.86   12.09
   2  -5  12   18.79   13.78
  -3   5 -12    9.10    7.39
   3  -5  12    5.44   12.63
   6   4 -12    0.33    6.93
  -6  -4  12   12.05    6.97
   5   4 -12    1.53    6.65
  -5  -4  12   21.34    6.97
   4   4 -12    5.58    7.38
  -4  -4  12   14.09   15.76
   3   4 -12   14.77    6.81
  -3  -4  12   35.01   14.83
   2   4 -12   21.53    8.33
  -2  -4  12   16.50   11.24
   1   4 -12   27.57   11.51
  -1  -4  12   21.50   14.00
   0   4 -12    3.31   13.48
   0  -4  12   31.02   13.39
  -1   4 -12    2.07   16.89
   1  -4  12    3.70   12.13
  -2   4 -12    4.70    7.27
   2  -4  12   13.07   12.70
  -3   4 -12    8.49    6.85
   3  -4  12   18.45   12.35
   5   3 -12    3.80    6.22
  -5  -3  12   20.39    7.20
   4   3 -12   10.74    9.18
  -4  -3  12    1.63    3.46
   3   3 -12    9.91    7.24
  -3  -3  12   21.26   12.46
   2   3 -12    8.47    5.37
  -2  -3  12   15.15   12.25
   1   3 -12    1.60   18.90
  -1  -3  12    9.05    9.99
   0   3 -12   11.01   11.82
   0  -3  12   22.34    5.10
  -1   3 -12   10.97   10.38
   1  -3  12   17.47    6.26
  -2   3 -12    0.88   15.01
   2  -3  12    3.16    7.03
   5   2 -12    2.38    8.15
  -5  -2  12    2.47   15.68
   4   2 -12    6.20    6.54
  -4  -2  12   27.12   11.66
   3   2 -12    8.29    5.65
  -3  -2  12   27.13   12.41
   2   2 -12   12.21    5.08
  -2  -2  12   14.07    7.43
   1   2 -12    0.00   10.65
  -1  -2  12   27.28    6.34
   0   2 -12   19.39   15.27
   0  -2  12   18.43    7.03
  -1   2 -12    8.10   11.10
   1  -2  12   24.44    7.72
   5   1 -12   11.64    7.07
  -5  -1  12   36.33    5.98
   4   1 -12    9.77    8.08
  -4  -1  12    5.41    7.84
   3   1 -12   13.29    7.32
  -3  -1  12    2.60    7.27
   2   1 -12    7.67    9.46
  -2  -1  12    7.63    7.41
   1   1 -12    5.32    7.72
  -1  -1  12    2.18    7.29
   0   1 -12    0.00   13.01
   0  -1  12   15.25    7.85
   3   0 -12    4.99   10.38
  -3   0  12    6.76    8.97
   2   0 -12   23.53    9.07
  -2   0  12   13.94   10.06
   1   0 -12   13.21    8.73
  -1   0  12    4.14    7.68
   2   7 -13    8.40    4.83
  -2  -7  13   11.36    9.18
   1   7 -13   12.62    4.49
  -1  -7  13   26.86   13.23
   0   7 -13    2.92    5.12
   0  -7  13   13.72   13.35
   3   6 -13   13.26    5.76
  -3  -6  13    3.77    9.37
   2   6 -13   11.67    8.96
  -2  -6  13   13.73   14.17
   1   6 -13    8.58    7.64
  -1  -6  13   19.62   14.79
   0   6 -13   20.85    9.04
   0  -6  13   20.40   14.42
  -1   6 -13    4.21    7.49
   1  -6  13    5.93   14.90
   3   5 -13   20.19    8.41
  -3  -5  13   13.71   13.86
   2   5 -13   31.24   12.27
  -2  -5  13    0.92   16.41
   1   5 -13    0.00   25.16
  -1  -5  13    0.00   13.46
   0   5 -13   16.37   15.70
   0  -5  13   33.10   14.80
   3   4 -13   16.53    6.64
  -3  -4  13   18.91   19.11
   2   4 -13   17.41   12.92
  -2  -4  13   98.38   27.52
   1   4 -13    0.00   12.57
  -1  -4  13   19.25   14.87
   0   4 -13    5.74   11.63
   0  -4  13    7.96   12.63
   3   3 -13   24.07    6.98
  -3  -3  13   22.15   12.72
   2   3 -13    3.33    5.36
  -2  -3  13   14.69   10.36
   1   3 -13   21.04   13.56
  -1  -3  13   26.86   12.51
   0   0   0    0.00    0.00
;
_shelx_hkl_checksum              34065
loop_
_space_group_symop_operation_xyz
'x, y, z'
'-x, -y, -z'
loop_
_atom_site_label
_atom_site_type_symbol
_atom_site_fract_x
_atom_site_fract_y
_atom_site_fract_z
_atom_site_U_iso_or_equiv
_atom_site_adp_type
_atom_site_occupancy
_atom_site_site_symmetry_order
_atom_site_calc_flag
_atom_site_refinement_flags_posn
_atom_site_refinement_flags_adp
_atom_site_refinement_flags_occupancy
_atom_site_disorder_assembly
_atom_site_disorder_group
Zn1 Zn 0.500000 0.000000 0.000000 0.0457(8) Uani 1 2 d S . P A .
Zn2 Zn 0.82012(18) -0.1154(2) -0.11772(18) 0.0428(6) Uani 1 1 d . . . . .
O1 O 0.5576(13) 0.0216(13) -0.1658(11) 0.060(3) Uani 1 1 d . . . . .
O2 O 0.7213(12) -0.0993(13) -0.2724(10) 0.058(3) Uani 1 1 d . . . . .
O3 O 0.7518(13) -0.2857(12) -0.0982(13) 0.066(3) Uani 1 1 d . . . . .
O4 O 0.5463(13) -0.2022(13) -0.0756(13) 0.067(3) Uani 1 1 d . . . . .
N1 N 0.7218(13) 0.0906(14) 0.1127(13) 0.051(3) Uani 1 1 d . U . . .
N2 N 0.8405(13) 0.0507(14) 0.0599(13) 0.044(3) Uani 1 1 d . . . . .
N3 N 0.9688(16) 0.1252(16) 0.1492(14) 0.062(4) Uani 1 1 d . . . . .
C1 C 0.6141(18) -0.0292(19) -0.2623(17) 0.051(4) Uani 1 1 d . . . . .
C2 C 0.5580(17) -0.0154(18) -0.3857(17) 0.053(4) Uani 1 1 d . . . . .
C3 C 0.614(2) -0.074(2) -0.5003(16) 0.076(6) Uani 1 1 d . . . . .
H3 H 0.691357 -0.122601 -0.502566 0.091 Uiso 1 1 calc R U . . .
C4 C 0.446(2) 0.060(2) -0.3870(18) 0.079(6) Uani 1 1 d . . . . .
H4 H 0.409471 0.102252 -0.308858 0.095 Uiso 1 1 calc R U . . .
C5 C 0.621(2) -0.2885(17) -0.0712(17) 0.054(4) Uani 1 1 d . . . . .
C6 C 0.5629(19) -0.3946(18) -0.0353(19) 0.060(5) Uani 1 1 d . . . . .
C7 C 0.427(2) -0.397(2) 0.006(2) 0.082(6) Uani 1 1 d . . . . .
H7 H 0.374019 -0.327338 0.008224 0.098 Uiso 1 1 calc R U . . .
C8 C 0.639(2) -0.500(2) -0.045(2) 0.079(7) Uani 1 1 d . . . . .
H8 H 0.729378 -0.505005 -0.075356 0.094 Uiso 1 1 calc R U . . .
C9A C 0.775(3) 0.225(3) 0.230(3) 0.033(7) Uani 0.5 1 d . U P A 1
H9A H 0.723532 0.291855 0.279037 0.040 Uiso 0.5 1 calc R U P A 1
C9B C 0.768(4) 0.167(4) 0.236(4) 0.045(9) Uani 0.5 1 d . U P A 2
H9B H 0.706649 0.208436 0.295056 0.054 Uiso 0.5 1 calc R U P A 2
C10A C 0.931(2) 0.222(3) 0.248(2) 0.032(5) Uani 0.6 1 d . U P A 1
H10A H 1.001454 0.286385 0.325744 0.039 Uiso 0.6 1 calc R U P A 1
C10B C 0.936319 0.184150 0.276419 0.084(19) Uani 0.4 1 d . U P A 2
H10B H 0.999620 0.222760 0.361521 0.101 Uiso 0.4 1 calc R U P A 2
loop_
_atom_site_aniso_label
_atom_site_aniso_U_11
_atom_site_aniso_U_22
_atom_site_aniso_U_33
_atom_site_aniso_U_23
_atom_site_aniso_U_13
_atom_site_aniso_U_12
Zn1 0.0286(13) 0.069(2) 0.0559(18) 0.0404(16) 0.0143(12) 0.0170(12)
Zn2 0.0248(9) 0.0640(14) 0.0551(13) 0.0376(11) 0.0135(8) 0.0171(8)
O1 0.063(8) 0.092(9) 0.048(7) 0.048(7) 0.021(6) 0.025(7)
O2 0.049(7) 0.105(10) 0.045(7) 0.052(7) 0.013(5) 0.034(7)
O3 0.062(8) 0.068(8) 0.101(10) 0.062(8) 0.032(7) 0.026(6)
O4 0.063(8) 0.068(8) 0.097(10) 0.057(8) 0.028(7) 0.025(7)
N1 0.031(6) 0.067(7) 0.052(7) 0.022(6) 0.015(5) 0.014(5)
N2 0.031(6) 0.061(8) 0.046(7) 0.029(7) 0.007(6) 0.013(6)
N3 0.061(10) 0.078(11) 0.042(9) 0.025(8) 0.006(7) 0.015(8)
C1 0.041(9) 0.080(13) 0.047(11) 0.046(10) 0.008(8) 0.000(9)
C2 0.045(9) 0.073(12) 0.060(12) 0.045(10) 0.014(8) 0.021(9)
C3 0.098(15) 0.127(18) 0.040(11) 0.050(12) 0.033(10) 0.081(14)
C4 0.089(14) 0.134(19) 0.053(12) 0.059(13) 0.037(11) 0.069(14)
C5 0.053(11) 0.049(11) 0.065(12) 0.033(10) 0.009(9) 0.008(9)
C6 0.053(10) 0.067(12) 0.093(14) 0.055(12) 0.034(10) 0.034(9)
C7 0.089(15) 0.091(16) 0.111(17) 0.076(15) 0.039(13) 0.041(12)
C8 0.081(14) 0.096(15) 0.122(18) 0.082(15) 0.072(13) 0.056(12)
C9A 0.019(9) 0.037(10) 0.040(10) 0.011(7) 0.015(6) 0.009(6)
C9B 0.044(11) 0.047(11) 0.047(11) 0.022(8) 0.015(7) 0.012(7)
C10A 0.024(7) 0.036(7) 0.034(7) 0.010(5) 0.007(5) 0.013(5)
C10B 0.08(2) 0.08(2) 0.08(2) 0.039(10) 0.018(6) 0.018(6)
loop_
_atom_type_symbol
_atom_type_description
_atom_type_scat_dispersion_real
_atom_type_scat_dispersion_imag
_atom_type_scat_source
C C 0.0033 0.0016 'International Tables Vol C Tables 4.2.6.8 and 6.1.1.4'
H H 0.0000 0.0000 'International Tables Vol C Tables 4.2.6.8 and 6.1.1.4'
N N 0.0061 0.0033 'International Tables Vol C Tables 4.2.6.8 and 6.1.1.4'
O O 0.0106 0.0060 'International Tables Vol C Tables 4.2.6.8 and 6.1.1.4'
Zn Zn 0.2839 1.4301 'International Tables Vol C Tables 4.2.6.8 and 6.1.1.4'
loop_
_geom_angle_atom_site_label_1
_geom_angle_atom_site_label_2
_geom_angle_atom_site_label_3
_geom_angle
_geom_angle_site_symmetry_1
_geom_angle_site_symmetry_3
N1 Zn1 N1 180.0 . 2_655
N1 Zn1 O1 91.7(5) . .
N1 Zn1 O1 88.3(5) 2_655 .
N1 Zn1 O1 88.3(5) . 2_655
N1 Zn1 O1 91.7(5) 2_655 2_655
O1 Zn1 O1 180.0 . 2_655
N1 Zn1 O4 91.6(5) . .
N1 Zn1 O4 88.4(5) 2_655 .
O1 Zn1 O4 90.6(5) . .
O1 Zn1 O4 89.4(5) 2_655 .
N1 Zn1 O4 88.4(5) . 2_655
N1 Zn1 O4 91.6(5) 2_655 2_655
O1 Zn1 O4 89.4(5) . 2_655
O1 Zn1 O4 90.6(5) 2_655 2_655
O4 Zn1 O4 180.0 . 2_655
O2 Zn2 O3 118.9(5) . .
O2 Zn2 N2 115.3(5) . .
O3 Zn2 N2 107.9(5) . .
O2 Zn2 N3 102.5(5) . 2_755
O3 Zn2 N3 104.3(6) . 2_755
N2 Zn2 N3 106.4(5) . 2_755
C1 O1 Zn1 144.6(11) . .
C1 O2 Zn2 120.2(10) . .
C5 O3 Zn2 110.4(10) . .
C5 O4 Zn1 152.6(13) . .
C9B N1 N2 108(2) . .
N2 N1 C9A 108.1(15) . .
C9B N1 Zn1 129.8(19) . .
N2 N1 Zn1 121.3(10) . .
C9A N1 Zn1 127.7(14) . .
N3 N2 N1 110.2(13) . .
N3 N2 Zn2 126.3(11) . .
N1 N2 Zn2 123.0(10) . .
C10A N3 N2 105.9(16) . .
N2 N3 C10B 108.4(12) . .
C10A N3 Zn2 126.4(14) . 2_755
N2 N3 Zn2 126.4(11) . 2_755
O1 C1 O2 126.6(14) . .
O1 C1 C2 119.3(16) . .
O2 C1 C2 114.2(15) . .
C3 C2 C4 117.7(15) . .
C3 C2 C1 122.4(15) . .
C4 C2 C1 119.9(16) . .
C2 C3 C4 119.4(15) . 2_654
C2 C3 H3 120.3 . .
C4 C3 H3 120.3 2_654 .
C2 C4 C3 122.9(16) . 2_654
C2 C4 H4 118.5 . .
C3 C4 H4 118.5 2_654 .
O4 C5 O3 121.2(15) . .
O4 C5 C6 121.1(17) . .
O3 C5 C6 117.7(15) . .
C7 C6 C8 118.5(15) . .
C7 C6 C5 120.6(15) . .
C8 C6 C5 120.8(16) . .
C6 C7 C8 124.1(17) . 2_645
C6 C7 H7 118.0 . .
C8 C7 H7 118.0 2_645 .
C6 C8 C7 117.4(16) . 2_645
C6 C8 H8 121.3 . .
C7 C8 H8 121.3 2_645 .
C10A C9A N1 98(2) . .
C10A C9A H9A 131.1 . .
N1 C9A H9A 131.1 . .
N1 C9B C10B 111(3) . .
N1 C9B H9B 124.4 . .
C10B C9B H9B 124.4 . .
N3 C10A C9A 115(2) . .
N3 C10A H10A 122.4 . .
C9A C10A H10A 122.4 . .
N3 C10B C9B 98.8(16) . .
N3 C10B H10B 130.6 . .
C9B C10B H10B 130.6 . .
loop_
_geom_bond_atom_site_label_1
_geom_bond_atom_site_label_2
_geom_bond_distance
_geom_bond_site_symmetry_2
Zn1 N1 2.088(12) .
Zn1 N1 2.088(12) 2_655
Zn1 O1 2.092(10) .
Zn1 O1 2.092(10) 2_655
Zn1 O4 2.092(12) .
Zn1 O4 2.092(12) 2_655
Zn2 O2 1.930(9) .
Zn2 O3 1.963(10) .
Zn2 N2 1.988(13) .
Zn2 N3 2.007(15) 2_755
O1 C1 1.204(19) .
O2 C1 1.298(19) .
O3 C5 1.268(19) .
O4 C5 1.233(18) .
N1 C9B 1.24(4) .
N1 N2 1.335(15) .
N1 C9A 1.44(3) .
N2 N3 1.326(16) .
N3 C10A 1.28(3) .
N3 C10B 1.383(14) .
C1 C2 1.484(19) .
C2 C3 1.37(2) .
C2 C4 1.38(2) .
C3 C4 1.39(2) 2_654
C3 H3 0.9300 .
C4 H4 0.9300 .
C5 C6 1.42(2) .
C6 C7 1.38(2) .
C6 C8 1.38(2) .
C7 C8 1.44(2) 2_645
C7 H7 0.9300 .
C8 H8 0.9300 .
C9A C10A 1.41(4) .
C9A H9A 0.9300 .
C9B C10B 1.50(4) .
C9B H9B 0.9300 .
C10A H10A 0.9300 .
C10B H10B 0.9300 .
loop_
_geom_torsion_atom_site_label_1
_geom_torsion_atom_site_label_2
_geom_torsion_atom_site_label_3
_geom_torsion_atom_site_label_4
_geom_torsion
_geom_torsion_site_symmetry_1
_geom_torsion_site_symmetry_4
C9B N1 N2 N3 -11(2) . .
C9A N1 N2 N3 16(2) . .
Zn1 N1 N2 N3 178.5(9) . .
C9B N1 N2 Zn2 160.6(18) . .
C9A N1 N2 Zn2 -171.5(15) . .
Zn1 N1 N2 Zn2 -9.5(15) . .
N1 N2 N3 C10A -9(2) . .
Zn2 N2 N3 C10A 179.6(14) . .
N1 N2 N3 C10B 19.0(15) . .
Zn2 N2 N3 C10B -152.7(8) . .
N1 N2 N3 Zn2 -176.1(10) . 2_755
Zn2 N2 N3 Zn2 12.2(18) . 2_755
Zn1 O1 C1 O2 -31(3) . .
Zn1 O1 C1 C2 147.9(14) . .
Zn2 O2 C1 O1 -6(2) . .
Zn2 O2 C1 C2 175.0(10) . .
O1 C1 C2 C3 -178.1(18) . .
O2 C1 C2 C3 1(2) . .
O1 C1 C2 C4 2(3) . .
O2 C1 C2 C4 -178.6(16) . .
C4 C2 C3 C4 -2(3) . 2_654
C1 C2 C3 C4 178.5(17) . 2_654
C3 C2 C4 C3 2(3) . 2_654
C1 C2 C4 C3 -178.4(18) . 2_654
Zn1 O4 C5 O3 -73(3) . .
Zn1 O4 C5 C6 106(3) . .
Zn2 O3 C5 O4 8(2) . .
Zn2 O3 C5 C6 -171.5(13) . .
O4 C5 C6 C7 -5(3) . .
O3 C5 C6 C7 174.8(18) . .
O4 C5 C6 C8 172.8(19) . .
O3 C5 C6 C8 -7(3) . .
C8 C6 C7 C8 3(4) . 2_645
C5 C6 C7 C8 -179.4(18) . 2_645
C7 C6 C8 C7 -2(3) . 2_645
C5 C6 C8 C7 179.6(17) . 2_645
N2 N1 C9A C10A -16(3) . .
Zn1 N1 C9A C10A -176.6(14) . .
N2 N1 C9B C10B 0(3) . .
Zn1 N1 C9B C10B 168.8(10) . .
N2 N3 C10A C9A -3(3) . .
Zn2 N3 C10A C9A 164.6(18) 2_755 .
N1 C9A C10A N3 12(3) . .
N2 N3 C10B C9B -17.0(17) . .
Zn2 N3 C10B C9B 177.5(16) 2_755 .
N1 C9B C10B N3 11(3) . .
