#------------------------------------------------------------------------------
#$Date: 2017-10-04 18:03:55 +0300 (Wed, 04 Oct 2017) $
#$Revision: 201609 $
#$URL: file:///home/coder/svn-repositories/cod/cif/4/12/65/4126518.cif $
#------------------------------------------------------------------------------
#
# This file is available in the Crystallography Open Database (COD),
# http://www.crystallography.net/
#
# All data on this site have been placed in the public domain by the
# contributors.
#
data_4126518
loop_
_publ_author_name
'Hennersdorf, Felix'
'Fr\"otschel, Julia'
'Weigand, Jan J.'
_publ_section_title
;
 Selective Derivatization of a Hexaphosphane from Functionalization of
 White Phosphorus.
;
_journal_name_full               'Journal of the American Chemical Society'
_journal_paper_doi               10.1021/jacs.7b07704
_journal_year                    2017
_chemical_formula_moiety         'C O P, Na'
_chemical_formula_sum            'C Na O P'
_chemical_formula_weight         81.97
_space_group_crystal_system      hexagonal
_space_group_IT_number           190
_space_group_name_Hall           'P -6c -2c'
_space_group_name_H-M_alt        'P -6 2 c'
_symmetry_space_group_name_Hall  'P -6c -2c'
_symmetry_space_group_name_H-M   'P -6 2 c'
_audit_creation_date             2017-06-21
_audit_creation_method
;
Olex2 1.2
(compiled 2015.09.30 svn.r3233 for OlexSys, GUI svn.r5103)
;
_cell_angle_alpha                90
_cell_angle_beta                 90
_cell_angle_gamma                120
_cell_formula_units_Z            6
_cell_length_a                   8.5229(19)
_cell_length_b                   8.5229(19)
_cell_length_c                   7.178(2)
_cell_measurement_reflns_used    496
_cell_measurement_temperature    100.00(10)
_cell_measurement_theta_max      29.0610
_cell_measurement_theta_min      4.7650
_cell_volume                     451.55(19)
_computing_cell_refinement       'CrysAlisPro 1.171.38.43 (Rigaku OD, 2015)'
_computing_data_collection       'CrysAlisPro 1.171.38.43 (Rigaku OD, 2015)'
_computing_data_reduction        'CrysAlisPro 1.171.38.43 (Rigaku OD, 2015)'
_computing_molecular_graphics    'Olex2 (Dolomanov et al., 2009)'
_computing_publication_material  'Olex2 (Dolomanov et al., 2009)'
_computing_structure_refinement  'ShelXL (Sheldrick, 2015)'
_computing_structure_solution    'ShelXT (Sheldrick, 2015)'
_diffrn_ambient_environment      N~2~
_diffrn_ambient_temperature      100.00(10)
_diffrn_detector                 'CCD plate'
_diffrn_detector_area_resol_mean 5.2850
_diffrn_detector_type            AtlasS2
_diffrn_measured_fraction_theta_full 1.000
_diffrn_measured_fraction_theta_max 1.000
_diffrn_measurement_details
;
List of Runs (angles in degrees, time in seconds):

  # Type    Start    End  Width  t~exp~   \w     \q     \k     \f   Frames
--------------------------------------------------------------------------
  1  \w      6.00  83.10   0.30   20.00    --    9.82  77.00 120.00  257
  2  \w    -20.00  49.00   0.30   20.00    --    9.82 -99.00 150.00  230
  3  \w    -16.00  26.00   0.30   20.00    --   -9.97 -99.00 120.00  140
  4  \w    -53.00 -11.00   0.30   20.00    --   -9.97 -38.00   0.00  140
;
_diffrn_measurement_device       'four-circle diffractometer'
_diffrn_measurement_device_type  'SuperNova, Dual, Cu at zero, AtlasS2'
_diffrn_measurement_method       '\w scans'
_diffrn_orient_matrix_type
'CrysAlisPro convention (1999,Acta A55,543-557)'
_diffrn_orient_matrix_UB_11      0.0391837000
_diffrn_orient_matrix_UB_12      0.0115958000
_diffrn_orient_matrix_UB_13      -0.0897287000
_diffrn_orient_matrix_UB_21      0.0144529000
_diffrn_orient_matrix_UB_22      0.0895550000
_diffrn_orient_matrix_UB_23      -0.0037593000
_diffrn_orient_matrix_UB_31      0.0866111000
_diffrn_orient_matrix_UB_32      0.0332025000
_diffrn_orient_matrix_UB_33      0.0411211000
_diffrn_radiation_monochromator  mirror
_diffrn_radiation_probe          x-ray
_diffrn_radiation_type           MoK\a
_diffrn_radiation_wavelength     0.71073
_diffrn_reflns_av_R_equivalents  0.0603
_diffrn_reflns_av_unetI/netI     0.0346
_diffrn_reflns_Laue_measured_fraction_full 1.000
_diffrn_reflns_Laue_measured_fraction_max 1.000
_diffrn_reflns_limit_h_max       9
_diffrn_reflns_limit_h_min       -10
_diffrn_reflns_limit_k_max       10
_diffrn_reflns_limit_k_min       -10
_diffrn_reflns_limit_l_max       9
_diffrn_reflns_limit_l_min       -9
_diffrn_reflns_number            2556
_diffrn_reflns_point_group_measured_fraction_full 1.000
_diffrn_reflns_point_group_measured_fraction_max 1.000
_diffrn_reflns_theta_full        26.000
_diffrn_reflns_theta_max         26.695
_diffrn_reflns_theta_min         2.760
_diffrn_source                   'micro-focus sealed X-ray tube'
_diffrn_source_type              'SuperNova (Mo) X-ray Source'
_exptl_absorpt_coefficient_mu    0.757
_exptl_absorpt_correction_T_max  0.981
_exptl_absorpt_correction_T_min  0.903
_exptl_absorpt_correction_type   gaussian
_exptl_absorpt_process_details
;
CrysAlisPro 1.171.38.43 (Rigaku Oxford Diffraction, 2015)
Numerical absorption correction based on gaussian integration over
            a multifaceted crystal model
Empirical absorption correction using spherical harmonics,
 implemented in SCALE3 ABSPACK scaling algorithm.
;
_exptl_crystal_colour            colourless
_exptl_crystal_colour_primary    colourless
_exptl_crystal_density_diffrn    1.809
_exptl_crystal_description       needle
_exptl_crystal_F_000             240
_exptl_crystal_size_max          0.278
_exptl_crystal_size_mid          0.038
_exptl_crystal_size_min          0.028
_refine_diff_density_max         1.419
_refine_diff_density_min         -0.437
_refine_diff_density_rms         0.216
_refine_ls_abs_structure_details
;
 Refined as an inversion twin.
;
_refine_ls_extinction_method     none
_refine_ls_goodness_of_fit_ref   1.185
_refine_ls_hydrogen_treatment    undef
_refine_ls_matrix_type           full
_refine_ls_number_parameters     25
_refine_ls_number_reflns         348
_refine_ls_number_restraints     0
_refine_ls_restrained_S_all      1.185
_refine_ls_R_factor_all          0.0869
_refine_ls_R_factor_gt           0.0755
_refine_ls_shift/su_max          0.000
_refine_ls_shift/su_mean         0.000
_refine_ls_structure_factor_coef Fsqd
_refine_ls_weighting_details
'w=1/[\s^2^(Fo^2^)+(0.1205P)^2^+1.6505P] where P=(Fo^2^+2Fc^2^)/3'
_refine_ls_weighting_scheme      calc
_refine_ls_wR_factor_gt          0.2004
_refine_ls_wR_factor_ref         0.2103
_reflns_Friedel_coverage         0.662
_reflns_Friedel_fraction_full    1.000
_reflns_Friedel_fraction_max     1.000
_reflns_number_gt                300
_reflns_number_total             348
_reflns_threshold_expression     'I > 2\s(I)'
_cod_data_source_file            ja7b07704_si_031.cif
_cod_data_source_block           NaOCP_1
_cod_original_cell_volume        451.6(2)
_cod_database_code               4126518
_chemical_oxdiff_formula         'Na O C P'
_shelx_space_group_comment
;
The symmetry employed for this shelxl refinement is uniquely defined
by the following loop, which should always be used as a source of
symmetry information in preference to the above space-group names.
They are only intended as comments.
;
_reflns_odcompleteness_completeness 99.57
_reflns_odcompleteness_iscentric 1
_reflns_odcompleteness_theta     26.67
_olex2_refinement_description
;
1. Twinned data refinement
 Scales: 1.3(13) -0.3(13)
;
_shelx_res_file
;
    jjw0690.res created by SHELXL-2014/7

TITL jjw0690_a.res in P-62c
REM Old TITL jjw0690 in P-62c #190
REM SHELXT solution in P-62c
REM R1 0.101, Rweak 0.011, Alpha 0.050, Orientation as input
REM Flack x = -0.664 ( 0.344 ) from Parsons' quotients
REM Formula found by SHELXT: C O Na P
CELL 0.71073 8.522875 8.522875 7.178137 90 90 120
ZERR 6 0.001874 0.001874 0.0021 0 0 0
LATT -1
SYMM -Y,+X-Y,+Z
SYMM +Y-X,-X,+Z
SYMM +X,+Y,0.5-Z
SYMM -Y,+X-Y,0.5-Z
SYMM +Y-X,-X,0.5-Z
SYMM +Y,+X,-Z
SYMM -Y+X,-Y,-Z
SYMM -X,-X+Y,-Z
SYMM +Y,+X,0.5+Z
SYMM -Y+X,-Y,0.5+Z
SYMM -X,-X+Y,0.5+Z
SFAC C Na O P
UNIT 6 6 6 6

L.S. 10
PLAN  20
BOND $H
LIST 6
MORE -1
CONF
fmap 2
acta 52
TWIN -1 0 0 0 -1 0 0 0 -1 2
REM <olex2.extras>
REM <HklSrc "%.\\jjw0690.hkl">
REM </olex2.extras>

WGHT    0.120500    1.650500
BASF  -0.30061
FVAR       2.29488
P1    4    1.197486    0.336641    0.750000    10.50000    0.01357    0.01024 =
         0.02744    0.00000    0.00000    0.00421
NA1   2    1.000000    0.000000    0.500000    10.16667    0.01187    0.01187 =
         0.02129    0.00000    0.00000    0.00594
NA2   2    0.666667    0.333333    0.515960    10.33333    0.01187    0.01187 =
         0.01744    0.00000    0.00000    0.00593
O1    3    0.873821    0.342271    0.750000    10.50000    0.01594    0.01560 =
         0.04570    0.00000    0.00000    0.00956
C1    1    1.007998    0.338166    0.750000    10.50000    0.02073    0.00816 =
         0.01616    0.00000    0.00000    0.00766
HKLF 4

REM  jjw0690_a.res in P-62c
REM R1 =  0.0755 for     300 Fo > 4sig(Fo)  and  0.0869 for all     348 data
REM     25 parameters refined using      0 restraints

END

WGHT      0.1224      1.7072

REM Highest difference peak  1.419,  deepest hole -0.437,  1-sigma level  0.216
Q1    1   0.9965  0.5002  0.7500  10.50000  0.05    1.42
Q2    1   1.1256  0.3363  0.7500  10.50000  0.05    1.28
Q3    1   0.6667  0.3333  0.7500  10.16667  0.05    0.90
Q4    1   0.9627  0.2020  0.7500  10.50000  0.05    0.86
Q5    1   1.3264  0.3517  0.7500  10.50000  0.05    0.74
Q6    1   0.6769  0.1386  0.7500  10.50000  0.05    0.72
Q7    1   1.2140  0.3390  0.8731  11.00000  0.05    0.66
Q8    1   0.8363  0.1572  0.7500  10.50000  0.05    0.53
Q9    1   0.6667  0.3333  0.5937  10.33333  0.05    0.43
Q10   1   1.0922  0.1484  0.7500  10.50000  0.05    0.42
Q11   1   0.6667  0.3333  0.3747  10.33333  0.05    0.38
Q12   1   1.3892  0.5953  0.7500  10.50000  0.05    0.37
Q13   1   1.1324  0.3279  0.9974  11.00000  0.05    0.31
Q14   1   1.3313  0.3313  1.0000  10.50000  0.05    0.29
Q15   1   1.0000  0.0000  0.3820  10.33333  0.05    0.28
Q16   1   1.1989  0.3372  1.0095  11.00000  0.05    0.26
Q17   1   1.0000  0.4363  1.0000  10.50000  0.05    0.24
Q18   1   0.8860  0.3459  0.8905  11.00000  0.05    0.23
Q19   1   0.6873  0.1050  0.5889  11.00000  0.05    0.16
Q20   1   1.0954  0.4001  0.8949  11.00000  0.05    0.08
;
_shelx_res_checksum              83156
_shelx_hkl_file
;
   0   0  -1 4.96630 19.3900   2
   0   0   1-0.68696 20.4387   1
   0   0   1 30.1432 20.6588   2
   0   0  -1 2.89526 20.5327   1
   0   0   2 40431.6 715.969   2
   0   0   2 39275.5 721.148   1
   0   0  -2 40118.4 717.954   1
   0   0  -2 39229.1 703.695   2
   0   0  -3 15.1142 44.2073   1
   0   0   3-21.2369 51.1984   1
   0   0  -3 58.5567 44.4294   2
   0   0   3 38.4603 44.3094   2
   0   0  -4 87805.1 1544.89   2
   0   0  -4 85895.2 1554.55   1
   0   0   4 86003.6 1582.69   1
   0   0   4 88439.9 1591.63   2
   0   0   5-3.84471 58.1731   2
   0   0  -5-56.7109 69.9802   1
   0   0   6 6502.67 409.093   2
   0   0  -6 6600.75 395.911   2
   0   0   6 6225.91 398.594   1
   0   0   7 65.6999 94.6398   1
   0   0  -7 156.991 96.3022   2
   0   0   7 182.603 113.198   2
   0   0  -7 14.5623 61.3914   3
   0   0   8 13424.8 715.498   2
   0   0  -8 13078.7 581.954   3
  -1   0   0 32.7792 22.6810   4
  -1   1   0 41.1261 27.1413   1
  -1   0   0 45.1037 24.8866   3
  -1   0   0 18.0930 23.4486   2
   1   0   0 40.6796 21.6953   4
   1   0   0 0.88388 19.9030   2
  -1   1  -1 10.1532 20.4183   4
   0   1  -1 17.5143 28.7119   4
   1   0  -1-32.6345 30.9204   4
   0   1   1 18.8632 30.0371   3
   0  -1  -1 31.4573 26.1217   3
   0  -1  -1-1.38590 33.9489   1
   0  -1   1 23.5310 34.6443   4
   0   1   1 45.9821 36.1571   2
   1  -1  -1 19.2330 37.1536   1
   1   0   1 15.3831 36.5420   2
  -1   1  -2 19.4016 29.0593   1
   0   1  -2-8.91751 33.4093   2
   0   1   2 16.3631 44.2234   1
   0  -1  -2 50.3862 46.2705   1
  -1   0  -2 20.0685 46.0689   2
   1  -1  -2 19.8154 43.1783   1
   1  -1   2 36.2428 29.3909   1
  -1   1   2 16.8130 43.3720   1
   1   0   2 37.9922 39.2134   1
   0   1  -2 35.2792 42.8411   4
   0  -1   2-27.7092 35.1776   1
  -1   1  -2-12.1443 41.8895   2
   1  -1  -2 9.69186 23.0756   3
  -1   0   2-30.2004 27.8175   2
   0   1   2 74.0911 49.2047   2
   1   0   2 16.9325 43.1036   2
   0  -1  -2 10.4623 32.2250   3
  -1   0  -2 11.2929 43.2490   1
  -1   0   2 40.6692 47.4984   1
   0  -1  -2-27.0752 38.2208   2
  -1   1   2 10.6010 36.0214   2
   1  -1   3 511.940 92.2751   2
  -1   1  -3 599.754 99.5384   2
   1  -1  -3 572.046 67.4001   3
   0  -1  -3 529.678 90.4963   2
   0   1   3 721.066 110.300   1
   0  -1   3 615.863 90.0108   1
   1   0   3 615.681 104.660   2
  -1   0   3 547.126 72.2244   2
  -1   0  -3 601.351 96.9027   1
   1   0   3 569.780 94.5140   1
  -1   1   3 645.916 94.0972   2
   0   1   3 548.077 101.544   2
   0  -1  -3 624.319 105.887   1
  -1   0  -3 560.313 93.1913   2
   0   1  -3 595.392 96.8835   4
   1  -1  -3 592.265 103.363   1
   0   1  -3 620.528 82.9993   2
  -1   0   3 599.992 102.627   1
   0  -1  -3 731.882 94.1922   3
   1  -1   3 517.560 72.2751   1
  -1   1  -3 587.333 77.9719   1
  -1   1   3 591.699 105.070   1
  -1   1  -4 31.1557 49.8772   2
   1   0  -4 53.9929 42.4004   2
  -1   1  -4 9.03851 44.2282   1
   0  -1   4 315.726 86.9981   1
   1  -1  -4 52.3399 37.7435   3
   0   1  -4-31.9570 58.5576   4
   0  -1   4 82.9770 54.1539   2
  -1   0   4 133.831 58.8132   2
   0   1  -4 59.5919 50.4452   2
  -1   0  -4-9.75259 52.2520   1
   1  -1  -4-7.42729 56.1927   1
   1  -1   4 13.1007 44.4360   1
   1   0   4 94.7571 64.5620   1
   0  -1  -4 33.3051 63.9555   1
  -1   1   4 25.3654 51.9163   2
   1   0   4 13.4732 52.8230   2
   0   1   4-15.0335 52.3738   2
   1  -1   4-6.37218 49.8317   2
   0  -1  -4 3.31565 37.6340   3
   0   1  -5 128.523 83.7108   4
  -1   0  -5 86.9989 65.9526   2
  -1   1  -5 223.222 84.2952   2
   1  -1   5 63.3179 72.9036   2
   0   1   5 69.6591 77.1378   2
   0   1   5 38.8788 70.8651   1
  -1   1   5 49.9491 64.9766   1
   1  -1  -5 219.070 89.3662   1
   0  -1  -5 61.6286 68.2982   2
  -1   0   5 140.356 74.9633   2
   0  -1   5 125.395 72.3232   2
   1   0   5 147.564 80.3860   2
  -1   0   5 88.7503 76.1351   1
  -1   0  -5 53.8256 62.0529   1
   0  -1  -5 86.9654 75.0769   1
   1  -1   5 149.632 67.7611   1
   1  -1  -5 20.1369 36.6131   3
  -1   1  -5 98.3669 65.3158   1
  -1   1   5 2.86548 58.5644   2
  -1   1  -6 29.6513 69.2330   2
   0  -1  -6-10.2236 68.2618   2
   0   1  -6 179.092 76.6197   2
  -1   0  -6 105.830 79.4965   3
   1   0   6 15.7294 71.8037   1
   0  -1  -6 112.391 104.752   1
  -1   1  -6-8.92691 66.7307   4
   0   1   6 42.8626 77.7042   2
  -1   0  -6-37.2702 69.5447   2
   1   0   6 19.7638 74.3132   2
  -1   1   6 123.214 99.3928   1
   0   1  -6-137.749 98.9051   4
  -1   1   6-58.3993 79.8199   2
   0  -1  -6 86.7065 69.6772   3
   1  -1   6 0.92958 72.6384   2
  -1   0   6 27.0615 76.4533   2
   0  -1   6 79.6570 83.1220   1
  -1   0   6-28.8537 72.2623   1
  -1   0  -6 61.0376 79.4529   1
   0   1   6-103.629 90.8722   1
   1  -1   7 632.979 143.490   1
   1   0  -7 615.215 115.098   3
   0   1  -7 595.278 146.658   2
  -1   0   7 584.738 137.215   2
   0  -1   7 512.938 136.890   1
   1  -1  -7 520.247 106.142   3
   0  -1  -7 781.888 196.066   1
   1   0   7 938.169 198.198   2
   0   1   7 874.155 202.595   2
  -1   0  -7 727.749 170.457   1
  -1   1  -7 722.733 176.492   2
  -1   0   7 435.385 154.904   1
  -1   1   7 609.770 155.508   2
   0  -1  -7 644.310 128.600   3
   1   0   7 631.813 155.290   1
  -1   0  -7 587.413 135.129   3
   1   0  -8 299.202 97.2510   3
   1   0   8 245.113 130.546   2
   0   1  -8 155.195 94.7285   3
   1  -1  -8 24.8238 60.1036   3
  -1   0  -8 48.1950 75.7415   3
  -1   1   8-32.5272 101.004   2
   0   1   8-78.6624 126.651   2
  -1   0   8-91.8716 98.2258   2
   0  -1  -8 190.048 94.1115   3
  -1   1  -8 83.0021 84.5318   3
   0   1   9 27.5836 135.097   2
  -1   0  -9-73.4250 100.589   3
  -1   1   9-38.2668 134.821   2
  -1   1  -9-114.818 110.935   3
   1   1   0 3932.36 150.529   2
   1   1   0 3492.79 145.595   3
   1  -2   0 3971.03 155.722   1
   1   1   1 54.6135 47.6879   2
   1   1  -1 106.086 42.1260   4
   1  -2  -1 95.2915 51.2258   1
   1  -2   1 63.2008 23.3723   1
   1   1   1 96.8212 46.8336   3
   1  -2   2 46562.8 824.421   4
   1   1  -2 45859.2 896.954   4
  -2   1  -2 45090.1 799.177   1
   1  -2  -2 44270.2 920.458   1
   1   1   2 46058.9 927.688   2
   1   1  -3 65.4534 59.8283   4
   1  -2  -3 49.6410 64.9053   1
  -2   1   3 18.1151 62.0539   1
   1  -2  -3 17.6136 34.9838   3
   1  -2   3 73.4433 35.0649   1
  -2   1  -3-27.0757 62.9945   2
   1   1   3 24.6628 49.5480   1
   1   1   3 96.3886 63.6065   2
  -2   1   3 32.8049 41.1555   2
   1   1  -3 8.12977 23.5507   2
  -2   1  -3 11.0877 43.6718   1
   1  -2   4 861.604 95.6358   1
  -2   1   4 890.622 113.249   2
  -2   1   4 1006.91 156.501   1
   1  -2  -4 929.756 145.883   1
   1   1  -4 1032.48 148.975   4
  -2   1  -4 1143.15 129.286   1
  -2   1  -4 1026.12 155.548   2
   1  -2  -4 1056.09 107.500   3
   1   1   4 966.274 150.798   2
   1   1  -4 888.118 90.8070   2
  -2   1   5-16.8498 53.8137   2
  -2   1   5 65.9625 80.4496   1
   1   1   5 102.726 83.5625   1
  -2   1  -5 4.27603 61.7742   1
   1   1   5-36.4217 70.7533   2
   1   1  -5 32.4267 66.0864   4
   1   1  -5 45.6442 49.6747   2
   1  -2   5-25.8527 49.5556   1
  -2   1  -5 73.1161 70.9454   2
   1  -2  -5 17.6121 72.8306   1
   1  -2  -6 8367.66 517.513   1
  -2   1   6 8105.37 427.048   2
   1   1   6 8021.32 490.516   1
  -2   1   6 8132.17 517.880   1
   1  -2  -6 8187.26 357.183   3
   1   1   6 8652.22 541.526   2
  -2   1  -6 8684.72 449.709   1
  -2   1  -6 8035.54 489.776   2
  -2   1   7 33.0733 81.2622   2
   1  -2  -7 22.5436 51.4736   3
   1  -2  -7 12.0478 94.7752   1
  -2   1  -7 48.0988 84.5480   1
   1   1   7 137.530 118.203   2
   1   1  -8 168.427 88.1730   3
   1   1   8-27.5704 125.934   2
  -2   1  -8-31.3736 85.4051   3
   1  -2  -8 15.1471 60.7052   3
  -2   1   8 107.909 113.059   2
   2  -1   0 3561.30 120.093   4
  -1   2   0 3356.59 144.910   1
  -1  -1   0 3792.35 147.902   2
  -1  -1  -1 129.890 46.1255   2
  -1   2   1 123.661 57.9509   1
  -1   2   2 46061.3 811.716   3
  -1   2  -2 46408.2 813.616   4
  -1  -1  -2 43821.1 928.105   1
  -1  -1  -2 46070.9 889.005   3
  -1  -1  -3 139.977 69.5227   1
  -1   2  -3 18.0056 49.7254   2
   2  -1  -3 31.2792 16.7624   3
  -1   2   3 15.4931 49.8748   2
  -1   2   3 63.9871 51.9961   3
  -1  -1  -3 20.4598 44.0420   3
  -1   2  -3 28.2431 46.5994   4
   2  -1   3-16.1733 55.6258   2
  -1   2   4 1001.10 150.561   1
  -1  -1   4 900.466 136.019   1
  -1   2  -4 976.766 126.840   4
  -1   2  -4 1038.72 141.312   2
   2  -1   4 854.549 137.240   2
  -1   2   4 957.440 136.193   2
   2  -1  -4 832.015 71.4603   3
  -1  -1  -4 948.759 147.303   1
  -1  -1  -4 1038.28 143.436   2
  -1  -1  -5 15.2819 63.1833   2
  -1   2   5-45.2382 73.0413   2
   2  -1   5-13.2937 47.7407   1
  -1  -1  -5-17.1691 79.5211   1
   2  -1   5-55.0820 74.7485   2
  -1  -1  -5-5.79781 53.5256   3
   2  -1  -5 2.96424 33.5494   3
  -1   2  -5 113.127 64.0791   4
  -1   2   5 27.5418 65.2345   1
   2  -1   6 7727.85 484.873   2
   2  -1  -6 7680.38 289.717   3
  -1   2  -6 8046.33 445.371   2
  -1   2   6 8495.46 522.330   1
  -1  -1  -6 9149.24 546.119   1
  -1   2  -6 8125.56 452.593   4
  -1  -1  -6 7971.25 418.591   3
  -1  -1   6 8194.54 473.400   1
  -1   2   6 8675.14 501.539   2
  -1  -1  -6 8045.67 492.598   2
  -1  -1  -7-16.4217 110.899   1
  -1   2  -7 160.197 108.566   2
  -1  -1   7 127.045 103.516   1
   2  -1   7-46.1333 74.7997   1
  -1   2   7-143.668 117.023   2
  -1  -1  -7 47.5066 78.1141   3
  -1   2   8-52.5285 116.438   2
  -1  -1  -8-120.382 102.811   3
   2   0   0 3894.73 178.694   2
  -2   0   0 3929.61 163.362   4
   0  -2   0 4728.01 212.320   1
  -2   0   0 4446.89 185.668   2
  -2   2   0 4405.32 185.610   1
  -2   0   0 4267.89 170.888   3
  -2   0   1 18789.3 460.323   4
   0   2   1 18566.4 432.935   3
   2   0  -1 18172.9 453.566   4
   0  -2  -1 18627.2 497.174   1
   2   0  -1 18680.8 349.817   3
   2   0   1 19544.5 500.143   2
   0  -2   1 18501.3 448.626   4
  -2   0  -1 19174.2 472.717   3
  -2   2   1 19581.5 499.208   1
  -2   0  -1 19620.0 497.493   2
   2  -2  -1 19380.2 493.686   1
   0   2  -2 2121.04 154.352   4
  -2   0  -2 2230.25 165.406   1
   0   2   2 2339.77 178.991   2
   0  -2  -2 2525.63 160.775   3
  -2   2  -2 2430.29 109.573   4
   0  -2  -2 2059.11 177.316   1
   0   2   2 2265.69 161.196   3
   2   0   2 2389.42 189.631   2
   2   0  -2 2231.44 170.459   4
  -2   2   2 2116.24 102.726   3
   0  -2   2 2218.83 163.564   4
   2  -2  -2 2297.41 185.794   1
   2   0   3 5360.33 316.015   2
   0  -2  -3 5520.54 257.781   3
  -2   2  -3 5449.41 299.843   2
   0   2  -3 5660.05 286.600   4
  -2   0  -3 5432.94 289.201   1
  -2   2  -3 5657.32 223.136   4
   2  -2  -3 5186.26 304.653   1
  -2   2  -3 4860.29 164.668   1
   0   2  -3 5520.30 232.275   2
  -2   2   3 5602.67 212.921   3
   2   0  -3 5674.62 317.003   4
   0   2   3 5553.91 290.983   3
   0   2   3 5254.80 297.638   2
   0  -2  -3 5317.36 312.150   1
  -2   0   3 4719.16 167.371   2
   0  -2  -4 1088.73 167.600   1
   0  -2   4 1154.80 132.191   1
   0   2   4 1004.02 155.351   2
   2   0   4 1179.08 172.302   2
   2  -2  -4 1097.81 161.877   1
   0   2  -4 988.035 116.490   2
   2   0  -4 1116.61 162.457   4
  -2   2   4 914.153 132.628   2
  -2   0   4 969.372 98.6030   2
  -2   2  -4 1130.76 127.911   4
   0   2   4 1067.29 163.561   1
   0   2  -4 1087.40 150.297   4
  -2   2   4 1065.79 164.728   1
  -2   0  -4 1197.23 163.442   1
  -2   2  -4 1128.32 104.679   1
  -2   0  -4 992.484 153.070   2
   2  -2   5 7012.82 304.206   1
   0  -2   5 7684.74 366.233   1
   0   2   5 7238.94 445.893   1
   2   0   5 8069.63 468.912   2
   2   0  -5 7908.93 471.177   4
   0  -2  -5 7446.34 457.328   1
  -2   2  -5 7188.95 418.041   2
   0   2  -5 7664.57 421.781   4
  -2   2   5 7872.51 411.161   2
  -2   0  -5 7413.23 406.555   3
   2  -2  -5 6772.44 418.445   1
  -2   0   5 7902.86 462.258   1
  -2   0  -5 7544.00 445.647   2
  -2   0  -5 8477.12 462.454   1
   0   2  -5 7588.78 350.324   2
  -2   0   5 7226.55 312.918   2
   0  -2  -5 7436.81 349.903   3
   0   2   5 7973.13 457.553   2
   2  -2  -5 7448.83 265.928   3
  -2   2   5 7207.60 458.098   1
  -2   2  -5 7898.69 375.374   4
   0  -2  -6 959.649 200.062   1
  -2   0   6 781.219 123.796   2
  -2   0  -6 657.050 140.436   3
  -2   0  -6 975.160 184.750   2
  -2   0   6 755.620 172.464   1
   0   2   6 745.650 169.708   2
  -2   2  -6 870.251 170.579   2
   0   2  -6 656.584 148.663   4
  -2   2  -6 906.246 153.355   4
   2   0  -6 509.823 82.3740   3
   2   0   6 529.382 162.235   2
  -2   2   6 914.569 169.367   2
   0  -2  -6 879.376 134.924   3
   0   2   6 777.889 175.080   1
   2   0   6 1536.49 216.750   1
   2  -2   6 747.751 118.810   1
  -2   0  -6 780.187 173.498   1
   0  -2   7 834.245 150.226   1
  -2   0   7 850.641 145.045   2
  -2   2  -7 628.689 141.550   4
   0   2   7 1233.95 240.557   2
   0   2  -7 1003.06 168.313   2
   0  -2  -7 1109.63 232.244   1
   2   0   7 1194.52 234.474   2
  -2   2   7 1063.28 196.320   2
   0  -2  -7 1004.61 155.423   3
  -2   0  -7 1144.51 220.341   1
  -2   0  -7 867.335 167.866   3
  -2   2   8 527.036 177.090   2
   0  -2  -8 548.005 128.435   3
   0  -2  -8 185.545 147.226   1
  -2   0  -8 187.145 139.317   1
  -2   0  -8 359.716 135.338   3
   2   0   8 77.4140 121.324   2
   0   2   8 326.648 161.645   2
   2   1   0 3661.96 182.535   2
   1   2   0 3263.94 174.191   2
   2  -3   0 3816.65 187.477   1
   1   2   0 3000.33 159.034   3
   1  -3   0 3154.13 178.211   1
   2   1   0 3321.95 177.434   3
   2   1  -1 7761.41 226.608   2
  -3   1  -1 7773.89 335.798   2
   1   2   1 7906.07 309.894   2
  -3   1  -1 8128.05 200.981   4
   1  -3  -1 7764.64 319.672   1
   2   1  -1 7750.08 304.135   4
   1   2   1 7742.98 299.472   3
   2   1  -1 7821.74 242.615   3
   2   1   1 8130.15 324.908   3
   1  -3   1 7582.15 253.506   1
   2  -3  -1 8317.90 327.435   1
   2   1   1 7973.24 321.914   2
   2  -3   1 7936.19 218.450   1
   1   2  -2 1895.08 167.627   4
   1   2   2 2029.34 177.328   3
   1  -3  -2 1930.85 183.126   1
   2  -3  -2 1910.47 181.825   1
   2   1   2 1937.06 187.170   2
   2   1  -2 1984.01 174.177   4
   1   2   2 1942.68 179.259   2
   2  -3   2 1943.99 134.088   4
   1  -3   2 1796.05 147.931   4
  -3   1  -3 5789.44 286.229   1
  -3   2  -3 5545.85 190.383   4
   1   2   3 5991.90 338.861   2
   1  -3   3 6476.05 312.515   4
   1   2  -3 5174.58 175.662   2
   1  -3  -3 6083.09 346.417   1
   2  -3  -3 5942.26 341.153   1
   2   1  -3 6279.44 340.828   4
   1   2   3 6441.31 347.398   3
   1   2  -3 5903.38 317.613   4
   2   1   3 6151.94 352.260   2
  -3   2  -3 6999.68 266.640   1
   1  -3  -4 1030.62 168.513   1
   2   1   4 810.060 159.647   2
  -3   1  -4 817.380 151.591   2
   1   2   4 954.924 162.295   1
  -3   2  -4 765.556 146.715   2
  -3   1   4 894.618 106.028   2
   2  -3  -4 782.971 148.105   1
  -3   2  -4 908.973 100.030   4
  -3   2   4 667.686 140.478   1
   1  -3   4 874.735 92.1259   1
   1   2  -4 933.877 148.066   4
  -3   1   4 815.573 157.353   1
  -3   2   4 885.336 120.471   2
   2   1  -4 1038.29 159.104   4
  -3   2  -4 1107.37 121.010   1
   1   2  -4 770.599 77.3562   2
  -3   1  -4 986.085 147.117   1
   1   2   4 916.004 158.300   2
   2  -3  -5 933.463 176.275   1
  -3   2   5 770.846 131.860   2
   1  -3  -5 796.667 164.138   1
  -3   1  -5 990.806 163.733   1
  -3   2  -5 853.707 118.581   4
   1   2   5 916.972 177.648   2
   1  -3   5 654.588 95.6705   1
  -3   2  -5 883.875 126.610   1
  -3   1   5 864.715 121.289   2
   1   2  -5 804.439 94.2470   2
  -3   1  -5 922.856 172.254   2
  -3   2   5 860.500 174.340   1
   1   2  -5 897.281 166.031   4
   1   2   5 700.551 163.502   1
   2  -3   5 487.630 68.6530   1
   1  -3  -5 909.757 116.818   3
   2   1   5 743.461 170.186   2
  -3   1   5 749.248 162.608   1
  -3   2  -5 784.978 153.685   2
   2   1  -5 1039.15 180.359   4
   1  -3  -6 285.177 80.8680   3
  -3   2  -6 240.147 90.2497   1
   2  -3   6 260.211 65.8055   1
  -3   2  -6 318.150 89.8937   4
  -3   2   6 209.963 104.350   2
   2   1   6 199.219 134.006   2
   1   2  -6 286.377 75.6172   2
  -3   1   6 210.038 83.9641   2
  -3   1  -6 439.776 131.315   1
   1  -3   6 308.158 83.9459   1
   1   2   6 272.172 149.904   2
   2  -3  -6 289.510 137.740   1
   1  -3  -6 567.159 171.015   1
   2   1   7 1765.61 293.037   2
   1  -3  -7 1474.67 269.847   1
  -3   2   7 1389.07 206.989   2
  -3   1   7 1582.74 197.231   2
  -3   2  -7 1383.46 202.074   4
  -3   1  -7 1628.63 235.756   1
   1   2   7 1563.84 277.716   2
   1  -3  -7 1519.65 174.292   3
   2  -3  -7 1444.40 264.625   1
   1  -3  -8 198.892 85.3549   3
  -3   1  -8 100.012 96.2834   3
   2   1   8 127.007 145.176   2
   1   2   8 258.817 155.257   2
  -3   2   8 233.802 115.360   2
   1  -3  -8 328.699 193.934   1
  -3   1  -8 397.309 144.222   1
   2  -4   0 34851.0 750.500   1
   2   2   0 33930.5 728.168   2
   2   2   0 33963.6 739.611   3
   2   2  -1 24.7873 37.9548   3
   2  -4   1-25.3767 38.8174   1
   2   2   1 9.07112 45.9529   2
   2   2   1-25.0459 48.6970   3
   2   2  -1 34.4527 41.1545   2
   2  -4  -1 70.1586 73.2291   1
   2   2  -2 1112.94 66.3813   2
   2  -4   2 1099.83 73.3153   1
   2   2   2 1525.54 168.714   2
   2  -4   2 1276.35 125.114   4
   2   2   2 1556.74 173.134   3
   2  -4  -2 1381.97 165.252   1
  -4   2  -3 8.81581 15.1071   4
   2   2  -3 3.86085 55.8552   4
  -4   2   3 90.5171 62.7007   1
  -4   2  -3 94.1474 68.7079   2
   2  -4   3 95.6466 60.4542   4
   2   2   3-72.2982 73.3344   2
   2  -4  -3-23.8074 63.2568   1
  -4   2   4 15415.3 667.087   1
   2   2   4 15881.1 669.494   2
  -4   2  -4 17880.7 569.260   1
   2   2  -4 15631.5 631.124   4
   2  -4  -4 14834.1 646.363   1
  -4   2  -4 14621.0 654.097   2
  -4   2  -5 34.5873 78.8393   2
   2   2   5-100.244 88.4008   2
  -4   2  -5 58.4035 85.9633   1
  -4   2   5 105.766 68.8239   2
   2  -4  -5 119.108 96.1139   1
   2  -4  -6-10.2281 90.6086   1
  -4   2   6 29.9790 64.2390   2
   2   2   6-60.5204 102.146   2
  -4   2  -6-107.820 66.6613   4
  -4   2  -6 119.341 92.1413   1
  -4   2  -7-40.8480 80.0308   1
   2   2   7-13.1896 113.766   2
  -4   2   7 34.3741 77.1859   2
   2  -4  -7-9.19123 115.566   1
   2   2   8 2702.17 397.164   2
   2  -4  -8 2529.37 391.154   1
  -2  -1   0 3344.66 175.715   3
  -2  -1   0 3400.92 172.011   2
  -2   3   0 3475.83 177.663   1
   3  -1   0 3017.78 147.998   4
  -1   3   0 3404.73 195.337   1
  -2  -1   1 7778.18 313.392   4
   3  -1  -1 7330.88 282.394   4
  -1   3   1 7610.34 323.933   1
  -1  -2  -1 8006.27 346.770   1
  -2  -1   1 7948.05 212.885   2
  -2  -1  -1 8690.21 320.949   3
  -2   3  -1 7633.53 220.060   1
  -2  -1  -1 8292.89 318.441   2
  -2   3   1 7836.18 323.619   1
  -1  -2  -2 1941.41 190.236   1
   3  -1  -2 1956.75 177.233   4
  -1   3   2 1848.29 139.927   3
  -2  -1  -2 1740.74 172.605   1
  -1   3   3 6259.59 333.665   2
  -1   3  -3 6371.16 296.722   4
  -2   3   3 5990.85 256.937   3
  -2   3  -3 6394.64 260.412   4
  -2  -1  -3 6028.56 341.064   1
   3  -1   3 6259.93 361.831   2
  -1   3   3 6097.64 293.262   3
  -1  -2  -3 6323.16 363.658   1
  -1  -2  -4 1103.63 161.036   2
  -2  -1  -4 908.674 156.851   1
  -2   3  -4 780.191 108.947   4
  -2   3   4 930.651 119.708   3
  -1   3   4 801.986 151.152   1
   3  -1   4 703.734 142.778   2
  -2  -1  -4 694.422 131.133   2
  -1   3  -4 934.975 127.918   4
  -2   3   4 859.452 140.741   2
  -2   3   4 840.638 152.622   1
  -1  -2  -4 964.619 168.097   1
  -1  -2  -4 883.378 130.263   3
  -2  -1  -4 919.852 142.528   3
  -1   3   4 994.646 140.344   3
  -1   3  -4 901.223 127.006   2
  -1   3   4 941.090 148.236   2
  -2  -1  -5 1028.50 158.280   3
  -1  -2  -5 810.093 130.914   3
  -1   3  -5 813.103 141.176   4
  -2  -1   5 988.225 180.078   1
  -1  -2  -5 846.536 174.746   1
  -1  -2  -5 655.389 141.526   2
  -2  -1  -5 1090.49 192.673   1
  -1   3   5 597.774 147.681   1
  -2   3   5 874.220 160.359   2
  -2   3  -5 811.126 128.231   4
  -2   3   5 809.821 172.991   1
  -1   3   5 896.024 166.739   2
  -2   3  -5 791.036 149.686   2
   3  -1   5 756.775 162.829   2
  -2  -1  -5 942.489 170.589   2
  -2   3  -6 175.710 86.5070   2
  -2  -1  -6 378.294 149.452   1
  -2   3  -6 302.522 107.414   4
   3  -1   6 332.413 150.421   2
  -1  -2  -6 377.786 148.243   1
  -1   3  -6 325.165 112.549   2
  -1  -2   6 314.868 116.008   1
  -2  -1  -6 111.395 72.5850   3
  -1   3   6 290.295 125.350   2
  -1  -2  -6 223.381 89.3241   3
  -2  -1   6 386.689 146.010   1
  -2   3   6 368.060 122.730   2
  -1   3  -6 493.572 126.027   4
  -2   3   7 1785.59 269.592   2
  -1  -2   7 1420.21 217.707   1
  -1   3   7 1428.43 246.415   2
  -2  -1  -7 1769.64 295.587   1
  -2   3  -7 1225.49 211.580   4
  -1   3  -7 1337.48 198.531   2
  -1  -2  -7 1914.55 308.901   1
  -2   3  -7 1356.03 234.347   2
  -1  -2  -7 1586.44 204.130   3
  -2  -1  -7 1582.56 222.814   3
  -1   3   8-125.411 128.933   2
  -2  -1  -8 137.448 154.988   1
  -1  -2  -8 211.758 107.086   3
  -2  -1  -8 117.395 101.503   3
  -2   3   8 203.446 141.091   2
  -1  -2  -8 340.271 190.939   1
  -3   0   0 15348.6 421.767   4
  -3   3   0 15396.9 428.837   1
  -3   0   0 16272.5 450.923   2
   0  -3   0 16804.1 500.795   1
  -3   0   0 15800.8 427.890   3
  -3   0   1 109.278 56.0897   4
  -3   3   1 93.5701 60.9888   1
  -3   0  -1 116.950 55.0834   3
   3   0   1 145.781 73.7425   2
  -3   0   1 67.6742 41.6305   2
   0  -3  -1 124.149 64.7294   1
  -3   0   1 114.364 40.4926   3
  -3   3  -1 129.938 41.0887   1
  -3   0  -1 98.0449 55.6216   2
   0   3   1 56.1460 37.7235   3
   3   0  -1 126.000 60.2480   4
   0   3   2 11996.2 442.227   2
   0  -3  -2 11446.9 462.349   1
   3   0  -2 11920.7 431.215   4
   3   0   2 11937.3 467.999   2
   3  -3  -2 11827.0 455.720   1
   3   0  -2 10461.6 244.094   3
   0   3   2 12272.7 412.502   3
   3  -3   2 11787.7 260.966   4
  -3   0   2 10079.6 249.281   2
  -3   3   3 59.5105 36.0634   3
   0   3  -3 97.0839 62.9709   4
   0   3   3-16.7199 48.8727   3
   0   3   3 36.0122 59.0260   2
   3   0  -3 212.353 79.2452   4
   3  -3  -3 32.3485 55.3886   1
  -3   0  -3 130.451 72.6841   1
  -3   0   3 37.6101 16.4948   2
   0  -3  -3-58.5692 62.8346   1
   3   0  -3 19.2817 12.2054   3
   3   0   3 52.3781 61.8030   2
   3   0   4 4882.60 351.421   2
  -3   3  -4 4616.50 326.866   2
   0  -3  -4 5223.42 285.693   3
   0   3  -4 5117.88 252.331   2
  -3   0  -4 5220.38 332.647   1
   0  -3  -4 4939.23 357.283   1
  -3   0  -4 4950.53 346.481   2
   0   3   4 5160.84 347.050   2
  -3   3   4 5181.57 301.278   2
   3   0  -4 5045.17 348.522   4
   0   3   4 4723.76 347.135   1
   3  -3  -4 4639.49 334.774   1
  -3   3  -4 5047.46 228.457   4
   0   3  -4 4966.70 309.988   4
   0   3   4 5353.27 336.172   3
  -3   0  -4 4919.82 329.571   3
  -3   3   4 5031.64 362.209   1
  -3   0   4 5132.02 357.900   1
   0  -3  -5 97.8290 94.7838   1
   0   3   5 64.9624 86.4985   2
  -3   3  -5-58.2158 77.9694   2
  -3   0  -5-0.58114 77.0265   2
   0  -3  -5-4.13402 51.3804   3
  -3   0   5 76.8385 36.4100   2
  -3   3   5 56.7054 94.3102   1
   3   0   5 189.438 113.039   2
   0   3   5-22.6072 70.4148   1
   0  -3   5 78.6193 71.6025   1
   0   3  -5 165.906 68.8158   2
   0   3  -5-15.5164 62.0157   4
  -3   3  -5 76.2089 55.6903   4
  -3   0  -5 3.30622 84.8917   1
   3   0  -5 10.1628 16.4053   3
  -3   3   5 111.450 78.8723   2
  -3   0   5 147.497 103.449   1
  -3   0  -5 68.7665 68.3206   3
   3   0   6 2280.58 296.470   2
  -3   0  -6 3063.36 333.696   1
  -3   3  -6 1909.75 250.291   2
   0   3   6 2540.21 303.862   2
  -3   3   6 2535.71 259.735   2
  -3   0   6 1659.84 141.524   2
   0  -3  -6 2309.98 306.480   1
   0  -3  -6 2276.27 213.203   3
  -3   3  -6 2462.98 220.759   4
  -3   0  -6 2361.78 263.970   3
   0  -3  -7 3.64388 64.3396   3
  -3   0  -7 107.088 94.3626   3
  -3   3  -7-39.9657 87.7357   4
   3   0   7-35.1855 104.857   2
   0   3   7 98.0348 107.046   2
  -3   0  -7 260.369 148.715   1
   0  -3  -7-74.6556 143.387   1
  -3   3   7 195.589 118.980   2
   0  -3  -8 1078.13 284.209   1
   3   0   8 384.315 168.270   2
   0   3   8 452.774 201.580   2
  -3   3   8 425.943 158.130   2
   0  -3  -8 685.326 146.660   3
  -3   0  -8 794.995 223.860   1
  -3   0  -8 577.807 161.688   3
   1   3   0 1006.61 118.289   2
   3  -4   0 844.425 116.240   1
   3   1   0 931.000 115.609   3
  -4   1   0 975.476 132.768   2
  -4   1   0 1017.38 105.088   4
   3   1   0 884.309 120.782   2
   1  -4   0 944.125 125.073   1
   1   3   0 833.410 101.661   3
  -4   1  -1 2008.56 191.991   2
   3   1   1 2118.36 190.296   2
  -4   1  -1 2009.26 121.567   4
  -4   3   1 1899.37 181.943   1
   1   3   1 1992.02 174.578   2
   1  -4  -1 2048.52 188.071   1
   1  -4   1 1990.25 158.386   1
   1   3   1 1892.65 161.782   3
  -4   1   1 1814.76 127.248   3
   3  -4  -1 1800.76 179.944   1
   3   1  -1 1928.98 140.270   3
   1   3   2 483.098 100.713   3
   1  -4  -2 634.200 120.672   1
   1   3   2 807.361 124.982   2
  -4   3   2 752.707 135.872   1
  -4   1  -2 664.883 133.969   2
   3   1   2 717.344 131.108   2
   3   1  -2 628.749 110.750   4
   3   1  -2 621.484 74.8420   3
   3  -4   2 695.393 85.1542   4
   3  -4  -2 629.961 121.956   1
   3   1  -3 3042.56 252.299   4
   3  -4  -3 2812.90 257.691   1
  -4   3   3 2775.93 256.523   1
   3   1   3 2927.87 267.416   2
  -4   1  -3 2776.63 256.829   2
   1  -4  -3 2922.81 263.850   1
   1   3   3 2813.79 248.339   2
   1   3   3 2915.17 250.865   3
  -4   3  -3 3006.25 162.856   1
  -4   3   3 2315.13 110.558   3
  -4   3  -3 3012.05 264.655   2
   3  -4   3 3340.68 199.155   4
   3   1  -3 2678.22 133.403   3
  -4   1  -4 529.354 132.512   2
   1  -4  -4 468.990 134.394   1
  -4   3  -4 432.333 121.358   2
   1   3   4 532.320 131.555   2
   3   1  -4 505.038 127.099   4
  -4   3  -4 433.087 73.6012   1
   3   1   4 410.508 128.531   2
   1  -4   4 449.198 74.2848   1
   1   3  -4 389.366 57.7137   2
  -4   1   4 280.812 104.604   1
  -4   3  -4 397.678 53.0876   4
   1   3  -4 500.405 114.329   4
   3  -4  -4 460.221 131.851   1
  -4   3   4 460.216 128.090   1
  -4   1  -4 445.357 109.401   1
   1  -4   4 575.524 128.269   4
  -4   1   4 382.999 67.4230   2
   1   3   5 328.544 129.290   2
   1  -4   5 310.481 69.1226   1
  -4   3  -5 236.718 60.4427   1
  -4   1   5 431.215 143.369   1
   3   1   5 252.839 107.719   2
  -4   3  -5 473.326 147.543   2
  -4   1   5 354.912 74.4784   2
  -4   3  -5 278.882 69.0047   4
  -4   1  -5 344.417 117.897   1
  -4   3   5 144.795 77.6480   2
   1  -4  -5 146.852 102.894   1
   3  -4  -5 180.344 102.493   1
   1   3  -5 196.189 48.3469   2
  -4   1  -6 72.3800 96.1438   1
  -4   3  -6 132.178 74.8947   4
   1   3   6 439.080 155.006   2
  -4   1   6 123.816 62.0205   2
   1  -4   6 170.079 60.4804   1
  -4   3  -6 108.236 52.9688   1
  -4   3   6 97.7846 85.9628   2
   3  -4  -6 404.815 151.532   1
   1  -4  -6 183.825 130.334   1
   3   1   6 134.902 119.009   2
   1   3  -6 400.771 66.5880   2
  -4   3   7 1176.12 198.421   2
  -4   1  -7 1697.51 259.184   1
   1   3   7 980.558 229.710   2
   1  -4  -7 1318.62 274.164   1
  -4   1  -7 1103.52 208.738   3
   3   1   7 1530.75 280.178   2
   3   1   8 238.931 168.825   2
   1   3   8 153.893 141.812   2
   1  -4  -8 140.735 147.270   1
  -4   1  -8 155.757 123.964   3
   3   2   0 364.390 90.9202   3
   3   2   0 232.675 82.3722   2
   3  -5   0 199.971 72.5667   1
   2   3   0 231.575 67.4502   3
   2   3   0 277.839 81.9267   2
   2  -5   0 302.951 76.5825   1
   3  -5  -1 604.319 123.960   1
   2   3   1 592.170 109.330   3
   3   2  -1 513.292 84.8064   3
   3   2   1 522.175 108.292   3
  -5   2  -1 504.714 107.631   2
   2  -5  -1 423.137 105.985   1
   3   2  -1 594.196 96.0147   2
   3  -5   1 471.770 80.4126   1
   2   3  -1 598.476 94.6794   2
   3   2   1 618.176 118.354   2
   2   3   1 492.506 107.083   2
   2  -5   1 594.630 95.6095   1
   2   3  -1 527.113 88.1708   3
   2   3  -2 209.079 55.0812   2
   3   2  -2 205.914 61.2362   3
   3  -5  -2 127.653 68.7369   1
   3   2   2 580.103 147.230   2
  -5   2   2 190.555 42.2779   3
   2  -5  -2 87.4113 74.1570   1
  -5   3  -2 209.699 79.3717   2
  -5   3   2 213.805 85.8774   1
   3   2   2 155.351 92.3523   3
  -5   2  -2 192.458 90.0467   2
   2  -5   2 222.048 59.8877   1
   3  -5   2 249.247 65.6956   4
   2   3   2 211.179 84.5865   3
   2   3   2 134.438 83.0677   2
   2  -5   3 759.491 67.0833   1
   3  -5  -3 1128.38 178.696   1
   2  -5  -3 1195.12 186.759   1
   3   2   3 1120.88 183.425   2
   2   3   3 1157.64 178.489   3
  -5   3  -3 1086.76 173.931   2
   2   3   3 1088.39 171.602   2
  -5   3   3 942.593 168.121   1
   3   2  -3 1187.62 168.347   4
   3  -5   3 1259.29 145.022   4
   3   2  -3 1047.15 104.075   3
  -5   2  -3 1666.52 227.893   2
  -5   2   4 209.484 108.167   1
  -5   3  -4 189.650 80.4979   1
   2  -5  -4 170.216 99.2860   1
   2  -5   4 61.0225 72.3005   4
  -5   2  -4 204.902 110.937   2
   2   3  -4 383.308 115.547   4
  -5   3  -4 219.738 93.4103   2
  -5   2  -4 107.585 71.8385   1
   3  -5  -4 149.519 104.879   1
   2   3   4 85.7540 92.5380   2
   3   2   4 83.2990 80.8126   2
   2  -5  -5 122.429 88.9119   1
   2   3   5 154.919 104.757   2
  -5   3  -5 167.677 81.6812   1
  -5   3  -5 18.3434 19.5345   4
   3   2   5 17.8723 91.7607   2
  -5   3   5 179.932 83.1302   2
   3  -5  -5 380.772 139.414   1
  -5   2  -5 152.198 85.8506   1
  -5   2   5 169.226 71.6987   2
  -5   3  -6 73.4763 72.1887   1
   2   3   6 260.036 132.373   2
   3   2   6 5.01050 102.689   2
  -5   2  -6 188.801 114.453   1
  -5   3   6 157.305 82.7951   2
   3  -5  -6 61.0844 92.1719   1
  -5   2   6 41.8049 64.7949   2
   2  -5  -6 99.1745 112.868   1
  -5   2  -7 741.709 170.768   1
   3   2   7 413.928 196.184   2
   3  -5  -7 657.556 210.711   1
   2   3   7 353.955 165.335   2
  -5   3   7 1047.09 187.295   2
   2  -5  -7 413.878 172.302   1
   2  -5  -8-229.066 177.514   1
   3   2   8-347.762 181.106   2
   2   3   8-137.657 160.294   2
   3  -5  -8 64.9369 126.669   1
  -5   2  -8-60.6218 101.794   3
   3  -6   0 10418.3 445.050   1
   3   3   0 8970.93 415.979   3
   3   3   0 10090.4 433.048   2
   3   3   1 457.184 109.812   3
   3   3  -1 429.064 99.5308   3
   3  -6   1 691.009 112.183   1
   3   3   1 511.105 126.699   2
   3  -6  -1 589.902 133.059   1
  -6   3  -1 516.519 130.817   2
   3   3  -1 756.050 119.314   2
   3  -6   2 16691.6 439.098   1
  -6   3  -2 16874.0 707.734   2
   3   3   2 17779.8 684.062   2
   3   3  -2 17716.9 544.512   3
   3   3  -2 16631.7 448.971   2
   3   3   2 17178.5 675.241   3
   3  -6  -2 17731.3 702.160   1
   3  -6  -3 196.116 117.201   1
   3   3   3 287.447 115.001   2
   3   3  -3 209.226 67.1686   3
   3  -6   3 222.816 81.8137   4
   3   3   4 3993.50 372.770   2
  -6   3  -4 3608.89 258.859   1
   3  -6   4 4448.27 327.695   4
   3  -6  -4 4029.03 379.447   1
  -6   3  -5 114.396 87.4834   1
   3  -6  -5 113.724 110.432   1
   3   3   5-58.4055 110.306   2
   3  -6  -6 3650.49 419.787   1
   3   3   6 4013.06 449.277   2
  -6   3  -6 5213.11 348.408   1
  -6   3   6 4505.33 313.148   2
   3   3   7-85.0919 135.172   2
   3  -6  -7 139.619 146.897   1
  -2   4   0 35258.3 788.556   1
   4  -2   0 33849.7 650.716   4
  -2  -2  -1-45.9283 56.2161   2
  -2   4   1 64.6835 73.9618   1
   4  -2  -1 23.1048 45.1596   4
  -2  -2  -2 1607.81 177.434   1
  -2  -2  -2 1460.89 161.863   2
  -2   4   2 1179.39 150.626   1
  -2  -2  -3-8.26009 53.8112   2
  -2  -2  -3-3.20117 63.0128   1
  -2  -2  -3-31.5860 50.7325   3
  -2   4   3 50.7303 46.3452   3
  -2   4   3 121.740 70.0823   1
  -2  -2   3 40.1609 55.1803   4
  -2   4   4 15622.1 534.347   3
  -2  -2  -4 15754.8 642.411   2
  -2   4   4 16364.2 623.974   2
  -2   4   4 14572.9 647.714   1
  -2  -2  -4 15618.0 652.972   1
  -2  -2  -4 15746.8 585.121   3
  -2  -2  -5 2.31898 63.8131   3
  -2  -2  -5 124.497 93.1408   1
  -2   4  -5 68.2518 77.3305   2
  -2  -2   5 6.30096 77.3331   1
  -2   4  -5 77.1766 69.7986   4
  -2   4   5 57.3304 88.7679   2
  -2  -2  -6 100.245 86.2069   3
  -2  -2  -6 9.16636 113.677   1
  -2   4  -6-49.8682 79.8025   4
  -2  -2   6 141.755 114.966   1
  -2   4  -6 102.112 80.9114   2
  -2   4   6 39.7693 89.4220   2
  -2   4   7 13.0669 104.231   2
  -2  -2  -7 116.711 92.2627   3
  -2   4  -7-94.0665 131.572   2
  -2  -2  -8 3225.48 446.042   1
  -2  -2  -8 2950.07 317.688   3
  -2   4   8 2648.36 353.075   2
  -3   4   0 1163.33 126.979   1
  -3  -1   0 1040.37 113.936   2
   4  -1   0 888.641 97.9808   4
  -3  -1   0 988.002 123.595   4
  -3  -1   0 1006.38 111.123   3
  -3   4   1 2037.82 187.330   1
  -3  -1  -1 1814.55 165.930   2
  -3  -1   1 2047.59 126.361   2
   4  -1  -1 2016.96 162.167   4
  -3   4  -1 2120.95 136.733   1
  -1   4   1 1947.74 191.399   1
  -1  -3  -1 2092.89 201.076   1
  -3  -1   1 1898.15 177.041   4
  -3  -1  -1 2191.52 178.142   3
  -1   4   2 721.657 104.555   3
  -1  -3  -2 748.843 132.598   1
  -1   4   2 764.539 133.294   1
  -3   4   2 749.674 136.246   1
  -1  -3   2 669.048 113.976   4
   4  -1  -2 720.812 117.741   4
  -3  -1   2 686.598 122.610   4
  -3  -1  -2 604.980 121.337   2
  -1  -3   3 3009.42 250.523   4
  -3   4   3 2775.89 258.876   1
  -3  -1  -3 2808.72 251.451   2
  -1   4   3 3079.67 253.277   2
  -1  -3  -3 2795.26 263.156   1
  -1   4   3 3083.60 268.642   1
  -3  -1  -3 3087.96 253.362   1
   4  -1  -3 2906.11 263.831   4
  -3  -1  -3 2956.56 246.925   3
  -1   4   3 2842.91 215.923   3
  -3   4   3 2854.34 173.987   3
  -1  -3  -3 3391.86 238.626   3
  -3   4   4 376.961 79.8646   3
  -1   4   4 536.784 118.216   3
  -3   4   4 432.236 125.802   1
  -1  -3  -4 405.470 96.6277   3
  -1   4   4 424.981 119.480   2
  -3   4  -4 287.691 103.552   2
  -3  -1  -4 344.856 115.567   1
  -1   4   4 321.709 122.908   1
  -3  -1  -4 397.081 108.089   3
  -3  -1  -4 445.194 115.682   2
  -1  -3   4 363.813 115.232   4
   4  -1  -4 402.306 116.428   4
  -1  -3  -4 405.029 127.781   1
  -3  -1  -5 435.443 142.715   1
  -1  -3  -5 484.092 147.940   1
  -3  -1  -5 340.427 108.443   3
  -3   4   5 391.832 115.072   2
  -1  -3  -5 346.389 97.5917   3
  -3   4  -5 317.109 119.184   2
  -3  -1   5 390.867 135.227   1
  -1   4  -5 377.374 108.037   4
  -1   4   5 366.741 127.093   2
  -3  -1  -6 113.517 85.7874   3
  -1  -3  -6 85.2339 117.638   1
  -3   4  -6 177.262 99.1105   2
  -1  -3  -6 120.597 78.9237   3
  -1   4  -6 190.449 90.5113   2
  -3  -1  -6 190.846 134.775   1
  -1  -3   6 104.870 78.8397   1
  -1   4   6 305.232 131.569   2
  -3   4  -6 159.412 79.3170   4
  -3   4   6 230.259 109.089   2
  -1  -3  -7 916.762 160.760   3
  -3  -1  -7 1256.36 212.799   3
  -1  -3  -7 1077.96 269.078   1
  -3  -1  -7 1670.48 287.027   1
  -1   4   7 1596.34 275.462   2
  -3   4   7 960.876 201.563   2
  -3  -1  -8 9.99084 157.178   1
  -1  -3  -8 39.7840 88.6180   3
  -1   4   8 365.998 168.292   2
  -3   4   8 210.195 145.973   2
  -3  -1  -8 83.5041 111.013   3
  -1  -3  -8 357.301 206.414   1
  -4   0   0 4619.63 251.206   4
  -4   0   0 5072.88 274.672   2
   0  -4   0 4879.69 305.963   1
  -4   4   0 4856.02 268.186   1
  -4   0   0 4629.03 250.704   3
  -4   4  -1 13377.6 394.174   1
   4   0   1 13299.9 529.724   2
  -4   4   1 13037.4 500.113   1
  -4   0   1 13523.6 416.518   2
  -4   0  -1 13292.7 495.801   2
   0  -4  -1 13377.3 536.209   1
  -4   0   1 12539.7 463.632   4
  -4   0  -1 13598.3 415.724   4
   4   0  -1 13050.2 461.509   4
   0   4   1 12624.8 440.756   3
  -4   0  -1 13744.7 485.016   3
  -4   0   1 13303.0 388.246   3
   4   0   2 3467.29 282.141   2
  -4   4  -2 3196.65 143.439   1
  -4   0   2 3348.89 164.189   2
  -4   0  -2 3281.47 263.966   2
   0   4   2 3474.31 264.719   2
   0  -4  -2 3033.36 264.461   1
   0  -4   2 3129.39 234.918   4
   4   0  -2 3235.63 245.049   4
   4  -4   2 3140.99 135.281   4
  -4   4   2 3699.10 287.325   1
  -4   0  -2 3420.67 260.625   3
   0   4   2 3175.25 228.754   3
   4   0  -3 4660.01 320.364   4
   4   0   3 5435.28 370.494   2
  -4   4   3 5330.42 368.742   1
  -4   0  -3 5110.93 351.848   2
   0   4   3 5340.59 343.404   2
   0  -4  -3 5011.40 355.408   1
   0   4   3 5659.76 380.430   1
   0  -4   3 5244.95 323.357   4
  -4   0  -3 4633.37 297.547   1
  -4   0  -3 5413.27 351.356   3
   0   4   3 5205.36 319.316   3
   0   4   4 1561.60 221.877   1
   4   0  -4 1569.14 208.509   4
   0  -4   4 1613.05 207.488   4
   0   4  -4 1260.76 131.654   2
  -4   4  -4 1635.60 221.732   2
   0  -4  -4 1654.37 233.243   1
   0   4   4 1424.13 202.029   2
  -4   0  -4 1619.22 213.218   3
  -4   4   4 1496.34 219.122   1
   0   4   4 1401.86 193.534   3
   4   0   4 1432.46 217.284   2
  -4   0  -4 1411.27 187.922   1
  -4   0  -4 1444.64 207.230   2
  -4   4   4 1642.27 134.305   3
   0  -4   5 6276.98 344.732   1
   0   4  -5 5994.32 400.836   4
   4   0   5 6181.62 472.527   2
  -4   4  -5 5536.18 418.264   2
   0   4  -5 5875.69 306.289   2
   0  -4  -5 6461.87 482.961   1
  -4   4   5 5822.45 378.814   2
  -4   0  -5 6469.23 431.743   1
  -4   0  -5 6362.95 435.536   3
   0   4   5 5959.35 433.709   2
  -4   0  -6 998.812 206.559   1
   0  -4  -6 959.211 225.240   1
  -4   0  -6 930.224 185.730   3
   4   0   6 1073.88 226.070   2
   0   4  -6 868.246 131.176   2
   0   4   6 984.126 205.735   2
  -4   4   6 946.815 181.696   2
  -4   0  -7 989.578 202.096   3
   0  -4  -7 1183.22 263.889   1
  -4   0  -7 878.061 230.579   1
   4   0   7 904.896 231.276   2
   0   4   7 1064.97 241.578   2
  -4   4   7 634.070 160.163   2
  -4   0  -8 327.401 146.018   3
  -4   0  -8 107.739 135.335   1
   4   0   8 502.238 207.041   2
   0   4   8 334.369 179.731   2
  -4   4   8 633.635 181.196   2
   0  -4  -8 780.102 244.090   1
  -5   4   0 9063.38 408.712   1
   4   1   0 10095.1 440.248   2
  -5   1   0 10318.7 450.569   2
   1   4   0 9390.40 411.589   2
   1  -5   0 9793.68 442.598   1
  -5   1   0 9650.38 366.598   4
  -5   1   0 9732.05 387.082   3
   1   4   0 9378.02 388.092   3
  -5   1   1 337.602 74.6279   3
   1  -5  -1 211.144 91.1123   1
   1   4   1 216.812 82.4670   2
   4  -5  -1 359.926 106.665   1
  -5   4  -1 267.331 78.0702   1
  -5   1   1 381.499 103.851   2
   4   1   1 278.401 91.5272   2
  -5   1  -1 291.879 106.119   2
   1   4   1 265.156 69.9709   3
  -5   1  -1 328.969 71.7043   4
  -5   4   1 178.367 88.7695   1
  -5   1  -1 342.244 96.8700   3
   1  -5   1 283.009 95.8849   1
   4   1  -1 346.319 79.8070   3
   1   4   2 13134.0 526.654   3
   4  -5  -2 13632.0 581.872   1
  -5   4   2 13880.3 587.674   1
  -5   1  -2 14352.7 615.383   2
   4   1   2 14011.0 597.688   2
   1   4   2 13229.5 551.327   2
   1  -5  -2 13636.8 589.920   1
  -5   1  -2 14315.7 383.317   4
  -5   1   2 14415.3 456.774   2
   1  -5   2 13755.7 466.384   1
   4   1  -2 13611.1 543.045   4
   4  -5   2 13987.3 395.649   4
   4   1  -2 13453.2 404.549   3
   1  -5   2 13318.6 504.948   4
  -5   4   3 162.491 108.354   1
   4   1  -3 209.031 51.8054   3
   1   4   3 40.5806 60.6286   3
   1  -5  -3 233.222 106.045   1
  -5   4  -3 146.354 79.5827   2
   4   1  -3 191.951 89.3065   4
   4  -5   3 166.063 63.3887   4
   4   1   3 149.628 92.8989   2
  -5   1  -3 110.291 76.1329   2
   1  -5   3 172.541 78.3341   4
   1   4   3 149.951 89.9352   2
   4  -5  -3 98.6786 82.0970   1
   1   4   4 3636.28 321.692   3
   4  -5  -4 2832.09 303.718   1
   4   1   4 3379.83 337.576   2
   1  -5  -4 3974.12 364.652   1
  -5   4  -4 2298.37 122.046   1
   1   4   4 3694.25 329.073   2
  -5   1  -4 3267.31 271.865   1
   1  -5   4 3726.16 305.436   4
   1   4  -4 2772.25 156.647   2
  -5   4   4 2799.77 142.062   3
   4   1  -4 2650.92 138.270   3
   1   4   5 79.2486 86.3248   2
   4   1  -5 47.2098 25.7268   3
   4  -5  -5 2.73601 87.5207   1
   1  -5  -5 216.320 126.598   1
   4   1   5 169.180 113.885   2
  -5   1  -5-7.00819 73.1382   1
   1   4  -5 63.2657 32.9103   2
   1  -5   5 40.9102 41.5584   1
  -5   1   5 31.3795 30.2960   2
  -5   1  -5 51.5790 98.8669   3
  -5   1  -6 3295.10 356.343   3
   4   1   6 3377.03 399.190   2
   1  -5  -6 4107.65 429.592   1
   1   4   6 3655.52 389.333   2
  -5   1  -6 4803.68 408.300   1
  -5   4   6 3602.39 314.121   2
  -5   1  -7 75.4545 111.895   1
   4   1   7-91.1124 127.583   2
   1   4   7-233.771 157.217   2
  -5   4   7 24.6562 92.9358   2
   1  -5  -7 28.9704 126.476   1
  -5   1  -7-57.2008 108.698   3
   2   4   0 1445.92 166.961   2
   2  -6   0 1474.77 175.203   1
  -6   2   0 1225.55 182.443   2
   4   2   0 1320.40 169.989   2
   4  -6   0 1223.30 156.089   1
   2   4   0 1267.23 154.554   3
   4   2   0 1050.19 153.269   3
   4  -6   1 3615.27 217.660   1
  -6   4   1 3175.67 268.781   1
   4  -6  -1 3955.96 304.517   1
   4   2  -1 4250.85 259.544   2
  -6   2  -1 3719.61 306.512   2
   4   2   1 4093.79 311.161   2
   2  -6  -1 3899.63 301.471   1
   2   4   1 3891.97 290.073   2
   2   4  -1 4009.27 247.102   2
   2  -6   1 4041.63 258.826   1
   4   2   1 3973.31 296.887   3
   4   2  -1 3805.61 248.182   3
   2   4   1 3527.46 269.984   3
  -6   2   1 3789.12 223.894   3
   2   4  -1 3656.14 247.678   3
   2   4   2 857.519 148.642   3
   2   4  -2 1164.63 122.013   2
   2  -6   2 996.517 121.618   1
   2  -6  -2 1010.10 171.051   1
  -6   2  -2 1129.36 182.788   2
  -6   4   2 1025.45 173.315   1
   4   2   2 1139.05 185.496   2
   4  -6  -2 1163.78 190.650   1
   2   4   2 1316.82 188.708   2
   4   2  -2 1051.44 126.629   3
  -6   2   2 947.390 99.1180   3
   2  -6   2 888.857 137.958   4
   2   4  -3 1203.54 99.0140   2
   2  -6  -3 1349.12 215.102   1
   2  -6   3 1221.71 114.117   1
   4   2   3 1524.81 227.859   2
   2  -6   3 1406.42 178.549   4
   2   4   3 1384.92 208.830   2
   4  -6  -3 1252.09 214.636   1
   4   2  -3 1447.34 139.085   3
   4   2  -4 494.601 82.8986   3
  -6   4  -4 661.936 109.160   1
   2  -6  -4 624.945 176.119   1
  -6   2  -4 586.590 124.552   1
   4   2   4 692.224 178.735   2
   2   4   4 464.497 146.264   2
   4  -6  -4 483.583 146.810   1
   2  -6   4 671.858 145.258   4
   2  -6   4 300.588 45.2597   1
   4  -6  -5 2292.65 312.867   1
   2  -6  -5 2530.11 331.797   1
   4   2   5 2563.28 334.812   2
   2   4   5 2489.93 315.106   2
  -6   4  -5 2261.82 172.696   1
  -6   2   5 2288.86 181.122   2
  -6   2  -5 2821.87 269.808   1
   2  -6   5 2930.17 315.501   4
   4   2  -5 2151.02 156.126   3
  -6   4   6 590.302 144.834   2
   2   4   6 82.0508 131.732   2
   4   2   6 326.637 174.324   2
   4  -6  -6 359.055 174.875   1
   2  -6  -6 278.812 147.107   1
   2   4   7 309.549 173.745   2
   4   2   7 1.78512 116.606   2
   2  -6  -7 476.842 209.633   1
   4  -6  -7 353.412 197.368   1
  -6   2  -7 170.427 131.254   3
   4   3   0 227.531 80.2636   3
   3   4   0 363.035 114.734   2
   3   4   0 296.421 95.7025   3
   3  -7   0 496.015 128.145   1
  -7   3   0 422.228 137.678   2
   4   3   0 418.353 116.882   2
   4  -7   0 445.363 105.028   1
   4   3   1 370.521 106.278   3
   4   3  -1 557.267 117.950   3
   4   3   1 589.408 145.937   2
   3   4  -1 449.485 102.485   3
   3  -7  -1 416.753 123.117   1
   3  -7   1 537.625 116.149   1
  -7   3  -1 522.369 156.992   2
   4   3  -1 462.199 105.204   2
   4  -7   1 459.423 99.3611   1
   3   4  -1 428.795 104.673   2
   3   4   1 571.410 129.822   2
   4  -7  -1 528.374 136.711   1
   4   3  -2 205.223 85.5456   3
   3  -7   2 266.516 76.5016   1
   3   4  -2 231.672 80.2066   2
   3  -7  -2 254.184 119.606   1
  -7   3   2 224.922 66.8875   3
   4   3   2 476.632 138.380   2
   3   4   2 312.804 125.680   2
   3   4  -2 269.236 84.4170   3
   4  -7  -2 273.480 118.207   1
   3  -7   3 566.186 67.9059   1
   3  -7   3 801.033 148.611   4
   4   3  -3 787.629 124.964   3
   3  -7  -3 885.643 197.657   1
   3   4  -3 865.918 138.591   3
   3   4   3 795.308 170.970   2
   4  -7   3 1010.35 152.006   4
   4  -7  -3 871.261 192.757   1
   4   3   3 740.171 182.964   2
   3  -7  -4 103.965 95.0851   1
   4   3  -4 219.392 78.2389   3
  -7   4  -4 232.054 89.0149   1
   4  -7  -4 326.093 133.843   1
   3  -7   4 88.4372 75.4389   4
   4  -7   4 131.000 90.0382   4
   3   4   4 122.248 105.410   2
   4   3   4 280.301 134.724   2
  -7   3  -5-2.14976 79.3771   1
  -7   4  -5 283.725 101.425   1
   4   3   5 158.506 126.203   2
   4  -7  -5-120.106 149.783   1
   3   4   5 299.999 174.749   2
   3  -7   5 175.111 126.225   4
   3  -7  -5 85.0770 122.263   1
   4   3   6-138.521 142.686   2
   3   4   6-85.5416 108.820   2
   4  -7  -6 22.7052 111.462   1
   3  -7  -6 157.078 117.816   1
   4  -8   0 7660.81 437.410   1
   4   4   0 8009.66 471.773   2
   4   4  -1 108.196 101.690   2
   4   4   1-5.42129 92.0288   2
   4  -8   1-79.2533 65.0021   1
   4  -8  -1 199.510 118.782   1
   4   4  -2 447.868 114.118   3
   4   4  -2 753.097 116.812   2
   4   4   2 506.392 165.209   2
   4  -8   2 653.772 107.962   1
   4  -8  -2 681.352 173.454   1
  -8   4   3-26.4515 28.1036   3
   4   4  -3-31.8041 65.4711   3
   4  -8   3 47.6503 73.7628   4
   4   4   3 104.627 116.309   2
   4  -8  -3 160.261 108.267   1
   4  -8  -4 3581.10 416.098   1
   4   4   4 4477.72 459.916   2
   4   4  -4 3831.19 301.583   3
   4  -8   4 3776.16 332.408   4
   4   4   5 2.64198 112.642   2
   4  -8  -5 60.4887 117.056   1
   4  -8   5 253.318 145.395   4
   4   4   6 296.913 173.126   2
   4  -8  -6 228.178 168.042   1
  -3  -2   0 316.003 82.5681   2
  -3   5   0 337.131 89.8111   1
  -3  -2   0 345.325 93.7643   4
   5  -2   0 234.223 59.9512   4
  -2   5   0 469.621 116.920   1
   5  -3   0 340.461 63.1615   4
  -3  -2  -1 634.575 114.575   3
  -3   5   1 455.954 106.584   1
  -2   5   1 687.133 138.499   1
  -2  -3   1 641.066 116.561   4
  -3  -2   1 600.176 118.392   4
   5  -2  -1 614.978 111.644   4
  -3   5  -1 690.323 113.732   1
  -3  -2  -1 590.722 113.989   2
  -3   5   2 182.065 73.1213   1
  -3  -2  -2 203.215 73.1502   3
  -2  -3  -2 197.808 69.5133   3
  -2  -3  -2 241.103 94.8793   1
  -2  -3   2 175.455 76.3150   4
  -3  -2   2 114.372 74.5751   4
   5  -2  -2 241.694 79.6326   4
  -2   5   2 191.583 86.7041   1
  -3  -2  -2 113.625 71.8242   2
  -3  -2  -3 898.987 155.150   1
  -3   5   3 1125.84 184.271   1
  -2  -3  -3 1078.43 166.515   2
  -3  -2   3 1082.46 167.885   4
  -2   5   3 1141.17 144.943   3
  -3  -2  -3 1208.32 176.957   2
  -2   5   3 1218.03 188.061   1
  -2  -3   3 997.440 161.639   4
   5  -2  -3 1075.30 167.711   4
  -3  -2  -3 1178.28 165.646   3
  -3   5   3 1266.55 137.358   3
  -2  -3  -3 1114.46 152.070   3
  -2  -3  -3 1239.03 191.717   1
  -2   5   4 150.816 78.1157   3
  -2   5   4 138.123 90.6524   2
  -3   5   4 315.695 87.2489   3
   5  -2  -4 78.9058 72.6255   4
  -3   5   4 300.792 126.072   1
  -3  -2  -4 147.114 73.4039   3
  -2  -3  -4 121.323 83.0207   2
  -2  -3  -4 73.2905 76.7956   3
  -3  -2  -4 161.692 101.017   2
  -2  -3  -4 262.443 113.804   1
  -3  -2  -4 129.033 91.6847   1
  -2  -3   4 18.7929 73.4851   4
  -3   5   5 58.4358 76.2148   2
  -3  -2  -5 12.0606 63.7685   3
  -3  -2  -5-14.1124 85.6053   1
  -2  -3  -5 174.004 94.1064   3
  -2   5  -5 185.251 86.1485   2
  -3   5  -5 79.9357 88.7104   2
  -2   5   5 7.75223 88.5168   2
  -2  -3  -5 418.542 145.765   1
  -2   5   5 76.5364 80.9122   3
  -3   5   5 161.966 86.7056   3
  -3  -2  -6-52.2934 79.1342   3
  -2  -3  -6 73.0493 79.7753   3
  -2   5  -6-1.93246 76.9347   2
  -2   5   6 60.7855 98.2357   2
  -2  -3   6-150.199 119.942   1
  -3  -2  -6 166.664 126.822   1
  -2  -3  -6 121.074 121.217   1
  -3   5   6 49.1119 87.4790   2
  -3  -2  -7 345.457 129.487   3
  -2  -3  -7 407.781 127.074   3
  -2  -3  -7 577.188 205.191   1
  -3  -2  -7 453.199 191.400   1
  -2   5   7 744.274 202.411   2
  -3   5   7 403.164 149.244   2
  -3  -2  -8 154.109 107.932   3
  -2  -3  -8-123.652 175.996   1
  -2  -3  -8 46.1539 80.0126   3
  -3  -2  -8-220.224 162.738   1
  -3   5   8 221.333 155.585   2
  -2   5   8-111.766 118.155   2
  -4  -1   0 9567.00 385.343   2
  -4   5   0 9909.08 405.151   1
  -4  -1   0 10309.3 427.602   4
  -4  -1   0 10133.4 399.553   3
  -4  -1  -1 256.001 90.7643   3
  -1  -4  -1 311.863 109.187   1
  -4   5   1 408.519 104.701   1
   5  -1  -1 282.025 87.9343   4
  -4  -1   1 370.135 102.538   4
  -4  -1  -1 485.164 108.637   2
  -4   5  -1 330.443 79.2606   1
  -4  -1   1 294.457 65.6734   2
  -4   5   2 14398.1 591.528   1
  -4  -1  -2 13467.5 553.553   2
  -4  -1   2 11723.4 305.953   2
  -1  -4  -2 13977.4 613.248   1
  -4   5  -2 11791.0 323.860   1
  -1   5   2 14828.8 619.286   1
   5  -1  -2 13474.3 526.614   4
  -4  -1   2 12389.8 537.192   4
  -1  -4   2 12884.2 526.006   4
  -4  -1  -2 14365.2 555.590   3
  -1   5   2 13467.7 501.478   3
  -4   5   3 197.522 102.583   1
  -4  -1  -3 178.735 93.9849   3
  -1   5   3 147.072 84.5383   2
  -1   5   3 189.468 69.4214   3
  -4  -1  -3 90.0090 74.4265   1
  -1  -4  -3 80.3669 81.7390   1
  -1   5   3 25.7939 68.3251   1
  -1  -4   3 236.789 98.1696   4
   5  -1  -3 163.979 87.3161   4
  -4  -1  -3 94.6211 66.7306   2
  -1   5   4 3472.58 316.549   2
  -1  -4  -4 3522.71 339.484   1
  -4  -1  -4 3155.56 292.173   1
  -1  -4   4 3210.43 299.537   4
  -1   5   4 3212.77 277.329   3
  -4  -1  -4 3590.85 314.064   3
  -4   5   4 3358.12 217.117   3
  -4  -1  -5-184.894 106.015   3
  -4   5   5 30.7093 81.4434   2
  -1  -4  -5 50.3218 64.7699   3
  -4  -1  -5 210.174 101.080   1
  -1  -4  -5 137.144 119.553   1
  -1   5   5 65.7943 88.1102   2
  -4   5   5 56.8601 66.2278   3
  -1  -4   6 3897.33 339.253   1
  -1   5  -6 3477.63 283.488   2
  -1  -4  -6 3707.59 413.065   1
  -1   5   6 3511.74 377.813   2
  -4   5   6 3636.37 350.214   2
  -4  -1  -6 4234.09 404.383   1
  -4  -1  -6 3910.87 366.256   3
  -1  -4  -6 3815.26 312.363   3
  -4  -1  -7 260.052 129.419   3
  -1  -4  -7 263.198 113.495   3
  -1  -4  -7-234.601 162.668   1
  -4  -1  -7 64.6920 153.986   1
  -1   5   7 5.03802 104.405   2
  -4   5   7 115.419 128.420   2
  -5   0   0 348.661 85.9932   3
  -5   5   0 267.561 88.6455   1
  -5   0   0 248.917 84.7295   4
   0  -5   0 316.320 109.924   1
  -5   0   0 393.621 105.699   2
  -5   5  -1 2189.15 175.081   1
  -5   5   1 2648.59 238.853   1
  -5   0   1 2358.67 189.438   2
  -5   0  -1 2091.03 214.967   2
   0   5   1 2393.77 227.138   2
   0  -5  -1 2261.98 242.883   1
   0  -5   1 2387.40 233.212   1
  -5   0  -1 2151.49 179.855   4
  -5   0   1 2130.07 210.024   4
  -5   0  -1 2203.71 205.506   3
  -5   0   1 2373.81 175.484   3
   0   5   1 2371.44 208.324   3
  -5   0  -2 193.315 86.7032   3
   0   5   2 169.425 95.9397   2
   0   5   2 130.959 67.8196   3
  -5   5   2 154.963 87.0730   1
  -5   5  -2 215.312 55.9883   1
   0  -5  -2 244.049 103.403   1
   5   0   2 86.8649 81.5810   2
  -5   0  -2 200.827 87.3260   2
  -5   0   2 146.485 54.4192   2
  -5   0  -2 204.897 75.2887   4
   0  -5   2 122.287 78.9496   4
   5  -5   2 171.176 41.7891   4
   5   0  -2 100.968 73.5336   4
  -5   0  -3 335.690 111.530   3
  -5   0   3 192.371 35.3622   2
   0   5   3 296.375 93.4670   3
  -5   5   3 612.681 149.987   1
   5   0  -3 452.922 125.957   4
   5   0   3 526.832 141.871   2
   0  -5   3 267.810 96.7887   4
  -5   0  -3 535.621 133.753   2
   0   5   3 305.726 104.621   2
   0  -5  -3 268.553 96.5622   1
  -5   0  -4-10.9762 75.4682   3
  -5   5   4 79.6896 48.3507   3
  -5   0  -4-22.7582 75.4584   1
   0  -5  -4-4.07201 88.7775   1
   0  -5   4 50.6767 64.3170   4
   0   5   4 166.234 107.723   2
  -5   0  -5 933.881 191.925   3
   5   0   5 1373.34 248.616   2
   0   5  -5 1004.73 130.906   2
   0  -5  -5 1328.31 245.508   1
  -5   0  -5 1092.01 190.077   1
   0   5   5 1026.47 205.718   2
   0  -5   5 885.739 190.955   4
  -5   0  -6 114.846 107.623   3
  -5   5   6-239.676 128.285   2
   0   5   6 135.680 118.586   2
   0  -5  -6 25.4352 114.916   1
   5   0   6 70.0048 106.157   2
  -5   0  -7-67.6260 95.4977   3
   0  -5  -7 302.451 177.045   1
   5   0   7-60.3238 128.898   2
  -5   0  -7 64.2918 122.795   1
   0   5   7 50.0157 100.895   2
  -5   5   7-173.254 123.668   2
   1   5   0 959.650 164.570   2
  -6   1   0 779.064 124.482   3
   1   5   0 900.135 137.858   3
   1  -6   0 803.044 153.391   1
  -6   1   0 1115.08 176.961   2
  -6   5   0 761.611 143.670   1
  -6   1   0 881.039 131.884   4
  -6   5  -1 2825.91 229.662   1
  -6   5   1 2797.37 271.922   1
   5   1   1 3379.69 315.417   2
  -6   1   1 3126.92 259.288   2
  -6   1  -1 3133.04 306.096   2
   1   5   1 2975.08 265.891   2
   1   5  -1 3067.08 246.890   2
   1  -6  -1 2659.21 269.193   1
   1  -6   1 2979.64 254.614   1
  -6   1  -1 2990.31 202.310   4
  -6   1  -1 2762.78 247.687   3
  -6   1   1 3127.60 217.029   3
   1   5   1 2632.70 240.851   3
   1   5   2 675.146 137.454   3
   1  -6   2 581.795 126.777   4
   1  -6   2 623.761 120.599   1
   5   1   2 623.539 158.312   2
  -6   1   2 718.676 120.559   2
  -6   1  -2 877.124 176.870   2
  -6   5  -2 655.928 105.339   1
  -6   1  -2 632.564 92.7378   4
   1  -6  -2 832.270 174.550   1
   1   5   2 782.163 163.043   2
  -6   1  -2 688.586 145.476   3
  -6   5   2 736.491 166.103   1
  -6   5  -3 1934.76 137.644   1
  -6   1   3 2205.95 173.194   2
   5   1   3 2280.39 287.910   2
   1  -6  -3 2666.56 305.087   1
   1   5   3 2407.79 269.978   2
   1  -6   3 2342.27 199.974   1
  -6   1  -3 2203.67 156.041   4
   1  -6   3 2234.16 236.239   4
   5  -6   3 2825.63 190.866   4
  -6   1  -3 2296.18 266.220   3
  -6   5   4 329.335 59.7098   3
   1  -6  -4 500.060 165.281   1
   5   1   4 435.180 160.057   2
  -6   1   4 221.121 52.8088   2
  -6   1  -4 449.846 127.452   1
   1  -6   4 420.579 89.8467   1
   1  -6   4 463.483 126.236   4
   1   5   4 137.641 112.609   2
  -6   1  -4 543.020 156.148   3
   1  -6  -5 1240.26 254.785   1
   5   1   5 924.831 219.572   2
   1   5   5 979.540 210.245   2
   1  -6   5 803.746 187.541   4
  -6   1  -5 922.270 180.065   1
  -6   1  -5 1183.48 232.427   3
  -6   5   6 121.422 100.367   2
  -6   1  -6 198.221 110.852   1
   1  -6  -6 205.556 144.322   1
   5   1   6 332.095 167.773   2
   1   5   6 203.896 151.990   2
  -6   1  -6 117.536 116.506   3
  -6   1  -7 957.531 226.843   3
   1  -6  -7 712.218 218.295   1
   5   1   7 578.378 215.517   2
  -6   1  -7 1181.67 242.611   1
   1   5   7 839.125 242.703   2
  -6   5   7 768.757 179.135   2
  -7   5   0 2086.51 237.299   1
   5   2   0 2642.09 258.661   2
  -7   2   0 2511.08 269.151   2
   2   5   0 2657.74 247.829   2
   2  -7   0 2331.07 241.546   1
  -7   2   0 2263.08 211.842   3
  -7   2   1 82.2346 57.4841   3
   2   5  -1 109.605 82.1039   3
  -7   2   1 133.981 110.424   2
   5   2   1 88.1534 104.789   2
  -7   2  -1-55.1768 80.7281   2
  -7   5  -1 3.67536 72.4515   1
  -7   5   1 127.982 89.8827   1
   5  -7  -1 159.354 97.4591   1
   2  -7  -1-37.6099 87.9766   1
   2   5   1-46.3492 72.4622   2
   2  -7   1 99.1157 75.0362   1
   2   5  -1-36.0396 66.6461   2
  -7   2  -1 56.2989 76.8653   3
   5   2  -1 166.285 77.0094   3
   5  -7  -2 4642.65 385.894   1
  -7   2   2 5255.14 344.805   2
   5   2   2 5489.55 425.012   2
   2  -7  -2 5031.22 404.192   1
   2   5   2 5100.38 386.273   2
   2   5  -2 5053.06 288.917   2
   2  -7   2 4582.38 283.276   1
   2  -7   2 5443.11 368.197   4
  -7   2  -2 4637.44 354.276   3
   5   2  -2 4915.74 294.936   3
  -7   2   2 5002.91 245.259   3
   2   5  -2 5287.45 335.612   3
  -7   2   3-44.0116 74.1589   2
   2  -7  -3-53.5602 86.5255   1
   5   2   3-48.1634 117.223   2
   2  -7   3-6.87348 67.6934   4
   2   5   3-36.8091 82.3617   2
   2   5  -3 22.0178 43.7486   2
   2  -7   3-58.6469 67.1076   1
   5  -7  -3 35.7921 99.6964   1
  -7   2  -3-45.0421 88.7543   3
   5   2  -3 126.893 63.4140   3
   2  -7  -4 1175.29 235.632   1
   2  -7   4 715.033 85.1355   1
  -7   5  -4 775.730 108.049   1
   5   2   4 962.963 224.833   2
   5  -7  -4 733.394 192.718   1
   2   5   4 992.055 209.501   2
   2  -7   4 858.836 164.805   4
  -7   2  -4 933.649 212.606   3
   5   2  -4 973.218 120.992   3
   2  -7  -5 180.457 129.642   1
  -7   2  -5 33.1617 92.0816   1
   5   2   5-73.5963 134.538   2
   5  -7  -5 107.388 118.263   1
   2   5   5-10.6116 119.660   2
   2  -7   5-105.190 112.428   4
   2  -7  -6 1346.42 281.031   1
  -7   5   6 1564.23 228.939   2
  -7   2  -6 1209.39 210.994   1
   5   2   6 1225.20 279.305   2
   2   5   6 1223.36 260.387   2
  -7   2  -6 1147.42 240.667   3
   5  -8   0 1026.02 172.502   1
   3  -8   0 1226.56 187.304   1
   5   3   0 923.550 170.859   2
  -8   5   0 696.843 164.772   1
   3   5   0 1214.57 189.937   2
  -8   3   0 1024.92 160.576   3
   5  -8  -1 3801.98 336.238   1
   5   3  -1 3397.70 281.977   2
  -8   3   1 2942.94 309.665   2
   5   3   1 3691.67 346.922   2
   3  -8  -1 3429.31 333.860   1
   3  -8   1 3077.50 265.917   1
   3   5  -1 3253.10 273.954   2
   3   5   1 3735.24 336.010   2
  -8   3   1 2687.91 225.348   3
   5   3  -1 3112.46 280.402   3
   5   3  -2 802.560 150.264   3
  -8   3   2 913.975 121.406   3
   3  -8  -2 1112.78 213.454   1
   3  -8   2 939.442 142.925   1
  -8   3   2 738.052 162.919   2
   5   3   2 1018.83 214.196   2
   3   5  -2 909.492 135.346   2
   3  -8   2 1083.84 183.020   4
   3   5   2 966.901 198.576   2
   5  -8  -2 780.053 180.577   1
   5  -8  -3 2853.20 355.566   1
   3  -8   3 2429.47 171.070   1
   5   3   3 2948.08 358.228   2
   3   5  -3 2110.28 152.404   2
   3  -8  -3 3005.42 353.060   1
   3   5   3 3296.58 357.432   2
   3  -8   3 2733.92 282.132   4
   5  -8   3 3172.70 265.201   4
   5   3  -3 2778.93 243.681   3
   3  -8  -4 616.203 201.539   1
   5   3   4 612.802 199.928   2
   3   5   4 481.769 167.296   2
   5  -8  -4 747.192 204.483   1
   3  -8   4 548.478 153.537   4
   5  -8   4 836.835 165.167   4
  -8   3  -5 951.523 178.782   1
   5   3   5 1279.72 299.329   2
   3   5   5 847.048 232.487   2
   5  -8  -5 896.414 236.079   1
   3  -8   5 978.116 205.412   4
   3  -8  -5 1196.18 265.582   1
   4  -9   0 294.229 127.580   1
   5  -9   0 53.6100 78.0434   1
   5   4   0 176.612 115.501   2
   4   5   0 160.588 87.0569   2
   4  -9  -1 477.386 145.206   1
   5   4  -1 464.966 132.025   2
   5   4   1 682.989 190.338   2
   4   5  -1 378.911 116.995   2
   5  -9  -1 493.376 146.416   1
   5  -9   1 390.666 105.320   1
   4   5   1 356.520 142.783   2
   4  -9   1 445.902 126.497   1
  -9   4   1 491.559 110.644   3
   4  -9  -2 252.868 131.160   1
  -9   4   2 153.323 74.7248   3
   5  -9  -2 213.510 156.622   1
   4   5   2 124.301 126.494   2
   4   5  -2 250.195 107.523   2
   5   4   2 346.812 153.564   2
   4  -9   2 207.453 105.114   4
   4  -9   2 132.316 72.3276   1
   5   4   3 292.544 156.706   2
   4   5   3 105.520 125.802   2
   4  -9   3 175.072 100.211   4
   5  -9   3 98.8739 80.6982   4
   5  -9  -3 161.328 134.133   1
   4  -9  -3 107.316 124.423   1
   5   4   4 205.432 160.955   2
   4   5   4 32.2554 119.831   2
   5  -9  -4 79.2005 125.673   1
   4  -9   4 243.738 135.188   4
   5  -9   4 174.007 104.766   4
   4  -9  -4-71.5146 131.253   1
   5 -10   0 3246.45 324.230   1
   5   5   0 3875.83 366.591   2
   5   5   1 222.405 160.540   2
   5 -10  -1 305.975 123.300   1
 -10   5   1 174.655 95.2003   3
   5 -10  -2 5183.32 473.674   1
   5   5   2 5755.69 532.639   2
   5 -10   2 5914.29 437.887   4
   5   5   3 325.495 196.817   2
   5 -10   3 328.676 136.443   4
   5 -10  -3 85.9481 113.841   1
  -3   6   0 11021.1 510.592   1
   6  -3   0 9696.41 358.738   4
  -3   6   1 649.256 140.993   1
  -3  -3   1 430.433 117.889   4
   6  -3  -1 663.529 116.531   4
  -3  -3  -2 17919.5 665.956   2
  -3   6   2 17213.9 699.190   1
  -3  -3  -2 17204.4 709.261   1
  -3  -3   2 16875.7 677.665   4
   6  -3  -2 16843.4 619.889   4
  -3  -3  -2 19273.7 662.183   3
  -3  -3  -3 388.944 121.580   2
  -3  -3  -3 311.662 95.2376   3
  -3   6   3 329.600 91.7309   3
  -3   6   3 73.3015 97.9203   1
  -3  -3  -3 160.300 104.394   1
  -3  -3   3 358.467 123.022   4
   6  -3  -3 240.860 93.3107   4
  -3  -3  -4 3913.30 359.716   1
  -3  -3   4 4041.83 364.218   4
  -3   6   4 3842.65 285.571   3
  -3  -3  -4 4254.55 334.950   3
  -3   6   5 84.3928 65.8827   3
  -3   6   5 52.2040 103.519   2
  -3  -3  -5 112.454 93.3357   3
  -3  -3  -5 44.6466 97.8009   1
  -3   6  -5-15.3051 76.4846   2
  -3   6   6 4487.94 426.383   2
  -3  -3  -6 4225.09 424.984   1
  -3  -3  -6 4481.20 376.382   3
  -3  -3  -7 125.560 106.699   3
  -3  -3  -7-111.934 121.891   1
  -3   6   7 108.434 120.203   2
  -4  -2   0 1396.93 160.153   2
  -4   6   0 1568.09 188.090   1
  -4  -2   0 1513.51 182.346   4
   6  -4   0 1253.71 123.734   4
  -4  -2  -1 3773.04 277.793   2
  -4   6   1 3536.17 281.766   1
  -4   6  -1 4642.24 284.037   1
  -2   6   1 4358.91 345.386   1
  -2  -4  -1 4076.66 336.912   1
   6  -2  -1 4183.86 274.592   4
  -4  -2   1 3858.20 299.294   4
  -2  -4   1 3720.80 294.237   4
  -4  -2  -1 4073.80 282.887   3
  -4   6   2 999.420 169.753   1
  -2   6   2 1059.53 185.042   1
  -2  -4   2 1022.83 166.467   4
   6  -2  -2 1258.12 174.027   4
  -4  -2   2 970.872 170.773   4
  -2  -4  -2 1063.96 178.390   1
  -4  -2  -2 1320.79 177.390   3
  -4  -2  -2 1033.81 163.192   2
  -2  -4   3 1386.18 202.742   4
  -4  -2  -3 1263.07 196.948   1
  -4   6   3 1751.03 241.160   1
   6  -2  -3 1147.82 175.569   4
  -4  -2   3 1528.23 215.920   4
  -2  -4  -3 1349.42 216.135   1
  -4  -2  -3 1457.98 195.445   3
  -2   6   3 1486.05 183.762   3
  -4  -2  -3 1465.44 213.289   2
  -2   6   4 691.920 163.911   2
  -2   6   4 555.755 128.456   3
  -4  -2  -4 604.689 146.210   3
  -4   6   4 684.588 123.245   3
  -4  -2  -4 862.050 176.803   1
  -2  -4  -4 586.216 164.317   1
  -2  -4   4 678.644 152.245   4
  -2   6  -5 2211.19 244.814   2
  -2   6   5 2602.35 312.766   2
  -2  -4  -5 2531.86 317.731   1
  -4   6   5 2604.96 307.984   2
  -4  -2  -5 2023.96 269.127   1
  -4   6   5 2107.81 215.195   3
  -4  -2  -5 3326.90 345.877   3
  -2  -4  -5 2465.03 258.147   3
  -4  -2  -6 322.518 125.469   3
  -2  -4  -6 357.732 113.647   3
  -2  -4  -6 513.372 197.299   1
  -2   6   6 465.784 165.009   2
  -4  -2  -6 220.722 119.281   1
  -4   6   6 311.313 143.280   2
  -4  -2  -7 206.848 125.467   3
  -2  -4  -7 200.562 106.565   3
  -2  -4  -7 476.129 196.492   1
  -4  -2  -7 358.186 171.178   1
  -2   6   7 463.734 179.534   2
  -4   6   7 291.458 158.979   2
  -5  -1   0 773.105 125.819   3
  -1  -5   0 708.631 154.029   1
  -5  -1   0 921.294 154.765   4
  -5   6   0 942.220 146.925   1
  -5  -1   0 955.099 140.504   2
  -5   6   1 2980.44 272.834   1
  -5  -1  -1 2972.61 260.797   2
  -5  -1   1 2676.54 198.001   2
  -5   6  -1 3011.02 220.411   1
  -1  -5  -1 2993.48 302.300   1
   6  -1  -1 3048.67 250.525   4
  -5  -1  -1 3099.68 248.614   4
  -5  -1   1 2905.35 268.770   4
  -5  -1  -1 3014.44 254.853   3
  -1  -5   2 646.241 140.922   4
  -5  -1  -2 639.966 132.193   3
  -1   6   2 790.587 141.865   3
  -5   6   2 620.619 148.507   1
  -5   6  -2 643.829 94.8573   1
   6  -1  -2 728.478 144.658   4
  -5  -1   2 731.121 152.258   4
  -1  -5  -2 631.580 158.018   1
  -5  -1  -2 528.124 133.404   2
  -5  -1   2 463.339 72.4796   2
  -1   6   3 2560.47 285.080   2
  -1  -5  -3 2125.73 275.091   1
   6  -1  -3 2140.25 258.049   4
  -1  -5   3 2392.48 258.388   4
  -5  -1  -3 2300.25 254.851   3
  -5  -1  -4 308.656 130.600   3
  -5   6   4 277.098 75.4396   3
  -1  -5   4 442.771 140.322   4
  -1   6   4 453.992 153.532   2
  -1  -5  -4 418.025 149.784   1
  -5  -1  -4 380.673 129.971   1
  -5   6   5 924.422 138.269   3
  -5  -1  -5 1227.21 222.264   3
  -1   6  -5 865.188 145.322   2
  -1  -5  -5 1312.00 254.213   1
  -5  -1  -5 982.487 195.681   1
  -1  -5   5 1552.44 247.673   4
  -1   6   5 976.147 206.797   2
  -5   6   6 63.6240 100.762   2
  -5  -1  -6 64.9996 98.5577   3
  -5  -1  -6 202.717 126.258   1
  -1  -5  -6-11.4000 125.992   1
  -1   6   6 130.949 118.728   2
  -5  -1  -7 534.879 175.481   3
  -1  -5  -7 916.815 250.636   1
  -5  -1  -7 825.138 218.948   1
  -1   6   7 1046.86 244.256   2
  -5   6   7 890.162 216.859   2
  -6   6   0 30393.7 875.828   1
  -6   0   0 30046.6 878.750   2
   0  -6   0 31802.1 1006.12   1
  -6   0   0 29077.2 834.812   4
  -6   0   0 30386.2 841.328   3
  -6   0  -1 11.8258 68.7787   3
   0   6   1-74.5836 90.8343   2
  -6   0   1 53.4639 65.0059   3
  -6   6   1 36.8223 82.4293   1
  -6   6  -1 64.7896 75.6178   1
   0  -6  -1 47.6861 88.2968   1
  -6   0   1 138.920 79.3024   2
  -6   0  -1-44.9276 77.2765   2
  -6   0  -1-6.84578 59.5486   4
  -6   0   1 30.6126 65.5502   4
   0  -6   1-23.0767 77.9204   1
   0   6   2 1174.46 197.707   2
  -6   0  -2 1269.24 188.436   3
  -6   0  -2 1137.41 142.491   4
   0  -6  -2 957.051 191.254   1
  -6   6  -2 1246.07 129.158   1
   0  -6   2 1288.52 183.589   1
   6  -6   2 1094.41 90.9805   4
   6   0  -2 1145.24 179.715   4
   0  -6   2 1193.82 183.160   4
  -6   0   2 1068.93 121.830   2
  -6   0  -2 965.529 181.551   2
  -6   0  -3 116.803 101.403   3
  -6   0  -3 58.2200 57.2423   4
   0  -6   3 40.4518 78.0270   4
  -6   0   3 7.74803 26.0313   2
   0   6   3 81.6626 92.0554   2
   0  -6  -3-10.5006 89.6040   1
   0  -6  -4 14956.3 789.095   1
   0   6   4 16073.5 761.863   2
  -6   0  -4 12831.3 629.909   1
   0  -6   4 14173.9 674.228   4
  -6   0  -4 16463.9 764.068   3
  -6   6   4 14400.4 460.912   3
  -6   0  -5 22.5032 89.4944   3
  -6   0  -5 384.041 128.540   1
   0  -6  -5 154.628 142.664   1
   0  -6   5 204.143 123.502   4
   0   6   5-100.781 111.826   2
  -6   0  -6 522.526 160.719   3
  -6   6   6 727.673 182.397   2
  -6   0  -6 548.913 153.539   1
   0   6   6 757.223 212.414   2
   1   6   0 1220.14 197.222   2
  -7   1   0 1133.21 157.811   3
   1  -7   0 937.345 175.305   1
  -7   1   0 1188.50 209.754   2
  -7   6   0 1271.05 191.939   1
  -7   6  -1 3014.23 257.346   1
  -7   6   1 2911.12 307.189   1
  -7   1   1 2940.80 281.255   2
  -7   1  -1 3178.63 330.320   2
   1   6   1 2788.59 290.152   2
   1   6  -1 2950.86 277.660   2
   1  -7  -1 3203.87 324.651   1
   1  -7   1 2575.73 262.358   1
  -7   1  -1 3022.61 226.991   4
  -7   1  -1 2640.61 256.763   3
  -7   1   1 2906.63 236.016   3
  -7   1  -2 1006.78 187.487   3
   1   6  -2 704.548 138.078   2
   6   1   2 908.232 197.745   2
  -7   1   2 791.724 149.931   2
   1  -7   2 819.828 169.838   4
   1  -7   2 809.667 152.640   1
  -7   1  -2 786.306 113.297   4
   1  -7  -2 831.478 189.704   1
   1   6   2 669.403 163.953   2
  -7   6  -2 895.874 134.332   1
   6   1   3 2322.56 315.462   2
  -7   6  -3 2032.53 147.736   1
  -7   1   3 2271.31 192.727   2
   1  -7  -3 2484.25 324.589   1
   1   6   3 2711.69 318.626   2
   1   6  -3 2897.40 233.820   2
   1  -7   3 2452.62 231.787   1
   1  -7   3 2278.24 266.419   4
  -7   1  -3 2263.26 170.544   4
   6  -7   3 2836.66 188.143   4
  -7   1  -3 2468.88 292.366   3
  -7   1  -4 476.105 167.408   3
   1   6  -4 351.601 88.9471   2
   1  -7   4 447.749 105.528   1
   6   1   4 428.587 167.508   2
  -7   1  -4 516.568 139.039   1
   1  -7  -4 517.474 174.284   1
  -7   1  -4 508.007 88.3844   4
   1  -7   4 365.570 135.661   4
   1   6   4 199.625 131.365   2
  -7   1  -5 900.873 218.500   3
   1  -7  -5 718.548 213.545   1
  -7   1  -5 700.338 162.904   1
   6   1   5 725.023 221.406   2
   1   6   5 700.575 205.382   2
   1  -7   5 858.637 200.039   4
  -7   1  -6 153.311 119.583   3
  -7   6   6 150.165 125.252   2
  -7   1  -6 324.486 136.566   1
   6   1   6 61.2664 116.766   2
   1   6   6 233.056 151.870   2
  -8   2   0 245.534 98.9604   3
  -8   2   0 261.906 144.287   2
   2  -8   0 303.465 124.657   1
  -8   6   0 56.6025 87.6921   1
   2   6   0 261.441 117.495   2
  -8   2  -1 946.533 166.800   3
   6   2   1 1223.13 220.838   2
  -8   2   1 1600.33 226.711   2
   2  -8  -1 1011.06 198.456   1
  -8   6  -1 1100.85 180.369   1
   2  -8   1 1424.69 197.517   1
   2   6   1 1289.75 214.682   2
   2   6  -1 1340.05 191.746   2
  -8   2   1 1222.17 175.780   3
  -8   2   2 157.154 61.4677   3
   6   2   2 97.4650 107.462   2
   2  -8  -2 339.491 161.723   1
  -8   2   2 201.014 113.697   2
   2  -8   2 170.293 100.804   4
  -8   6  -2 214.010 102.399   1
   2   6   2 335.800 135.733   2
   2  -8   2 247.246 97.5009   1
   2   6  -2 547.562 126.499   2
  -8   2  -2 180.836 106.523   3
   2  -8  -3 737.142 198.346   1
   6   2   3 536.384 188.160   2
   2  -8   3 726.570 175.319   4
   2  -8   3 593.269 112.607   1
   2   6   3 395.127 158.497   2
   2   6  -3 435.627 101.953   2
  -8   2  -3 520.895 145.973   3
   2  -8  -4 40.4671 122.631   1
   6   2   4 119.309 131.787   2
   2   6   4 172.935 138.413   2
   2  -8   4 27.7644 92.1038   4
  -8   2  -4 179.525 135.417   3
   2  -8  -5 1064.41 263.680   1
   6   2   5 903.134 246.936   2
  -8   2  -5 783.903 184.922   1
   2   6   5 954.726 237.362   2
   2  -8   5 786.754 190.193   4
  -8   2  -5 605.861 188.827   3
   6   3   0 4483.60 380.822   2
   3  -9   0 4025.73 354.384   1
   3   6   0 4535.40 376.906   2
  -9   3   0 3664.14 292.917   3
  -9   3   1 251.061 91.3102   3
   3  -9  -1 291.577 146.544   1
   3  -9   1 230.305 109.577   1
   6   3   1 113.722 125.914   2
   3   6  -1 224.105 116.469   2
   3   6   1 376.741 167.918   2
  -9   3  -1 54.0412 79.4242   3
   3  -9  -2 1738.72 282.336   1
   3  -9   2 2086.39 213.362   1
   3   6  -2 2024.27 209.448   2
   6   3   2 2072.23 312.184   2
   6  -9  -2 1703.25 279.820   1
   3  -9   2 1850.41 260.176   4
   3   6   2 2167.99 299.764   2
  -9   3  -2 1798.15 253.939   3
   3  -9  -3 315.346 168.325   1
   6   3   3 237.008 161.204   2
   6  -9  -3 4.58866 123.115   1
   3   6   3-16.7014 110.165   2
   3  -9   3 502.407 156.289   4
  -9   3  -3 448.646 147.830   3
   3  -9  -4 2287.69 352.621   1
   6   3   4 2300.35 365.539   2
   6  -9  -4 2104.95 335.883   1
   3  -9   4 2243.70 296.848   4
   3   6   4 2126.05 340.397   2
  -9   3  -4 2176.74 317.741   3
   4 -10   0 450.331 148.555   1
   6   4   0 537.191 184.926   2
   4   6   0 414.198 167.045   2
 -10   4   0 219.039 103.081   3
   4 -10  -1 687.039 179.912   1
   6   4   1 743.711 198.758   2
   6 -10  -1 631.422 176.377   1
   4   6   1 591.376 188.253   2
   4 -10   1 419.855 128.294   1
 -10   4  -1 346.428 123.833   3
   4 -10  -2 310.560 177.963   1
   6   4   2 249.834 195.960   2
   6 -10  -2 342.533 177.899   1
   4   6   2 270.663 170.171   2
   6 -10   2 358.106 124.338   4
   4 -10   2 170.976 109.636   4
 -10   4  -2 77.0667 136.144   3
   6   4   3 120.346 125.729   2
   4   6   3 273.842 168.715   2
   6 -10  -3-107.246 141.822   1
   4 -10   3 278.013 133.589   4
 -10   4  -3 245.999 135.859   3
   7  -3   0 366.477 88.2861   4
  -4  -3   0 414.391 128.591   4
  -4   7   0 408.814 121.387   1
   7  -4   0 265.626 67.3035   4
  -3  -4   1 542.317 143.107   4
  -4  -3   1 529.886 145.333   4
   7  -3  -1 442.219 113.845   4
   7  -4  -1 427.941 99.9836   4
  -3   7   1 509.195 152.465   1
  -4   7   1 467.783 132.881   1
  -4  -3  -2 381.437 113.979   2
  -4  -3  -2 272.882 102.618   3
  -4   7   2 193.979 122.843   1
  -3  -4   2 247.724 103.998   4
   7  -3  -2 295.847 108.116   4
  -4  -3   2 249.226 114.788   4
   7  -4  -2 322.067 109.541   4
  -3  -4  -2 401.304 137.937   1
  -3   7   2 201.348 122.223   1
  -4  -3  -3 927.851 166.906   3
  -4   7   3 1132.88 164.866   3
  -3  -4  -3 745.820 179.434   1
  -4  -3  -3 706.325 161.502   1
  -3  -4   3 753.798 165.445   4
   7  -3  -3 850.411 170.528   4
  -4  -3   3 743.495 170.285   4
   7  -4  -3 847.781 174.096   4
  -4  -3  -4 119.586 103.490   1
  -3   7   4 162.353 122.577   2
  -4   7   4 192.010 86.1160   3
  -4  -3  -4 176.027 102.630   3
  -3  -4  -4 19.7889 85.4681   1
  -4  -3   4 321.583 131.121   4
  -3   7   5 178.595 133.836   2
  -4   7   5 194.677 145.021   2
  -4  -3  -5 190.350 93.8676   3
  -3  -4  -5 37.8914 81.7521   3
  -3  -4  -5 210.044 127.204   1
  -4  -3  -5 227.725 133.063   1
  -4   7   6 166.250 149.534   2
  -4  -3  -6 116.660 94.0675   3
  -3  -4  -6 161.788 99.9142   3
  -3  -4  -6-16.3731 107.509   1
  -3   7   6 302.037 148.802   2
  -4  -3  -6-136.233 138.950   1
  -5  -2   0 2548.79 228.911   2
  -5   7   0 3079.38 276.648   1
  -5  -2   0 2647.34 267.898   4
   7  -5   0 2474.77 182.631   4
  -5  -2   1 65.4339 68.4730   2
  -5   7   1-101.263 109.408   1
  -5  -2  -1-2.36741 55.3281   3
  -2  -5   1-27.7015 79.0770   4
  -5  -2  -1-67.5729 85.5998   4
   7  -5   1-21.9051 28.2718   4
  -2  -5  -1 68.9249 87.9342   1
  -5  -2   1 38.2129 90.2493   4
  -5  -2  -1-36.7295 77.6317   2
  -5   7  -1-27.0246 81.6663   1
  -5  -2  -2 5215.64 378.731   2
  -5   7   2 4862.96 393.142   1
  -2  -5  -2 4748.59 409.720   1
   7  -2  -2 5036.01 362.591   4
  -2  -5   2 4984.24 388.411   4
  -5  -2   2 4738.40 376.956   4
  -5  -2  -2 5333.31 367.900   3
  -2   7   3 194.442 122.640   2
  -5  -2  -3 152.864 102.901   3
  -5  -2  -3-58.6315 83.6052   1
  -2  -5  -3 106.661 112.598   1
  -2  -5   3 47.9669 80.4915   4
  -5  -2   3 4.95753 83.8018   4
  -5  -2  -4 1091.29 202.372   3
  -5   7   4 921.335 144.448   3
  -2  -5  -4 951.498 207.489   1
  -5  -2  -4 888.357 187.048   1
  -2  -5   4 876.500 191.306   4
  -5  -2  -5-16.0915 81.7658   3
  -2  -5   5-175.846 123.998   4
  -2  -5  -5 147.364 119.932   1
  -2   7   5-84.5967 120.995   2
  -5   7   6 1736.84 300.786   2
  -5  -2  -6 1536.41 262.714   3
  -5  -2  -6 1581.21 266.228   1
  -2  -5  -6 1165.23 259.895   1
  -2   7   6 1508.69 286.252   2
  -1  -6   0 984.962 189.666   1
  -6  -1   0 1059.68 161.749   3
  -6  -1   0 1169.13 188.202   4
  -6   7   0 1013.36 174.931   1
  -6  -1   0 996.670 159.051   2
  -6  -1  -1 2926.12 286.610   2
  -6   7   1 2822.03 292.615   1
  -6  -1   1 2500.82 215.384   2
  -6   7  -1 3059.77 250.103   1
  -1  -6  -1 3159.98 339.303   1
  -1  -6   1 3346.83 339.263   1
  -1  -6   1 3366.23 331.616   4
  -6  -1  -1 3100.77 272.295   4
  -6  -1   1 2849.42 291.469   4
  -6  -1  -1 3236.23 290.280   3
  -1   7   2 1160.98 214.124   2
  -6  -1  -2 1041.44 180.264   3
  -1  -6  -2 889.573 202.115   1
  -6   7  -2 805.053 118.456   1
   7  -1  -2 889.309 170.331   4
  -6  -1  -2 852.283 157.314   4
  -1  -6   2 744.172 169.557   4
  -6  -1   2 789.399 178.071   4
  -6  -1   2 890.740 113.724   2
  -1   7   3 3100.52 343.129   2
  -1  -6  -3 2578.03 329.569   1
  -1  -6   3 2047.56 267.526   4
  -6  -1  -3 2720.35 294.734   3
  -6  -1  -4 606.975 167.441   3
  -6   7   4 407.762 102.119   3
  -6  -1  -4 205.513 115.275   1
  -1  -6   4 575.241 174.283   4
  -1  -6  -4 574.706 177.329   1
  -1   7   4 523.561 165.943   2
  -6  -1  -5 788.708 189.041   1
  -6  -1  -5 823.034 189.831   3
  -1  -6  -5 882.952 231.983   1
  -1  -6   5 746.647 186.768   4
  -1   7   5 904.218 211.027   2
  -6   7   6 171.622 137.205   2
  -6  -1  -6 293.556 148.508   3
  -6  -1  -6 36.8568 103.871   1
  -1  -6  -6 458.110 191.003   1
  -1   7   6 397.144 170.823   2
   0   7   0 244.990 111.255   2
  -7   0   0 264.762 112.470   3
  -7   7   0 270.773 114.847   1
  -7   0   0 265.975 110.990   2
   0  -7   0 259.995 125.557   1
  -7   0   0 147.778 77.4201   4
   0   7   1 114.802 126.589   2
  -7   0  -1 23.6038 80.8280   3
  -7   0   1-22.0399 63.9593   3
   0  -7   1 17.9325 86.8735   1
  -7   7   1 165.095 119.957   1
  -7   7  -1 103.910 94.0319   1
   0  -7  -1 43.9080 100.568   1
  -7   0   1 3.46355 79.0449   2
  -7   0  -1-205.611 133.842   2
  -7   0  -1 41.6196 75.7406   4
  -7   0   1 160.474 94.9866   4
  -7   0  -2 95.3410 88.7177   3
   0  -7  -2 118.258 133.808   1
  -7   7  -2 61.4661 70.8369   1
   0  -7   2 165.410 97.1046   4
   7  -7   2 107.445 38.1239   4
  -7   0  -2 161.945 83.9932   4
   0  -7   2 260.317 119.443   1
  -7   0   2 52.7749 71.9660   2
   0   7   2 167.489 126.657   2
  -7   0  -3 77.6669 113.182   3
   0  -7   3 291.084 108.458   1
  -7   0  -3 41.1881 58.6175   4
   0  -7   3 98.1889 92.4332   4
   0  -7  -3 4.47214 117.306   1
   0   7   3 263.201 142.263   2
  -7   0  -4 174.449 131.447   3
   0  -7   4 183.764 89.2020   1
  -7   0  -4 63.4846 73.3455   4
   0  -7  -4 178.690 145.845   1
   0  -7   4 117.205 103.064   4
  -7   0  -4 67.3127 86.2532   1
   0   7   4-1.86161 103.664   2
  -7   0  -5 145.602 117.370   3
  -7   0  -5-84.4284 96.0820   1
   0  -7  -5-23.9496 122.059   1
   0  -7   5 209.924 138.350   4
   0   7   5 150.955 134.024   2
  -7   7   6 267.296 154.320   2
  -7   0  -6 248.967 145.507   1
   1  -8   0 485.058 143.409   1
  -8   1   0 452.049 130.270   3
  -8   7   0 411.367 136.693   1
  -8   1   0 341.220 154.155   2
   1   7   0 431.937 154.664   2
  -8   1  -1 41.1953 77.5927   3
  -8   1   1-27.2013 77.1591   3
  -8   7  -1 134.339 113.100   1
   1  -8   1 23.2773 85.4512   1
  -8   1   1-64.3713 108.041   2
   1   7   1 136.843 113.384   2
   1  -8  -1 83.8821 93.1646   1
   1   7  -1 78.7584 88.3884   2
   1   7   2 9891.71 612.859   2
   1  -8  -2 8687.65 599.381   1
   1   7  -2 9874.87 511.371   2
   1  -8   2 7624.94 450.440   1
   7  -8   2 8405.05 343.637   4
   1  -8   2 8833.84 570.203   4
  -8   1  -2 7769.43 366.434   4
  -8   1  -2 8385.80 511.618   3
   1   7  -3-2.36863 79.0062   2
  -8   1  -3 38.1655 92.2932   3
   1  -8   3 21.6368 78.2970   1
   1  -8  -3-12.6132 109.661   1
   1  -8   3 167.293 114.826   4
   1   7   3 40.0169 130.367   2
  -8   1  -4 335.523 145.354   3
   1  -8   4 440.606 153.035   4
  -8   1  -4 173.675 97.0789   1
   1   7   4 528.679 193.576   2
  -8   1  -5 22.5588 116.021   3
   1  -8  -5-8.68545 122.293   1
  -8   1  -5 21.3647 105.409   1
   1   7   5 303.989 169.235   2
   1  -8   5 4.49153 100.416   4
  -9   2   0 189.523 96.1633   3
   2  -9   0-26.3357 90.9987   1
   2   7   0-149.835 118.140   2
  -9   2  -1 351.036 133.516   3
  -9   2   1 323.472 99.8563   3
   2  -9  -1 479.327 184.882   1
   2  -9   1 229.172 157.696   1
   2   7   1 405.079 139.411   2
   2   7  -1 395.506 126.426   2
  -9   2  -2 42.1064 106.333   3
   2  -9  -2 13.1366 102.802   1
   2  -9   2 179.955 128.474   4
   2  -9   2 128.136 108.409   1
   2   7   2 50.2053 119.985   2
   2   7  -2 31.3394 86.5087   2
  -9   2  -3 84.9580 115.395   3
   2  -9  -3 368.050 176.227   1
   7   2   3 399.088 190.278   2
   2  -9   3 100.349 114.334   4
   2   7   3 188.694 144.020   2
  -9   2  -4-45.7887 105.521   3
   2  -9  -4-58.9391 140.448   1
   7   2   4-86.5524 181.931   2
   2   7   4-32.8965 146.344   2
 -10   3   0 799.043 165.174   3
   3 -10   0 821.047 192.917   1
   3   7   0 1004.80 213.096   2
 -10   3  -1 1544.43 226.381   3
   3 -10  -1 1926.68 290.059   1
   3 -10   1 2142.28 262.792   1
   3   7   1 2047.64 310.072   2
 -10   3  -2 840.304 189.166   3
   3 -10  -2 701.435 209.538   1
   7   3   2 883.708 236.616   2
   3   7   2 676.638 235.419   2
   8  -4   0 8188.31 371.989   4
  -4  -4   0 8564.63 522.678   4
  -4   8   1-64.7765 132.138   1
  -4  -4   1 8.87050 88.3536   4
   8  -4  -1 64.2713 84.3161   4
  -4  -4  -2 558.358 152.060   1
  -4  -4   2 478.261 138.196   4
   8  -4  -2 548.926 150.667   4
  -4  -4   3-93.4236 106.324   4
  -4  -4  -3 263.546 137.684   1
  -4  -4  -4 3238.13 371.362   1
  -4  -4   4 3136.24 363.943   4
  -4   8   5 117.232 133.750   2
  -4  -4  -5 108.110 98.0801   3
  -4  -4  -5 47.4444 124.634   1
  -4  -4  -6 37.8217 94.3275   3
  -4  -4  -6 98.1548 139.515   1
  -4   8   6 185.550 178.934   2
  -5   8   0 1267.70 228.137   1
  -3  -5   0 1267.44 218.868   4
  -5  -3   0 1230.46 215.199   4
   8  -5   0 1065.01 133.711   4
  -5  -3  -1 3045.57 296.555   2
  -5   8   1 3366.76 349.503   1
  -3  -5  -1 3481.06 370.102   1
  -5  -3  -1 3557.40 331.962   4
   8  -3  -1 3304.56 288.015   4
  -3  -5   1 3417.99 349.541   4
  -5  -3   1 3373.40 339.308   4
   8  -5  -1 2591.30 235.862   4
   8  -3  -2 913.083 169.848   4
  -3  -5   2 567.495 165.245   4
  -5  -3   2 1097.53 210.189   4
   8  -5  -2 941.306 177.285   4
  -3  -5  -2 1066.78 226.337   1
  -3  -5  -3 2709.36 342.003   1
  -5  -3  -3 2802.21 333.290   1
  -3  -5   3 2953.28 334.923   4
  -5  -3   3 2824.22 339.290   4
  -5  -3  -3 3139.77 316.222   3
  -3   8   4 1125.89 248.995   2
  -5  -3  -4 788.986 184.775   3
  -5  -3  -4 607.053 182.044   1
  -3  -5  -4 454.785 174.134   1
  -3  -5   4 480.701 163.577   4
  -5  -3   4 1009.25 256.265   4
  -3   8   5 976.767 256.604   2
  -3  -5  -5 946.502 241.689   1
  -5   8   5 1476.08 289.673   2
  -5  -3  -5 1368.42 236.212   3
  -5  -3  -5 733.803 207.515   1
  -3  -5   5 885.623 218.340   4
  -5   8   6 27.1834 148.658   2
  -5  -3  -6 371.099 161.937   3
  -5  -3  -6 55.5654 122.580   1
  -3  -5  -6 396.127 176.098   1
  -3   8   6 394.074 184.936   2
  -6  -2   0 543.482 159.167   2
  -2  -6   0 87.2691 103.765   1
  -6   8   0 257.138 125.716   1
  -6  -2   0 213.199 107.593   4
   8  -6   0 162.835 73.4620   4
  -6   8  -1 1300.49 193.345   1
  -6   8   1 881.356 187.457   1
  -2  -6   1 1415.07 233.391   4
  -6  -2  -1 1349.35 207.257   4
  -6  -2   1 1225.86 209.360   4
  -2  -6  -1 1194.72 225.761   1
  -6  -2  -1 1448.98 200.940   3
  -6  -2  -1 1187.65 198.806   2
  -2  -6  -2 319.143 148.370   1
  -6  -2  -2 309.261 126.620   3
  -6  -2  -2 189.991 116.087   4
  -2  -6   2 176.161 116.877   4
  -6  -2   2 216.652 122.195   4
  -2   8   3 402.705 155.683   2
  -6  -2  -3 452.526 153.547   1
  -6  -2  -3 650.711 170.915   3
  -2  -6  -3 692.128 199.334   1
  -2  -6   3 692.514 173.316   4
  -6  -2   3 439.295 160.958   4
  -2   8   4 131.400 127.025   2
  -6  -2  -4 77.1388 99.7066   1
  -6  -2  -4-23.0313 115.715   3
  -2  -6  -4 233.103 146.836   1
  -2  -6   4 147.279 113.432   4
  -6  -2  -5 793.110 194.928   3
  -2  -6   5 655.609 192.614   4
  -6  -2  -5 797.763 207.016   1
  -2  -6  -5 1231.52 261.566   1
  -2   8   5 925.318 242.933   2
  -7  -1   0 553.451 130.410   3
  -1  -7   0 470.623 165.362   1
  -7  -1   0 587.127 144.312   4
  -7  -1   0 445.413 130.676   2
  -7   8   0 513.409 145.636   1
  -1  -7   1 6.08564 100.361   1
  -1   8   1 249.042 132.775   2
  -7   8  -1 11.1516 94.3057   1
  -7  -1  -1 166.355 93.5634   3
  -1  -7   1 7.56998 96.8180   4
  -7  -1  -1 194.742 98.1292   4
  -1  -7  -1-38.8661 102.756   1
  -7  -1   1-5.53526 92.5730   4
  -7  -1   1 96.1708 87.7613   2
  -1   8   2 9974.49 641.118   2
  -1  -7  -2 8418.10 609.698   1
  -1  -7   2 8192.15 539.605   1
  -1  -7   2 8401.47 574.431   4
  -7  -1  -2 8594.83 467.998   4
  -7  -1   2 8368.56 559.491   4
  -7  -1  -2 8986.58 532.449   3
  -1   8   3 256.077 201.326   2
  -7  -1  -3-161.301 111.020   3
  -1  -7   3 73.8341 111.647   1
  -7  -1  -3 34.5043 75.0926   4
  -1  -7   3 185.022 135.661   4
  -7  -1  -4 375.606 137.963   3
  -7  -1  -4 351.222 121.454   4
  -1  -7   4 347.692 134.999   4
  -1  -7  -4 264.877 129.451   1
  -7  -1  -4 338.633 147.729   1
  -1   8   4 146.619 126.275   2
  -7  -1  -5-82.5688 137.036   3
  -7  -1  -5-6.14068 106.599   1
  -1  -7  -5-17.4074 149.491   1
  -1  -7   5 87.3454 106.575   4
  -1   8   5-122.692 118.340   2
   0   8   0-28.6015 116.882   2
  -8   0   0 134.422 85.6108   3
   0  -8   0-174.147 126.732   1
  -8   8   0-232.530 183.272   1
  -8   0   0 22.3956 76.0839   4
   0   8   1 1364.97 258.095   2
   0   8  -1 750.738 182.085   2
  -8   0  -1 736.226 157.519   3
   0  -8  -1 993.581 231.811   1
   0  -8   1 1031.68 224.098   4
   0  -8   1 821.210 187.230   1
  -8   0  -1 862.852 152.934   4
   0  -8   2 389.564 152.181   1
   0  -8  -2 108.144 133.621   1
  -8   0  -2 76.3308 107.947   3
   0  -8   2 221.294 147.574   4
  -8   0  -2 66.3543 89.9262   4
   0   8   2 240.698 151.133   2
  -8   0  -3 311.516 134.021   3
   0  -8   3 447.810 144.629   1
   0  -8   3 270.243 136.498   4
   0  -8  -3 106.083 148.984   1
   0   8   3 412.562 184.653   2
  -8   0  -4-71.3905 126.555   3
  -8   0  -4-49.4326 110.641   1
   0  -8   4-193.925 117.243   4
   0   8   4 108.044 127.267   2
  -9   1   0 609.137 151.259   3
   1   8   0 802.129 218.235   2
   1  -9   0 446.357 162.643   1
   1  -9   1 1072.98 203.440   1
  -9   1  -1 1310.74 210.317   3
  -9   1   1 1209.58 180.315   3
   1  -9  -1 1258.82 261.485   1
   1   8   1 1215.15 252.057   2
   1   8  -1 1509.23 246.262   2
  -9   1  -2 616.144 173.777   3
   1  -9   2 604.360 156.005   1
   1  -9   2 671.662 196.524   4
   1  -9  -2 300.891 157.354   1
   1   8   2 554.810 208.096   2
   1   8  -2 1031.05 210.718   2
  -9   1  -3 1176.58 222.426   3
   1  -9  -3 814.622 224.399   1
   1  -9   3 954.392 230.137   4
   1   8   3 1251.36 270.475   2
 -10   2   0 1510.68 219.254   3
   2 -10   0 1227.98 227.528   1
   2   8   0 1208.19 246.051   2
 -10   2  -1-18.6056 90.8613   3
   2 -10  -1-35.5468 138.038   1
   2 -10   1-77.6403 145.120   1
   2   8   1-101.712 158.763   2
  -4  -5   0 167.316 125.515   4
  -5  -4   0 460.589 145.499   4
  -4  -5  -1 694.051 190.839   1
   9  -4  -1 514.054 144.729   4
  -5  -4  -1 501.579 167.906   4
  -4  -5   1 488.758 165.140   4
  -5  -4   1 754.570 202.456   4
  -4  -5  -2 506.984 180.151   1
  -5  -4  -2 138.891 132.452   1
  -4  -5   2 67.1424 104.464   4
  -5  -4   2 117.383 113.867   4
  -5  -4  -3 371.089 166.336   1
  -4  -5  -3 97.8029 122.771   1
  -4  -5   3 181.267 137.650   4
  -5  -4   3 440.607 155.206   4
  -4   9   4 280.512 167.701   2
  -5  -4  -4 279.973 158.533   1
  -4  -5  -4 278.084 165.835   1
  -4  -5   4 27.9455 100.651   4
  -5  -4   4 130.801 129.712   4
  -6   9   0 4866.48 429.481   1
  -3  -6   0 4452.09 440.643   1
  -3  -6   0 5098.83 458.794   4
  -6  -3   0 4325.31 399.345   4
  -3  -6  -1 377.095 170.023   1
  -3  -6   1 288.467 162.953   4
  -6  -3  -1 417.788 144.164   4
  -6  -3   1 238.702 141.570   4
  -3  -6  -2 1892.96 308.616   1
  -6  -3   2 2436.84 328.249   4
  -6  -3  -2 2077.94 268.603   4
  -3  -6   2 1700.43 284.856   4
  -3   9   3 120.234 162.875   2
  -6  -3  -3 118.801 112.103   3
  -6  -3  -3 350.102 149.104   1
  -3  -6   3 215.183 135.439   4
  -3  -6  -3 209.059 151.927   1
  -6  -3   3 23.2740 126.536   4
  -3   9   4 2720.55 404.131   2
  -3  -6  -4 2276.50 352.192   1
  -6  -3  -4 1975.39 309.811   1
  -3  -6   4 1705.96 289.104   4
  -6  -3  -4 2232.98 301.012   3
  -7  -2   0 100.878 102.400   4
  -2  -7   0 159.795 133.907   1
  -2  -7  -1 345.080 174.595   1
  -2  -7   1 573.839 181.816   4
  -7  -2  -1 238.805 114.802   4
  -7  -2   1 432.212 153.987   4
  -2  -7   1 303.002 165.187   1
  -2   9   2 100.333 122.112   2
  -7  -2  -2 95.9413 99.5214   3
  -2  -7  -2 246.548 144.672   1
  -7  -2  -2 56.7540 109.527   4
  -2  -7   2-37.7484 123.665   4
  -2  -7   2 336.284 148.813   1
  -7  -2   2 348.490 165.846   4
  -2   9   3 181.268 168.787   2
  -7  -2  -3 53.8305 105.044   3
  -2  -7  -3 148.043 129.513   1
  -7  -2  -3 118.619 107.827   4
  -2  -7   3 96.8468 106.435   4
  -7  -2  -3 399.748 163.766   1
  -2  -7  -4-3.72860 125.893   1
  -7  -2  -4 70.9897 101.526   3
  -7  -2  -4-23.4088 107.957   1
  -7  -2  -4 10.4327 93.8456   4
  -2  -7   4 62.6519 104.592   4
  -2   9   4 90.7315 144.752   2
  -1   9   0 488.580 192.262   2
  -8  -1   0 627.731 168.780   4
  -1  -8   0 422.499 190.051   1
  -1   9   1 1244.40 268.178   2
  -8  -1  -1 1239.07 199.875   3
  -1  -8   1 910.489 216.070   1
  -1  -8  -1 1198.60 256.870   1
  -1  -8   1 1456.68 281.574   4
  -8  -1  -1 1404.00 222.440   4
  -8  -1   1 1201.13 231.953   4
  -1   9   2 487.850 200.599   2
  -8  -1  -2 484.663 144.686   3
  -1  -8  -2 484.834 196.693   1
  -1  -8   2 572.639 190.635   1
  -1  -8   2 668.050 204.570   4
  -8  -1  -2 566.185 157.389   4
  -1  -8  -3 1010.53 265.083   1
  -1  -8   3 1125.28 236.488   1
  -8  -1  -3 1025.51 209.750   3
  -1  -8   3 927.659 228.625   4
  -1   9   3 1354.69 281.570   2
   0   9   0 8021.62 605.834   2
   0  -9   0 6770.93 551.645   1
  -9   0   0 7675.38 473.170   3
   0   9  -1 175.704 149.925   2
   0  -9  -1 174.733 138.644   1
  -9   0  -1 57.7630 104.788   3
   0  -9   1 52.7163 112.742   1
   0  -9   1 163.170 159.422   4
  -9   0  -1-56.3960 96.7458   4
   0   9   1-120.339 163.637   2
   0   9  -2 306.366 134.343   2
  -9   0  -2 344.646 141.001   3
   0  -9   2 241.419 136.166   1
   0  -9   2 443.670 207.174   4
   0  -9  -2 895.691 248.534   1
   0   9   2 550.077 198.409   2
  -5  -5   0 4106.93 433.448   4
  -5  -5  -1 383.067 169.528   4
  -5  -5   1 145.103 140.908   4
  -5  -5  -1 392.130 209.006   1
  -5  -5  -2 6133.09 555.681   1
  -5  -5  -2 6577.96 527.570   4
  -5  -5   2 5286.71 507.280   4
  -5  -5  -3 65.0797 123.629   1
  -5  -5   3 19.1828 128.564   4
  -4  -6   0 316.530 158.191   1
  -4  -6   0 293.176 161.124   4
  -6  -4   0 187.893 131.248   4
  -4  -6  -1 777.047 200.674   4
  -6  -4  -1 778.953 201.077   4
  -4  -6   1 749.578 213.937   4
  -6  -4   1 461.931 171.165   4
  -4  -6  -1 414.443 161.204   1
  -4  -6  -2-9.49222 126.092   1
  -6  -4  -2 428.807 171.921   4
  -4  -6   2 303.339 151.810   4
  -6  -4   2 58.3489 118.560   4
  -6  -4  -2 354.023 171.486   1
  -6  -4  -3 548.542 199.673   1
  -6  -4  -3 309.211 149.908   4
  -4  -6   3 269.499 163.109   4
  -6  -4   3 161.353 157.542   4
  -4  -6  -3 211.623 166.664   1
  -3  -7   0 943.254 234.021   1
  -3  -7   0 1239.19 258.985   4
  -7  -3   0 1022.62 233.374   4
  -3  -7  -1 2455.31 365.603   1
  -3  -7   1 2408.40 360.336   4
  -3  -7   1 2015.89 323.434   1
  -7  -3  -1 1989.85 293.504   4
  -7  -3   1 2066.44 306.146   4
  -7  -3  -2 862.981 190.974   4
  -3  -7   2 713.788 228.058   4
  -7  -3   2 665.712 208.906   4
  -3  -7  -2 916.164 255.910   1
  -2  -8   0 1141.91 260.590   1
  -2  -8   0 1361.86 282.818   4
  -8  -2   0 1634.92 299.010   4
  -2  10   1 156.581 147.449   2
  -2  -8   1 190.623 127.571   1
  -2  -8   1 155.231 166.711   4
  -8  -2  -1-80.0442 102.993   4
  -2  -8  -1 95.4076 149.482   1
  -8  -2   1 84.5039 117.656   4
   0   0   0    0.00    0.00   0

TITL jjw0690 in P-62c
REM P-62c (#190 in standard setting)
CELL 0.71073   8.517551   8.517551   7.176476  90.0000  90.0000 120.0000
ZERR    6.00   0.001494   0.001494   0.001702   0.0000   0.0000   0.0000
LATT -1
SYMM -y, x-y, z
SYMM -x+y,-x, z
SYMM  x, y,-z+1/2
SYMM -y, x-y,-z+1/2
SYMM -x+y,-x,-z+1/2
SYMM  y, x,-z
SYMM  x-y,-y,-z
SYMM -x,-x+y,-z
SYMM  y, x, z+1/2
SYMM  x-y,-y, z+1/2
SYMM -x,-x+y, z+1/2
SFAC C O Na P
UNIT 6.00 6.00 6.00 6.00
TREF
HKLF 4
END
;
_shelx_hkl_checksum              61897
_shelx_shelxl_version_number     2014/7
_olex2_submission_special_instructions 'No special instructions were received'
_oxdiff_exptl_absorpt_empirical_details
;
Empirical correction (ABSPACK) includes:
- Absorption correction using spherical harmonics
- Frame scaling
;
_oxdiff_exptl_absorpt_empirical_full_max 1.485
_oxdiff_exptl_absorpt_empirical_full_min 0.683
loop_
_space_group_symop_operation_xyz
'x, y, z'
'-y, x-y, z'
'-x+y, -x, z'
'x, y, -z+1/2'
'-y, x-y, -z+1/2'
'-x+y, -x, -z+1/2'
'y, x, -z'
'x-y, -y, -z'
'-x, -x+y, -z'
'y, x, z+1/2'
'x-y, -y, z+1/2'
'-x, -x+y, z+1/2'
loop_
_atom_site_label
_atom_site_type_symbol
_atom_site_fract_x
_atom_site_fract_y
_atom_site_fract_z
_atom_site_U_iso_or_equiv
_atom_site_adp_type
_atom_site_occupancy
_atom_site_site_symmetry_order
_atom_site_calc_flag
_atom_site_refinement_flags_posn
_atom_site_refinement_flags_adp
_atom_site_refinement_flags_occupancy
P1 P 1.1975(5) 0.3366(5) 0.7500 0.0179(10) Uani 1 2 d S T P
Na1 Na 1.0000 0.0000 0.5000 0.0150(19) Uani 1 6 d S T P
Na2 Na 0.6667 0.3333 0.5160(8) 0.0137(15) Uani 1 3 d S T P
O1 O 0.8738(15) 0.3423(12) 0.7500 0.025(3) Uani 1 2 d S T P
C1 C 1.008(2) 0.3382(16) 0.7500 0.015(3) Uani 1 2 d S T P
loop_
_atom_site_aniso_label
_atom_site_aniso_U_11
_atom_site_aniso_U_22
_atom_site_aniso_U_33
_atom_site_aniso_U_23
_atom_site_aniso_U_13
_atom_site_aniso_U_12
P1 0.0136(19) 0.0102(17) 0.0274(17) 0.000 0.000 0.0042(14)
Na1 0.012(3) 0.012(3) 0.021(4) 0.000 0.000 0.0059(13)
Na2 0.012(2) 0.012(2) 0.017(3) 0.000 0.000 0.0059(10)
O1 0.016(5) 0.016(5) 0.046(6) 0.000 0.000 0.010(4)
C1 0.021(6) 0.008(6) 0.016(7) 0.000 0.000 0.008(5)
loop_
_atom_type_symbol
_atom_type_description
_atom_type_scat_dispersion_real
_atom_type_scat_dispersion_imag
_atom_type_scat_source
C C 0.0033 0.0016 'International Tables Vol C Tables 4.2.6.8 and 6.1.1.4'
Na Na 0.0362 0.0249 'International Tables Vol C Tables 4.2.6.8 and 6.1.1.4'
O O 0.0106 0.0060 'International Tables Vol C Tables 4.2.6.8 and 6.1.1.4'
P P 0.1023 0.0942 'International Tables Vol C Tables 4.2.6.8 and 6.1.1.4'
loop_
_exptl_crystal_face_index_h
_exptl_crystal_face_index_k
_exptl_crystal_face_index_l
_exptl_crystal_face_perp_dist
1 0 0 0.0169
1 -1 0 0.0141
-1 1 0 0.0141
0 -1 0 0.0162
0 1 0 0.0162
0 0 -1 0.1392
0 0 1 0.1392
-1 0 0 0.0169
loop_
_geom_angle_atom_site_label_1
_geom_angle_atom_site_label_2
_geom_angle_atom_site_label_3
_geom_angle
_geom_angle_site_symmetry_1
_geom_angle_site_symmetry_3
Na1 P1 Na1 71.40(8) . 4_556
Na1 P1 Na2 170.50(12) . 10_655
Na1 P1 Na2 170.50(12) 4_556 7_656
Na1 P1 Na2 105.58(9) . 7_656
Na1 P1 Na2 105.58(9) 4_556 10_655
Na2 P1 Na2 75.9(2) 10_655 7_656
C1 P1 Na1 85.7(3) . 4_556
C1 P1 Na1 85.7(3) . .
C1 P1 Na2 85.1(3) . 7_656
C1 P1 Na2 85.1(3) . 10_655
P1 Na1 P1 170.73(13) 7_646 2_645
P1 Na1 P1 97.50(11) 9_766 .
P1 Na1 P1 170.73(13) 8_556 .
P1 Na1 P1 89.38(6) 2_645 3_765
P1 Na1 P1 97.50(11) 8_556 2_645
P1 Na1 P1 97.50(11) 7_646 3_765
P1 Na1 P1 84.51(10) 7_646 .
P1 Na1 P1 89.38(6) 8_556 7_646
P1 Na1 P1 89.38(6) 3_765 .
P1 Na1 P1 84.51(10) 8_556 3_765
P1 Na1 P1 170.73(13) 9_766 3_765
P1 Na1 P1 89.38(6) 8_556 9_766
P1 Na1 P1 89.38(6) 2_645 .
P1 Na1 P1 89.38(6) 9_766 7_646
P1 Na1 P1 84.51(10) 9_766 2_645
P1 Na1 Na1 125.70(4) 8_556 4_556
P1 Na1 Na1 54.30(4) . 4_556
P1 Na1 Na1 54.30(4) 2_645 4_556
P1 Na1 Na1 125.70(4) 3_765 4
P1 Na1 Na1 54.30(4) 3_765 4_556
P1 Na1 Na1 54.30(4) 9_766 4
P1 Na1 Na1 125.70(4) 9_766 4_556
P1 Na1 Na1 54.30(4) 7_646 4
P1 Na1 Na1 125.70(4) 7_646 4_556
P1 Na1 Na1 125.70(4) 2_645 4
P1 Na1 Na1 54.30(4) 8_556 4
P1 Na1 Na1 125.70(4) . 4
Na1 Na1 Na1 180.0 4_556 4
P1 Na2 P1 86.15(14) 9_766 7_546
P1 Na2 P1 86.15(14) 9_766 8_566
P1 Na2 P1 86.15(14) 8_566 7_546
P1 Na2 Na2 127.94(10) 9_766 4_556
P1 Na2 Na2 127.94(10) 8_566 4_556
P1 Na2 Na2 52.06(10) 8_566 4
P1 Na2 Na2 52.06(10) 9_766 4
P1 Na2 Na2 52.06(10) 7_546 4
P1 Na2 Na2 127.94(10) 7_546 4_556
Na2 Na2 Na2 180.0 4_556 4
O1 Na2 P1 89.02(19) . 9_766
O1 Na2 P1 162.4(2) . 7_546
O1 Na2 P1 162.4(2) 3_665 8_566
O1 Na2 P1 89.02(19) 2_655 8_566
O1 Na2 P1 162.4(2) 2_655 9_766
O1 Na2 P1 89.02(19) 3_665 7_546
O1 Na2 P1 110.5(2) 2_655 7_546
O1 Na2 P1 110.5(2) 3_665 9_766
O1 Na2 P1 110.5(2) . 8_566
O1 Na2 Na2 134.2(2) 2_655 4
O1 Na2 Na2 45.8(2) 3_665 4_556
O1 Na2 Na2 134.2(2) 3_665 4
O1 Na2 Na2 45.8(2) . 4_556
O1 Na2 Na2 45.8(2) 2_655 4_556
O1 Na2 Na2 134.2(2) . 4
O1 Na2 O1 76.8(3) . 3_665
O1 Na2 O1 76.8(3) . 2_655
O1 Na2 O1 76.8(3) 3_665 2_655
Na2 O1 Na2 88.4(4) 4_556 .
C1 O1 Na2 135.7(2) . .
C1 O1 Na2 135.7(2) . 4_556
O1 C1 P1 178.9(11) . .
loop_
_geom_bond_atom_site_label_1
_geom_bond_atom_site_label_2
_geom_bond_distance
_geom_bond_site_symmetry_2
P1 Na1 3.075(3) .
P1 Na1 3.075(3) 4_556
P1 Na2 3.105(5) 10_655
P1 Na2 3.105(5) 7_656
P1 C1 1.622(15) .
Na1 P1 3.075(3) 7_646
Na1 P1 3.075(3) 9_766
Na1 P1 3.075(3) 3_765
Na1 P1 3.075(3) 8_556
Na1 P1 3.075(3) 2_645
Na1 Na1 3.5891(10) 4
Na1 Na1 3.5891(10) 4_556
Na2 P1 3.105(5) 9_766
Na2 P1 3.105(5) 7_546
Na2 P1 3.105(5) 8_566
Na2 Na2 3.818(12) 4
Na2 Na2 3.360(12) 4_556
Na2 O1 2.411(9) 3_665
Na2 O1 2.411(9) 2_655
Na2 O1 2.411(9) .
O1 Na2 2.411(9) 4_556
O1 C1 1.16(2) .
loop_
_exptl_oxdiff_crystal_face_indexfrac_h
_exptl_oxdiff_crystal_face_indexfrac_k
_exptl_oxdiff_crystal_face_indexfrac_l
_exptl_oxdiff_crystal_face_x
_exptl_oxdiff_crystal_face_y
_exptl_oxdiff_crystal_face_z
0.9992 0.0001 -0.0001 0.0392 0.0145 0.0865
0.9992 -0.9991 0.0004 0.0275 -0.0750 0.0534
-0.9992 0.9991 -0.0004 -0.0275 0.0750 -0.0534
-0.0000 -0.9992 0.0005 -0.0116 -0.0895 -0.0332
0.0000 0.9992 -0.0005 0.0116 0.0895 0.0332
0.0002 -0.0010 -1.0001 0.0897 0.0037 -0.0411
-0.0002 0.0010 1.0001 -0.0897 -0.0037 0.0411
-0.9992 -0.0001 0.0001 -0.0392 -0.0145 -0.0865
loop_
_twin_individual_id
_twin_individual_mass_fraction_refined
1 1.3(13)
2 -0.3(13)
