#------------------------------------------------------------------------------
#$Date: 2017-07-27 01:34:31 +0300 (Thu, 27 Jul 2017) $
#$Revision: 199346 $
#$URL: file:///home/coder/svn-repositories/cod/cif/4/12/63/4126311.cif $
#------------------------------------------------------------------------------
#
# This file is available in the Crystallography Open Database (COD),
# http://www.crystallography.net/
#
# All data on this site have been placed in the public domain by the
# contributors.
#
data_4126311
loop_
_publ_author_name
'Surbella, Robert G.'
'Ducati, Lucas Colucci'
'Pellegrini, Kristi L.'
'McNamara, Bruce K.'
'Autschbach, Jochen'
'Schwantes, Jon Michael'
'Cahill, Christopher L.'
_publ_section_title
;
 Transuranic Hybrid Materials: Crystallographic and Computational Metrics
 of Supramolecular Assembly.
;
_journal_name_full               'Journal of the American Chemical Society'
_journal_paper_doi               10.1021/jacs.7b05689
_journal_year                    2017
_chemical_formula_moiety         '(C5 H5 N Cl 1+)2, (Np O2 Cl4 2-)'
_chemical_formula_sum            'C10 H10 Cl6 N2 Np O2'
_chemical_formula_weight         639.90
_space_group_crystal_system      monoclinic
_space_group_IT_number           12
_space_group_name_Hall           '-C 2y'
_space_group_name_H-M_alt        'C 1 2/m 1'
_symmetry_cell_setting           monoclinic
_symmetry_Int_Tables_number      12
_symmetry_space_group_name_Hall  '-C 2y'
_symmetry_space_group_name_H-M   'C 1 2/m 1'
_atom_sites_solution_hydrogens   geom
_audit_creation_method           SHELXL-2014/7
_cell_angle_alpha                90
_cell_angle_beta                 105.585(2)
_cell_angle_gamma                90
_cell_formula_units_Z            2
_cell_length_a                   15.7687(10)
_cell_length_b                   6.7068(4)
_cell_length_c                   9.0971(6)
_cell_measurement_reflns_used    3441
_cell_measurement_temperature    296(2)
_cell_measurement_theta_max      52.235
_cell_measurement_theta_min      6.082
_cell_volume                     926.71(10)
_computing_cell_refinement       'SAINT, Bruker-AXS'
_computing_data_collection       'APEX, Bruker-AXS'
_computing_data_reduction        'SAINT, Bruker-AXS'
_computing_molecular_graphics    'WINGX (Farrugia, 2012)'
_computing_publication_material  'Crystal Maker (Palmer, 2009)'
_computing_structure_refinement  'SHELXL-2014/7 (Sheldrick, 2014)'
_computing_structure_solution    'SIR92 (Gualardi, 1994)'
_diffrn_ambient_temperature      296(2)
_diffrn_measured_fraction_theta_full 0.998
_diffrn_measured_fraction_theta_max 0.998
_diffrn_measurement_device_type  'Bruker D8 Venture'
_diffrn_measurement_method       'Omega and Phi Scans'
_diffrn_radiation_probe          x-ray
_diffrn_radiation_type           MoK\a
_diffrn_radiation_wavelength     0.71073
_diffrn_reflns_av_R_equivalents  0.0382
_diffrn_reflns_av_unetI/netI     0.0263
_diffrn_reflns_Laue_measured_fraction_full 0.998
_diffrn_reflns_Laue_measured_fraction_max 0.998
_diffrn_reflns_limit_h_max       21
_diffrn_reflns_limit_h_min       -21
_diffrn_reflns_limit_k_max       9
_diffrn_reflns_limit_k_min       -9
_diffrn_reflns_limit_l_max       12
_diffrn_reflns_limit_l_min       -12
_diffrn_reflns_number            7582
_diffrn_reflns_point_group_measured_fraction_full 0.998
_diffrn_reflns_point_group_measured_fraction_max 0.998
_diffrn_reflns_theta_full        25.500
_diffrn_reflns_theta_max         28.731
_diffrn_reflns_theta_min         3.041
_diffrn_source                   'Fine-Focus Sealed Tube'
_exptl_absorpt_coefficient_mu    6.473
_exptl_absorpt_correction_T_max  0.7458
_exptl_absorpt_correction_T_min  0.5623
_exptl_absorpt_correction_type   multi-scan
_exptl_absorpt_process_details   'Krause et. al 2015'
_exptl_crystal_colour            Yellow-Green
_exptl_crystal_density_diffrn    2.293
_exptl_crystal_description       Prismatic
_exptl_crystal_F_000             590
_exptl_crystal_recrystallization_method 'Acidic (HCl) aqueous evaporation'
_exptl_crystal_size_max          0.229
_exptl_crystal_size_mid          0.053
_exptl_crystal_size_min          0.032
_refine_diff_density_max         0.817
_refine_diff_density_min         -0.743
_refine_diff_density_rms         0.110
_refine_ls_extinction_method     none
_refine_ls_goodness_of_fit_ref   1.072
_refine_ls_hydrogen_treatment    constr
_refine_ls_matrix_type           full
_refine_ls_number_parameters     64
_refine_ls_number_reflns         1307
_refine_ls_number_restraints     0
_refine_ls_restrained_S_all      1.072
_refine_ls_R_factor_all          0.0261
_refine_ls_R_factor_gt           0.0248
_refine_ls_shift/su_max          0.000
_refine_ls_shift/su_mean         0.000
_refine_ls_structure_factor_coef Fsqd
_refine_ls_weighting_details
'w=1/[\s^2^(Fo^2^)+(0.0191P)^2^+0.9044P] where P=(Fo^2^+2Fc^2^)/3'
_refine_ls_weighting_scheme      calc
_refine_ls_wR_factor_gt          0.0457
_refine_ls_wR_factor_ref         0.0462
_reflns_Friedel_coverage         0.000
_reflns_number_gt                1281
_reflns_number_total             1307
_reflns_threshold_expression     'I > 2\s(I)'
_cod_data_source_file            ja7b05689_si_002.cif
_cod_data_source_block           Compound_6
_cod_original_sg_symbol_H-M      'C 2/m'
_cod_database_code               4126311
_shelx_shelxl_version_number     2014/7
_shelx_space_group_comment
;
The symmetry employed for this shelxl refinement is uniquely defined
by the following loop, which should always be used as a source of
symmetry information in preference to the above space-group names.
They are only intended as comments.
;
_shelx_estimated_absorpt_t_min   0.319
_shelx_estimated_absorpt_t_max   0.820
_shelx_res_file
;

    shelx.res created by SHELXL-2014/7

TITL C2onm in C2/m
CELL  0.71073  15.7687   6.7068   9.0971   90.000  105.585   90.000
ZERR     2.00   0.0010   0.0004   0.0006    0.000    0.002    0.000
LATT   7
SYMM  - X,   Y, - Z
SFAC  C    H    N    O    CL   NP
UNIT  20 20 4 4 12 2
MERG   2
HTAB C1 Cl2
EQIV $1 -x, -y, -z+1
HTAB C1 Cl2_$1
HTAB C2 Cl1
EQIV $2 x, y, z+1
HTAB N1 Cl1_$2
HTAB C1 Cl2
HTAB C1 Cl2_$1
HTAB C2 Cl1
HTAB N1 Cl1_$2
FMAP   2
PLAN    5
SIZE     0.032   0.053   0.229
ACTA    51.00
BOND   $H
L.S.  24
TEMP    23.00
WGHT    0.019100    0.904400
FVAR       0.09448
C1    1    0.188766    0.000000    0.610554    10.50000    0.04396    0.06820 =
         0.05887    0.00000    0.01284    0.00000
AFIX  43
H1    2    0.127540    0.000000    0.581082    10.50000   -1.20000
AFIX   0
C2    1    0.234168    0.000000    0.503801    10.50000    0.03445    0.06780 =
         0.04412    0.00000    0.00429    0.00000
AFIX  43
H2    2    0.205050    0.000000    0.400310    10.50000   -1.20000
AFIX   0
C3    1    0.324816    0.000000    0.552770    10.50000    0.04089    0.05006 =
         0.05624    0.00000    0.01114    0.00000
C4    1    0.368483    0.000000    0.705009    10.50000    0.04350    0.06488 =
         0.06601    0.00000   -0.00427    0.00000
AFIX  43
H4    2    0.429670    0.000000    0.737256    10.50000   -1.20000
AFIX   0
C5    1    0.319263    0.000000    0.807977    10.50000    0.07888    0.06248 =
         0.04744    0.00000   -0.00134    0.00000
AFIX  43
H5    2    0.346691    0.000000    0.912149    10.50000   -1.20000
AFIX   0
N1    3    0.232078    0.000000    0.758117    10.50000    0.07284    0.05519 =
         0.05425    0.00000    0.02627    0.00000
AFIX  43
HN1   2    0.202050    0.000000    0.824279    10.50000   -1.20000
AFIX   0
O1    4    0.000000   -0.259342    0.000000    10.50000    0.05479    0.05527 =
         0.08538    0.00000   -0.00417    0.00000
CL1   5    0.176312    0.000000    0.069801    10.50000    0.03571    0.08927 =
         0.04431    0.00000    0.00437    0.00000
CL2   5    0.007366    0.000000    0.291750    10.50000    0.04357    0.19225 =
         0.03778    0.00000    0.00817    0.00000
CL3   5    0.383540    0.000000    0.419196    10.50000    0.05155    0.11625 =
         0.08774    0.00000    0.03439    0.00000
NP1   6    0.000000    0.000000    0.000000    10.25000    0.03190    0.04774 =
         0.03467    0.00000    0.00245    0.00000
HKLF    4

REM  C2onm in C2/m
REM R1 =  0.0248 for    1281 Fo > 4sig(Fo)  and  0.0261 for all    1307 data
REM     64 parameters refined using      0 restraints

END

WGHT      0.0191      0.9044

REM Highest difference peak  0.817,  deepest hole -0.743,  1-sigma level  0.110
Q1    1  -0.0135 -0.1040  0.2542  11.00000  0.05    0.63
Q2    1   0.0000  0.0000  0.5000  10.25000  0.05    0.60
Q3    1  -0.0121 -0.1314  0.0460  11.00000  0.05    0.54
Q4    1   0.0968  0.0000  0.4360  10.50000  0.05    0.52
Q5    1   0.0501  0.0000 -0.0439  10.50000  0.05    0.51
;
_shelx_res_checksum              64869
_shelx_hkl_file
;
  -4   0   0  231.60    5.51
   4   0   0  227.22    5.48
   4   0   0  254.78    5.54
  -4   0   0  196.01    5.46
  -4   0   0  224.75    5.44
  -4   0   0  233.64    5.54
   6   0   0  436.20   10.51
  -6   0   0  436.58   10.47
  -6   0   0  429.89   10.41
  -6   0   0  444.04   10.57
  -6   0   0  471.30   10.93
   8   0   0  185.14    4.81
  -8   0   0  185.51    4.86
  -8   0   0  189.05    4.66
  -8   0   0  185.81    4.87
 -10   0   0  149.62    4.19
 -10   0   0  150.98    3.90
  10   0   0  152.66    4.12
 -10   0   0  146.41    4.16
  12   0   0   82.60    2.71
 -12   0   0   86.84    2.87
 -12   0   0   82.08    2.46
 -12   0   0   84.89    2.87
 -14   0   0   14.32    1.45
 -14   0   0   12.69    0.97
  14   0   0   11.85    1.23
 -14   0   0   15.41    1.47
  16   0   0   47.84    3.24
 -16   0   0   43.86    1.75
 -16   0   0   50.13    2.53
 -16   0   0   44.04    2.30
  18   0   0   23.02    2.02
 -18   0   0   21.81    1.96
 -18   0   0   28.34    2.18
  20   0   0    3.96    1.26
 -20   0   0   -0.77    1.27
 -20   0   0    2.05    1.25
   1  -1   0  253.76    6.04
  -1  -1   0  263.95    6.17
   1  -1   0  263.63    6.11
  -1  -1   0  265.98    6.09
  -1  -1   0  270.88    6.16
   1  -1   0  255.25    6.11
   1   1   0  253.13    6.15
  -1   1   0  256.75    6.10
   1   1   0  268.31    6.09
  -1   1   0  258.99    6.10
   1   1   0  270.18    6.16
   3  -1   0  304.91    6.93
   3  -1   0  297.16    7.02
  -3  -1   0  276.31    7.11
   3  -1   0  300.13    7.00
  -3  -1   0  305.53    7.07
   3  -1   0  299.23    6.97
  -3   1   0  302.25    6.93
  -3   1   0  294.35    6.98
  -3   1   0  292.33    7.01
   3   1   0  301.17    7.08
  -3   1   0  301.32    6.95
   5  -1   0  537.90   12.88
  -5  -1   0  575.36   12.98
   5  -1   0  544.51   12.78
  -5  -1   0  565.99   13.01
  -5   1   0  543.08   13.04
  -5   1   0  547.90   12.81
  -5   1   0  554.93   12.88
   5   1   0  568.14   13.02
  -5   1   0  535.28   12.96
   7  -1   0   91.25    2.23
  -7  -1   0   89.58    2.62
  -7  -1   0   91.27    2.54
   7  -1   0   90.81    2.49
   7   1   0   93.38    2.62
  -7   1   0   89.36    2.58
  -7   1   0   88.83    2.36
  -7   1   0   92.39    2.37
  -7   1   0   91.46    2.50
   9  -1   0   65.02    2.10
  -9  -1   0   66.71    2.07
  -9  -1   0   69.55    1.81
  -9  -1   0   65.00    2.22
  -9  -1   0   67.02    2.32
  -9  -1   0   67.76    1.76
  -9   1   0   67.54    2.12
  -9   1   0   69.11    1.91
   9   1   0   66.95    2.18
  -9   1   0   71.45    1.99
  -9   1   0   69.16    2.21
 -11  -1   0  105.84    3.26
  11  -1   0  101.64    3.04
 -11  -1   0  103.75    3.32
 -11  -1   0  102.98    3.00
 -11   1   0  104.74    2.78
 -11   1   0  102.36    3.10
  11   1   0  106.90    3.17
 -11   1   0  100.95    3.17
 -13  -1   0   69.09    2.26
 -13  -1   0   67.13    2.70
  13  -1   0   66.34    2.38
  13   1   0   68.20    2.52
 -13   1   0   66.07    2.56
 -13   1   0   69.71    2.48
 -13   1   0   65.51    1.99
 -15  -1   0   16.04    1.52
 -15  -1   0   16.21    1.28
 -15  -1   0   17.13    1.71
  15   1   0   14.78    1.63
 -15   1   0   15.25    1.49
 -15   1   0   17.72    0.91
 -15   1   0   17.14    1.55
 -17  -1   0   17.81    1.79
 -17  -1   0   15.83    1.89
  17  -1   0   21.91    1.89
 -17  -1   0   20.33    1.54
 -17   1   0   21.91    1.85
  17   1   0   20.31    1.77
 -17   1   0   17.45    1.91
  19  -1   0    6.89    1.46
 -19  -1   0    6.99    1.45
 -19  -1   0    5.23    1.42
  19   1   0    5.73    1.31
 -19   1   0    8.84    1.51
 -19   1   0    3.74    1.27
   0  -2   0  960.86   22.67
   0  -2   0  986.88   22.65
   0   2   0 1000.00   22.91
   0   2   0  968.80   22.57
   2  -2   0   27.11    0.92
  -2  -2   0   27.01    0.99
  -2  -2   0   26.64    0.86
   2  -2   0   28.35    0.77
  -2   2   0   28.65    0.92
  -2   2   0   27.63    0.90
  -4  -2   0   71.56    2.10
   4  -2   0   72.76    1.96
  -4  -2   0   74.09    2.02
   4  -2   0   73.54    1.81
  -4   2   0   73.85    1.91
   4   2   0   70.81    2.09
  -4   2   0   74.10    1.96
  -4   2   0   73.34    1.81
  -6  -2   0  196.02    5.00
  -6  -2   0  200.18    5.06
   6  -2   0  197.48    4.87
  -6   2   0  197.77    4.81
  -6   2   0  200.10    4.75
   6   2   0  194.90    5.08
  -6   2   0  192.81    4.75
  -6   2   0  197.36    4.93
   8  -2   0   81.04    2.31
  -8  -2   0   77.72    2.45
  -8  -2   0   77.72    2.44
  -8   2   0   81.53    2.39
  -8   2   0   82.33    2.15
  -8   2   0   80.79    2.23
   8   2   0   78.49    2.49
  -8   2   0   80.60    2.11
 -10  -2   0   76.20    2.74
 -10  -2   0   78.26    2.47
  10  -2   0   77.45    2.35
 -10  -2   0   79.57    2.57
 -10   2   0   77.42    2.08
 -10   2   0   76.12    2.30
 -10   2   0   77.82    2.07
 -10   2   0   76.29    2.48
  10   2   0   75.24    2.53
 -12  -2   0   46.70    2.24
 -12  -2   0   41.33    1.55
  12  -2   0   46.05    1.78
 -12  -2   0   47.87    2.07
  12   2   0   46.95    2.03
 -12   2   0   45.89    1.35
 -12   2   0   46.38    1.93
 -12   2   0   44.52    1.75
 -12   2   0   46.77    1.37
  14  -2   0    7.94    1.00
 -14  -2   0    9.25    1.20
 -14  -2   0    5.94    1.05
 -14  -2   0    5.71    1.18
 -14   2   0    5.61    1.34
 -14   2   0    7.08    0.93
  14   2   0    6.78    1.18
  16  -2   0   27.10    1.80
 -16  -2   0   26.19    1.85
 -16  -2   0   26.26    2.88
 -16  -2   0   25.79    2.12
  16   2   0   25.93    1.86
 -16   2   0   26.70    1.88
 -16   2   0   28.45    1.87
 -18  -2   0   19.72    2.09
 -18  -2   0   13.97    1.69
  18  -2   0   14.04    1.72
 -18  -2   0   13.91    1.67
  18   2   0   14.91    1.67
 -18   2   0   14.50    1.74
 -18   2   0   15.21    1.75
 -20  -2   0    1.54    1.35
  20  -2   0    2.79    1.50
 -20   2   0    1.20    1.32
  -1  -3   0  116.42    3.15
  -1  -3   0  115.42    2.89
   1  -3   0  120.29    3.13
  -1   3   0  118.11    3.10
   1   3   0  117.27    3.15
  -1   3   0  112.84    2.82
   3  -3   0  129.67    3.11
  -3  -3   0  128.70    3.29
   3  -3   0  128.74    3.38
  -3  -3   0  127.60    3.52
  -3   3   0  131.13    3.36
   3   3   0  133.08    3.53
  -3   3   0  126.99    3.23
  -5  -3   0  230.70    6.01
   5  -3   0  245.46    5.53
  -5  -3   0  236.69    5.86
   5  -3   0  230.29    5.82
  -5   3   0  235.68    5.79
   5   3   0  234.90    6.03
  -5   3   0  236.54    5.74
  -7  -3   0   47.68    1.67
   7  -3   0   47.11    1.56
  -7  -3   0   46.18    1.74
  -7   3   0   48.07    1.44
   7   3   0   47.59    1.81
  -7   3   0   46.63    1.46
  -7   3   0   46.06    1.32
  -7   3   0   48.39    1.80
  -9  -3   0   37.93    1.58
  -9  -3   0   35.17    1.57
   9  -3   0   38.49    1.44
  -9   3   0   37.35    1.48
  -9   3   0   38.16    1.18
  -9   3   0   36.73    1.23
   9   3   0   39.12    1.69
  -9   3   0   37.00    1.19
 -11  -3   0   53.58    2.53
 -11  -3   0   56.97    2.22
  11  -3   0   55.50    1.97
 -11  -3   0   53.02    2.16
 -11   3   0   55.22    1.80
 -11   3   0   53.62    2.19
  11   3   0   55.16    2.32
 -13  -3   0   34.90    2.15
 -13  -3   0   33.23    1.85
 -13  -3   0   37.39    2.20
  13  -3   0   34.92    1.66
 -13   3   0   38.33    1.84
  13   3   0   35.20    1.99
 -13   3   0   38.66    1.61
  15  -3   0   10.59    1.25
 -15  -3   0   10.57    1.41
 -15  -3   0    9.60    1.52
 -15  -3   0    9.55    1.29
  15   3   0   12.43    1.54
 -15   3   0   11.92    1.44
 -15   3   0   13.99    1.39
 -17  -3   0   11.98    1.74
 -17  -3   0   13.97    1.71
 -17  -3   0   16.71    1.76
  17  -3   0   13.79    1.64
 -17   3   0   12.16    1.55
 -17   3   0   15.86    1.90
  17   3   0    9.80    1.57
 -19  -3   0    2.37    1.39
 -19  -3   0    3.82    1.25
  19  -3   0    1.91    1.37
 -19  -3   0    4.09    1.51
  19   3   0    4.88    1.39
 -19   3   0    2.20    1.35
   0  -4   0  321.89    7.88
   0   4   0  309.97    7.82
  -2  -4   0   32.86    1.44
   2  -4   0   35.76    1.41
  -2  -4   0   35.59    1.16
  -2   4   0   34.65    1.36
   2   4   0   36.30    1.46
  -2   4   0   40.61    1.24
  -4  -4   0   54.46    1.92
   4  -4   0   51.77    1.75
  -4  -4   0   55.10    1.65
   4  -4   0   51.67    1.36
   4   4   0   51.33    1.89
  -4   4   0   51.52    1.69
  -4   4   0   47.63    1.71
  -6  -4   0   89.79    2.88
   6  -4   0   88.50    2.65
  -6  -4   0   92.24    2.64
  -6   4   0   90.01    2.47
  -6   4   0   90.58    2.57
   6   4   0   89.15    2.88
   8  -4   0   42.13    1.60
  -8  -4   0   42.88    1.92
  -8  -4   0   44.14    1.68
  -8   4   0   41.70    1.54
  -8   4   0   42.03    1.45
   8   4   0   43.42    1.91
  -8   4   0   41.67    1.43
 -10  -4   0   37.68    1.79
  10  -4   0   39.06    1.64
 -10  -4   0   38.93    1.95
 -10  -4   0   38.57    2.31
 -10   4   0   36.96    1.61
 -10   4   0   36.20    1.30
 -10   4   0   39.49    1.32
 -10   4   0   39.10    1.18
  10   4   0   36.66    1.94
 -12  -4   0   26.06    1.70
 -12  -4   0   27.45    1.94
 -12  -4   0   22.94    1.62
  12  -4   0   25.05    1.57
 -12   4   0   25.30    1.49
 -12   4   0   25.95    1.16
  12   4   0   24.52    1.79
  14  -4   0    6.80    1.02
 -14  -4   0    5.39    1.12
 -14  -4   0    5.01    1.18
 -14  -4   0    4.43    1.15
  14   4   0    6.02    1.14
 -16  -4   0   15.79    1.71
 -16  -4   0   17.17    2.06
 -16  -4   0   16.02    1.72
  16  -4   0   14.95    1.74
  16   4   0   15.14    1.76
 -16   4   0   15.97    1.69
 -18  -4   0    6.13    1.48
 -18  -4   0    3.73    1.49
  18  -4   0    6.99    1.60
 -18  -4   0    5.72    1.42
 -18   4   0    9.43    1.52
  18   4   0    6.05    1.49
   1  -5   0   32.80    1.50
  -1  -5   0   31.49    1.50
   1   5   0   29.89    1.50
  -1   5   0   32.06    1.42
  -3  -5   0   31.56    1.15
   3  -5   0   29.51    1.37
  -3  -5   0   29.63    1.53
   3   5   0   30.72    1.56
  -3   5   0   31.04    1.36
  -3   5   0   29.34    1.04
   5  -5   0   52.00    1.93
  -5  -5   0   50.53    2.14
  -5  -5   0   52.90    1.76
  -5   5   0   52.09    1.85
   5   5   0   52.26    2.18
  -5   5   0   51.47    1.56
   7  -5   0   16.99    1.12
  -7  -5   0   12.69    1.36
  -7  -5   0   16.95    1.07
   7   5   0   14.13    1.40
  -7   5   0   14.46    0.88
  -7   5   0   14.53    1.06
  -9  -5   0   13.20    1.34
   9  -5   0   13.56    1.08
  -9  -5   0   12.16    1.61
  -9  -5   0   13.03    1.15
  -9   5   0   13.20    1.00
   9   5   0   12.99    1.39
  -9   5   0   12.31    0.94
 -11  -5   0   16.77    1.39
 -11  -5   0   15.90    1.72
 -11  -5   0   17.59    1.58
 -11   5   0   14.70    1.21
  11   5   0   16.25    1.57
 -13  -5   0   11.17    1.36
 -13  -5   0   12.49    1.55
 -13  -5   0    7.38    1.34
  13  -5   0   12.70    1.49
  13   5   0   13.07    1.55
 -13   5   0   12.60    1.31
 -15  -5   0    4.20    1.11
  15  -5   0    2.61    1.22
 -15  -5   0    4.12    1.22
 -15  -5   0    3.63    1.35
 -15   5   0    5.48    1.26
  15   5   0    5.60    1.32
 -17  -5   0    1.47    1.43
 -17  -5   0    5.88    1.43
  17  -5   0    1.95    1.39
 -17  -5   0    2.46    1.27
 -17   5   0    4.64    1.33
  17   5   0    2.39    1.41
   0  -6   0   45.19    2.12
   0   6   0   45.23    2.01
  -2  -6   0    7.63    1.12
   2  -6   0    6.13    1.00
  -2   6   0    6.05    0.91
  -2   6   0    6.60    0.89
   2   6   0    6.29    1.07
  -4  -6   0   11.04    0.86
   4  -6   0   10.50    0.57
   4  -6   0    8.34    1.08
  -4  -6   0    7.54    1.13
  -4   6   0   10.29    0.63
   4   6   0    9.95    1.28
   6  -6   0   17.66    1.44
  -6  -6   0   13.83    1.44
  -6  -6   0   16.57    1.07
   6   6   0   16.75    1.49
  -6   6   0   12.54    1.19
  -6   6   0   15.71    0.82
  -8  -6   0    8.48    1.35
  -8  -6   0    9.19    1.25
  -8  -6   0    8.44    1.04
   8  -6   0    7.06    1.06
  -8   6   0    8.25    0.97
  -8   6   0    8.89    0.89
 -10  -6   0    8.12    1.34
 -10  -6   0    8.26    1.15
 -10  -6   0    7.39    1.33
  10   6   0    7.78    1.22
 -10   6   0    9.16    0.98
 -12  -6   0    3.76    1.13
 -12  -6   0    6.07    1.31
 -12  -6   0    7.16    1.13
  12  -6   0    6.10    1.27
  12   6   0    7.04    1.30
 -14  -6   0    3.60    1.38
 -14  -6   0    2.94    1.11
 -14  -6   0   -0.44    1.21
  14  -6   0    1.03    1.21
  14   6   0   -0.20    1.20
   1  -7   0    7.04    0.95
   1  -7   0    8.51    1.25
  -1  -7   0    8.40    1.25
  -1  -7   0    7.73    0.96
  -1   7   0    8.58    1.19
   1   7   0    9.14    1.20
   3  -7   0   11.40    1.49
  -3  -7   0    8.17    1.13
  -3  -7   0    9.96    1.36
   3   7   0    8.56    1.27
  -3   7   0    9.28    1.23
   5  -7   0   10.42    1.34
  -5  -7   0   13.81    1.71
  -5  -7   0   11.20    1.03
  -5  -7   0   12.96    1.53
  -5   7   0   10.65    1.30
   5   7   0   10.30    1.40
  -7  -7   0    5.07    0.94
   7  -7   0    4.58    1.14
  -7  -7   0    5.59    1.17
  -7  -7   0    4.83    1.20
   7   7   0    4.54    1.21
  -9  -7   0    5.43    1.31
   9  -7   0    4.66    1.20
  -9  -7   0    5.94    1.35
  -9  -7   0    5.33    1.43
   9   7   0    3.84    1.34
  11  -7   0    2.93    1.21
 -11  -7   0    5.20    1.39
 -11  -7   0    2.10    1.17
 -11  -7   0    5.09    1.15
  11   7   0    3.77    1.45
 -13  -7   0    1.93    1.40
  13  -7   0    3.50    1.34
 -13  -7   0    3.72    1.30
   0  -8   0   11.30    1.58
   0  -8   0   11.05    1.63
   0   8   0   10.31    1.37
  -2  -8   0    2.68    1.19
  -2  -8   0    1.32    1.03
   2  -8   0    4.99    1.23
  -2   8   0    3.12    1.07
   2   8   0    2.05    1.05
  -4  -8   0    4.53    1.30
  -4  -8   0    2.01    1.33
   4  -8   0    5.46    1.35
   4   8   0    5.42    1.36
  -4   8   0    2.77    1.12
  -6  -8   0    7.01    1.48
  -6  -8   0    4.14    1.35
   6  -8   0    4.90    1.37
   6   8   0    1.44    1.34
  -6   8   0    6.48    1.32
  -8  -8   0    3.13    1.36
   8  -8   0    3.85    1.42
  -8  -8   0    2.66    1.44
   8   8   0    2.30    1.52
   1  -9   0    3.94    1.59
  -1  -9   0    1.22    1.55
   1   9   0    5.43    1.44
  -1   9   0    1.74    1.31
 -20   0   1    5.92    1.49
 -20   0   1    6.36    1.54
  20   0  -1    6.85    1.58
 -18   0   1   13.23    1.71
 -18   0   1   14.12    1.76
  18   0  -1   17.93    1.82
 -18   0   1   17.37    1.85
 -16   0   1   21.72    1.45
 -16   0   1   21.39    1.67
 -16   0   1   17.42    1.82
  16   0  -1   18.79    1.75
 -14   0   1   38.70    2.01
 -14   0   1   38.55    1.71
 -14   0   1   38.20    2.01
  14   0  -1   42.13    2.13
  12   0  -1  110.77    3.39
 -12   0   1  109.01    3.19
 -12   0   1  108.37    3.41
 -10   0   1   32.01    1.43
 -10   0   1   33.29    1.34
  10   0  -1   33.30    1.44
  -8   0   1   93.49    2.78
   8   0  -1   94.30    2.76
  -8   0   1   96.23    2.68
   6   0  -1  336.66    7.73
   6   0  -1  334.27    8.10
  -6   0   1  336.08    8.09
  -6   0   1  330.98    7.73
  -6   0   1  333.85    8.03
  -4   0   1  231.34    5.59
  -4   0   1  225.30    5.59
   4   0  -1  230.47    5.40
   4   0  -1  232.49    5.60
  -4   0   1  233.41    5.41
   2   0  -1  322.49    7.63
  -2   0   1  322.20    7.67
   2   0  -1  329.38    7.68
   2   0  -1  333.53    7.71
  -2   0   1  327.65    7.69
  -2   0   1  328.04    7.72
   2   0   1  171.09    4.06
   2   0   1  165.36    3.89
   2   0   1  169.96    3.91
  -2   0  -1  159.43    4.01
  -2   0  -1  167.75    4.02
   2   0   1  162.80    4.01
  -2   0  -1  169.78    4.06
   2   0   1  172.92    4.02
   4   0   1  309.97    7.11
  -4   0  -1  304.55    7.25
  -4   0  -1  303.72    7.12
   4   0   1  305.09    7.10
  -4   0  -1  297.36    7.05
  -4   0  -1  302.84    7.03
   4   0   1  302.89    7.13
  -4   0  -1  299.22    7.27
  -6   0  -1  212.69    5.01
  -6   0  -1  207.74    5.29
  -6   0  -1  207.59    5.25
  -6   0  -1  214.14    4.99
   6   0   1  209.35    5.18
  -6   0  -1  206.34    4.98
   8   0   1    4.37    0.55
  -8   0  -1    4.20    0.41
  -8   0  -1    4.49    0.60
  -8   0  -1    5.37    0.34
  -8   0  -1    5.34    0.53
  -8   0  -1    5.36    0.71
 -10   0  -1   74.15    2.05
 -10   0  -1   78.99    2.52
  10   0   1   76.55    2.35
 -10   0  -1   75.65    2.53
 -10   0  -1   75.19    2.14
  12   0   1   52.94    2.00
 -12   0  -1   56.22    1.77
 -12   0  -1   52.49    1.61
 -12   0  -1   57.49    2.21
 -12   0  -1   53.40    2.23
 -14   0  -1   14.05    1.43
  14   0   1   14.40    1.17
 -14   0  -1   12.80    0.76
 -14   0  -1   13.98    1.82
 -16   0  -1   11.57    1.51
 -16   0  -1    9.19    1.30
  16   0   1   11.27    1.47
 -18   0  -1    5.32    1.39
  18   0   1    4.74    1.20
 -18   0  -1    2.00    1.09
 -20   0  -1    3.39    1.36
 -19  -1   1    9.20    1.57
  19  -1  -1   15.57    1.83
 -19  -1   1   14.03    1.68
 -19  -1   1    9.78    1.55
 -19   1   1   12.88    1.75
  19   1  -1   10.19    1.49
 -19   1   1   14.06    1.75
 -17  -1   1   28.77    1.84
 -17  -1   1   28.59    2.05
  17  -1  -1   26.09    1.92
 -17  -1   1   25.90    1.99
  17   1  -1   24.16    1.84
 -17   1   1   28.99    1.56
 -17   1   1   26.84    1.97
 -17   1   1   29.46    2.16
  15  -1  -1   12.15    1.55
 -15  -1   1   12.49    1.54
 -15  -1   1   12.18    1.31
 -15  -1   1   11.90    1.41
  15   1  -1   11.46    1.43
 -15   1   1   11.97    1.25
 -15   1   1   13.06    1.48
 -13  -1   1   24.21    1.65
  13  -1  -1   24.09    1.48
 -13  -1   1   23.09    1.56
  13   1  -1   25.15    1.98
 -13   1   1   25.81    1.46
 -13   1   1   23.52    1.24
 -13   1   1   24.06    1.58
 -11  -1   1  103.05    3.07
  11  -1  -1  101.36    3.10
  11   1  -1   99.12    3.16
 -11   1   1  104.28    2.95
 -11   1   1  105.16    3.20
 -11   1   1  104.11    3.05
  -9  -1   1   63.95    1.69
  -9  -1   1   63.21    2.04
  -9  -1   1   65.50    2.15
   9  -1  -1   60.01    2.02
   9   1  -1   61.92    2.11
  -9   1   1   61.78    1.94
  -9   1   1   63.36    2.13
  -9   1   1   65.50    2.02
  -7  -1   1  171.16    4.31
   7  -1  -1  163.10    4.25
   7  -1  -1  167.18    3.95
  -7  -1   1  166.10    4.03
  -7  -1   1  161.35    4.30
  -7   1   1  166.64    4.32
  -7   1   1  165.53    4.35
   7   1  -1  159.87    4.33
  -5  -1   1   80.94    2.22
   5  -1  -1   79.04    2.19
  -5  -1   1   79.67    2.09
  -5  -1   1   80.36    2.24
  -5   1   1   79.97    2.21
  -5   1   1   83.02    2.28
   5   1  -1   79.62    2.25
   3  -1  -1   74.35    2.32
  -3  -1   1   87.51    2.23
  -3  -1   1   87.57    2.25
  -3  -1   1   93.48    2.31
   3   1  -1   87.22    2.25
   3   1  -1   88.05    2.29
  -3   1   1   87.11    2.26
  -3   1   1   90.30    2.30
  -1  -1   1  232.14    5.45
   1  -1  -1  226.35    5.48
  -1  -1   1  227.36    5.59
  -1  -1   1  232.17    5.38
   1  -1  -1  224.80    5.37
  -1  -1   1  230.12    5.44
   1  -1  -1  231.33    5.49
   1   1  -1  239.99    5.46
  -1   1   1  230.07    5.49
   1   1  -1  226.61    5.43
   1   1  -1  233.76    5.55
  -1   1   1  235.61    5.48
  -1   1   1  230.96    5.37
   1  -1   1  422.74    9.50
  -1  -1  -1  424.16    9.62
  -1  -1  -1  421.14    9.63
   1  -1   1  416.18    9.49
   1  -1   1  405.65    9.49
  -1  -1  -1  412.17    9.59
   1  -1   1  413.80    9.66
   1  -1   1  383.78    9.57
  -1   1  -1  410.31    9.65
   1   1   1  393.92    9.60
   1   1   1  425.77    9.62
  -1   1  -1  412.59    9.51
   1   1   1  434.27    9.65
  -1   1  -1  394.11    9.59
   1   1   1  407.60    9.62
  -3  -1  -1    4.25    0.45
   3  -1   1    5.28    0.21
  -3  -1  -1    4.44    0.41
   3  -1   1    5.06    0.46
  -3  -1  -1    4.66    0.45
  -3  -1  -1    4.92    0.55
   3  -1   1    4.72    0.20
  -3   1  -1    4.47    0.40
  -3   1  -1    4.96    0.39
  -3   1  -1    5.43    0.41
   3   1   1    4.57    0.42
  -5  -1  -1   94.32    2.45
   5  -1   1   92.55    2.32
   5  -1   1   91.56    2.31
   5  -1   1   91.88    2.40
  -5  -1  -1   94.40    2.56
  -5  -1  -1   90.94    2.63
  -5  -1  -1   95.79    2.46
   5   1   1   93.48    2.50
  -5   1  -1   92.52    2.38
  -5   1  -1   92.85    2.49
  -5   1  -1   94.88    2.49
  -7  -1  -1  125.50    3.36
  -7  -1  -1  119.99    3.16
   7  -1   1  118.81    3.02
  -7  -1  -1  122.66    3.11
  -7  -1  -1  122.08    3.45
  -7   1  -1  116.53    3.25
   7   1   1  120.27    3.27
  -7   1  -1  118.48    2.98
  -7   1  -1  120.63    3.26
   9  -1   1   38.64    1.07
  -9  -1  -1   36.92    1.63
  -9  -1  -1   36.47    1.21
   9  -1   1   37.88    1.35
  -9  -1  -1   36.55    1.51
  -9  -1  -1   37.44    1.32
  -9   1  -1   38.54    1.50
  -9   1  -1   35.95    1.47
   9   1   1   36.83    1.43
  11  -1   1   46.43    1.70
 -11  -1  -1   48.69    1.61
 -11  -1  -1   43.67    2.00
 -11  -1  -1   47.56    1.36
 -11  -1  -1   47.21    1.94
  11   1   1   46.20    1.79
 -11   1  -1   46.98    1.87
 -11   1  -1   44.66    1.84
 -13  -1  -1    3.69    0.87
 -13  -1  -1    4.77    0.67
 -13  -1  -1    4.52    1.34
  13  -1   1    5.51    0.86
  13   1   1    4.82    0.90
 -13   1  -1    5.43    0.93
 -13   1  -1    4.90    1.04
  15  -1   1   10.41    1.24
 -15  -1  -1   11.44    1.46
 -15  -1  -1   10.10    0.98
 -15  -1  -1    8.75    1.21
 -15   1  -1    9.79    1.36
  15   1   1    9.55    1.28
 -17  -1  -1   18.89    2.01
 -17  -1  -1   20.21    1.88
 -17  -1  -1   14.64    1.66
  17  -1   1   18.34    2.15
 -17   1  -1   21.00    1.81
 -17   1  -1   18.32    1.96
  17   1   1   16.65    2.17
 -19  -1  -1    2.91    1.35
 -19  -1  -1    2.54    1.37
  19  -1   1    0.44    1.28
  19   1   1    2.29    1.20
 -19   1  -1    2.62    1.47
 -19   1  -1    1.73    1.16
 -20  -2   1    3.62    1.48
 -20  -2   1    3.06    1.40
  20  -2  -1    4.63    1.57
 -20  -2   1    0.14    1.19
 -20   2   1    2.66    1.42
 -20   2   1    3.81    1.54
  20   2  -1    4.35    1.39
 -18  -2   1    9.89    1.53
 -18  -2   1    8.98    1.36
  18  -2  -1   12.36    1.61
 -18  -2   1    9.76    1.54
  18   2  -1    9.62    1.47
 -18   2   1    9.05    1.49
 -16  -2   1   15.21    1.53
 -16  -2   1   13.42    1.47
 -16  -2   1   10.63    1.57
 -16   2   1   11.76    1.12
  16   2  -1   13.42    1.48
 -16   2   1   13.54    1.56
 -16   2   1   14.96    1.49
 -14  -2   1   23.51    1.66
 -14  -2   1   23.57    1.06
 -14  -2   1   22.98    1.93
 -14  -2   1   21.56    1.65
  14  -2  -1   22.02    1.54
 -14   2   1   22.71    1.24
 -14   2   1   24.19    1.42
  14   2  -1   25.78    1.73
  12  -2  -1   60.04    2.18
 -12  -2   1   62.06    2.36
 -12  -2   1   60.25    2.26
 -12   2   1   61.78    2.34
 -12   2   1   58.29    1.98
 -12   2   1   58.49    2.00
  12   2  -1   59.66    2.36
 -10  -2   1   15.76    1.05
  10  -2  -1   15.62    0.95
 -10  -2   1   16.63    1.07
 -10   2   1   16.54    1.09
 -10   2   1   16.11    0.83
  10   2  -1   15.02    1.07
 -10   2   1   15.16    0.91
   8  -2  -1   39.32    1.44
  -8  -2   1   39.58    1.54
  -8  -2   1   39.33    1.51
   8   2  -1   38.38    1.56
  -8   2   1   40.95    1.25
  -8   2   1   40.62    1.45
  -8   2   1   41.03    1.55
  -6  -2   1  150.85    3.88
   6  -2  -1  144.82    3.85
  -6  -2   1  151.79    3.97
  -6   2   1  149.88    3.92
  -6   2   1  146.94    3.55
   6   2  -1  148.04    3.98
  -6   2   1  146.60    3.87
  -4  -2   1   80.08    2.27
   4  -2  -1   81.78    2.21
  -4  -2   1   82.20    2.15
   4   2  -1   78.02    2.26
  -4   2   1   77.85    2.20
   2  -2  -1  109.29    2.62
   2  -2  -1  108.34    2.89
  -2  -2   1  112.90    2.72
  -2  -2   1  114.33    2.91
   2   2  -1  111.79    2.73
  -2   2   1  112.38    2.90
   0  -2  -1   31.96    1.10
   0  -2  -1   31.49    1.01
   0  -2  -1   33.53    1.00
   0   2  -1   32.67    1.00
   0   2  -1   32.50    1.00
   0   2   1   32.41    1.12
   2  -2   1   51.54    1.40
  -2  -2  -1   51.17    1.49
  -2  -2  -1   52.21    1.57
  -2  -2  -1   50.74    1.57
   2  -2   1   53.79    1.31
  -2   2  -1   50.87    1.46
  -2   2  -1   52.29    1.37
  -2   2  -1   52.11    1.29
   2   2   1   50.30    1.57
  -2   2  -1   52.52    1.33
   4  -2   1  123.50    3.06
  -4  -2  -1  124.24    3.39
  -4  -2  -1  127.01    3.28
  -4  -2  -1  128.57    3.32
  -4   2  -1  121.62    3.11
   4   2   1  125.81    3.33
  -6  -2  -1   91.55    2.64
   6  -2   1   90.12    2.36
  -6  -2  -1   92.28    2.59
  -6  -2  -1   88.87    2.76
   6   2   1   90.15    2.64
  -6   2  -1   89.93    2.45
  -6   2  -1   93.15    2.48
  -8  -2  -1    0.83    0.48
  -8  -2  -1    0.27    0.38
   8  -2   1    1.18    0.36
  -8  -2  -1    0.63    0.47
  -8   2  -1    0.85    0.41
   8   2   1    1.01    0.46
 -10  -2  -1   42.86    2.73
 -10  -2  -1   35.10    1.49
 -10  -2  -1   41.07    1.97
  10  -2   1   40.49    1.48
 -10  -2  -1   41.91    1.58
  10   2   1   40.14    1.66
 -10   2  -1   42.02    1.64
 -10   2  -1   40.81    1.55
  12  -2   1   31.28    1.41
 -12  -2  -1   31.60    1.48
 -12  -2  -1   30.48    1.31
 -12  -2  -1   27.79    1.95
 -12   2  -1   31.56    1.52
 -14  -2  -1    9.42    1.31
 -14  -2  -1    7.24    1.24
 -14  -2  -1    7.97    1.06
  14  -2   1    9.59    1.08
 -14   2  -1    8.87    1.12
  14   2   1   10.69    2.25
 -14   2  -1    8.85    1.20
 -16  -2  -1    5.70    1.13
 -16  -2  -1    8.58    1.49
 -16  -2  -1    6.35    1.13
 -16   2  -1    5.84    1.16
  16   2   1    7.76    1.23
 -18  -2  -1    2.22    1.26
  18  -2   1    5.07    1.41
 -18  -2  -1    3.94    1.38
  18   2   1   -0.73    1.11
 -18   2  -1    2.32    1.26
 -18   2  -1    2.98    1.11
 -19  -3   1    5.84    1.56
 -19  -3   1   10.38    1.66
 -19  -3   1    6.72    1.55
  19  -3  -1    5.70    1.58
 -19   3   1    8.86    1.65
  19   3  -1    4.59    1.41
 -17  -3   1   14.06    1.65
 -17  -3   1   15.49    2.01
 -17  -3   1   14.37    1.75
  17  -3  -1   14.64    1.89
 -17   3   1   18.89    1.83
  17   3  -1   15.53    1.83
 -17   3   1   19.31    1.69
 -15  -3   1    7.59    1.20
 -15  -3   1   10.21    1.58
  15  -3  -1   10.33    1.31
 -15  -3   1   10.48    1.32
 -15   3   1   10.60    1.43
  15   3  -1   10.27    1.40
 -15   3   1    9.90    1.01
 -15   3   1    9.26    0.95
  13  -3  -1   15.05    1.23
  13  -3  -1   16.55    0.86
 -13  -3   1   14.79    1.48
 -13  -3   1   16.91    1.45
  13   3  -1   15.65    1.53
 -13   3   1   16.62    1.03
 -13   3   1   15.14    1.06
 -13   3   1   17.14    1.48
 -11  -3   1   55.95    2.31
  11  -3  -1   57.71    2.12
 -11  -3   1   58.42    2.24
 -11   3   1   56.88    1.74
 -11   3   1   58.49    1.96
 -11   3   1   58.56    2.19
  11   3  -1   58.72    2.40
   9  -3  -1   37.18    1.47
  -9  -3   1   36.66    1.54
  -9  -3   1   35.46    1.62
  -9   3   1   35.36    1.42
  -9   3   1   38.21    1.10
   9   3  -1   39.74    1.70
  -9   3   1   34.78    1.53
  -7  -3   1   91.61    2.61
   7  -3  -1   89.02    2.61
  -7  -3   1   85.56    2.72
  -7   3   1   88.54    2.60
  -7   3   1   87.56    2.63
   7   3  -1   90.10    2.77
   5  -3  -1   55.44    1.78
  -5  -3   1   53.90    1.87
  -5  -3   1   56.41    1.68
   5   3  -1   56.46    1.89
  -5   3   1   56.28    1.77
  -5   3   1   50.59    2.09
  -3  -3   1   59.83    1.64
   3  -3  -1   59.85    1.85
  -3  -3   1   57.42    1.89
   3   3  -1   59.85    1.90
  -3   3   1   60.19    1.84
   1  -3  -1  123.98    2.99
  -1  -3   1  123.43    3.20
  -1  -3   1  119.77    2.85
   1  -3  -1  111.41    3.19
  -1   3   1  114.65    3.22
   1   3  -1  117.78    3.16
   1   3  -1  123.75    2.87
   1  -3   1  197.67    4.94
  -1  -3  -1  196.89    4.87
  -1  -3  -1  198.81    5.08
  -1  -3  -1  206.28    4.97
  -1   3  -1  195.66    4.87
   1   3   1  197.29    5.07
  -3  -3  -1   15.00    0.78
   3  -3   1   15.47    0.74
  -3  -3  -1   15.18    0.94
  -3  -3  -1   15.41    0.92
  -3   3  -1   15.31    0.51
  -3   3  -1   15.39    0.65
   3   3   1   14.65    0.91
  -3   3  -1   15.94    0.66
   5  -3   1   63.08    1.83
  -5  -3  -1   64.86    2.11
  -5  -3  -1   63.29    1.99
  -5  -3  -1   63.10    2.17
  -5   3  -1   65.95    1.84
   5   3   1   65.31    2.14
  -5   3  -1   64.52    1.76
   7  -3   1   70.56    2.02
  -7  -3  -1   68.47    2.24
  -7  -3  -1   68.33    2.43
  -7  -3  -1   72.36    2.31
   7   3   1   69.89    2.34
  -7   3  -1   71.03    2.02
  -7   3  -1   71.53    2.13
  -9  -3  -1   26.85    1.37
   9  -3   1   28.86    1.15
  -9  -3  -1   26.41    1.40
  -9  -3  -1   27.52    1.61
   9   3   1   27.77    1.44
  -9   3  -1   27.48    1.17
  -9   3  -1   27.02    1.23
  11  -3   1   32.62    1.41
 -11  -3  -1   33.23    1.99
 -11  -3  -1   31.53    1.64
 -11  -3  -1   32.92    2.07
 -11   3  -1   33.14    1.45
 -11   3  -1   32.12    1.54
  11   3   1   32.66    1.76
 -13  -3  -1    5.23    0.95
 -13  -3  -1    6.03    1.11
 -13  -3  -1    5.42    1.01
 -13  -3  -1    7.04    1.25
  13  -3   1    5.76    0.85
 -13   3  -1    5.86    0.89
 -13   3  -1    5.57    1.01
  13   3   1    4.81    1.06
  15  -3   1   10.19    1.26
 -15  -3  -1    7.52    1.15
 -15  -3  -1    6.96    1.30
 -15  -3  -1    7.66    1.35
 -15   3  -1   10.03    1.29
 -15   3  -1    9.04    1.15
  15   3   1   11.57    1.43
 -17  -3  -1   11.64    1.73
 -17  -3  -1   14.95    1.77
  17  -3   1   14.00    1.68
 -17  -3  -1   14.76    1.55
 -17   3  -1    9.51    1.98
  17   3   1   10.73    1.57
 -17   3  -1    9.84    1.48
 -18  -4   1    6.65    1.50
  18  -4  -1    9.14    1.64
 -18  -4   1    2.78    1.52
 -18  -4   1    7.95    1.66
 -18   4   1    6.58    1.51
  18   4  -1    4.56    1.38
 -16  -4   1    6.87    1.55
 -16  -4   1   10.90    1.51
 -16  -4   1    7.34    1.27
  16  -4  -1    9.58    1.42
 -16   4   1    9.77    1.32
  16   4  -1    8.16    1.36
 -14  -4   1   15.66    1.62
 -14  -4   1   15.23    1.44
 -14  -4   1   11.60    1.67
  14  -4  -1   12.53    1.51
 -14   4   1   13.91    2.60
 -14   4   1   12.52    1.00
  14   4  -1   13.47    1.46
 -12  -4   1   36.85    1.84
 -12  -4   1   30.72    1.83
 -12   4   1   33.10    1.75
 -12   4   1   32.54    1.45
  12   4  -1   30.83    1.88
  10  -4  -1   15.77    1.15
 -10  -4   1   17.83    1.43
 -10   4   1   19.10    1.26
  10   4  -1   14.73    1.42
 -10   4   1   16.76    1.16
  -8  -4   1   33.28    1.41
   8  -4  -1   33.33    1.45
  -8  -4   1   33.08    1.64
  -8   4   1   35.19    1.49
  -8   4   1   32.58    1.44
   8   4  -1   33.95    1.68
  -6  -4   1   80.07    2.61
  -6  -4   1   78.40    2.30
   6  -4  -1   78.33    2.46
  -6   4   1   78.28    2.42
  -6   4   1   77.53    2.38
   6   4  -1   78.75    2.60
  -4  -4   1   62.02    2.10
  -4  -4   1   59.90    1.75
   4  -4  -1   60.05    2.02
   4   4  -1   62.61    2.09
  -4   4   1   61.00    2.02
  -2  -4   1   81.72    2.49
  -2  -4   1   81.82    2.10
   2  -4  -1   80.98    2.49
   2  -4  -1   83.87    2.12
  -2   4   1   81.66    2.48
   2   4  -1   74.95    2.44
   0  -4   1   50.17    1.76
   0  -4  -1   52.17    1.85
   0  -4  -1   53.99    1.64
   0   4  -1   51.51    1.72
   0   4   1   53.44    1.86
  -2  -4  -1   55.93    1.72
  -2  -4  -1   56.32    1.96
   2  -4   1   56.85    1.81
  -2  -4  -1   55.43    1.85
  -2   4  -1   54.46    1.71
   2   4   1   54.42    1.96
   4  -4   1   78.94    2.34
  -4  -4  -1   77.96    2.60
  -4  -4  -1   82.07    2.37
  -4  -4  -1   81.11    2.58
  -4   4  -1   81.34    2.01
  -4   4  -1   81.85    2.22
  -4   4  -1   79.96    2.22
   4   4   1   82.56    2.62
   6  -4   1   62.85    1.93
  -6  -4  -1   61.73    2.06
  -6  -4  -1   61.68    2.28
  -6   4  -1   62.21    1.76
   8  -4   1    7.81    0.75
  -8  -4  -1    7.37    1.03
  -8  -4  -1    9.28    1.15
  -8  -4  -1    9.11    0.94
  -8   4  -1    6.95    0.72
   8   4   1    8.24    1.11
  -8   4  -1    7.61    0.75
 -10  -4  -1   31.36    1.71
 -10  -4  -1   27.45    1.91
  10  -4   1   31.42    1.38
 -10  -4  -1   30.40    1.73
  10   4   1   29.87    1.76
 -10   4  -1   29.50    1.29
 -10   4  -1   29.66    1.41
 -12  -4  -1   19.84    1.76
 -12  -4  -1   19.82    1.56
  12  -4   1   21.01    1.26
 -12  -4  -1   20.21    1.54
  12   4   1   20.92    1.66
 -12   4  -1   19.49    1.24
 -12   4  -1   16.91    1.30
 -14  -4  -1    8.82    1.44
  14  -4   1   10.09    1.89
 -14  -4  -1   10.86    1.36
 -14  -4  -1    6.31    1.15
 -14  -4  -1    8.80    1.38
 -14   4  -1   10.17    1.17
  14   4   1    5.33    1.21
  16  -4   1    8.57    1.34
 -16  -4  -1    5.87    1.26
 -16  -4  -1    7.00    1.60
 -16  -4  -1    7.16    1.28
  16   4   1    5.66    1.28
 -16   4  -1    5.30    1.22
 -17  -5   1    5.91    1.71
 -17  -5   1    4.01    1.34
 -17  -5   1    3.19    1.50
  17  -5  -1    5.56    1.53
 -17   5   1    4.79    1.45
  17   5  -1    3.58    1.43
 -15  -5   1    4.07    1.40
 -15  -5   1    5.84    1.36
 -15  -5   1    7.13    1.24
  15  -5  -1    3.88    1.23
 -15   5   1    5.06    1.27
  15   5  -1    3.00    1.24
 -13  -5   1    7.11    1.14
 -13  -5   1    6.31    1.26
  13  -5  -1    8.42    1.37
 -13  -5   1    6.20    1.39
 -13   5   1    6.11    1.20
  13   5  -1    8.59    1.29
 -11  -5   1   20.04    1.66
  11  -5  -1   20.59    1.50
 -11   5   1   19.25    1.30
  11   5  -1   20.82    1.68
 -11   5   1   18.21    1.46
  -9  -5   1   11.73    1.03
  -9  -5   1   10.35    1.32
   9  -5  -1   13.88    1.57
   9   5  -1   10.77    1.41
  -9   5   1   12.34    1.14
  -9   5   1   12.41    1.10
  -7  -5   1   28.77    1.71
   7  -5  -1   25.27    1.44
  -7  -5   1   28.02    1.46
  -7   5   1   29.04    1.37
  -7   5   1   29.19    1.45
   7   5  -1   29.82    1.72
  -5  -5   1   19.76    1.35
   5  -5  -1   22.79    1.27
  -5  -5   1   20.77    0.99
  -5   5   1   22.40    1.41
  -5   5   1   20.17    1.14
  -3  -5   1   20.69    0.85
   3  -5  -1   21.12    0.74
   3  -5  -1   21.40    1.23
  -3  -5   1   21.81    1.36
  -3   5   1   21.75    1.23
   1  -5  -1   34.42    1.27
  -1  -5   1   33.72    1.54
   1  -5  -1   33.83    1.54
   1   5  -1   32.44    1.03
   1   5  -1   32.16    1.48
  -1   5   1   33.50    1.52
   1  -5   1   51.68    1.92
  -1  -5  -1   54.78    1.84
  -1  -5  -1   58.90    3.03
  -1   5  -1   50.96    1.85
   1   5   1   55.57    2.15
  -3  -5  -1    8.92    1.00
  -3  -5  -1   11.45    0.98
   3  -5   1    9.11    0.86
  -3  -5  -1    9.27    0.76
   3   5   1   10.16    1.07
  -3   5  -1    8.67    0.83
   5  -5   1   26.05    1.25
  -5  -5  -1   23.30    1.73
  -5  -5  -1   23.95    1.45
  -5  -5  -1   26.50    1.23
   5   5   1   22.93    1.76
  -5   5  -1   24.74    1.11
  -5   5  -1   26.48    1.48
  -5   5  -1   22.44    0.78
  -7  -5  -1   21.11    1.58
  -7  -5  -1   23.40    1.32
  -7  -5  -1   23.82    1.67
   7  -5   1   24.49    1.26
  -7   5  -1   23.07    0.94
   7   5   1   23.16    1.62
   9  -5   1   12.98    1.02
  -9  -5  -1   12.42    1.35
  -9  -5  -1    8.55    1.21
  -9  -5  -1   11.63    1.23
  -9   5  -1   10.20    0.88
   9   5   1   10.52    1.33
  11  -5   1   11.36    1.14
 -11  -5  -1   11.52    1.27
 -11  -5  -1   14.02    1.64
 -11  -5  -1   16.25    1.47
 -11   5  -1   10.50    1.10
  11   5   1   11.52    1.47
 -13  -5  -1    4.32    1.07
 -13  -5  -1    3.02    1.07
 -13  -5  -1    3.86    1.26
  13   5   1    2.10    1.05
 -15  -5  -1    4.37    2.27
 -15  -5  -1    2.74    1.12
 -15  -5  -1    4.81    1.20
 -15  -5  -1    2.14    1.28
  15   5   1    2.14    1.20
 -15   5  -1    4.40    1.15
  14  -6  -1    3.63    1.30
 -14  -6   1    3.41    1.39
 -14  -6   1    2.41    1.09
 -14  -6   1    4.28    1.48
  14   6  -1    0.90    1.27
 -14   6   1    5.15    2.14
  12  -6  -1    8.11    1.34
 -12  -6   1    8.53    1.19
 -12  -6   1    8.80    1.41
 -12  -6   1    8.33    1.53
  12   6  -1   12.20    1.63
 -12   6   1    9.87    1.28
 -10  -6   1    6.08    1.03
 -10  -6   1    4.57    1.07
  10  -6  -1    4.86    1.06
  10   6  -1    5.19    1.14
 -10   6   1    6.23    0.96
 -10   6   1    5.93    1.02
   8  -6  -1    7.45    1.19
  -8  -6   1    9.01    0.98
  -8  -6   1    6.40    1.12
  -8   6   1    9.86    1.18
  -8   6   1    7.02    1.12
  -6  -6   1   12.13    1.41
  -6  -6   1   15.45    0.97
  -6   6   1   13.35    1.31
   6   6  -1   13.70    1.42
  -6   6   1   13.80    1.07
   4  -6  -1   10.26    1.38
  -4  -6   1   11.02    0.78
  -4  -6   1   12.05    1.36
  -4   6   1   10.33    0.99
   4   6  -1   14.08    1.42
  -4   6   1   10.33    1.25
   2  -6  -1   16.54    0.86
  -2   6   1   16.09    1.55
   2   6  -1   18.05    1.48
   0  -6  -1    9.65    0.91
   0  -6  -1   12.39    1.36
   0  -6   1   10.69    1.19
   0   6  -1   10.36    1.10
   0   6   1    9.46    1.23
   2  -6   1   10.65    1.17
  -2  -6  -1    9.27    1.23
  -2  -6  -1   12.03    1.09
  -2   6  -1   11.24    1.05
   2   6   1   11.37    1.35
  -4  -6  -1   15.68    1.52
  -4  -6  -1   14.89    1.04
  -4  -6  -1   16.94    1.51
  -4   6  -1   14.50    1.11
   4   6   1   14.62    1.42
  -6  -6  -1   12.44    1.41
  -6  -6  -1   14.25    1.17
  -6   6  -1   14.97    1.04
   6   6   1   16.02    1.48
  -8  -6  -1    3.77    1.00
  -8  -6  -1    3.94    1.02
   8  -6   1    1.88    0.99
  -8  -6  -1    3.01    1.06
   8   6   1    3.13    1.08
 -10  -6  -1    6.72    1.11
 -10  -6  -1    8.24    1.33
 -10  -6  -1    8.29    1.32
  10  -6   1    8.61    1.08
 -12  -6  -1    1.72    1.10
 -12  -6  -1    4.66    1.20
 -12  -6  -1    4.58    1.13
  12   6   1    3.99    1.22
 -14  -6  -1    2.52    1.33
 -14  -6  -1    1.30    1.29
 -14  -6  -1    1.51    1.21
  14   6   1    0.81    1.23
 -13  -7   1    2.14    1.16
 -13  -7   1    2.84    1.44
 -13  -7   1    0.52    1.34
  13  -7  -1    3.62    1.42
  13   7  -1    5.39    1.47
 -11  -7   1    4.23    1.12
  11  -7  -1    5.45    1.35
 -11  -7   1    2.86    1.30
 -11  -7   1    4.34    1.42
   9  -7  -1    4.39    1.18
  -9  -7   1    4.68    1.00
  -9  -7   1    4.23    1.27
   9   7  -1    3.84    1.25
  -9   7   1    1.92    1.70
   7  -7  -1    9.91    1.35
  -7  -7   1   10.39    1.51
  -7  -7   1    7.02    0.88
   7   7  -1    7.62    1.32
  -7   7   1    8.08    1.32
  -5  -7   1    8.80    1.34
   5  -7  -1    6.52    1.18
  -5  -7   1    7.04    0.89
  -5   7   1    6.70    1.18
   5   7  -1    8.26    1.28
   3  -7  -1    5.39    1.16
  -3  -7   1    6.40    1.21
  -3   7   1    6.83    1.14
   3   7  -1    7.98    1.20
   1  -7  -1    8.04    0.90
   1  -7  -1    6.57    1.15
  -1  -7   1    8.04    1.21
   1   7  -1    9.47    1.19
  -1   7   1   11.44    1.40
  -1  -7  -1   12.69    1.51
   1  -7   1   12.03    1.46
  -1  -7  -1   17.19    1.21
   1   7   1   12.75    1.50
  -1   7  -1   11.09    1.43
   3  -7   1    6.06    1.13
  -3  -7  -1    5.24    0.96
  -3  -7  -1    4.48    1.17
   3   7   1    5.90    1.21
  -3   7  -1    5.65    0.99
  -5  -7  -1    7.26    0.99
   5  -7   1    7.85    1.25
  -5  -7  -1    7.98    1.36
  -5  -7  -1    9.75    1.32
   5   7   1    9.32    1.43
  -5   7  -1    9.31    1.85
  -7  -7  -1    5.34    1.30
  -7  -7  -1    7.64    1.27
   7  -7   1    6.72    1.28
   7   7   1    6.92    1.32
   9  -7   1    4.05    1.20
  -9  -7  -1    1.28    1.14
  -9  -7  -1    5.03    1.31
  -9  -7  -1    3.25    1.09
   9   7   1    3.29    1.28
 -11  -7  -1    3.71    1.22
  11  -7   1    5.85    1.34
 -11  -7  -1    3.81    1.36
 -11  -7  -1    5.02    1.44
  11   7   1    3.32    1.43
  10  -8  -1   -1.16    1.42
 -10  -8   1    4.33    1.61
  -8  -8   1    1.78    1.31
  -8  -8   1    5.13    1.50
   8  -8  -1    4.60    1.40
   8   8  -1    3.20    1.55
  -8   8   1    1.35    1.54
   6  -8  -1    2.00    1.26
  -6  -8   1    2.89    1.30
  -6   8   1    2.86    1.18
   6   8  -1    0.36    1.29
   4  -8  -1    3.12    1.23
  -4  -8   1    2.75    1.27
  -4   8   1    2.83    1.14
   4   8  -1    4.71    1.29
  -2  -8   1    6.32    1.42
   2  -8  -1    5.64    1.39
  -2   8   1    4.65    1.22
   2   8  -1    7.33    1.32
   0  -8  -1    3.53    1.19
   0  -8   1    3.03    1.18
   0   8   1    2.15    1.10
   0   8  -1    4.15    1.07
  -2  -8  -1    3.17    1.16
  -2  -8  -1    2.65    1.05
   2  -8   1    2.02    1.10
  -2   8  -1    2.13    1.02
   2   8   1    2.94    1.20
   4  -8   1    4.45    1.33
  -4  -8  -1    2.47    1.19
  -4  -8  -1    2.38    1.24
   4   8   1    5.85    1.38
  -6  -8  -1    3.23    1.30
  -6  -8  -1    3.31    1.43
   6  -8   1    3.41    1.27
   6   8   1    7.09    1.66
  -8  -8  -1    0.56    1.32
   8  -8   1    2.06    1.33
  -8  -8  -1    0.80    1.20
  -8  -8  -1    0.19    1.39
   8   8   1    0.83    1.43
  -1  -9   1    1.77    1.62
   1  -9  -1   -1.82    1.53
  -1   9   1    0.52    1.34
   1   9  -1    1.22    1.30
  -1  -9  -1    4.89    1.72
   1  -9   1    2.16    1.56
   1   9   1    4.57    1.47
  -1   9  -1    2.14    1.31
  20   0  -2    3.36    1.42
 -20   0   2    2.30    1.24
 -20   0   2    1.36    1.31
 -20   0   2    0.86    1.16
 -18   0   2   18.02    1.79
 -18   0   2   18.22    1.89
  18   0  -2   21.76    1.96
 -18   0   2   20.17    1.82
  16   0  -2    5.24    1.17
 -16   0   2    5.98    1.16
 -16   0   2    4.42    1.06
 -14   0   2    0.36    0.95
  14   0  -2    1.42    0.83
 -14   0   2    1.26    1.06
 -14   0   2    2.13    0.77
  12   0  -2   74.40    2.57
 -12   0   2   69.49    2.44
  10   0  -2   43.51    1.14
  10   0  -2   43.31    1.73
 -10   0   2   43.61    1.65
 -10   0   2   40.68    1.70
   8   0  -2   49.14    1.36
  -8   0   2   44.12    1.36
   8   0  -2   49.04    1.76
  -8   0   2   47.44    1.74
  -8   0   2   47.81    1.71
   6   0  -2  102.39    2.61
  -6   0   2  109.32    2.73
   6   0  -2  101.42    2.85
  -6   0   2   99.92    2.84
  -6   0   2   96.44    2.83
   4   0  -2   13.79    0.75
   4   0  -2   11.27    0.64
  -4   0   2   13.23    0.74
   2   0  -2  279.02    7.24
   2   0  -2  296.82    7.11
   2   0  -2  291.54    7.18
  -2   0   2  305.26    7.13
   2   0  -2  294.84    7.15
  -2   0   2  334.47    7.26
   0   0  -2  256.30    6.23
   0   0  -2  255.62    5.97
   0   0  -2  255.14    6.00
   0   0   2  273.60    6.03
   0   0  -2  246.49    6.14
   0   0   2  258.01    6.01
   0   0  -2  248.49    6.08
   2   0   2    5.70    0.30
  -2   0  -2    6.37    0.47
   2   0   2    5.43    0.28
   4   0   2  139.42    3.42
  -4   0  -2  144.67    3.73
  -4   0  -2  139.74    3.65
  -4   0  -2  145.66    3.66
   4   0   2  144.43    3.44
  -6   0  -2  136.45    3.47
   6   0   2  137.25    3.40
  -6   0  -2  133.58    3.62
  -6   0  -2  132.66    3.68
  -8   0  -2   46.89    1.45
  -8   0  -2   45.69    1.77
  -8   0  -2   46.86    1.71
   8   0   2   46.13    1.49
  10   0   2   70.77    2.15
 -10   0  -2   67.59    2.45
 -10   0  -2   65.43    2.01
 -10   0  -2   71.21    2.39
  12   0   2   18.03    1.11
 -12   0  -2   21.17    1.55
 -12   0  -2   17.10    1.42
 -14   0  -2   12.02    1.32
  14   0   2    9.51    1.06
 -14   0  -2   10.98    1.41
 -16   0  -2   27.25    2.09
 -16   0  -2   24.05    1.87
  16   0   2   19.55    1.59
 -18   0  -2    9.49    1.64
 -18   0  -2    6.13    1.38
  18   0   2    6.46    1.40
  21  -1  -2    2.18    1.55
 -21  -1   2   -0.41    1.38
 -21  -1   2    3.38    1.44
 -21  -1   2    2.72    1.43
 -21   1   2   -0.37    1.39
  21   1  -2    1.92    1.29
 -21   1   2    0.25    1.54
 -19  -1   2    1.38    1.19
 -19  -1   2    3.64    1.19
  19  -1  -2    2.29    1.26
 -19  -1   2    0.54    1.11
  19   1  -2    3.14    1.08
 -19   1   2    2.68    1.17
 -19   1   2    0.89    1.16
 -19   1   2    1.72    1.19
 -17  -1   2    9.38    1.35
 -17  -1   2   11.21    1.37
  17  -1  -2    9.61    1.39
 -17  -1   2   10.60    1.48
  17   1  -2   12.67    1.57
 -17   1   2   10.82    1.49
 -17   1   2   10.42    1.44
 -15  -1   2    9.75    1.26
  15  -1  -2    8.86    1.24
 -15  -1   2    7.55    1.19
  15   1  -2    9.40    1.29
 -15   1   2   10.34    1.21
 -15   1   2   10.74    1.21
 -15   1   2    9.75    1.37
 -13  -1   2   32.99    1.73
 -13  -1   2   35.69    1.88
  13  -1  -2   33.39    1.70
 -13   1   2   37.89    2.03
 -13   1   2   34.78    1.67
  13   1  -2   34.96    1.82
 -13   1   2   35.82    1.64
 -11  -1   2   16.14    1.12
  11  -1  -2   13.50    1.06
 -11  -1   2   14.84    1.01
 -11   1   2   13.47    0.99
  11   1  -2   14.48    1.09
 -11   1   2   12.37    1.06
   9  -1  -2    2.82    0.58
  -9  -1   2    2.39    0.61
  -9  -1   2    2.30    0.58
   9  -1  -2    3.36    0.37
  -9   1   2    1.97    0.63
  -9   1   2    2.24    0.55
   9   1  -2    1.33    0.52
  -7  -1   2  158.88    4.21
   7  -1  -2  166.23    3.98
   7  -1  -2  162.32    4.23
  -7  -1   2  151.76    4.22
   7   1  -2  160.65    4.29
  -7   1   2  160.11    4.30
   7   1  -2  163.15    4.01
  -7   1   2  154.36    4.21
  -5  -1   2   85.43    2.33
  -5  -1   2   79.92    2.35
   5  -1  -2   82.60    2.35
   5   1  -2   83.83    2.37
   5   1  -2   84.45    2.27
  -5   1   2   83.23    2.37
  -3  -1   2    7.66    0.57
   3  -1  -2    6.44    0.53
   3  -1  -2    5.96    0.61
   3  -1  -2    7.23    0.58
  -3   1   2    7.24    0.62
   3   1  -2    6.99    0.57
   3   1  -2    7.23    0.54
  -3   1   2    7.35    0.46
   1  -1  -2  133.45    3.37
  -1  -1   2  134.83    3.30
   1  -1  -2  126.29    3.45
  -1  -1   2  133.54    3.27
   1  -1  -2  131.34    3.30
   1   1  -2  132.60    3.46
   1   1  -2  136.35    3.24
   1   1  -2  136.36    3.27
  -1   1   2  143.62    3.39
  -1  -1  -2   54.87    1.52
  -1  -1  -2   54.27    1.58
  -1  -1  -2   54.00    1.51
  -1  -1  -2   52.95    1.54
   1  -1   2   52.79    1.41
  -1  -1  -2   54.70    1.70
   1   1   2   55.02    1.53
  -1   1  -2   53.79    1.58
  -1   1  -2   53.84    1.64
  -1   1  -2   53.72    1.42
  -3  -1  -2   85.65    2.34
  -3  -1  -2   84.06    2.15
  -3  -1  -2   81.00    2.30
  -3  -1  -2   82.80    2.27
  -3  -1  -2   80.31    2.14
  -3   1  -2   81.92    2.25
   3   1   2   80.16    2.17
  -3   1  -2   82.61    2.15
  -3   1  -2   83.12    2.29
  -5  -1  -2  148.70    3.71
  -5  -1  -2  147.88    3.90
   5  -1   2  146.56    3.47
  -5  -1  -2  144.75    3.97
   5  -1   2  146.88    3.47
  -5  -1  -2  148.32    3.85
  -5  -1  -2  148.07    3.68
  -5   1  -2  144.96    3.89
  -5   1  -2  154.08    3.81
  -5   1  -2  151.04    3.79
   5   1   2  148.03    3.76
  -7  -1  -2    8.66    0.85
  -7  -1  -2    9.40    0.58
   7  -1   2    9.57    0.52
  -7  -1  -2    9.92    0.77
  -7  -1  -2   10.28    0.95
  -7  -1  -2   10.07    0.73
  -7   1  -2    7.95    0.68
  -7   1  -2    8.48    0.59
  -7   1  -2    8.62    0.74
   7   1   2    9.47    0.70
  -9  -1  -2   34.66    1.54
  -9  -1  -2   34.73    1.30
   9  -1   2   35.07    1.25
  -9  -1  -2   34.81    2.01
  -9  -1  -2   34.31    1.19
   9   1   2   34.47    1.36
  -9   1  -2   35.21    1.45
  -9   1  -2   35.41    1.72
  -9   1  -2   35.47    1.17
 -11  -1  -2   57.64    1.77
 -11  -1  -2   57.65    2.51
 -11  -1  -2   59.17    1.76
  11  -1   2   55.94    2.10
 -11  -1  -2   56.92    2.38
 -11   1  -2   60.81    2.95
 -11   1  -2   58.37    2.78
  11   1   2   59.02    2.08
 -13  -1  -2   12.04    0.79
 -13  -1  -2   11.60    1.42
 -13  -1  -2   14.44    1.36
  13  -1   2   10.08    1.04
 -13  -1  -2   12.19    0.78
 -13   1  -2   11.76    1.34
  13   1   2   12.38    1.09
 -13   1  -2   10.04    1.25
  15  -1   2   13.67    1.26
 -15  -1  -2   15.02    1.77
 -15  -1  -2   13.34    1.57
  15   1   2   14.62    1.41
 -15   1  -2   11.44    1.41
 -15   1  -2   12.39    1.66
 -17  -1  -2    6.92    1.47
 -17  -1  -2   10.14    1.49
  17  -1   2   10.00    1.33
 -17   1  -2   10.51    1.54
  17   1   2   10.37    1.36
 -19  -1  -2    1.87    1.30
 -19  -1  -2    1.34    1.44
 -19   1  -2    2.85    1.56
 -19   1  -2    3.27    1.36
  19   1   2    2.00    1.23
  20  -2  -2    4.65    1.55
 -20  -2   2    0.55    1.36
 -20  -2   2    1.33    1.37
 -20  -2   2    3.77    1.44
  20   2  -2    3.38    1.30
 -20   2   2    1.95    1.44
 -20   2   2    3.54    1.42
 -18  -2   2   15.56    1.83
 -18  -2   2   10.28    1.66
  18  -2  -2   15.11    1.69
 -18  -2   2   13.41    1.69
 -18   2   2   14.37    1.83
 -18   2   2   13.04    1.46
 -18   2   2   15.50    1.88
  18   2  -2   13.35    1.73
 -16  -2   2    2.89    1.03
 -16  -2   2    3.80    1.30
 -16  -2   2    4.19    1.07
  16  -2  -2    4.90    1.16
  16   2  -2    4.84    1.12
 -16   2   2    3.26    1.14
 -16   2   2    3.66    0.93
 -16   2   2    3.80    0.95
  14  -2  -2    1.13    0.75
 -14  -2   2    0.11    0.76
 -14  -2   2    0.81    0.86
 -14   2   2    1.08    0.65
 -14   2   2    0.22    0.70
 -14   2   2   -1.07    0.94
  14   2  -2    0.05    0.79
 -12  -2   2   44.89    2.00
 -12  -2   2   45.22    1.99
  12  -2  -2   46.24    1.95
  12  -2  -2   44.78    1.44
  12   2  -2   44.52    2.03
 -12   2   2   44.61    1.66
 -12   2   2   44.80    1.82
  10  -2  -2   22.65    1.20
  10  -2  -2   23.26    0.93
 -10  -2   2   21.38    1.24
 -10  -2   2   22.44    1.26
 -10   2   2   23.16    1.33
  10   2  -2   24.38    1.30
 -10   2   2   22.19    0.98
 -10   2   2   23.55    1.22
  -8  -2   2   20.31    1.12
   8  -2  -2   22.67    0.96
   8  -2  -2   20.45    1.08
  -8  -2   2   22.00    1.10
  -8   2   2   21.13    1.07
   8   2  -2   19.21    1.10
  -8   2   2   21.34    1.20
  -6  -2   2   46.84    1.60
  -6  -2   2   45.27    1.65
   6  -2  -2   46.62    1.60
   6   2  -2   47.43    1.59
  -6   2   2   45.52    1.29
  -6   2   2   45.82    1.63
   6   2  -2   46.27    1.66
  -6   2   2   44.55    1.66
  -4  -2   2    2.43    0.41
   4  -2  -2    2.56    0.45
  -4  -2   2    2.31    0.33
  -4   2   2    2.25    0.24
   4   2  -2    1.80    0.40
  -4   2   2    1.67    0.40
   4   2  -2    3.42    0.50
  -2  -2   2  129.19    3.09
  -2  -2   2  124.29    3.24
   2  -2  -2  123.08    3.07
   2  -2  -2  127.41    3.31
  -2   2   2  117.24    3.29
   2   2  -2  137.60    3.43
   2   2  -2  128.22    3.41
  -2   2   2  123.12    3.08
   0  -2   2  102.80    2.44
   0  -2   2  101.88    2.61
   0  -2  -2  103.07    2.77
   0  -2  -2  100.53    2.71
   0  -2  -2  103.60    2.67
   0   2  -2  105.23    2.54
   0   2  -2  106.18    2.57
   0   2   2  102.81    2.79
   0   2  -2  103.04    2.87
   2  -2   2    0.69    0.18
  -2  -2  -2    0.71    0.30
   2  -2   2    0.88    0.18
  -2  -2  -2    0.56    0.29
   2  -2   2    0.48    0.20
  -2  -2  -2    0.68    0.31
   2   2   2    0.74    0.35
  -2   2  -2    0.41    0.30
  -2   2  -2    0.70    0.18
  -2   2  -2    0.82    0.34
  -4  -2  -2   59.78    1.82
   4  -2   2   58.05    1.48
  -4  -2  -2   55.06    1.82
   4  -2   2   60.38    1.46
  -4  -2  -2   57.30    1.94
  -4   2  -2   58.46    1.78
   4   2   2   56.84    1.83
  -4   2  -2   58.06    1.85
  -4   2  -2   58.69    1.62
  -6  -2  -2   63.29    2.07
  -6  -2  -2   62.79    2.04
  -6  -2  -2   62.73    1.93
   6  -2   2   62.16    1.61
  -6  -2  -2   62.74    2.17
  -6   2  -2   62.36    1.91
   6   2   2   60.90    1.98
  -6   2  -2   62.32    1.85
  -6   2  -2   59.88    1.91
  -8  -2  -2   21.83    1.31
  -8  -2  -2   18.70    1.12
   8  -2   2   21.17    0.82
  -8  -2  -2   20.63    1.02
   8   2   2   21.49    1.08
  -8   2  -2   20.69    0.96
  -8   2  -2   20.09    1.06
  -8   2  -2   21.91    1.03
  10  -2   2   40.52    1.41
 -10  -2  -2   39.27    1.96
 -10  -2  -2   40.46    1.56
 -10  -2  -2   40.70    1.65
 -10  -2  -2   39.96    1.84
  10   2   2   39.68    1.70
 -10   2  -2   42.35    1.66
 -10   2  -2   41.35    1.71
 -12  -2  -2   11.97    1.34
 -12  -2  -2   11.80    0.99
  12  -2   2   12.02    0.97
 -12  -2  -2   10.83    1.48
 -12  -2  -2   10.07    1.04
 -12   2  -2   11.50    1.22
 -12   2  -2   11.23    1.19
  14  -2   2    8.43    0.97
 -14  -2  -2    8.41    0.92
 -14  -2  -2    6.47    1.20
 -14  -2  -2    5.78    1.11
 -14   2  -2    7.76    1.22
 -14   2  -2    6.98    1.13
  14   2   2    6.21    1.90
  16  -2   2   13.69    1.50
 -16  -2  -2   16.72    1.73
 -16  -2  -2   16.41    2.00
 -16  -2  -2   17.50    1.30
 -16   2  -2   16.11    2.00
 -16   2  -2   13.70    1.61
  16   2   2   15.06    1.72
 -18  -2  -2    4.09    1.52
 -18  -2  -2    4.77    1.37
 -18   2  -2    4.64    1.29
  18   2   2    6.49    1.36
 -18   2  -2    6.81    1.51
 -19  -3   2    1.23    1.23
 -19  -3   2    3.44    1.52
  19  -3  -2    1.90    1.42
 -19  -3   2    1.76    1.41
  19   3  -2    1.48    1.22
 -19   3   2    3.92    1.37
  17  -3  -2    8.73    1.46
 -17  -3   2    7.45    1.30
 -17  -3   2    8.73    1.65
 -17  -3   2    9.54    1.49
 -17   3   2   12.51    1.66
  17   3  -2    7.77    1.39
 -17   3   2    9.35    1.20
  15  -3  -2    7.22    1.25
 -15  -3   2    7.68    1.27
 -15  -3   2    6.95    1.19
 -15   3   2    7.93    1.37
 -15   3   2    7.98    1.06
  15   3  -2    5.83    1.21
 -13  -3   2   26.81    1.68
  13  -3  -2   25.45    1.10
 -13  -3   2   24.12    1.70
  13  -3  -2   27.78    1.63
 -13   3   2   25.12    1.14
  13   3  -2   25.83    1.77
 -13   3   2   24.93    1.73
 -13   3   2   24.54    1.45
 -11  -3   2   15.63    1.32
  11  -3  -2   16.01    0.97
  11  -3  -2   14.50    1.16
 -11   3   2   13.84    1.10
 -11   3   2   16.19    1.35
  11   3  -2   15.43    1.39
 -11   3   2   14.99    0.75
  -9  -3   2    6.51    0.77
  -9  -3   2    4.49    1.06
   9  -3  -2    7.64    0.81
  -9   3   2    7.80    0.96
  -9   3   2    6.61    0.38
  -9   3   2    7.88    0.87
   9   3  -2    8.07    1.50
  -7  -3   2   98.18    2.78
  -7  -3   2   96.81    2.97
   7  -3  -2   96.77    2.91
  -7   3   2   98.79    2.98
  -7   3   2   94.92    2.89
   7   3  -2  100.19    2.99
  -5  -3   2   63.14    1.81
   5  -3  -2   60.20    1.98
  -5  -3   2   60.78    2.02
   5   3  -2   61.65    2.02
  -5   3   2   59.61    1.99
   3  -3  -2   20.68    0.64
  -3  -3   2   20.47    0.99
   3  -3  -2   21.19    1.03
  -3  -3   2   20.89    0.77
   3   3  -2   20.61    0.99
  -3   3   2   21.48    1.04
  -1  -3   2   92.70    2.59
   1  -3  -2   95.28    2.47
   1  -3  -2   89.88    2.70
  -1  -3   2   95.28    2.22
   1   3  -2   96.21    2.55
  -1   3   2   94.01    2.72
  -1  -3  -2   48.68    1.62
  -1  -3  -2   48.48    1.60
  -1  -3  -2   51.86    1.75
   1  -3   2   50.36    1.52
   1   3   2   51.17    1.76
  -1   3  -2   52.14    1.42
  -1   3  -2   53.36    1.45
  -3  -3  -2   60.73    1.93
  -3  -3  -2   64.88    2.05
  -3  -3  -2   59.68    2.03
   3  -3   2   64.49    1.60
  -3   3  -2   61.47    1.56
  -3   3  -2   62.92    1.94
   3   3   2   62.02    2.05
  -5  -3  -2   87.68    2.81
  -5  -3  -2   90.12    2.72
  -5  -3  -2   92.58    2.69
   5  -3   2   89.62    2.36
  -5   3  -2   89.65    2.55
   5   3   2   86.66    2.72
  -5   3  -2   92.36    2.36
   7  -3   2   12.81    0.67
  -7  -3  -2   15.22    1.13
  -7  -3  -2   14.64    0.97
  -7  -3  -2   12.50    0.96
  -7   3  -2   13.63    0.78
   7   3   2   13.11    0.96
  -7   3  -2   13.79    0.88
  -9  -3  -2   29.91    1.72
  -9  -3  -2   28.46    1.58
   9  -3   2   27.83    1.11
  -9  -3  -2   28.12    1.52
  -9  -3  -2   28.38    1.42
  -9   3  -2   29.79    1.34
   9   3   2   25.82    1.54
  -9   3  -2   28.98    1.27
 -11  -3  -2   37.11    1.82
 -11  -3  -2   35.12    1.82
  11  -3   2   37.00    1.55
 -11  -3  -2   35.55    1.87
 -11  -3  -2   35.94    2.12
  11   3   2   37.84    1.91
 -11   3  -2   36.69    1.62
 -11   3  -2   36.97    1.67
  13  -3   2    9.43    0.98
 -13  -3  -2    9.81    1.44
 -13  -3  -2   10.32    1.27
 -13  -3  -2   10.60    1.29
 -13  -3  -2    8.47    1.44
 -13   3  -2   10.44    1.20
  13   3   2    7.39    1.23
 -13   3  -2   10.10    1.12
 -15  -3  -2   11.57    1.53
 -15  -3  -2   12.03    1.70
  15  -3   2   12.39    1.25
 -15  -3  -2   10.39    1.27
 -15   3  -2   11.11    1.36
 -15   3  -2   11.29    1.43
  15   3   2   10.06    1.42
 -17  -3  -2    5.20    1.58
 -17  -3  -2    6.57    1.17
 -17  -3  -2    5.26    1.28
  17   3   2    4.89    1.34
 -17   3  -2    7.49    1.37
 -17   3  -2    8.29    1.46
 -18  -4   2    7.91    1.47
 -18  -4   2    7.28    1.77
 -18  -4   2    8.81    1.68
  18  -4  -2   10.48    1.74
  18   4  -2    6.78    1.43
 -18   4   2    8.36    1.59
  16  -4  -2    6.01    1.23
 -16  -4   2    5.78    1.32
 -16  -4   2    3.07    1.15
 -16   4   2    4.90    1.26
  16   4  -2    8.69    1.38
  14  -4  -2    4.71    0.72
  14  -4  -2    3.26    1.02
 -14  -4   2    3.65    1.04
 -14  -4   2    3.92    1.09
 -14   4   2    3.75    1.23
  14   4  -2    4.01    1.01
 -12  -4   2   29.17    1.97
 -12  -4   2   27.47    1.79
  12  -4  -2   32.19    1.72
 -12   4   2   30.35    1.80
  12   4  -2   27.74    1.81
 -12   4   2   28.72    1.79
 -10  -4   2   21.17    1.55
 -10  -4   2   21.13    1.26
 -10   4   2   20.03    1.31
  10   4  -2   22.09    1.54
 -10   4   2   22.03    1.46
   8  -4  -2   25.09    1.33
  -8  -4   2   24.92    1.44
  -8  -4   2   25.56    1.19
  -8   4   2   26.14    1.38
   8   4  -2   25.35    1.47
  -8   4   2   25.18    1.39
  -6  -4   2   49.46    1.91
   6  -4  -2   48.38    1.83
  -6  -4   2   49.68    1.60
  -6   4   2   50.43    1.85
   6   4  -2   48.45    1.89
   4  -4  -2   21.82    1.15
  -4  -4   2   23.02    0.83
  -4  -4   2   22.09    1.17
  -4   4   2   22.81    1.19
   4   4  -2   20.59    1.11
  -2  -4   2   88.88    2.13
   2  -4  -2   81.50    2.32
   2  -4  -2   85.37    2.67
  -2  -4   2   87.89    2.62
   2   4  -2   87.38    2.55
  -2   4   2   88.34    2.70
   0  -4  -2   81.79    2.30
   0  -4   2   78.67    2.37
   0  -4  -2   78.46    2.53
   0   4   2   79.82    2.55
   0   4  -2   81.76    2.29
  -2  -4  -2   23.32    1.20
  -2  -4  -2   22.21    1.08
  -2  -4  -2   21.37    1.03
   2  -4   2   21.84    0.97
  -2   4  -2   20.28    0.83
  -2   4  -2   21.41    0.89
  -4  -4  -2   57.51    1.95
   4  -4   2   59.80    2.15
  -4  -4  -2   58.81    2.12
  -4  -4  -2   56.87    2.10
   4   4   2   58.94    2.15
   6  -4   2   46.94    1.54
  -6  -4  -2   46.39    1.83
  -6  -4  -2   49.44    1.96
  -6  -4  -2   48.64    2.02
   6   4   2   48.96    1.98
  -6   4  -2   47.37    2.04
  -6   4  -2   46.85    1.40
  -8  -4  -2   20.19    1.44
  -8  -4  -2   22.01    1.59
   8  -4   2   21.55    1.03
  -8  -4  -2   19.18    1.35
   8   4   2   23.03    1.53
  -8   4  -2   22.10    1.02
  -8   4  -2   21.93    1.20
 -10  -4  -2   28.91    1.96
  10  -4   2   32.55    1.31
 -10  -4  -2   28.28    1.67
 -10  -4  -2   27.99    1.75
 -10   4  -2   30.07    1.39
 -10   4  -2   28.24    1.46
  10   4   2   26.96    1.76
  12  -4   2   12.35    1.06
 -12  -4  -2   12.54    1.51
 -12  -4  -2   10.70    1.37
 -12  -4  -2   12.01    1.61
 -12  -4  -2   11.71    1.34
 -12   4  -2   10.44    1.20
  12   4   2   14.27    1.45
 -12   4  -2   11.97    1.26
 -14  -4  -2    7.57    1.41
  14  -4   2    5.58    1.33
 -14  -4  -2    8.78    1.35
 -14  -4  -2    6.38    1.36
 -14  -4  -2    5.94    1.15
  14   4   2    6.22    1.20
 -14   4  -2    6.78    1.27
 -14   4  -2    6.77    1.27
 -16  -4  -2   15.29    1.76
 -16  -4  -2    9.39    1.40
 -16  -4  -2   10.71    1.83
  16   4   2   10.68    1.51
 -16   4  -2    8.43    1.39
 -17  -5   2    4.15    1.57
  17  -5  -2    3.02    1.46
 -17  -5   2    4.92    1.33
 -17  -5   2    2.00    1.47
 -17   5   2    3.74    1.42
  17   5  -2    4.90    1.41
  15  -5  -2    0.75    1.16
 -15  -5   2    4.64    1.09
 -15  -5   2    4.99    1.39
 -15   5   2    3.21    1.20
  15   5  -2    2.35    1.21
 -13  -5   2   11.86    1.37
  13  -5  -2   14.81    1.65
 -13  -5   2   10.55    1.42
 -13   5   2   12.60    1.59
 -13   5   2   10.96    1.46
  13   5  -2    7.89    1.31
 -11  -5   2    9.34    1.17
 -11  -5   2    7.01    1.15
  11  -5  -2    9.59    1.27
 -11   5   2    9.26    1.19
  11   5  -2    7.43    1.20
 -11   5   2    9.51    1.20
  -9  -5   2    5.38    1.01
  -9  -5   2    6.81    0.87
   9  -5  -2    6.39    1.01
  -9   5   2    7.08    1.01
  -9   5   2    7.57    1.08
   9   5  -2    7.04    1.15
  -7  -5   2   30.78    1.33
   7  -5  -2   33.59    1.67
  -7  -5   2   32.00    1.84
  -7   5   2   33.47    1.63
  -7   5   2   34.56    1.66
   7   5  -2   32.01    1.85
   5  -5  -2   22.44    1.35
  -5  -5   2   22.89    1.06
  -5  -5   2   22.42    1.42
  -5   5   2   23.23    1.38
  -3  -5   2   14.60    1.06
   3  -5  -2   13.34    0.58
   3  -5  -2   13.86    1.12
  -3  -5   2   12.84    0.69
  -3   5   2   14.08    1.11
   3   5  -2   13.20    1.05
   1  -5  -2   34.75    1.24
  -1  -5   2   37.08    1.54
   1  -5  -2   33.21    1.62
  -1   5   2   34.98    1.64
   1   5  -2   34.26    1.45
   1  -5   2   20.32    1.11
  -1  -5  -2   21.34    1.11
  -1  -5  -2   19.19    1.32
   1   5   2   21.17    1.35
  -1   5  -2   20.67    1.05
  -3  -5  -2   23.68    1.19
  -3  -5  -2   24.70    1.32
  -3  -5  -2   23.35    1.50
   3  -5   2   24.73    1.18
  -3   5  -2   24.06    0.99
  -3   5  -2   21.84    1.12
   3   5   2   23.22    1.52
   5  -5   2   33.19    1.37
  -5  -5  -2   31.68    1.53
  -5  -5  -2   29.61    1.90
  -5  -5  -2   32.70    1.78
   5   5   2   28.88    1.75
  -7  -5  -2    8.73    1.03
   7  -5   2    9.40    0.87
  -7  -5  -2    7.33    1.13
   7   5   2    8.03    1.20
  -7   5  -2    8.99    0.75
   9  -5   2   13.80    1.03
  -9  -5  -2   14.21    1.54
  -9  -5  -2   11.67    1.25
  -9  -5  -2   11.57    1.40
   9   5   2   11.77    1.39
  -9   5  -2   12.82    0.89
 -11  -5  -2   14.27    1.55
 -11  -5  -2   12.89    1.47
 -11  -5  -2   12.06    1.58
  11  -5   2   15.23    1.15
  11   5   2   13.64    1.59
 -11   5  -2   13.08    1.19
 -13  -5  -2    2.08    1.05
 -13  -5  -2    5.65    1.15
 -13  -5  -2    5.75    1.28
 -13  -5  -2    4.93    1.69
  13   5   2    4.59    1.21
 -15  -5  -2    5.63    1.37
 -15  -5  -2    7.25    1.57
 -15  -5  -2    3.97    1.25
 -15   5  -2    5.42    1.38
  15   5   2    3.54    1.30
  14  -6  -2    3.86    1.33
 -14  -6   2    0.30    0.94
 -14  -6   2    2.34    1.36
  14   6  -2    0.98    1.22
 -14   6   2    0.89    1.22
  12  -6  -2    8.63    1.32
 -12  -6   2    8.61    1.17
 -12  -6   2    8.15    1.50
  12   6  -2    7.45    1.35
 -12   6   2    8.45    1.38
 -10  -6   2    6.04    0.88
  10  -6  -2    7.10    1.18
 -10  -6   2    6.54    1.26
 -10   6   2    6.25    1.29
  10   6  -2    6.74    1.26
 -10   6   2    5.82    1.04
  -8  -6   2    7.37    1.23
   8  -6  -2    5.74    1.12
  -8  -6   2    8.36    0.95
  -8   6   2    7.23    1.02
  -8   6   2    6.33    1.20
   8   6  -2    5.97    1.12
   6  -6  -2   14.10    1.44
  -6  -6   2   13.85    0.89
  -6  -6   2   11.17    1.39
  -6   6   2   16.09    1.57
   6   6  -2   13.67    1.41
  -6   6   2   11.58    1.29
  -4  -6   2    5.33    0.58
  -4  -6   2    7.24    1.11
   4  -6  -2    5.83    1.05
   4   6  -2    7.01    1.09
  -4   6   2    5.41    1.06
   2  -6  -2   17.78    0.86
  -2  -6   2   16.16    1.36
   2  -6  -2   18.05    1.50
  -2   6   2   15.71    1.46
   2   6  -2   18.50    1.37
   0  -6  -2   18.19    1.50
   0  -6  -2   18.07    1.03
   0  -6   2   14.94    1.31
   0   6  -2   17.21    1.16
   0   6   2   15.03    1.40
   2  -6   2    7.73    0.99
  -2  -6  -2    6.81    0.84
  -2  -6  -2    7.72    1.12
   2   6   2    6.51    1.11
  -2   6  -2    7.10    0.91
   4  -6   2   14.73    1.12
  -4  -6  -2   13.94    1.40
  -4  -6  -2   14.03    1.35
  -4  -6  -2   14.03    1.15
   4   6   2   12.29    1.38
  -4   6  -2   12.23    1.04
  -6  -6  -2   11.41    1.45
  -6  -6  -2   11.91    1.26
  -6  -6  -2    9.41    1.33
   6  -6   2   11.56    1.06
   6   6   2   12.48    1.47
  -8  -6  -2    5.93    1.20
  -8  -6  -2    5.07    1.05
   8  -6   2    6.93    0.91
  -8  -6  -2    4.67    1.16
   8   6   2    5.91    1.22
 -10  -6  -2    4.50    1.24
 -10  -6  -2    6.35    1.10
  10  -6   2    8.72    1.02
 -10  -6  -2   10.43    1.43
  10   6   2    7.95    1.37
 -12  -6  -2    4.51    1.20
 -12  -6  -2    3.64    1.26
 -12  -6  -2    5.16    1.17
 -14  -6  -2    1.37    1.39
 -14  -6  -2    2.70    1.20
 -14  -6  -2    0.41    1.84
 -14  -6  -2    4.23    1.36
  14   6   2   -0.28    1.30
  13  -7  -2    3.74    1.52
 -13  -7   2    5.74    1.63
 -13  -7   2    3.13    1.19
  13   7  -2    0.94    1.25
 -11  -7   2    1.72    1.22
  11  -7  -2    2.89    1.31
 -11  -7   2    2.47    1.09
 -11   7   2    3.50    1.28
  -9  -7   2    3.89    1.20
   9  -7  -2    6.22    1.47
  -9   7   2    2.41    1.21
   9   7  -2    4.22    1.33
  -7  -7   2    9.19    0.99
  -7  -7   2    8.30    1.33
   7  -7  -2    8.51    1.35
  -7   7   2    9.99    1.31
   7   7  -2    7.52    1.33
  -7   7   2    9.38    1.22
   5  -7  -2    9.58    1.38
  -5  -7   2    7.63    1.28
  -5   7   2    6.81    1.08
  -5   7   2    8.16    1.23
   5   7  -2    6.54    1.17
   3  -7  -2    7.08    1.25
  -3  -7   2    7.42    1.19
  -3   7   2    5.52    1.10
   3   7  -2    5.22    1.04
   1  -7  -2   10.91    0.97
  -1  -7   2   12.15    1.45
   1  -7  -2   11.62    1.52
  -1   7   2   11.31    1.51
   1   7  -2   12.91    1.39
  -1  -7  -2    8.31    1.06
   1  -7   2    7.65    1.22
  -1  -7  -2    7.50    1.20
   1   7   2    4.56    1.14
  -1   7  -2    7.07    0.96
  -3  -7  -2    9.30    1.17
  -3  -7  -2    6.78    1.24
   3  -7   2    7.60    1.20
  -3   7  -2    6.92    0.93
   3   7   2    7.84    1.31
  -5  -7  -2    8.10    1.29
   5  -7   2    8.50    1.52
  -5  -7  -2    7.90    1.35
  -5  -7  -2    9.82    1.23
   5   7   2    9.13    1.43
  -7  -7  -2    5.09    1.26
  -7  -7  -2    5.23    1.25
  -7  -7  -2    2.51    1.02
   7  -7   2    4.00    1.25
   7   7   2    5.53    1.32
  -9  -7  -2    4.63    1.18
  -9  -7  -2    6.01    1.36
   9  -7   2    6.21    1.27
  -9  -7  -2    2.75    1.18
   9   7   2    4.67    1.46
 -11  -7  -2    3.13    1.27
 -11  -7  -2    6.98    1.55
 -11  -7  -2    3.41    1.25
  11   7   2    4.73    1.72
 -10  -8   2    0.04    1.49
  10  -8  -2    1.00    1.59
 -10   8   2    2.13    1.42
  -8  -8   2    2.65    1.41
   8  -8  -2    5.26    1.48
   8   8  -2    0.36    1.43
  -8   8   2    1.90    1.37
   6  -8  -2    5.26    1.39
  -6  -8   2    4.00    1.42
   6   8  -2    3.94    1.33
  -6   8   2    6.92    1.38
   4  -8  -2    3.93    1.37
  -4  -8   2    2.82    1.32
  -4   8   2    2.10    1.21
   4   8  -2    4.44    1.26
  -2  -8   2    5.58    1.34
   2  -8  -2    1.27    1.24
   2   8  -2    5.72    1.13
  -2   8   2    3.90    1.28
   0  -8  -2    4.34    1.30
   0  -8   2    6.73    1.37
   0   8   2    3.78    1.23
   0   8  -2    3.21    1.02
  -2  -8  -2    4.12    1.10
  -2  -8  -2    2.24    1.23
   2  -8   2    3.12    1.22
  -2   8  -2    2.55    1.22
   2   8   2    2.01    1.18
  -4  -8  -2    4.41    1.30
   4  -8   2    3.64    1.22
  -4  -8  -2    4.16    1.34
   4   8   2    3.88    1.39
  -6  -8  -2    3.06    1.34
   6  -8   2    3.38    1.25
  -6  -8  -2    2.22    1.27
   6   8   2    1.98    1.48
  -8  -8  -2    1.61    1.33
   8  -8   2    2.01    1.34
  -8  -8  -2    2.33    1.34
  -8  -8  -2    2.21    1.27
   8   8   2    3.10    1.62
 -20   0   3    1.64    1.24
 -20   0   3    1.42    1.37
  20   0  -3    4.06    1.49
 -20   0   3    2.65    1.22
 -18   0   3   10.85    1.54
 -18   0   3    8.46    1.43
  18   0  -3   12.91    1.66
 -18   0   3   11.95    1.50
 -16   0   3   15.94    1.61
  16   0  -3   11.60    1.52
 -16   0   3   15.50    1.57
 -14   0   3   54.53    2.49
 -14   0   3   58.30    2.41
  14   0  -3   57.48    3.03
  12   0  -3   37.43    1.17
 -12   0   3   39.08    1.83
  10   0  -3   25.02    1.32
  10   0  -3   27.30    0.99
 -10   0   3   26.49    1.32
 -10   0   3   24.12    1.37
   8   0  -3  175.79    4.35
  -8   0   3  170.74    4.64
  -8   0   3  167.20    4.64
   6   0  -3  409.58   10.00
  -6   0   3  406.75    9.99
   6   0  -3  417.12    9.84
  -6   0   3  411.70   10.00
   4   0  -3   78.24    2.21
   4   0  -3   76.06    2.22
  -4   0   3   73.27    2.19
  -2   0   3  294.04    7.09
   2   0  -3  301.39    7.29
   2   0  -3  287.43    7.17
   2   0  -3  289.64    7.10
   2   0  -3  309.57    7.15
   0   0  -3  257.64    6.39
   0   0  -3  267.70    6.51
   0   0  -3  264.91    6.14
   0   0   3  260.90    6.19
   0   0  -3  257.28    6.16
   2   0   3  357.98    8.07
   2   0   3  341.15    8.06
  -2   0  -3  334.90    8.26
  -2   0  -3  345.33    8.38
  -2   0  -3  348.30    8.44
  -4   0  -3  288.69    7.25
  -4   0  -3  291.17    7.30
   4   0   3  298.42    6.89
  -4   0  -3  293.77    7.18
  -6   0  -3  102.82    2.87
  -6   0  -3  100.72    2.90
  -6   0  -3   97.25    2.99
   6   0   3  102.18    2.60
  -8   0  -3   77.19    2.31
   8   0   3   78.28    2.19
  -8   0  -3   75.70    2.48
  -8   0  -3   77.32    2.59
 -10   0  -3  141.22    4.29
 -10   0  -3  138.02    3.71
  10   0   3  138.96    3.80
 -10   0  -3  142.79    4.14
 -12   0  -3   42.62    2.23
 -12   0  -3   42.91    2.09
  12   0   3   41.83    1.67
 -12   0  -3   42.57    1.46
 -14   0  -3   20.65    1.85
 -14   0  -3   20.82    1.68
  14   0   3   16.81    1.28
 -16   0  -3   30.30    2.27
  16   0   3   31.28    1.83
 -16   0  -3   28.59    2.05
  18   0   3    7.22    1.51
 -18   0  -3   10.07    1.85
 -18   0  -3    4.86    1.40
 -21  -1   3    0.55    1.36
 -21  -1   3   -0.80    1.23
  21  -1  -3    3.28    1.71
 -21  -1   3    4.09    1.61
 -21   1   3    2.59    1.45
  21   1  -3    0.96    1.19
 -21   1   3    2.23    1.48
 -21   1   3    1.64    1.51
 -19  -1   3   16.80    1.83
  19  -1  -3   18.70    2.10
 -19  -1   3   15.42    2.05
 -19  -1   3   14.41    1.93
 -19   1   3   13.47    1.70
  19   1  -3   17.72    1.79
 -19   1   3   15.30    1.82
 -17  -1   3    8.36    1.29
  17  -1  -3   12.30    1.52
 -17  -1   3   12.04    1.58
  17   1  -3   11.59    1.50
 -17   1   3    9.98    1.37
 -17   1   3   10.12    1.41
 -17   1   3   13.16    1.45
  15  -1  -3    6.62    1.17
 -15  -1   3    4.99    1.08
 -15  -1   3    6.53    1.14
  15   1  -3    5.17    1.08
 -15   1   3    7.72    1.44
 -15   1   3    5.82    1.04
 -15   1   3    5.08    1.20
 -13  -1   3   32.74    1.84
  13  -1  -3   32.63    1.74
  13  -1  -3   33.78    1.01
 -13  -1   3   32.42    1.74
 -13   1   3   31.53    1.81
 -13   1   3   32.88    1.68
  13   1  -3   33.44    1.85
 -11  -1   3  104.17    3.35
  11  -1  -3  109.57    2.83
 -11  -1   3  107.17    3.34
  11  -1  -3  106.29    3.36
 -11   1   3  102.28    3.40
  11   1  -3  112.07    3.45
  11   1  -3  106.03    2.89
 -11   1   3  114.16    3.36
   9  -1  -3   55.21    2.02
  -9  -1   3   55.58    2.01
   9  -1  -3   56.66    1.71
  -9  -1   3   53.63    1.98
   9   1  -3   58.15    2.07
  -9   1   3   54.65    1.99
  -9   1   3   56.78    2.09
   9   1  -3   54.99    1.72
   7  -1  -3   83.94    2.33
  -7  -1   3   79.52    2.51
   7  -1  -3   80.04    2.47
  -7  -1   3   78.14    2.47
  -7   1   3   75.77    2.48
   7   1  -3   83.00    2.36
   7   1  -3   82.20    2.53
  -7   1   3   82.40    2.56
  -5  -1   3  136.71    3.72
   5  -1  -3  139.06    3.66
   5  -1  -3  139.68    3.71
  -5  -1   3  134.54    3.66
  -5   1   3  141.82    3.72
   5   1  -3  139.22    3.69
   5   1  -3  139.66    3.69
  -3  -1   3  181.66    4.59
   3  -1  -3  177.28    4.68
   3  -1  -3  183.61    4.53
   3  -1  -3  188.96    4.65
   3   1  -3  181.46    4.55
   3   1  -3  185.19    4.71
   1  -1  -3  481.37   11.26
  -1  -1   3  469.96   10.97
   1  -1  -3  485.41   11.09
   1  -1  -3  454.30   11.05
   1   1  -3  472.92   11.25
   1   1  -3  465.52   11.19
  -1   1   3  470.72   11.07
   1   1  -3  458.39   10.87
   1   1  -3  461.52   10.87
  -1  -1  -3   70.51    2.14
  -1  -1  -3   76.58    2.04
   1  -1   3   77.84    1.82
  -1  -1  -3   72.19    2.26
  -1  -1  -3   76.48    2.03
   1  -1   3   77.46    1.84
  -1   1  -3   72.46    2.17
   1   1   3   75.54    2.05
  -1   1  -3   76.34    2.01
  -1   1  -3   76.47    2.26
  -3  -1  -3   98.43    2.84
  -3  -1  -3   97.36    2.87
  -3  -1  -3   99.02    2.77
  -3  -1  -3  103.79    2.56
  -3  -1  -3   99.43    2.54
  -3   1  -3   99.98    2.64
  -3   1  -3   96.37    2.79
   3   1   3  100.71    2.63
  -3   1  -3  101.61    2.84
  -5  -1  -3  241.66    5.70
  -5  -1  -3  234.08    6.13
  -5  -1  -3  235.30    6.03
  -5  -1  -3  239.37    6.14
  -5  -1  -3  241.85    5.68
  -5   1  -3  235.55    5.99
  -5   1  -3  236.67    6.06
  -5   1  -3  235.01    5.90
   5   1   3  240.08    5.83
  -7  -1  -3  115.38    3.48
  -7  -1  -3  115.51    2.94
  -7  -1  -3  115.44    2.88
   7  -1   3  115.16    2.89
  -7  -1  -3  112.18    3.29
  -7  -1  -3  111.61    3.34
  -7   1  -3  116.52    3.20
   7   1   3  122.57    3.50
  -7   1  -3  118.04    3.39
  -7   1  -3  114.43    3.26
   9  -1   3   44.94    1.76
  -9  -1  -3   50.40    1.47
  -9  -1  -3   47.04    1.77
  -9  -1  -3   51.09    2.25
  -9  -1  -3   49.34    1.34
  -9   1  -3   51.30    1.89
  -9   1  -3   50.16    2.02
   9   1   3   49.25    1.73
  -9   1  -3   49.68    1.66
  11  -1   3   68.22    2.14
 -11  -1  -3   66.86    2.19
 -11   1  -3   68.46    2.08
 -11   1  -3   71.26    2.62
  11   1   3   70.25    2.33
 -11   1  -3   68.82    2.51
 -13  -1  -3   18.11    1.51
 -13  -1  -3   18.07    1.72
 -13  -1  -3   18.53    1.06
  13  -1   3   19.03    1.17
 -13   1  -3   18.85    1.77
 -13   1  -3   16.39    1.45
  13   1   3   19.43    1.31
  15  -1   3   28.13    1.60
 -15  -1  -3   31.01    2.18
 -15  -1  -3   30.46    1.98
  15   1   3   23.42    1.81
 -15   1  -3   32.15    2.19
 -15   1  -3   29.85    1.93
 -17  -1  -3   13.98    1.81
 -17  -1  -3   14.19    1.80
 -17   1  -3   15.24    1.95
  17   1   3   13.94    1.69
 -17   1  -3   15.41    1.79
 -20  -2   3    2.19    1.38
 -20  -2   3    3.72    1.52
 -20  -2   3    2.94    1.38
  20  -2  -3    4.54    1.47
 -20   2   3    1.54    1.29
  20   2  -3    1.95    1.27
 -20   2   3    0.38    1.24
 -20   2   3    2.07    1.40
 -18  -2   3    6.45    1.33
  18  -2  -3    8.91    1.45
 -18  -2   3    7.04    1.41
 -18   2   3   10.25    1.61
 -18   2   3    8.12    1.29
 -18   2   3    7.97    1.34
  18   2  -3    5.27    1.24
 -16  -2   3    9.27    1.31
  16  -2  -3   11.48    1.41
 -16  -2   3   11.28    1.43
 -16   2   3    8.91    1.30
 -16   2   3    9.43    1.36
 -16   2   3    9.58    1.17
  16   2  -3    8.71    1.28
 -14  -2   3   38.21    2.07
 -14  -2   3   39.66    2.10
  14   2  -3   38.48    2.13
 -14   2   3   37.11    2.13
 -14   2   3   38.79    1.96
 -14   2   3   39.05    1.74
  12  -2  -3   23.00    1.00
 -12  -2   3   21.99    1.46
  12  -2  -3   19.50    1.53
 -12  -2   3   23.66    1.60
 -12   2   3   24.44    1.71
 -12   2   3   21.68    1.56
  12   2  -3   22.20    2.41
  10  -2  -3   12.86    1.02
 -10  -2   3   11.84    1.00
 -10  -2   3   11.17    0.99
  10  -2  -3   12.74    1.11
 -10   2   3   12.28    1.00
  10   2  -3   12.04    1.05
 -10   2   3   11.41    1.10
   8  -2  -3   77.93    2.59
   8  -2  -3   89.84    2.49
  -8  -2   3   80.76    2.53
  -8  -2   3   80.94    2.64
   8   2  -3   85.77    2.66
  -8   2   3   81.46    2.70
   8   2  -3   84.21    2.50
  -8   2   3   84.03    2.66
  -6  -2   3  201.71    5.32
   6  -2  -3  203.38    5.25
   6  -2  -3  208.73    5.33
  -6  -2   3  202.74    5.20
   6   2  -3  204.71    5.30
   6   2  -3  200.94    5.29
  -6   2   3  206.86    5.33
   4  -2  -3   21.91    1.11
   4  -2  -3   24.52    0.86
  -4  -2   3   21.74    0.95
  -4  -2   3   22.76    1.06
  -4   2   3   22.72    1.07
   4   2  -3   22.84    1.14
   4   2  -3   22.85    1.03
   2  -2  -3  123.18    3.27
  -2  -2   3  118.06    3.15
   2  -2  -3  116.14    3.06
   2  -2  -3  122.97    3.39
   2   2  -3  120.43    3.06
   2   2  -3  130.66    3.24
  -2   2   3  113.20    3.23
   2   2  -3  118.40    3.38
   0  -2   3  103.19    2.62
   0  -2  -3  102.45    2.82
   0  -2  -3  100.68    2.75
   0  -2  -3  103.37    2.81
   0  -2   3  106.27    2.60
   0  -2  -3   95.69    2.95
   0   2  -3  102.56    2.92
   0   2   3  103.32    2.83
   0   2  -3  102.55    2.98
  -2  -2  -3  153.73    4.09
  -2  -2  -3  158.87    4.01
   2  -2   3  154.57    3.65
  -2  -2  -3  156.06    4.24
   2  -2   3  154.54    3.68
  -2  -2  -3  151.94    4.05
  -2   2  -3  151.72    4.17
  -2   2  -3  155.24    4.09
   2   2   3  153.08    4.03
  -4  -2  -3  131.32    3.68
  -4  -2  -3  131.45    3.81
  -4  -2  -3  137.04    3.57
  -4  -2  -3  139.34    3.81
  -4   2  -3  137.67    3.68
  -4   2  -3  136.04    3.44
  -4   2  -3  136.43    3.73
   4   2   3  131.05    3.70
  -6  -2  -3   45.78    1.51
  -6  -2  -3   44.86    1.70
  -6  -2  -3   44.01    1.79
  -6  -2  -3   43.85    1.76
   6   2   3   41.83    1.55
  -6   2  -3   43.39    1.63
  -6   2  -3   43.81    1.61
  -6   2  -3   42.93    1.47
   8  -2   3   38.30    1.14
  -8  -2  -3   39.56    1.73
  -8  -2  -3   38.38    1.40
  -8   2  -3   38.91    1.51
  -8   2  -3   38.30    1.62
   8   2   3   37.61    1.53
  -8   2  -3   37.50    1.50
 -10  -2  -3   83.06    2.75
 -10  -2  -3   82.47    2.43
  10  -2   3   78.78    2.32
 -10   2  -3   85.10    2.70
  10   2   3   82.19    2.69
 -10   2  -3   79.57    2.77
 -10   2  -3   80.02    2.46
 -12  -2  -3   21.77    1.40
  12  -2   3   21.68    1.17
 -12  -2  -3   19.96    1.79
 -12  -2  -3   21.90    1.58
 -12  -2  -3   22.77    1.15
 -12   2  -3   24.19    1.58
  12   2   3   21.80    1.40
 -12   2  -3   22.37    1.61
 -14  -2  -3   10.27    1.03
  14  -2   3   11.75    1.13
 -14  -2  -3   10.42    1.42
 -14  -2  -3   10.90    1.51
  14   2   3   14.96    1.60
 -14   2  -3   11.00    1.29
 -14   2  -3   11.52    1.58
 -16  -2  -3   18.38    2.08
 -16  -2  -3   19.14    1.87
 -16   2  -3   20.09    2.06
 -16   2  -3   15.56    1.79
  16   2   3   18.81    1.85
 -18  -2  -3    4.74    1.37
 -18   2  -3    4.40    1.32
 -19  -3   3    6.75    1.42
  19  -3  -3   10.02    1.79
 -19  -3   3    9.93    1.81
 -19  -3   3   10.21    1.77
 -19   3   3    9.88    1.49
 -19   3   3    8.43    1.76
  19   3  -3    9.14    1.67
 -17  -3   3    6.41    1.15
 -17  -3   3    6.64    1.41
  17  -3  -3    7.71    1.45
 -17   3   3    7.09    1.26
  17   3  -3    8.03    1.41
 -17   3   3    6.65    1.47
 -15  -3   3    5.29    1.13
  15  -3  -3    3.05    1.10
 -15  -3   3    5.39    1.10
 -15   3   3    5.49    1.20
 -15   3   3    4.25    1.14
 -15   3   3    5.59    0.80
  15   3  -3    6.57    1.18
  13  -3  -3   20.82    1.12
 -13  -3   3   20.21    1.65
 -13  -3   3   16.97    1.49
  13  -3  -3   18.49    2.34
  13   3  -3   19.91    1.58
 -13   3   3   17.69    1.75
 -13   3   3   18.01    1.02
 -13   3   3   19.37    1.58
  11  -3  -3   56.52    2.25
  11  -3  -3   57.43    1.94
 -11  -3   3   56.32    2.44
 -11   3   3   50.79    1.95
 -11   3   3   55.25    2.39
 -11   3   3   59.12    2.26
   9  -3  -3   35.94    1.48
  -9  -3   3   34.76    1.46
   9  -3  -3   32.65    1.55
  -9  -3   3   35.89    1.91
  -9   3   3   33.58    1.00
  -9   3   3   32.36    1.58
   9   3  -3   33.69    1.67
  -9   3   3   34.17    1.65
  -9   3   3   32.29    1.03
   7  -3  -3   45.43    1.79
  -7  -3   3   48.35    1.84
  -7  -3   3   46.02    1.63
  -7   3   3   48.99    1.84
   7   3  -3   48.36    1.82
   5  -3  -3   73.17    2.36
  -5  -3   3   74.35    2.10
  -5  -3   3   71.13    2.31
  -5   3   3   73.59    2.34
   5   3  -3   72.66    2.27
  -5   3   3   72.03    1.86
   5   3  -3   72.94    2.42
   3  -3  -3   82.96    2.54
  -3  -3   3   82.27    2.61
  -3   3   3   83.38    2.55
   3   3  -3   84.36    2.68
   3   3  -3   84.77    2.38
   1  -3  -3  207.84    5.36
   1  -3  -3  200.12    5.11
  -1  -3   3  204.10    5.16
  -1  -3   3  212.53    4.86
  -1  -3   3  211.61    4.88
   1   3  -3  207.62    5.03
  -1   3   3  207.49    5.35
   1   3  -3  198.38    5.49
   1   3  -3  210.02    5.10
   1  -3   3   44.56    1.14
   1  -3   3   45.22    1.38
  -1  -3  -3   45.81    1.65
  -1  -3  -3   45.59    1.56
  -1  -3  -3   44.69    1.59
  -1   3  -3   44.48    1.77
   1   3   3   44.87    1.67
  -3  -3  -3   56.22    1.95
  -3  -3  -3   55.67    1.91
   3  -3   3   55.72    1.56
  -3  -3  -3   58.01    1.93
  -3   3  -3   54.67    2.04
  -3   3  -3   58.00    1.52
  -3   3  -3   55.89    2.03
   3   3   3   59.65    1.99
  -5  -3  -3  121.81    3.39
  -5  -3  -3  120.97    3.63
  -5  -3  -3  116.28    3.52
  -5  -3  -3  119.76    3.43
   5  -3   3  115.05    2.91
  -5   3  -3  117.04    3.03
  -5   3  -3  117.06    3.46
  -5   3  -3  114.73    3.33
   5   3   3  120.03    3.44
  -7  -3  -3   62.42    2.36
  -7  -3  -3   58.31    2.05
  -7  -3  -3   61.90    2.64
  -7  -3  -3   47.90    2.47
   7  -3   3   58.16    1.61
   7   3   3   60.31    2.16
  -7   3  -3   59.56    2.11
  -7   3  -3   59.54    1.85
  -7   3  -3   60.77    2.08
  -9  -3  -3   27.30    1.62
  -9  -3  -3   25.92    1.35
  -9  -3  -3   19.67    1.93
  -9   3  -3   27.11    1.30
   9   3   3   26.29    1.67
  -9   3  -3   29.65    1.54
  11  -3   3   37.85    1.43
 -11  -3  -3   38.62    2.21
 -11  -3  -3   39.10    2.01
 -11  -3  -3   39.31    2.00
 -11  -3  -3   39.04    1.71
 -11   3  -3   39.17    1.88
  11   3   3   38.51    1.91
 -11   3  -3   38.18    1.73
 -13  -3  -3   12.00    1.19
 -13  -3  -3   11.98    1.46
 -13  -3  -3   12.30    1.65
 -13  -3  -3   11.37    1.48
 -13   3  -3   12.13    1.55
 -13   3  -3    9.83    1.59
  13   3   3   11.14    1.44
 -15  -3  -3   20.54    1.66
 -15  -3  -3   18.88    2.09
 -15  -3  -3   16.56    1.76
 -15   3  -3   19.38    1.73
 -15   3  -3   18.45    1.95
  15   3   3   18.93    1.82
 -17  -3  -3    7.03    1.64
 -17  -3  -3    9.29    1.59
  17   3   3    7.01    1.43
 -17   3  -3   11.77    1.64
 -17   3  -3    8.87    1.47
 -18  -4   3    4.34    1.50
  18  -4  -3    5.88    1.59
 -18  -4   3    4.00    1.30
 -18   4   3    6.77    1.57
  18   4  -3    1.70    1.30
 -18   4   3    5.08    1.34
 -16  -4   3    4.34    1.15
 -16  -4   3    5.81    1.41
  16  -4  -3    3.11    1.25
 -16   4   3    8.28    1.32
 -16   4   3    5.17    1.37
  16   4  -3    4.32    1.20
 -14  -4   3   19.51    1.60
 -14  -4   3   21.25    1.80
  14  -4  -3   21.92    1.31
  14  -4  -3   20.77    1.82
 -14   4   3   21.00    1.79
 -14   4   3   20.09    1.88
  14   4  -3   19.94    1.80
 -12  -4   3   13.22    1.40
  12  -4  -3   14.37    1.56
 -12  -4   3   16.11    1.38
  12  -4  -3   15.66    1.22
 -12   4   3   12.26    1.43
 -12   4   3   12.37    1.50
  12   4  -3   15.58    1.47
  10  -4  -3   14.59    1.29
 -10  -4   3   12.53    1.33
 -10  -4   3   11.13    1.04
 -10   4   3   11.19    1.30
 -10   4   3   10.50    1.26
  10   4  -3   11.72    1.34
   8  -4  -3   45.18    2.10
  -8  -4   3   45.84    2.00
  -8  -4   3   44.10    1.65
   8   4  -3   46.58    1.99
  -8   4   3   45.41    1.98
  -8   4   3   43.28    1.89
  -6  -4   3   86.54    2.83
   6  -4  -3   86.97    2.84
  -6  -4   3   90.02    2.48
  -6   4   3   89.37    2.87
   6   4  -3   86.54    2.79
  -4  -4   3   26.42    1.27
  -4  -4   3   24.53    0.88
   4  -4  -3   24.76    0.81
   4  -4  -3   24.76    1.28
   4   4  -3   25.69    1.19
  -4   4   3   25.13    1.32
   2  -4  -3   71.13    2.37
   2  -4  -3   70.10    1.98
  -2  -4   3   70.20    1.72
  -2  -4   3   69.12    2.22
   2   4  -3   70.90    2.11
  -2   4   3   70.27    2.38
   0  -4  -3   53.98    2.04
   0  -4  -3   60.04    1.85
   0  -4   3   59.14    1.86
   0   4  -3   59.52    1.68
   0   4  -3   59.51    1.77
   0   4   3   55.46    2.07
  -2  -4  -3   75.04    2.51
  -2  -4  -3   76.30    2.40
   2  -4   3   75.65    2.28
  -2  -4  -3   75.39    2.38
   2   4   3   74.17    2.54
  -4  -4  -3   66.53    2.37
  -4  -4  -3   68.58    2.30
   4  -4   3   67.48    1.96
  -4  -4  -3   67.41    2.69
  -6  -4  -3   29.63    1.63
  -6  -4  -3   29.41    1.48
  -6  -4  -3   28.12    1.54
   6  -4   3   28.36    1.09
  -6   4  -3   28.36    1.03
   6   4   3   29.11    1.62
  -6   4  -3   29.02    1.44
  -8  -4  -3   21.48    1.70
  -8  -4  -3   23.71    1.78
  -8  -4  -3   23.86    1.58
   8  -4   3   24.17    1.08
  -8   4  -3   25.37    1.46
  -8   4  -3   26.71    1.13
 -10  -4  -3   38.37    2.22
 -10  -4  -3   43.18    2.02
 -10  -4  -3   38.68    2.19
 -10  -4  -3   40.34    2.04
  10  -4   3   40.04    1.47
 -10   4  -3   42.65    1.90
  10   4   3   38.97    2.12
 -10   4  -3   38.07    1.63
 -12  -4  -3   11.77    1.49
 -12  -4  -3   13.68    1.42
 -12  -4  -3   14.58    1.70
 -12  -4  -3   13.58    1.69
 -12   4  -3   12.06    1.46
  12   4   3   11.66    1.53
 -14  -4  -3    6.94    1.38
 -14  -4  -3    7.42    1.16
 -14  -4  -3    5.16    1.34
 -14  -4  -3    6.85    1.62
 -14   4  -3    4.90    1.38
  14   4   3    5.15    1.26
 -14   4  -3    8.24    1.28
 -16  -4  -3    8.98    1.81
 -16  -4  -3    9.09    1.66
 -16  -4  -3   10.63    1.39
 -16   4  -3    8.48    1.42
  16   4   3    8.88    1.60
 -17  -5   3    4.12    1.31
 -17  -5   3    3.81    1.60
  17  -5  -3    1.58    1.46
  17   5  -3    2.33    1.35
 -17   5   3    2.07    1.34
 -15  -5   3    4.23    1.33
  15  -5  -3    0.86    1.18
 -15  -5   3    4.73    1.14
  15  -5  -3    6.12    1.00
 -15   5   3    3.02    1.19
 -15   5   3    2.39    1.20
  15   5  -3    4.34    1.19
  13  -5  -3    6.77    1.31
 -13  -5   3    4.26    1.04
 -13  -5   3    8.58    1.33
  13  -5  -3    9.13    1.22
 -13   5   3    7.60    1.43
 -13   5   3    7.99    1.25
  13   5  -3    3.77    1.10
 -11  -5   3   18.94    1.35
  11  -5  -3   18.59    1.59
 -11  -5   3   18.81    1.63
 -11   5   3   18.56    1.66
  11   5  -3   18.16    1.66
 -11   5   3   20.31    1.71
  -9  -5   3   12.76    1.43
  -9  -5   3    9.92    0.97
   9  -5  -3   12.41    1.35
  -9   5   3   11.22    1.42
   9   5  -3   11.37    1.33
  -9   5   3   13.02    1.40
  -7  -5   3   13.53    0.89
  -7  -5   3   17.41    1.48
   7   5  -3   14.59    1.39
  -7   5   3   16.84    1.47
  -5  -5   3   21.10    0.91
  -5  -5   3   22.31    1.42
   5  -5  -3   23.49    1.52
  -5   5   3   22.85    1.48
   3  -5  -3   22.04    0.84
  -3  -5   3   22.33    0.68
   3  -5  -3   20.81    1.40
  -3  -5   3   22.97    1.31
  -3   5   3   22.77    1.47
   3   5  -3   22.73    1.23
  -1  -5   3   48.98    1.86
   1  -5  -3   48.44    2.07
   1  -5  -3   49.86    1.64
  -1   5   3   50.79    2.10
   1   5  -3   47.73    1.72
  -1  -5  -3   14.02    1.45
   1  -5   3   16.14    1.00
  -1  -5  -3   15.49    1.03
   1   5   3   16.45    1.35
  -1   5  -3   16.14    1.01
  -1   5  -3   13.64    0.79
   3  -5   3   18.17    1.04
  -3  -5  -3   18.35    1.40
  -3  -5  -3   17.82    1.37
  -3  -5  -3   16.55    1.19
   3   5   3   17.33    1.44
  -5  -5  -3   30.44    1.82
   5  -5   3   33.62    1.34
  -5  -5  -3   31.95    1.71
  -5  -5  -3   34.88    1.82
   5   5   3   32.13    1.88
  -7  -5  -3   15.11    1.40
   7  -5   3   17.95    1.01
  -7  -5  -3   16.12    1.60
  -7  -5  -3   18.03    1.49
   7   5   3   19.54    1.63
  -9  -5  -3   10.37    1.27
   9  -5   3    7.57    0.91
  -9  -5  -3    7.60    1.59
  -9  -5  -3   10.33    1.27
  -9  -5  -3    7.74    1.25
  -9   5  -3    7.71    0.88
 -11  -5  -3   15.04    1.50
 -11  -5  -3   13.11    1.89
 -11  -5  -3   11.44    1.53
 -11  -5  -3   13.73    1.53
  11   5   3   12.55    1.59
 -11   5  -3   13.24    1.62
 -11   5  -3   13.44    1.40
 -13  -5  -3    5.51    1.65
 -13  -5  -3    4.13    1.13
 -13  -5  -3    2.54    1.07
 -13  -5  -3    2.05    1.21
  13   5   3    2.58    1.10
 -14  -6   3    5.42    1.48
 -14  -6   3    3.49    1.13
  14  -6  -3    3.56    1.46
  14  -6  -3    7.44    1.50
 -14   6   3    7.02    1.37
 -14   6   3    3.91    1.33
  14   6  -3    6.28    1.47
  12  -6  -3    3.75    1.20
 -12  -6   3    2.46    1.14
 -12  -6   3    5.22    1.08
 -12   6   3    3.64    1.45
  12   6  -3    2.57    1.16
 -12   6   3    4.72    1.21
 -10  -6   3    4.81    1.03
  10  -6  -3    3.13    1.03
 -10  -6   3    4.25    1.12
  10   6  -3    4.34    1.14
 -10   6   3    2.96    1.12
 -10   6   3    2.86    1.07
  -8  -6   3    7.56    0.87
  -8  -6   3    8.72    1.24
   8  -6  -3    7.86    1.22
  -8   6   3   10.64    1.28
  -8   6   3    9.00    1.25
   8   6  -3   10.03    1.31
  -6  -6   3   15.89    0.90
   6  -6  -3   15.14    1.53
  -6  -6   3   17.51    1.58
  -6   6   3   17.05    1.58
   6   6  -3   13.31    1.46
   4  -6  -3    4.70    0.99
  -4  -6   3    6.11    1.09
  -4   6   3    6.03    1.13
   2  -6  -3   14.59    1.45
  -2  -6   3   13.06    1.30
   2   6  -3   15.62    1.80
  -2   6   3   16.25    1.47
   0  -6  -3    9.67    1.26
   0  -6  -3   10.08    0.96
   0   6   3   12.94    1.33
   0   6  -3   11.56    0.95
  -2  -6  -3   14.04    1.17
  -2  -6  -3   12.34    1.34
   2  -6   3   14.16    1.13
  -2   6  -3   12.26    1.06
   2   6   3   11.82    1.36
  -4  -6  -3   14.01    1.39
  -4  -6  -3   13.13    1.32
  -4  -6  -3   11.76    1.43
   4  -6   3   14.63    1.11
   4   6   3   13.39    1.46
  -6  -6  -3    4.24    1.06
   6  -6   3    6.37    0.87
  -6  -6  -3    6.54    1.21
  -6  -6  -3    4.10    1.07
   6   6   3    7.26    1.27
   8  -6   3    8.98    1.11
  -8  -6  -3    5.36    1.12
  -8  -6  -3    6.91    1.23
  -8  -6  -3    5.10    1.16
   8   6   3    5.12    1.28
 -10  -6  -3    8.15    1.77
 -10  -6  -3    7.69    1.39
 -10  -6  -3    8.61    1.38
 -10  -6  -3   11.06    1.39
  10   6   3    9.96    1.62
 -12  -6  -3    1.32    1.13
 -12  -6  -3    2.19    1.74
 -12  -6  -3    1.58    1.15
 -12  -6  -3    2.82    1.32
  12   6   3    3.30    1.66
 -13  -7   3    2.78    1.60
  13  -7  -3    0.54    1.42
 -13  -7   3    2.65    1.17
  13   7  -3   -0.50    1.23
 -13   7   3    4.77    1.45
  11  -7  -3    4.40    1.41
 -11  -7   3    2.34    1.37
 -11   7   3    6.68    2.26
 -11   7   3    3.97    1.33
   9  -7  -3    2.49    1.17
  -9  -7   3    2.80    1.21
  -9   7   3    4.52    1.26
  -9   7   3    3.75    1.31
   9   7  -3    4.02    1.33
  -7  -7   3    6.67    1.31
   7  -7  -3    6.63    1.32
  -7   7   3    6.83    1.31
   7   7  -3    6.60    1.27
  -7   7   3    5.87    1.19
  -5  -7   3    6.64    1.20
   5  -7  -3    7.42    1.35
   5   7  -3    7.92    1.21
  -5   7   3    6.47    1.28
  -3  -7   3    5.64    1.09
   3  -7  -3    5.67    1.19
  -3   7   3    8.25    1.34
   3   7  -3    6.91    1.15
   1  -7  -3   10.34    1.43
  -1  -7   3   12.06    1.48
   1  -7  -3   13.13    1.02
   1   7  -3   11.19    1.30
  -1   7   3   10.43    1.42
  -1  -7  -3    7.11    0.91
  -1  -7  -3    5.09    1.13
   1  -7   3    5.62    1.14
  -1   7  -3    4.63    0.83
   1   7   3    3.94    1.14
  -3  -7  -3    5.52    1.13
  -3  -7  -3    4.62    1.06
   3   7   3    4.17    1.17
  -5  -7  -3    7.87    1.27
  -5  -7  -3    6.73    1.28
  -5  -7  -3    7.85    1.25
   5  -7   3    8.10    1.20
   5   7   3    8.73    1.57
  -7  -7  -3    3.71    1.22
  -7  -7  -3    4.07    1.20
  -7  -7  -3    4.40    1.15
   7  -7   3    5.15    1.11
   7   7   3    5.54    1.47
  -9  -7  -3    3.13    1.18
  -9  -7  -3    4.54    1.30
  -9  -7  -3    3.69    1.36
   9   7   3   -1.04    1.33
  -8  -8   3    3.00    1.51
   8  -8  -3    2.33    1.45
  -8   8   3    3.28    1.37
   8   8  -3    3.71    1.47
  -6  -8   3    3.14    1.34
   6  -8  -3    2.85    1.41
   6   8  -3    2.66    1.35
  -6   8   3    2.74    1.41
  -4  -8   3    4.11    1.27
   4  -8  -3    2.55    1.26
   4   8  -3    1.51    1.10
  -4   8   3    4.80    1.42
   2  -8  -3    4.79    1.39
  -2  -8   3    4.67    1.42
   2   8  -3    3.89    1.06
  -2   8   3    3.60    1.27
   0  -8  -3    3.27    1.25
   0  -8   3    6.78    1.46
   0   8   3    5.64    1.35
   0   8  -3    2.13    1.44
  -2  -8  -3    3.97    1.36
   2  -8   3    2.73    1.23
   2   8   3    3.99    1.40
   4  -8   3    5.35    1.27
  -4  -8  -3    3.18    1.31
  -4  -8  -3    2.58    1.20
   4   8   3    3.14    1.36
   6  -8   3    2.90    1.30
  -6  -8  -3    1.01    1.28
  -6  -8  -3    1.25    1.31
   6   8   3    2.54    1.51
 -20   0   4   14.87    1.86
  20   0  -4   12.89    1.90
 -20   0   4   11.32    1.84
 -18   0   4   25.42    2.00
 -18   0   4   23.39    1.99
  18   0  -4   22.21    1.99
 -16   0   4    6.31    1.23
 -16   0   4    6.82    1.17
  16   0  -4    7.49    1.26
 -14   0   4   38.08    2.04
  14   0  -4   34.36    1.25
 -14   0   4   37.13    1.96
  14   0  -4   35.58    2.03
  12   0  -4  103.63    2.86
 -12   0   4  103.08    3.38
 -12   0   4  103.66    3.44
  12   0  -4  100.00    4.23
 -10   0   4   76.42    2.64
  10   0  -4   76.56    2.31
  10   0  -4   77.79    2.66
 -10   0   4   76.41    2.65
   8   0  -4  142.78    4.10
  -8   0   4  146.14    4.09
   8   0  -4  141.85    3.95
  -8   0   4  146.32    4.11
   6   0  -4   65.79    2.20
   6   0  -4   67.22    2.15
  -6   0   4   68.73    2.22
  -4   0   4  238.44    6.13
   4   0  -4  248.43    6.27
   4   0  -4  249.05    6.15
   2   0  -4  342.38    8.50
   2   0  -4  354.08    8.65
  -2   0   4  351.51    8.35
   2   0  -4  342.82    8.33
   0   0  -4  195.18    5.32
   0   0   4  204.37    4.94
   0   0  -4  195.06    5.19
   0   0  -4  216.31    4.92
  -2   0  -4   44.90    1.53
  -2   0  -4   45.16    1.75
  -2   0  -4   44.69    1.64
   2   0   4   45.91    1.29
  -4   0  -4  212.41    5.64
   4   0   4  217.46    5.17
  -4   0  -4  216.98    5.65
  -4   0  -4  213.80    5.50
  -6   0  -4   89.90    2.70
  -6   0  -4   89.83    2.75
  -6   0  -4   93.48    2.88
   6   0   4   79.60    2.66
  -8   0  -4   68.29    2.40
  -8   0  -4   66.71    2.30
   8   0   4   72.27    2.02
 -10   0  -4   31.68    1.47
  10   0   4   32.35    1.28
 -10   0  -4   28.13    2.02
 -10   0  -4   32.67    1.73
 -12   0  -4   19.36    1.20
 -12   0  -4   17.49    1.72
  12   0   4   17.79    1.11
 -12   0  -4   17.61    1.47
 -14   0  -4   23.88    1.77
  14   0   4   18.35    1.36
 -14   0  -4   24.81    2.01
 -16   0  -4   12.92    1.93
 -16   0  -4   11.43    1.53
  21  -1  -4    1.05    1.60
 -21  -1   4    3.58    1.65
 -21  -1   4    0.75    1.72
 -21  -1   4   -1.81    1.42
 -21   1   4    2.85    1.55
  21   1  -4    2.19    1.37
 -21   1   4    3.92    1.44
 -21   1   4    0.46    1.27
  19  -1  -4   12.08    1.73
 -19  -1   4   12.79    1.70
 -19  -1   4    8.97    1.59
  19   1  -4    9.23    1.70
 -19   1   4   12.04    1.60
 -19   1   4    8.35    1.48
 -19   1   4   12.24    1.63
 -17  -1   4   19.07    1.83
  17  -1  -4   20.49    1.84
 -17  -1   4   20.72    1.85
 -17   1   4   21.74    1.92
  17   1  -4   22.39    1.83
 -17   1   4   18.91    1.70
 -15  -1   4   19.48    1.57
 -15  -1   4   18.76    1.63
  15  -1  -4   17.94    1.62
 -15   1   4   18.75    1.66
 -15   1   4   18.18    1.55
  15   1  -4   16.23    1.60
  13  -1  -4   77.91    3.07
  13  -1  -4   75.12    2.53
 -13  -1   4   80.44    3.02
 -13  -1   4   79.36    2.97
 -13   1   4   79.02    2.96
  13   1  -4   79.22    2.35
 -13   1   4   77.85    3.39
 -11  -1   4   10.73    1.07
  11  -1  -4   11.90    0.82
 -11  -1   4   11.62    1.09
 -11   1   4   13.64    1.34
 -11   1   4   15.99    2.12
  11   1  -4   10.72    0.82
  11   1  -4   11.20    1.09
  -9  -1   4   80.30    2.63
   9  -1  -4   78.64    2.65
   9  -1  -4   78.93    2.39
  -9  -1   4   80.26    2.66
   9   1  -4   76.58    2.64
  -9   1   4   78.98    2.64
   9   1  -4   80.47    2.44
  -9   1   4   81.50    2.71
   7  -1  -4  266.68    6.88
  -7  -1   4  268.45    6.85
  -7  -1   4  265.93    6.91
   7  -1  -4  277.31    6.81
   7   1  -4  263.97    6.87
  -7   1   4  270.21    6.91
   7   1  -4  268.28    6.84
   5  -1  -4   80.11    2.54
   5  -1  -4   86.72    2.59
  -5  -1   4   84.71    2.54
   5   1  -4   85.33    2.59
  -5   1   4   82.66    2.54
   5   1  -4   85.27    2.49
  -3  -1   4   74.10    2.20
   3  -1  -4   77.11    2.22
   3  -1  -4   75.31    2.40
   3  -1  -4   75.30    2.25
   3   1  -4   73.62    2.11
  -3   1   4   75.37    2.22
   3   1  -4   73.79    2.40
   1  -1  -4  235.06    5.70
   1  -1  -4  219.56    5.92
  -1  -1   4  221.32    5.59
   1  -1  -4  231.91    5.77
   1   1  -4  232.98    5.40
  -1   1   4  238.40    5.70
   1   1  -4  227.28    5.87
   1   1  -4  227.77    5.95
   1  -1   4   70.96    1.83
  -1  -1  -4   70.10    2.22
  -1  -1  -4   70.92    2.37
  -1  -1  -4   74.26    2.04
  -1  -1  -4   70.25    2.18
  -1   1  -4   70.82    2.35
  -1   1  -4   73.53    2.07
   1   1   4   71.76    2.05
  -1   1  -4   71.23    2.27
  -3  -1  -4  199.60    5.30
  -3  -1  -4  199.90    5.21
  -3  -1  -4  208.20    4.89
  -3  -1  -4  198.91    4.85
  -3  -1  -4  201.88    5.38
  -3   1  -4  201.74    5.07
   3   1   4  202.72    5.02
  -3   1  -4  204.66    5.36
  -3   1  -4  195.32    5.28
  -5  -1  -4   80.05    2.19
  -5  -1  -4   83.13    2.71
  -5  -1  -4   87.09    2.64
  -5  -1  -4   85.27    2.74
  -5  -1  -4   84.52    2.16
  -5   1  -4   86.49    2.69
   5   1   4   83.46    2.36
  -5   1  -4   82.04    2.62
  -5   1  -4   85.63    2.49
  -7  -1  -4    8.07    0.83
  -7  -1  -4    7.92    0.96
   7  -1   4    8.05    0.46
  -7  -1  -4    7.74    0.95
  -7   1  -4    8.43    0.89
  -7   1  -4    9.17    0.85
   7   1   4    8.56    0.66
  -7   1  -4    8.99    0.95
  -9  -1  -4   90.87    2.96
   9  -1   4   93.45    2.48
  -9  -1  -4   95.16    3.29
  -9  -1  -4   95.88    3.17
  -9   1  -4   93.47    3.15
  -9   1  -4   84.94    3.05
   9   1   4   93.74    2.74
  -9   1  -4   91.57    2.84
 -11  -1  -4   31.05    1.54
  11  -1   4   31.70    1.26
 -11  -1  -4   27.39    1.89
 -11  -1  -4   29.04    1.76
 -11   1  -4   31.11    1.47
  11   1   4   32.48    1.46
 -11   1  -4   30.76    2.21
 -13  -1  -4    5.37    1.11
  13  -1   4    7.14    0.83
 -13  -1  -4    7.20    1.27
 -13  -1  -4    8.35    1.03
 -13   1  -4    8.52    1.31
 -13   1  -4    7.96    1.17
  13   1   4    8.05    0.98
 -15  -1  -4   12.97    1.80
 -15  -1  -4   11.51    1.52
 -15   1  -4   14.31    1.64
  15   1   4   12.92    1.57
 -15   1  -4   14.08    1.78
 -17  -1  -4    8.16    1.57
 -17  -1  -4    8.84    1.76
 -17   1  -4    5.24    1.30
 -17   1  -4    8.18    1.79
  17   1   4    8.15    1.44
 -20  -2   4    8.56    1.63
  20  -2  -4    8.38    1.81
  20   2  -4    4.81    1.42
 -20   2   4    5.73    1.53
 -20   2   4    6.53    1.57
 -18  -2   4   16.57    1.86
  18  -2  -4   14.63    1.92
 -18  -2   4   13.80    1.72
  18   2  -4   16.58    1.77
 -18   2   4   18.22    1.85
 -18   2   4   17.33    1.98
 -18   2   4   12.87    1.77
  16  -2  -4    4.10    1.16
 -16  -2   4    5.82    1.17
 -16  -2   4    3.94    1.12
 -16   2   4    4.25    1.00
 -16   2   4    5.43    1.15
 -16   2   4    4.43    1.24
  16   2  -4    5.05    1.17
 -14  -2   4   21.27    1.67
  14  -2  -4   24.84    1.19
 -14  -2   4   21.30    1.65
  14  -2  -4   21.38    1.73
  14   2  -4   21.49    1.68
 -14   2   4   20.07    1.67
 -14   2   4   23.21    1.87
  12  -2  -4   58.70    2.44
  12  -2  -4   63.36    2.02
 -12  -2   4   57.72    2.39
  12   2  -4   60.17    2.10
 -12   2   4   60.63    2.41
  12   2  -4   57.45    2.82
 -12   2   4   63.34    2.61
 -10  -2   4   39.15    1.80
 -10  -2   4   40.97    1.72
  10  -2  -4   38.28    2.44
  10  -2  -4   41.51    1.59
 -10   2   4   39.16    1.85
  10   2  -4   44.53    1.89
  10   2  -4   41.19    1.63
   8  -2  -4   76.67    2.43
   8  -2  -4   77.03    2.55
  -8  -2   4   72.76    2.42
  -8  -2   4   71.99    2.50
  -8   2   4   76.07    2.55
   8   2  -4   79.57    2.54
   8   2  -4   76.33    2.46
  -6  -2   4   30.24    1.32
  -6  -2   4   27.61    1.22
   6  -2  -4   28.69    1.31
   6  -2  -4   25.01    1.29
   6   2  -4   27.75    1.25
   6   2  -4   28.32    1.34
  -6   2   4   27.57    1.31
  -4  -2   4  111.13    3.05
   4  -2  -4  114.51    3.02
   4  -2  -4  110.66    3.29
   4  -2  -4  116.05    3.25
  -4  -2   4  113.21    3.17
   4   2  -4  108.96    3.30
  -4   2   4  112.88    3.22
   4   2  -4  111.16    3.04
   2  -2  -4  158.32    4.24
   2  -2  -4  149.57    4.37
   2  -2  -4  159.62    4.13
  -2  -2   4  163.73    4.13
  -2   2   4  160.55    4.24
   2   2  -4  159.35    4.43
   2   2  -4  168.39    4.12
   2   2  -4  159.17    3.98
   0  -2  -4   86.12    2.53
   0  -2   4   87.71    2.31
   0  -2  -4   82.98    2.51
   0  -2  -4   86.74    2.77
   0   2  -4   87.53    2.69
   0   2  -4   89.14    2.77
   0   2   4   87.81    2.54
  -2  -2  -4   14.56    0.94
  -2  -2  -4   15.03    1.11
   2  -2   4   16.10    0.57
   2  -2   4   19.45    0.66
  -2  -2  -4   15.23    0.86
  -2  -2  -4   16.11    0.98
  -2   2  -4   17.75    1.07
   2   2   4   15.70    0.89
  -2   2  -4   17.43    0.78
  -2   2  -4   15.19    1.01
  -4  -2  -4  109.44    3.30
  -4  -2  -4  109.04    3.22
  -4  -2  -4  108.95    3.38
  -4  -2  -4  111.54    3.00
  -4   2  -4  109.97    3.30
  -4   2  -4  111.41    2.97
  -4   2  -4  110.59    3.24
   4   2   4  107.40    3.09
  -6  -2  -4   45.93    1.51
  -6  -2  -4   44.95    1.90
  -6  -2  -4   43.37    1.80
  -6  -2  -4   44.97    1.96
  -6   2  -4   45.21    1.85
  -6   2  -4   43.61    1.78
  -6   2  -4   45.55    1.59
   6   2   4   44.58    1.63
  -8  -2  -4   39.41    1.90
  -8  -2  -4   39.17    2.01
  -8  -2  -4   36.63    1.37
  -8  -2  -4   41.16    1.88
  -8   2  -4   40.56    1.81
   8   2   4   38.08    1.59
  -8   2  -4   37.18    1.61
  -8   2  -4   38.85    1.66
 -10  -2  -4   17.19    0.90
 -10  -2  -4   16.44    1.47
  10  -2   4   16.42    0.86
 -10  -2  -4   15.11    1.45
 -10  -2  -4   18.01    1.62
 -10   2  -4   16.47    1.43
  10   2   4   16.31    1.13
 -10   2  -4   15.32    1.47
 -10   2  -4   17.31    1.20
 -12  -2  -4   12.22    1.44
 -12  -2  -4   11.11    1.36
 -12  -2  -4   10.32    1.39
 -12   2  -4    8.95    1.08
 -12   2  -4   11.04    1.36
 -12   2  -4    9.95    1.36
  12   2   4   11.78    1.22
 -14  -2  -4   12.24    1.61
 -14  -2  -4   11.94    1.61
  14   2   4   13.09    1.52
 -14   2  -4   14.37    1.61
 -14   2  -4   15.83    1.83
 -16  -2  -4    7.01    1.50
 -16  -2  -4    7.60    1.49
  16   2   4    8.31    1.44
 -16   2  -4    9.40    1.65
 -16   2  -4    7.98    1.39
 -19  -3   4    9.05    1.81
 -19  -3   4    7.67    1.61
  19  -3  -4    6.48    1.65
  19   3  -4    5.43    1.50
 -19   3   4    6.53    1.57
 -19   3   4    7.25    1.46
  17  -3  -4   11.15    1.68
 -17  -3   4   10.81    1.44
 -17  -3   4   11.27    1.68
  17   3  -4   11.79    1.63
 -17   3   4   14.02    1.59
 -17   3   4   12.37    1.77
 -15  -3   4   12.16    1.51
  15  -3  -4   11.11    0.96
 -15  -3   4    7.43    1.15
  15  -3  -4    9.86    1.42
 -15   3   4   12.25    1.58
 -15   3   4    8.95    1.15
 -15   3   4   11.05    1.41
  15   3  -4   10.22    1.42
 -13  -3   4   42.55    2.22
 -13  -3   4   46.18    2.21
  13  -3  -4   45.70    2.27
  13  -3  -4   46.95    1.81
 -13   3   4   48.17    2.44
 -13   3   4   47.85    2.22
  13   3  -4   46.87    2.31
 -13   3   4   38.09    1.57
 -11  -3   4    8.13    1.15
  11  -3  -4    6.38    1.11
  11  -3  -4    8.46    0.97
  11   3  -4    7.40    1.14
 -11   3   4    7.65    1.09
 -11   3   4    7.26    1.18
  -9  -3   4   41.08    1.69
  -9  -3   4   39.99    1.84
   9  -3  -4   39.33    1.81
   9  -3  -4   43.66    1.75
   9   3  -4   42.20    1.88
   9   3  -4   41.44    1.80
  -9   3   4   38.87    1.88
  -9   3   4   39.75    1.83
  -7  -3   4  124.73    3.41
   7  -3  -4  120.06    3.66
   7  -3  -4  127.50    3.68
  -7  -3   4  123.89    3.65
   7   3  -4  124.14    3.72
  -7   3   4  116.47    3.62
   7   3  -4  123.15    3.59
  -5  -3   4   46.25    1.62
   5  -3  -4   44.41    1.84
   5  -3  -4   42.13    1.73
   5  -3  -4   44.57    1.39
  -5  -3   4   43.19    1.68
  -5   3   4   45.42    1.76
   5   3  -4   44.68    1.61
   5   3  -4   43.55    1.84
  -3  -3   4   43.14    1.35
  -3  -3   4   42.16    1.53
   3  -3  -4   43.37    1.83
   3  -3  -4   41.84    1.67
   3  -3  -4   43.83    1.40
   3   3  -4   43.80    1.81
  -3   3   4   40.46    1.65
   3   3  -4   42.48    1.41
   1  -3  -4  108.14    3.23
   1  -3  -4  113.97    3.48
   1  -3  -4  113.31    3.07
  -1  -3   4  109.10    3.01
   1   3  -4  115.01    3.47
   1   3  -4  113.62    2.77
  -1   3   4  109.88    3.24
   1   3  -4  111.01    2.79
  -1  -3  -4   39.07    1.56
   1  -3   4   39.00    1.24
  -1  -3  -4   39.16    1.50
  -1  -3  -4   39.06    1.80
  -1  -3  -4   38.38    1.53
   1   3   4   37.85    1.57
  -1   3  -4   39.01    1.66
  -1   3  -4   39.15    1.73
  -3  -3  -4  103.51    3.09
  -3  -3  -4  103.19    3.12
  -3  -3  -4  102.61    3.01
   3  -3   4  100.53    2.57
  -3  -3  -4  103.56    3.33
   3   3   4   99.49    3.05
  -3   3  -4   98.62    3.21
  -3   3  -4  102.60    3.18
  -5  -3  -4   49.33    1.81
  -5  -3  -4   48.87    2.02
  -5  -3  -4   49.71    2.17
   5  -3   4   48.60    1.32
  -5   3  -4   49.82    1.59
  -5   3  -4   48.78    1.95
  -5   3  -4   48.43    1.99
   5   3   4   50.88    1.91
  -7  -3  -4    6.70    1.03
   7  -3   4    6.73    0.41
  -7  -3  -4    7.29    0.87
  -7  -3  -4    7.93    1.17
  -7  -3  -4    6.21    1.05
  -7   3  -4    8.38    0.99
  -7   3  -4    6.82    0.97
  -7   3  -4    6.58    0.78
   7   3   4    7.72    0.95
  -9  -3  -4   46.34    2.40
  -9  -3  -4   55.21    1.98
  -9  -3  -4   51.55    2.31
   9  -3   4   53.96    1.54
  -9   3  -4   54.59    1.96
  -9   3  -4   54.37    2.13
   9   3   4   56.76    2.23
  -9   3  -4   50.75    2.58
 -11  -3  -4   16.79    1.24
 -11  -3  -4   18.88    1.55
 -11  -3  -4   19.58    1.80
 -11  -3  -4   14.85    1.64
 -11   3  -4   16.29    1.71
 -11   3  -4   15.22    1.33
  11   3   4   16.36    1.58
 -13  -3  -4    6.51    1.29
 -13  -3  -4    5.96    1.35
 -13  -3  -4    4.99    0.91
 -13  -3  -4    3.81    1.14
 -13   3  -4    5.72    1.30
 -13   3  -4    5.96    1.15
  13   3   4    6.81    1.22
 -15  -3  -4    6.47    1.43
 -15  -3  -4    7.94    1.60
 -15   3  -4    9.53    1.47
  15   3   4    8.85    1.41
 -15   3  -4   10.19    1.46
 -18  -4   4    8.94    1.56
  18  -4  -4    6.47    1.80
 -18  -4   4    7.27    1.69
 -18   4   4    8.92    1.47
 -18   4   4    7.36    1.68
  18   4  -4    6.56    1.64
 -16  -4   4    0.99    1.19
  16  -4  -4    4.10    1.33
 -16  -4   4    2.97    1.06
 -16   4   4    1.58    1.21
  16   4  -4    5.13    1.25
 -16   4   4    1.84    1.14
 -14  -4   4   11.52    1.59
  14  -4  -4   14.34    1.64
 -14  -4   4   13.09    1.45
  14  -4  -4   14.11    1.33
 -14   4   4   10.56    1.51
  14   4  -4   12.71    1.59
 -14   4   4   10.67    1.42
 -12  -4   4   23.41    1.58
  12  -4  -4   25.84    1.81
  12  -4  -4   27.92    1.75
 -12  -4   4   26.08    1.80
 -12   4   4   25.44    1.79
  12   4  -4   24.60    1.75
 -12   4   4   24.18    2.21
 -10  -4   4   19.42    1.59
  10  -4  -4   20.14    1.41
  10  -4  -4   20.01    1.59
 -10  -4   4   20.55    1.29
  10   4  -4   20.11    1.52
 -10   4   4   21.64    1.63
 -10   4   4   19.95    1.61
  -8  -4   4   40.39    1.57
   8  -4  -4   36.12    1.82
  -8  -4   4   39.85    1.89
   8  -4  -4   36.51    1.85
   8   4  -4   39.17    1.88
  -8   4   4   39.43    1.88
  -6  -4   4   21.64    1.30
   6  -4  -4   20.61    1.43
   6  -4  -4   22.16    1.36
  -6  -4   4   22.62    0.99
   6   4  -4   22.07    1.51
   6   4  -4   22.23    1.26
  -6   4   4   20.41    1.37
  -4  -4   4   53.08    1.97
   4  -4  -4   55.06    1.63
  -4  -4   4   54.01    1.58
   4  -4  -4   55.59    2.12
   4   4  -4   56.84    2.30
   4   4  -4   55.59    1.87
  -4   4   4   52.34    2.09
   2  -4  -4   69.85    2.76
   2  -4  -4   68.48    2.08
  -2  -4   4   69.04    2.00
  -2  -4   4   70.41    2.23
  -2  -4   4   70.87    1.79
   2   4  -4   70.52    2.62
   2   4  -4   70.94    2.04
   0  -4  -4   48.95    2.15
   0  -4   4   48.98    1.64
   0  -4  -4   49.62    1.72
   0   4  -4   48.52    2.10
  -2  -4  -4   20.70    1.16
  -2  -4  -4   18.67    1.19
   2  -4   4   18.83    0.89
  -2  -4  -4   16.74    1.21
  -2   4  -4   17.95    1.38
   2   4   4   18.88    1.29
  -4  -4  -4   57.24    2.21
  -4  -4  -4   60.34    2.28
  -4  -4  -4   58.31    2.52
  -4  -4  -4   57.38    2.20
   4  -4   4   54.93    1.70
   4   4   4   58.42    2.28
  -4   4  -4   57.55    2.24
  -6  -4  -4   26.25    1.57
  -6  -4  -4   28.84    1.83
  -6  -4  -4   26.47    1.87
  -6   4  -4   27.96    1.11
   6   4   4   27.11    1.70
  -6   4  -4   27.45    1.60
  -8  -4  -4   25.85    1.82
  -8  -4  -4   25.69    1.94
  -8  -4  -4   25.44    1.64
  -8   4  -4   22.31    1.60
  -8   4  -4   23.37    1.19
 -10  -4  -4    9.31    1.35
 -10  -4  -4   13.79    1.43
 -10  -4  -4   13.21    1.79
 -10  -4  -4   11.84    1.38
 -10   4  -4   12.75    1.13
  10   4   4   10.81    1.35
 -10   4  -4   11.42    1.35
 -12  -4  -4    8.89    1.39
 -12  -4  -4    6.48    1.39
 -12  -4  -4   10.39    1.27
  12   4   4    9.21    1.33
 -12   4  -4    9.38    1.22
 -14  -4  -4    9.37    1.31
 -14  -4  -4    9.64    1.55
 -14  -4  -4    9.21    1.67
 -14   4  -4    7.14    1.51
  14   4   4    7.95    1.43
 -14   4  -4    8.06    1.35
  17  -5  -4    3.76    1.69
 -17  -5   4    3.32    1.55
 -17  -5   4    5.38    1.32
  17   5  -4    3.79    1.40
 -17   5   4    3.83    1.44
 -17   5   4    2.64    1.53
 -15  -5   4    3.19    1.02
  15  -5  -4    3.12    1.07
 -15  -5   4    3.03    1.29
  15  -5  -4    4.49    1.35
  15   5  -4    2.69    1.22
 -15   5   4    3.18    1.16
 -15   5   4    5.45    1.39
 -13  -5   4   15.53    1.52
  13  -5  -4   14.52    1.83
  13  -5  -4   16.62    1.54
 -13  -5   4   12.09    1.60
 -13   5   4   14.36    1.71
 -13   5   4   14.96    1.75
  13   5  -4   12.03    1.56
 -11  -5   4    1.88    0.77
 -11  -5   4    3.47    0.97
  11  -5  -4    2.33    1.03
  11  -5  -4    2.50    0.98
  11   5  -4    5.62    1.11
 -11   5   4    3.83    1.15
  -9  -5   4   10.63    1.41
   9  -5  -4   12.23    1.56
   9  -5  -4   14.35    1.39
  -9  -5   4   12.51    0.99
   9   5  -4   12.45    1.33
  -9   5   4   13.84    1.56
  -9   5   4   11.59    1.48
  -7  -5   4   33.59    1.90
  -7  -5   4   35.72    1.33
   7  -5  -4   33.01    1.85
  -7   5   4   35.28    1.91
   7   5  -4   28.63    2.02
   5  -5  -4   14.16    0.71
  -5  -5   4   11.62    0.68
   5  -5  -4   14.77    1.37
  -5  -5   4   15.10    1.32
  -5   5   4   12.73    1.37
  -3  -5   4   14.52    1.16
   3  -5  -4   14.79    1.37
   3  -5  -4   14.43    0.79
  -3   5   4   14.96    1.39
   3   5  -4   14.50    1.02
   1  -5  -4   32.17    1.35
  -1  -5   4   31.81    1.45
  -1   5   4   31.13    1.78
   1   5  -4   30.93    1.19
   1  -5   4   13.15    0.97
  -1  -5  -4   12.86    1.35
  -1  -5  -4   13.25    1.06
   1   5   4   13.05    1.31
  -3  -5  -4   28.21    1.71
  -3  -5  -4   30.82    1.63
   3  -5   4   26.79    1.22
   3   5   4   26.72    1.78
  -5  -5  -4   16.67    1.46
   5  -5   4   17.52    0.96
  -5  -5  -4   16.03    1.82
  -5  -5  -4   14.70    1.45
   5   5   4   13.63    1.53
  -7  -5  -4    2.75    1.02
  -7  -5  -4    3.84    1.05
   7  -5   4    3.50    0.69
  -7  -5  -4    2.87    0.92
  -7  -5  -4    4.24    1.36
   7   5   4    3.70    1.03
  -9  -5  -4   16.57    1.95
  -9  -5  -4   17.67    1.79
  -9  -5  -4   17.72    1.63
  -9  -5  -4   20.53    1.57
  -9   5  -4   16.34    1.71
   9   5   4   22.90    1.94
 -11  -5  -4    6.32    1.62
 -11  -5  -4    5.97    1.36
 -11  -5  -4    6.52    1.25
 -11  -5  -4    8.39    1.26
 -11   5  -4    5.48    1.37
  11   5   4    6.16    1.42
 -13  -5  -4    4.99    1.50
 -13  -5  -4    0.82    1.59
 -13  -5  -4    2.90    1.18
 -13  -5  -4    2.88    1.18
 -14  -6   4    2.54    1.35
 -14  -6   4    2.37    1.04
  14  -6  -4    3.09    1.22
  14  -6  -4    4.86    1.53
 -14   6   4    2.91    1.40
 -14   6   4    3.29    1.32
  14   6  -4    3.39    1.34
 -12  -6   4    5.67    1.09
 -12  -6   4    4.21    1.26
  12  -6  -4    9.21    1.50
  12  -6  -4    2.17    1.28
 -12   6   4    6.55    1.44
 -12   6   4    7.54    1.37
  12   6  -4    6.05    1.39
 -10  -6   4    3.97    0.80
 -10  -6   4    5.87    1.29
  10  -6  -4    2.66    1.17
  10  -6  -4    5.15    1.14
 -10   6   4    5.67    1.57
  10   6  -4    3.45    1.07
 -10   6   4    2.20    1.11
  -8  -6   4   10.31    1.42
   8  -6  -4    9.16    1.26
  -8  -6   4    7.93    0.80
   8   6  -4    8.94    1.24
  -8   6   4    8.84    1.30
   6  -6  -4    5.00    1.06
  -6  -6   4    5.82    0.59
  -6  -6   4    5.26    1.12
   6   6  -4    5.22    1.09
  -6   6   4    4.86    1.10
   4  -6  -4   12.12    1.44
  -4  -6   4   11.42    1.35
   4  -6  -4    9.35    0.70
   4   6  -4   10.95    1.26
  -4   6   4   13.48    1.48
   2  -6  -4   11.34    1.34
  -2  -6   4   13.93    1.24
   2  -6  -4   13.81    0.90
   2   6  -4   12.47    1.06
  -2   6   4   14.23    1.44
   0  -6   4   10.31    1.23
   0  -6  -4   10.39    1.33
   0  -6  -4   12.56    1.00
   0   6   4   11.98    1.43
   0   6  -4    9.98    0.80
  -2  -6  -4    5.23    1.09
  -2  -6  -4    6.29    1.16
   2  -6   4    6.16    0.86
   2   6   4    5.90    1.10
  -4  -6  -4   11.40    1.45
  -4  -6  -4   11.53    1.32
  -4  -6  -4   11.70    1.56
   4  -6   4   14.20    1.10
   4   6   4   11.64    1.47
  -6  -6  -4    8.57    1.66
  -6  -6  -4    6.07    1.14
  -6  -6  -4    3.98    1.11
   6  -6   4    6.64    0.86
  -6  -6  -4    5.26    1.18
   6   6   4    6.93    1.30
  -8  -6  -4    6.96    1.21
  -8  -6  -4    3.92    1.15
  -8  -6  -4    5.61    1.56
  -8  -6  -4    6.16    1.27
   8   6   4    7.19    1.43
 -10  -6  -4    1.79    1.09
 -10  -6  -4    5.09    1.69
 -10  -6  -4    1.86    1.07
 -10  -6  -4    2.51    1.19
  10   6   4    3.01    1.46
 -12  -6  -4    5.83    1.29
 -12  -6  -4    1.44    1.36
 -13  -7   4    1.53    1.50
  13  -7  -4    1.15    1.39
  13  -7  -4    6.22    1.81
 -13  -7   4    3.99    1.22
 -13   7   4    5.11    1.55
  13   7  -4    3.99    1.41
 -13   7   4    5.52    1.59
 -11  -7   4    1.68    1.32
  11  -7  -4    1.95    1.31
  11  -7  -4    1.24    1.34
 -11   7   4    2.04    1.34
 -11   7   4    1.40    1.39
   9  -7  -4    6.53    1.44
  -9  -7   4    4.56    1.34
  -9   7   4    3.64    1.34
   9   7  -4    4.64    1.32
  -9   7   4    4.13    1.42
  -7  -7   4    7.34    1.29
   7  -7  -4    7.14    1.40
   7   7  -4    8.06    1.34
  -7   7   4    8.14    1.45
   5  -7  -4    5.14    1.25
  -5  -7   4    6.35    1.25
   5   7  -4    5.25    1.14
  -5   7   4    5.07    1.21
   3  -7  -4    6.02    1.32
  -3  -7   4    3.50    1.12
  -3   7   4    4.76    1.17
  -1  -7   4   11.62    1.55
   1  -7  -4    7.89    0.85
   1  -7  -4    9.29    1.43
  -1   7   4    8.19    1.34
   1   7  -4    9.86    1.07
  -1  -7  -4    3.02    1.08
  -1  -7  -4    3.89    0.93
   1  -7   4    2.97    1.07
   1   7   4    3.93    1.18
  -3  -7  -4    7.42    1.31
  -3  -7  -4    7.76    1.24
   3  -7   4    6.64    1.20
   3   7   4    7.21    1.38
   5  -7   4    5.01    1.03
  -5  -7  -4    5.25    1.27
  -5  -7  -4    5.43    1.24
   5   7   4    6.79    1.48
  -7  -7  -4    0.75    1.09
  -7  -7  -4    0.46    1.61
  -7  -7  -4    3.50    1.29
  -7  -7  -4    2.73    1.12
   7   7   4    4.14    1.49
  -9  -7  -4    2.54    1.78
  -9  -7  -4    5.08    1.38
  -9  -7  -4    6.46    1.35
  -9  -7  -4    7.01    1.56
   9   7   4    3.79    1.81
  -8  -8   4    4.54    1.55
   8  -8  -4    1.82    1.58
   8   8  -4    0.50    1.40
  -8   8   4    1.44    1.45
  -6  -8   4    3.66    1.37
   6  -8  -4    2.81    1.37
  -6   8   4    3.37    1.47
   6   8  -4    1.96    1.33
  -4  -8   4    3.49    1.34
   4  -8  -4    1.22    1.36
  -4   8   4    3.53    1.39
   4   8  -4    3.27    1.12
   2  -8  -4    2.78    1.42
  -2  -8   4    4.16    1.39
  -2   8   4    3.56    1.39
   0  -8  -4    1.78    1.26
   0  -8   4    3.29    1.33
   0   8   4    3.81    1.39
  -2  -8  -4    5.40    1.23
   2  -8   4    3.63    1.29
  -2  -8  -4    0.73    1.20
   2   8   4    2.63    1.36
  -4  -8  -4    3.41    1.30
  -4  -8  -4    2.62    1.34
   4  -8   4    1.03    1.23
   4   8   4    1.95    1.44
 -20   0   5    1.03    1.38
  20   0  -5    0.90    1.40
 -20   0   5    3.13    1.46
  18   0  -5   10.21    1.58
 -18   0   5   12.55    1.56
 -18   0   5    9.72    1.58
  16   0  -5    8.45    0.89
 -16   0   5    8.52    1.25
 -16   0   5   10.27    1.46
  16   0  -5   11.11    1.48
  14   0  -5   13.41    0.95
 -14   0   5   14.80    1.49
  14   0  -5   14.22    1.52
 -14   0   5   14.32    1.52
 -12   0   5   13.08    1.29
  12   0  -5   13.35    0.95
  10   0  -5   10.33    0.85
 -10   0   5    9.64    1.01
  10   0  -5    9.35    1.07
 -10   0   5    9.89    1.05
  -8   0   5   85.03    2.86
   8   0  -5   91.26    2.90
   8   0  -5   91.69    2.79
  -6   0   5   57.20    2.07
   6   0  -5   59.68    2.07
   6   0  -5   59.83    2.12
   4   0  -5    7.69    0.82
   4   0  -5    6.70    0.83
   4   0  -5    7.55    0.70
  -4   0   5    6.28    0.71
  -2   0   5   79.21    2.44
   2   0  -5   82.25    2.55
   2   0  -5   81.45    2.30
   2   0  -5   78.37    2.67
   0   0   5   56.89    1.73
   0   0  -5   56.96    2.18
   0   0  -5   60.27    2.07
   0   0  -5   60.63    1.57
   0   0  -5   60.36    1.59
  -2   0  -5   38.31    1.46
  -2   0  -5   34.03    1.52
   2   0   5   39.09    1.19
  -2   0  -5   34.90    1.64
   4   0   5   54.37    1.74
  -4   0  -5   61.35    2.03
  -4   0  -5   56.29    2.20
  -4   0  -5   60.16    2.16
   6   0   5   14.85    0.72
  -6   0  -5   16.09    1.44
  -6   0  -5   13.46    1.07
  -6   0  -5   13.87    1.18
   8   0   5   13.14    0.76
  -8   0  -5   12.50    1.42
  -8   0  -5   12.34    1.22
  -8   0  -5   11.62    1.18
 -10   0  -5   43.91    1.94
  10   0   5   43.52    1.59
 -10   0  -5   45.41    2.14
 -10   0  -5   45.59    2.33
 -12   0  -5    6.09    1.05
 -12   0  -5    3.43    1.13
  12   0   5    5.99    1.12
 -12   0  -5    4.79    1.04
 -14   0  -5    8.50    1.61
 -14   0  -5    6.41    1.27
 -16   0  -5    8.77    1.65
 -16   0  -5   10.05    1.85
 -19  -1   5    7.10    1.53
  19  -1  -5    5.71    1.53
 -19  -1   5    5.23    1.33
 -19   1   5    6.74    1.47
 -19   1   5    8.30    1.45
  19   1  -5    6.74    1.46
 -17  -1   5    1.39    1.04
  17  -1  -5    0.08    0.98
 -17  -1   5    0.35    0.93
 -17   1   5    0.45    0.93
  17   1  -5    1.48    0.93
 -17   1   5    1.24    1.06
 -15  -1   5    7.62    1.26
  15  -1  -5    9.92    1.39
 -15  -1   5    6.76    1.20
  15  -1  -5    6.95    0.85
 -15   1   5    5.71    1.19
  15   1  -5    5.89    1.15
  15   1  -5    7.85    0.88
 -15   1   5    7.36    1.21
 -13  -1   5   29.73    1.87
  13  -1  -5   29.37    1.82
  13  -1  -5   30.51    1.33
 -13  -1   5   30.49    1.83
  13   1  -5   27.84    1.83
 -13   1   5   26.64    1.85
 -13   1   5   29.06    1.83
  13   1  -5   29.52    1.37
  11  -1  -5   21.24    1.16
  11  -1  -5   19.50    1.44
 -11  -1   5   21.96    1.49
 -11  -1   5   21.62    1.41
 -11   1   5   20.77    1.42
  11   1  -5   21.46    1.48
  11   1  -5   20.44    1.17
 -11   1   5   21.90    1.48
   9  -1  -5   10.88    1.05
  -9  -1   5   13.67    1.12
  -9  -1   5   11.10    1.02
   9  -1  -5   13.49    0.97
   9   1  -5   12.81    0.95
   9   1  -5   12.27    1.06
  -9   1   5   13.55    1.05
  -9   1   5   12.20    1.05
  -7  -1   5   37.60    1.58
   7  -1  -5   37.49    1.60
  -7  -1   5   36.65    1.59
   7  -1  -5   37.89    1.63
  -7   1   5   37.77    1.63
   7   1  -5   37.11    1.56
   7   1  -5   36.16    1.59
   5  -1  -5   12.45    1.02
  -5  -1   5   13.80    0.93
   5  -1  -5   14.03    0.93
   5  -1  -5   13.13    0.98
   5   1  -5   12.80    1.04
   5   1  -5   12.11    0.84
  -5   1   5   11.82    0.93
   3  -1  -5   91.26    2.78
   3  -1  -5   97.67    3.03
  -3  -1   5   92.56    2.72
   3  -1  -5   94.86    2.75
   3   1  -5   95.49    2.96
   3   1  -5   93.74    2.58
  -3   1   5   93.98    2.75
   3   1  -5   95.50    3.02
   1  -1  -5   35.15    1.34
  -1  -1   5   36.88    1.24
   1  -1  -5   35.96    1.65
   1  -1  -5   37.25    1.49
   1   1  -5   36.19    1.66
  -1   1   5   37.13    1.34
   1   1  -5   36.76    1.57
  -1  -1  -5   11.12    0.69
  -1  -1  -5    9.37    0.84
   1  -1   5   11.27    0.55
  -1  -1  -5   10.30    0.85
  -1  -1  -5   10.24    1.03
   1   1   5   10.09    0.68
  -1   1  -5   10.05    1.01
  -1   1  -5   10.74    0.94
  -3  -1  -5   38.80    1.81
   3  -1   5   41.56    1.15
  -3  -1  -5   41.22    1.65
  -3  -1  -5   40.91    1.70
  -3  -1  -5   42.39    1.22
  -3  -1  -5   40.61    1.18
  -3   1  -5   39.70    1.51
  -3   1  -5   42.10    1.80
  -3   1  -5   41.62    1.75
   3   1   5   42.29    1.43
   5  -1   5   40.52    1.10
  -5  -1  -5   39.75    1.83
  -5  -1  -5   38.89    1.85
  -5  -1  -5   41.52    1.74
  -5   1  -5   40.91    1.77
  -5   1  -5   39.48    1.59
  -5   1  -5   38.35    1.74
  -7  -1  -5   11.89    1.29
   7  -1   5   11.77    0.56
  -7  -1  -5   10.33    1.17
  -7  -1  -5   11.34    1.25
  -7   1  -5   10.42    1.23
  -7   1  -5   11.33    1.02
  -7   1  -5   11.70    1.13
   7   1   5   10.22    0.83
  -9  -1  -5   23.76    1.63
  -9  -1  -5   23.80    1.57
  -9  -1  -5   23.49    1.74
   9  -1   5   22.87    0.94
  -9   1  -5   21.42    1.80
  -9   1  -5   23.46    1.53
  -9   1  -5   23.86    1.45
   9   1   5   24.74    1.20
 -11  -1  -5    6.58    1.17
 -11  -1  -5    8.20    1.09
 -11  -1  -5    7.53    1.24
 -11   1  -5    6.84    1.28
 -11   1  -5    9.26    1.09
  11   1   5    7.03    0.88
 -11   1  -5    8.05    1.19
 -13  -1  -5    5.40    1.10
 -13  -1  -5    4.82    1.10
 -13  -1  -5    3.70    1.12
 -13   1  -5    6.41    1.36
 -13   1  -5    5.94    1.18
  13   1   5    5.47    0.97
 -15  -1  -5   14.91    2.02
 -15  -1  -5   14.34    1.77
 -15   1  -5   13.03    1.88
 -15   1  -5   13.80    1.73
 -20  -2   5    1.74    1.19
 -20  -2   5    3.31    1.53
  20  -2  -5    1.01    1.56
  20   2  -5    0.55    1.26
 -20   2   5    3.38    1.41
 -20   2   5    0.45    1.36
 -18  -2   5    8.98    1.49
 -18  -2   5    6.09    1.44
  18  -2  -5    9.91    1.59
 -18   2   5    4.99    1.38
 -18   2   5    9.56    1.41
  18   2  -5    4.97    1.29
 -18   2   5    7.81    1.57
 -16  -2   5    7.09    1.19
  16  -2  -5    8.73    1.43
 -16  -2   5    8.01    1.35
  16   2  -5    7.81    1.28
 -16   2   5    8.09    1.36
 -16   2   5    7.80    1.42
 -14  -2   5    9.09    1.21
  14  -2  -5   13.00    0.97
  14  -2  -5   11.31    1.49
 -14  -2   5    7.87    1.30
 -14   2   5   12.64    1.47
 -14   2   5   12.49    1.58
  14   2  -5    9.31    1.07
  14   2  -5    8.70    1.30
  12  -2  -5    9.26    0.96
 -12  -2   5    9.91    1.25
 -12  -2   5   10.84    1.41
  12  -2  -5   10.87    1.36
 -12   2   5   10.35    2.23
  12   2  -5    9.79    1.01
  12   2  -5    8.94    1.23
 -12   2   5    9.08    1.25
 -10  -2   5    7.06    0.99
 -10  -2   5    8.32    1.00
  10  -2  -5    6.72    0.88
  10  -2  -5    5.97    0.93
  10   2  -5    7.35    0.94
 -10   2   5    6.09    1.15
 -10   2   5    6.06    1.02
  10   2  -5    7.24    1.05
   8  -2  -5   55.83    2.86
  -8  -2   5   53.97    2.12
   8  -2  -5   54.35    2.07
  -8  -2   5   54.59    2.04
   8   2  -5   54.81    2.12
  -8   2   5   53.86    3.02
   8   2  -5   51.38    2.03
  -6  -2   5   30.63    1.44
  -6  -2   5   32.56    1.41
   6  -2  -5   32.67    1.55
   6  -2  -5   34.46    1.53
  -6   2   5   34.35    1.52
   6   2  -5   31.59    1.54
   6   2  -5   33.87    1.40
   4  -2  -5    3.33    0.65
   4  -2  -5    1.79    0.63
  -4  -2   5    3.82    0.59
   4  -2  -5    3.90    0.56
  -4   2   5    3.40    0.65
   4   2  -5    3.27    0.67
   4   2  -5    3.55    0.53
  -2  -2   5   43.83    1.52
   2  -2  -5   44.15    1.65
   2  -2  -5   45.68    1.89
   2  -2  -5   45.89    1.63
   2   2  -5   44.80    1.26
  -2   2   5   41.62    1.63
   2   2  -5   44.06    1.86
   2   2  -5   45.97    1.30
   0  -2  -5   29.93    1.31
   0  -2  -5   28.74    1.24
   0  -2  -5   26.84    1.46
   0  -2   5   31.22    1.09
   0   2   5   28.68    1.22
   0   2  -5   30.39    1.48
   0   2  -5   28.49    1.47
  -2  -2  -5   19.34    1.30
   2  -2   5   19.23    0.71
  -2  -2  -5   20.00    0.97
  -2  -2  -5   18.62    1.14
  -2  -2  -5   20.35    1.17
   2   2   5   19.66    1.05
  -2   2  -5   17.67    1.21
  -2   2  -5   18.94    1.25
  -4  -2  -5   34.38    1.65
  -4  -2  -5   33.05    1.85
  -4  -2  -5   32.67    1.76
  -4  -2  -5   36.10    1.31
  -4   2  -5   35.59    1.36
   4   2   5   35.63    1.42
  -4   2  -5   35.54    1.68
  -4   2  -5   36.27    1.68
  -6  -2  -5    9.52    1.12
  -6  -2  -5    8.03    1.18
  -6  -2  -5    9.14    0.72
  -6  -2  -5    6.83    1.00
  -6   2  -5    9.81    1.11
  -6   2  -5    9.02    1.30
   6   2   5    9.13    0.88
  -6   2  -5    8.22    0.91
  -8  -2  -5    8.62    1.28
  -8  -2  -5    7.43    0.73
  -8  -2  -5   10.64    1.36
  -8  -2  -5    7.50    1.14
  -8   2  -5    8.37    1.01
  -8   2  -5    9.07    1.23
   8   2   5    8.44    0.92
  -8   2  -5    9.21    1.13
 -10  -2  -5   26.19    1.76
 -10  -2  -5   32.63    1.91
 -10  -2  -5   29.04    1.97
  10   2   5   31.55    1.74
 -10   2  -5   29.68    1.98
 -10   2  -5   30.75    1.76
 -10   2  -5   29.60    1.65
 -12  -2  -5    2.95    1.13
 -12  -2  -5    1.43    0.89
 -12  -2  -5    1.00    0.97
 -12   2  -5    2.30    0.95
  12   2   5    4.07    1.33
 -12   2  -5    1.94    1.00
 -12   2  -5    3.96    1.01
 -14  -2  -5    3.46    1.21
 -14  -2  -5    5.21    1.30
 -14   2  -5    5.41    1.39
  14   2   5    5.32    1.21
 -14   2  -5    4.27    1.20
  19  -3  -5    6.70    1.73
 -19  -3   5    5.17    1.30
 -19  -3   5    5.37    1.66
  19   3  -5    4.14    1.49
 -19   3   5    7.21    1.50
 -19   3   5    4.85    1.58
 -17  -3   5    2.97    1.24
 -17  -3   5    3.20    1.12
  17  -3  -5    1.72    1.28
 -17   3   5    1.14    1.18
 -17   3   5    2.15    1.23
  17   3  -5    4.04    1.29
  15  -3  -5   13.16    1.95
 -15  -3   5    6.47    1.26
 -15  -3   5    4.94    1.14
  15  -3  -5    7.79    1.36
 -15   3   5    4.54    1.18
 -15   3   5    7.13    1.31
  15   3  -5    6.23    1.28
  13  -3  -5   20.14    1.33
  13  -3  -5   16.29    1.66
 -13  -3   5   19.58    1.61
 -13  -3   5   21.53    1.71
  13   3  -5   17.23    1.63
 -13   3   5   19.08    1.74
 -13   3   5   18.91    1.63
 -11  -3   5   15.45    1.48
 -11  -3   5   16.17    1.30
  11  -3  -5   15.35    1.27
  11  -3  -5   13.16    1.47
  11   3  -5   19.56    1.36
  11   3  -5   16.47    1.48
 -11   3   5   15.43    1.54
 -11   3   5   22.81    2.88
  -9  -3   5   13.65    1.03
   9  -3  -5   11.09    1.30
  -9  -3   5   10.83    1.20
   9  -3  -5   13.12    1.21
   9   3  -5   12.27    1.27
   9   3  -5   14.12    1.21
  -9   3   5   11.88    1.31
   7  -3  -5   27.06    1.51
   7  -3  -5   28.55    1.55
  -7  -3   5   29.79    1.31
  -7  -3   5   29.65    1.49
   7   3  -5   30.13    1.45
   7   3  -5   30.72    1.62
  -7   3   5   27.61    1.50
  -5  -3   5   13.45    0.98
   5  -3  -5   14.83    0.85
  -5  -3   5   15.37    0.88
   5  -3  -5   13.39    1.17
   5   3  -5   14.03    0.93
   5   3  -5   14.31    1.20
  -5   3   5   14.02    1.26
   3  -3  -5   61.15    2.16
  -3  -3   5   60.51    1.85
  -3  -3   5   60.93    1.99
   3  -3  -5   57.49    2.30
   3  -3  -5   59.99    1.93
   3   3  -5   59.37    1.77
   3   3  -5   62.32    2.36
  -3   3   5   58.78    2.13
   1  -3  -5   29.71    1.31
  -1  -3   5   29.29    1.52
   1  -3  -5   30.50    1.64
   1  -3  -5   31.28    1.42
   1   3  -5   31.40    1.66
  -1   3   5   31.46    1.45
  -1  -3  -5   11.80    1.03
  -1  -3  -5   14.62    1.00
   1  -3   5   13.45    0.73
  -1  -3  -5   13.78    1.28
  -1   3  -5   14.18    1.19
   1   3   5   13.84    1.03
  -1   3  -5   13.37    1.20
  -3  -3  -5   35.08    1.63
  -3  -3  -5   32.72    1.46
  -3  -3  -5   32.00    1.81
  -3  -3  -5   33.59    1.60
   3  -3   5   32.76    1.05
  -3   3  -5   33.09    1.72
  -3   3  -5   33.23    1.65
   3   3   5   31.00    1.53
  -5  -3  -5   28.27    1.73
  -5  -3  -5   31.86    2.25
  -5  -3  -5   28.78    1.38
  -5  -3  -5   30.24    1.73
  -5   3  -5   28.93    1.26
  -5   3  -5   32.02    1.71
  -5   3  -5   28.54    1.68
   5   3   5   28.85    1.47
  -7  -3  -5   12.69    1.45
  -7  -3  -5   11.56    1.02
  -7  -3  -5   11.30    1.50
  -7  -3  -5   11.46    1.35
  -7   3  -5   11.84    1.48
   7   3   5   10.37    1.15
  -7   3  -5    9.43    1.27
  -7   3  -5   11.48    1.02
  -9  -3  -5   18.75    1.58
  -9  -3  -5   17.91    1.32
  -9  -3  -5   16.53    1.63
  -9  -3  -5   15.22    1.84
  -9   3  -5   19.35    1.28
   9   3   5   19.22    1.46
 -11  -3  -5    6.12    1.14
 -11  -3  -5    9.09    1.56
 -11  -3  -5    6.78    1.34
 -11  -3  -5    8.12    0.91
  11   3   5    7.23    1.19
 -11   3  -5    5.59    1.33
 -11   3  -5    7.56    1.33
 -13  -3  -5    5.89    1.68
 -13  -3  -5    3.30    1.25
 -13  -3  -5    3.95    1.25
 -13   3  -5    3.43    1.10
 -13   3  -5    5.03    1.40
  13   3   5    4.62    1.22
 -15  -3  -5    8.90    1.70
 -15  -3  -5    8.47    1.84
 -15   3  -5    8.81    1.79
  15   3   5    9.18    1.58
 -15   3  -5    9.60    1.52
  18  -4  -5    5.09    1.80
 -18  -4   5    5.14    1.41
 -18  -4   5    0.63    1.54
 -18   4   5    2.82    1.41
 -18   4   5    4.92    1.45
  18   4  -5    2.89    1.48
 -16  -4   5    5.47    1.19
  16  -4  -5    7.43    1.55
 -16  -4   5    5.35    1.41
  16  -4  -5    6.11    1.28
 -16   4   5    6.51    1.53
 -16   4   5    5.71    1.37
  16   4  -5    4.72    1.37
 -14  -4   5    7.89    1.16
 -14  -4   5    8.50    1.39
  14  -4  -5    6.50    1.44
  14   4  -5    7.42    1.34
 -14   4   5    7.75    1.39
 -14   4   5    8.25    1.33
  12  -4  -5   11.49    1.32
 -12  -4   5    9.19    1.30
 -12  -4   5    9.44    1.38
  12  -4  -5   11.00    1.49
  12   4  -5    7.75    1.22
 -12   4   5   10.58    1.47
 -12   4   5   10.46    1.39
 -10  -4   5    8.24    1.28
 -10  -4   5    8.40    1.05
  10  -4  -5    7.45    1.17
  10  -4  -5    9.07    1.23
  10   4  -5    6.72    1.10
 -10   4   5    6.98    1.19
   8  -4  -5   32.34    1.84
  -8  -4   5   33.09    1.46
  -8  -4   5   30.06    1.80
   8  -4  -5   31.96    1.83
  -8   4   5   30.28    1.77
   8   4  -5   33.22    1.79
   8   4  -5   31.60    1.89
  -6  -4   5   25.42    1.61
   6  -4  -5   28.27    1.70
  -6  -4   5   25.81    1.15
   6   4  -5   26.62    1.78
   6   4  -5   25.58    1.36
   4  -4  -5    9.44    1.15
  -4  -4   5   11.07    0.69
   4  -4  -5   11.57    0.78
   4  -4  -5    9.89    1.25
  -4  -4   5   11.06    0.97
   4   4  -5    9.50    0.85
   4   4  -5   14.12    1.38
  -4   4   5   11.18    1.20
  -2  -4   5   35.73    1.48
  -2  -4   5   36.30    1.15
   2  -4  -5   35.75    1.43
   2  -4  -5   35.02    1.75
   2  -4  -5   35.89    1.97
   2   4  -5   37.84    1.98
  -2   4   5   35.04    1.75
   2   4  -5   35.95    1.18
   2   4  -5   37.20    1.32
   0  -4  -5   27.52    1.34
   0  -4  -5   30.01    1.84
   0  -4   5   27.45    0.93
   0  -4   5   28.90    1.21
   0  -4  -5   28.06    1.54
   0   4  -5   25.68    1.72
   0   4   5   29.76    1.57
  -2  -4  -5   19.94    1.33
  -2  -4  -5   21.06    1.70
  -2  -4  -5   21.94    1.45
   2  -4   5   21.90    1.00
  -2  -4  -5   19.65    1.43
  -2   4  -5   22.28    1.62
   2   4   5   18.76    1.41
  -4  -4  -5   30.86    2.13
  -4  -4  -5   26.53    1.73
   4  -4   5   26.23    1.06
  -4  -4  -5   28.53    1.66
  -4  -4  -5   28.48    1.67
  -4   4  -5   29.08    1.76
  -4   4  -5   27.45    1.86
   4   4   5   28.58    1.88
  -6  -4  -5   11.75    1.39
  -6  -4  -5   12.54    1.70
  -6  -4  -5   12.70    1.47
   6  -4   5   12.41    0.70
  -6  -4  -5   11.08    1.45
   6   4   5   14.42    1.55
  -6   4  -5   11.62    0.94
  -6   4  -5   11.83    1.43
  -6   4  -5   11.75    1.44
  -8  -4  -5    7.50    1.17
  -8  -4  -5   10.80    1.65
  -8  -4  -5    9.89    1.32
  -8  -4  -5    8.10    1.34
   8   4   5   10.38    1.38
  -8   4  -5    9.69    0.97
  -8   4  -5    7.91    1.32
  -8   4  -5   11.15    1.76
 -10  -4  -5   19.36    1.93
 -10  -4  -5   18.84    2.17
 -10  -4  -5   19.66    1.67
 -10  -4  -5   22.44    1.80
 -10   4  -5   20.07    1.47
  10   4   5   22.02    1.82
 -10   4  -5   22.20    2.08
 -12  -4  -5    5.41    1.63
 -12  -4  -5    3.99    1.13
 -12  -4  -5    3.19    1.41
 -12  -4  -5    2.19    1.14
 -12   4  -5    1.98    1.28
 -14  -4  -5    2.48    1.32
 -14  -4  -5    2.92    1.25
  14   4   5    6.27    1.52
 -14   4  -5    5.12    1.62
 -14   4  -5    6.26    1.33
 -17  -5   5    0.69    1.28
  17  -5  -5   -0.30    1.57
 -17  -5   5    5.29    1.71
 -17   5   5    5.10    1.52
 -17   5   5    1.61    1.48
  17   5  -5   -2.09    1.23
  15  -5  -5    6.59    1.48
 -15  -5   5    3.88    1.18
 -15  -5   5    2.14    1.31
  15  -5  -5    6.48    1.50
 -15   5   5    3.73    1.34
  15   5  -5    3.36    1.24
 -15   5   5    2.81    1.44
 -13  -5   5    8.12    1.18
  13  -5  -5    8.22    1.43
 -13  -5   5    7.09    1.40
  13  -5  -5    8.06    1.39
 -13   5   5    6.49    1.46
 -13   5   5    8.57    1.45
  13   5  -5    8.40    1.40
  11  -5  -5    6.33    1.20
  11  -5  -5    7.95    1.40
 -11  -5   5    8.68    1.05
 -11  -5   5    7.11    1.27
  11   5  -5    7.28    1.25
 -11   5   5    7.90    1.30
 -11   5   5    6.73    1.35
  -9  -5   5    8.43    0.94
   9  -5  -5    8.39    1.25
   9  -5  -5    8.72    1.38
  -9  -5   5    7.60    1.29
  -9   5   5    7.19    1.20
   9   5  -5    6.49    1.10
  -7  -5   5   11.16    1.49
   7  -5  -5   14.74    1.40
  -7  -5   5   14.19    0.88
   7  -5  -5   12.42    1.57
  -7   5   5   12.46    1.44
   7   5  -5   13.31    1.62
  -5  -5   5    8.72    1.11
   5  -5  -5    5.65    1.04
   5  -5  -5    8.29    1.03
   5  -5  -5    8.45    1.34
  -5  -5   5    6.98    0.88
  -5   5   5    9.64    1.28
   3  -5  -5   21.83    1.56
   3  -5  -5   23.03    1.12
  -3  -5   5   20.61    1.35
   3  -5  -5   21.93    1.81
   3   5  -5   22.82    1.15
   3   5  -5   21.31    1.83
  -3   5   5   24.41    1.64
  -1  -5   5   14.33    1.10
   1  -5  -5   13.19    1.62
   1  -5  -5   12.24    1.34
   1  -5  -5   15.06    1.04
  -1   5   5   12.95    1.40
   1   5  -5   11.56    1.55
   1  -5   5    8.11    0.89
  -1  -5  -5    8.23    1.39
  -1  -5  -5   10.71    1.28
  -1  -5  -5    8.66    1.05
  -1   5  -5    9.54    1.44
   1   5   5    7.79    1.13
   3  -5   5   14.53    0.96
  -3  -5  -5   13.72    1.69
  -3  -5  -5   14.87    1.37
  -3  -5  -5   14.21    1.41
  -3  -5  -5   17.70    1.52
   3   5   5   14.48    1.48
  -5  -5  -5   12.20    1.42
  -5  -5  -5   11.68    1.52
  -5  -5  -5    9.39    1.44
   5  -5   5   11.82    0.88
  -5  -5  -5   10.45    1.36
   5   5   5   11.21    1.46
  -7  -5  -5    4.13    1.12
  -7  -5  -5    6.46    1.23
  -7  -5  -5    5.12    1.40
  -7  -5  -5    6.17    1.13
   7   5   5    6.46    1.23
  -9  -5  -5    8.67    1.47
  -9  -5  -5    8.11    1.35
  -9  -5  -5   11.89    1.82
  -9  -5  -5   11.81    1.52
   9   5   5   11.42    1.61
  -9   5  -5    9.24    1.59
 -11  -5  -5    4.95    1.69
 -11  -5  -5    3.47    1.19
 -11  -5  -5    1.47    1.27
 -11  -5  -5    2.73    1.23
  11   5   5    6.52    1.55
 -11   5  -5    2.23    1.43
 -14  -6   5    4.71    1.60
  14  -6  -5    4.82    1.42
 -14  -6   5    1.72    1.12
  14  -6  -5    2.38    1.45
  14   6  -5    3.56    1.32
 -14   6   5    3.64    1.43
 -14   6   5    2.70    1.46
  12  -6  -5    2.56    1.14
 -12  -6   5    5.00    1.33
 -12  -6   5    3.28    1.09
  12  -6  -5    5.03    1.37
 -12   6   5    1.85    1.22
  12   6  -5    4.53    1.29
 -12   6   5    1.64    1.26
 -10  -6   5    3.32    1.22
  10  -6  -5    2.07    1.03
  10  -6  -5    2.75    1.18
 -10  -6   5    2.30    0.73
  10   6  -5    2.65    1.07
 -10   6   5    4.20    1.33
 -10   6   5    1.42    1.22
  -8  -6   5    8.08    0.78
   8  -6  -5    7.58    1.22
   8  -6  -5    8.50    1.53
  -8  -6   5    9.65    1.40
  -8   6   5   10.58    1.48
  -6  -6   5    7.81    1.26
   6  -6  -5    7.23    1.19
   6  -6  -5    5.15    1.23
  -6   6   5    8.25    1.34
   6   6  -5    7.50    1.17
   4  -6  -5    5.24    1.13
   4  -6  -5    2.27    1.06
  -4  -6   5    5.01    1.12
  -4   6   5    4.60    1.07
   4   6  -5    5.10    0.90
   2  -6  -5   10.79    1.68
   2  -6  -5    9.88    1.32
  -2  -6   5   15.35    1.39
   2  -6  -5   11.16    1.01
  -2   6   5   12.53    1.42
   2   6  -5   10.23    0.89
   0  -6   5    8.52    1.06
   0  -6  -5    8.94    0.98
   0  -6  -5    7.63    1.17
   0  -6  -5    8.42    1.50
   0   6   5    8.72    1.28
   2  -6   5    4.73    0.90
  -2  -6  -5    7.89    1.24
  -2  -6  -5    6.40    1.40
  -2  -6  -5    6.76    1.08
   2   6   5    6.22    1.20
  -4  -6  -5    6.48    1.62
   4  -6   5    8.85    1.11
  -4  -6  -5    8.20    1.20
  -4  -6  -5    9.12    1.35
   4   6   5    5.76    1.27
  -6  -6  -5    3.11    1.09
  -6  -6  -5    6.03    1.48
  -6  -6  -5    3.29    1.07
  -6  -6  -5    4.34    1.18
   6   6   5    4.94    1.31
  -8  -6  -5    1.61    1.12
  -8  -6  -5    1.39    1.06
  -8  -6  -5    2.54    1.16
  -8  -6  -5    2.53    1.38
   8   6   5    3.86    1.40
 -10  -6  -5    5.74    1.47
 -10  -6  -5    6.15    1.53
 -10  -6  -5    6.47    1.87
 -10  -6  -5    3.24    1.24
  10   6   5    3.76    1.71
 -11  -7   5    3.36    1.45
  11  -7  -5    3.56    1.46
  11  -7  -5    3.25    1.42
 -11   7   5    0.31    1.47
 -11   7   5    4.21    1.44
   9  -7  -5    1.90    1.34
  -9  -7   5    3.55    1.33
   9  -7  -5    2.40    1.23
   9   7  -5    2.01    1.31
  -9   7   5    2.19    1.26
  -9   7   5    1.16    1.27
   7  -7  -5    3.80    1.37
  -7  -7   5    3.97    1.23
   7  -7  -5    4.56    1.35
  -7   7   5    4.54    1.43
   7   7  -5    4.30    1.18
  -5  -7   5    3.82    1.25
   5  -7  -5    5.78    1.51
   5  -7  -5    2.65    1.11
  -5   7   5    3.70    1.33
   5   7  -5    3.39    1.08
   3  -7  -5    7.13    1.33
  -3  -7   5    7.58    1.24
  -3   7   5    5.85    1.35
   1  -7  -5    4.06    1.15
   1  -7  -5    5.41    0.85
  -1  -7   5    5.19    1.20
  -1   7   5    6.11    1.26
   1  -7   5    5.34    1.22
  -1  -7  -5    5.35    1.09
  -1  -7  -5    4.11    1.56
  -1  -7  -5    3.67    1.21
   1   7   5    4.18    1.25
  -3  -7  -5    2.00    1.37
  -3  -7  -5    4.15    1.19
   3  -7   5    5.09    1.15
  -3  -7  -5    4.80    1.23
   3   7   5    2.75    1.33
  -5  -7  -5    2.70    1.18
  -5  -7  -5   -0.30    1.45
  -5  -7  -5    4.91    1.26
   5   7   5    3.71    1.49
  -7  -7  -5    4.97    1.42
  -7  -7  -5    0.70    1.21
  -7  -7  -5    2.72    1.59
  -7  -7  -5    2.15    1.26
   7   7   5    4.19    1.68
   6  -8  -5   -0.17    2.04
  -6  -8   5    3.41    1.62
   6  -8  -5    1.07    1.43
  -6   8   5    0.88    1.50
   6   8  -5    3.26    1.33
   4  -8  -5    0.37    1.30
  -4  -8   5    1.97    1.42
  -4   8   5    0.39    1.43
  -2  -8   5    5.78    1.43
   2  -8  -5    5.19    1.62
  -2   8   5    1.59    1.40
   0  -8   5    3.41    1.41
   0  -8  -5    2.08    1.65
   0  -8  -5    2.90    1.46
   0   8   5    1.67    1.38
  -2  -8  -5    0.81    1.33
  -2  -8  -5    5.15    1.91
   2  -8   5    2.52    1.46
  -2  -8  -5    0.84    1.65
   2   8   5    1.29    1.53
  20   0  -6    4.96    1.53
 -20   0   6    3.98    1.38
 -20   0   6    6.35    1.60
 -18   0   6    0.62    1.11
  18   0  -6    0.70    1.09
 -18   0   6    1.40    1.00
 -16   0   6    1.47    0.99
  16   0  -6    2.57    0.73
  16   0  -6    1.87    0.94
 -16   0   6    0.57    0.96
 -14   0   6   28.02    1.87
  14   0  -6   30.12    1.47
  14   0  -6   26.98    1.87
 -14   0   6   26.57    1.90
 -12   0   6   20.61    1.61
 -12   0   6   20.08    1.70
  12   0  -6   23.46    1.31
  12   0  -6   21.07    1.66
 -10   0   6   10.23    1.15
  10   0  -6   10.72    1.06
  10   0  -6   12.43    1.27
 -10   0   6   10.62    1.17
  -8   0   6   34.47    1.69
   8   0  -6   37.47    1.73
   8   0  -6   39.08    1.73
   6   0  -6   32.46    1.50
   6   0  -6   32.45    1.61
  -6   0   6   32.76    1.53
   4   0  -6   84.93    2.61
   4   0  -6   87.74    2.83
   4   0  -6   85.04    2.94
  -4   0   6   88.12    2.68
   2   0  -6   98.23    3.49
   2   0  -6   89.84    3.08
  -2   0   6   90.29    2.67
   2   0  -6   90.92    2.58
   0   0   6   15.47    0.89
   0   0  -6   17.74    1.18
   0   0  -6   19.87    1.33
   0   0  -6   15.67    0.62
  -2   0  -6   76.78    2.50
  -2   0  -6   76.85    2.68
  -2   0  -6   73.74    2.76
   2   0   6   76.21    2.29
  -4   0  -6   88.19    2.83
  -4   0  -6   88.53    3.02
   4   0   6   86.12    2.41
  -4   0  -6   85.91    3.06
  -6   0  -6   22.82    1.59
   6   0   6   22.83    0.99
  -6   0  -6   24.07    1.52
  -8   0  -6   37.99    2.00
  -8   0  -6   36.75    2.14
   8   0   6   38.07    1.40
  -8   0  -6   39.58    2.00
  10   0   6   28.62    1.32
 -10   0  -6   30.26    2.13
 -10   0  -6   28.45    1.84
 -10   0  -6   27.95    2.06
 -12   0  -6   13.85    1.82
 -12   0  -6   11.65    1.52
 -12   0  -6   12.73    1.77
 -14   0  -6   18.85    2.31
 -14   0  -6   15.41    1.87
  19  -1  -6    8.26    1.68
 -19  -1   6    5.91    1.30
 -19  -1   6    8.82    1.57
 -19   1   6    4.80    1.40
 -19   1   6    5.05    1.45
  19   1  -6    3.29    1.39
 -17  -1   6    6.11    1.33
  17  -1  -6    5.45    1.30
 -17  -1   6    5.94    1.29
 -17   1   6    9.03    1.44
 -17   1   6    6.00    1.24
  17   1  -6    6.52    1.34
 -15  -1   6    8.47    1.25
 -15  -1   6    7.61    1.22
  15  -1  -6   10.34    1.36
  15  -1  -6    9.32    1.04
 -15   1   6    8.66    1.35
 -15   1   6    6.44    1.23
  15   1  -6    9.42    1.05
  15   1  -6    9.17    1.37
  13  -1  -6   11.62    1.44
  13  -1  -6   10.29    1.04
 -13  -1   6    9.44    1.33
 -13  -1   6    7.91    1.21
  13   1  -6   11.85    1.10
 -13   1   6    9.70    1.28
  13   1  -6    8.59    1.22
 -13   1   6   12.19    1.42
  11  -1  -6    5.77    0.86
 -11  -1   6    4.38    1.02
 -11  -1   6    5.61    1.09
  11  -1  -6    5.36    1.05
 -11   1   6    3.42    0.98
  11   1  -6    4.11    0.80
  11   1  -6    4.84    0.99
  -9  -1   6   60.73    2.35
   9  -1  -6   57.44    2.23
  -9  -1   6   59.94    2.31
   9  -1  -6   57.87    2.41
   9   1  -6   59.13    2.23
  -9   1   6   56.84    2.35
   9   1  -6   57.67    2.27
  -7  -1   6   47.19    1.97
   7  -1  -6   50.77    2.09
   7  -1  -6   53.30    2.07
   7   1  -6   56.12    2.13
  -7   1   6   51.78    2.06
   7   1  -6   49.46    1.94
   5  -1  -6    4.55    0.77
   5  -1  -6    4.11    0.68
  -5  -1   6    5.68    0.78
   5  -1  -6    3.79    0.78
   5   1  -6    7.50    1.02
  -5   1   6    6.58    0.82
   5   1  -6    5.45    0.68
   3  -1  -6   74.54    2.35
   3  -1  -6   72.97    2.63
  -3  -1   6   71.38    2.27
   3  -1  -6   73.34    2.44
   3   1  -6   70.81    2.64
   3   1  -6   71.12    2.55
  -3   1   6   73.38    2.32
   3   1  -6   72.17    2.09
   1  -1  -6   65.03    2.26
   1  -1  -6   63.35    2.02
  -1  -1   6   65.17    1.95
   1  -1  -6   65.57    2.46
  -1   1   6   62.48    2.03
   1   1  -6   62.73    2.44
   1   1  -6   61.53    2.32
  -1  -1  -6   39.61    1.75
   1  -1   6   41.10    1.33
  -1  -1  -6   43.09    1.96
  -1  -1  -6   42.01    1.40
  -1  -1  -6   38.70    1.36
  -1   1  -6   43.55    1.86
   1   1   6   39.71    1.46
  -1   1  -6   43.18    1.95
  -3  -1  -6   59.34    2.50
  -3  -1  -6   63.72    2.45
   3  -1   6   64.47    1.76
  -3   1  -6   57.34    2.94
  -3   1  -6   65.73    2.52
  -3   1  -6   62.71    2.16
   3   1   6   62.02    1.97
  -5  -1  -6   27.50    1.72
   5  -1   6   24.86    0.89
  -5  -1  -6   27.82    1.61
  -5  -1  -6   24.26    1.70
   5   1   6   24.93    1.16
  -5   1  -6   24.48    1.39
  -5   1  -6   24.81    1.58
  -5   1  -6   25.81    1.89
   7  -1   6   28.52    1.01
  -7  -1  -6   27.72    1.81
  -7  -1  -6   30.20    1.83
   7   1   6   28.10    1.30
  -7   1  -6   29.12    1.88
  -7   1  -6   26.92    1.59
  -7   1  -6   27.74    1.67
  -9  -1  -6   42.44    2.27
  -9  -1  -6   38.16    2.08
  -9  -1  -6   38.62    2.18
  -9   1  -6   38.01    2.28
  -9   1  -6   42.17    2.07
   9   1   6   42.18    1.67
 -11  -1  -6   10.45    1.44
 -11  -1  -6   11.79    1.46
 -11  -1  -6   10.01    1.42
 -11   1  -6   10.43    1.31
  11   1   6   10.49    1.15
 -11   1  -6    9.37    1.39
 -13  -1  -6   11.93    1.56
 -13  -1  -6   11.97    1.77
 -13   1  -6   11.02    1.48
 -13   1  -6   12.41    1.85
 -15  -1  -6   12.87    1.79
 -15   1  -6    8.59    1.61
  20  -2  -6    3.36    1.75
 -20  -2   6    5.97    1.85
 -20  -2   6    5.67    1.62
 -20   2   6    4.76    1.40
  20   2  -6    3.02    1.34
 -20   2   6    4.41    1.60
 -18  -2   6    1.52    1.18
 -18  -2   6    1.91    1.13
  18  -2  -6    0.57    1.23
 -18   2   6    3.07    1.32
 -18   2   6    1.80    1.10
  18   2  -6    1.12    1.14
  16  -2  -6   -0.61    0.99
 -16  -2   6    1.98    1.07
 -16  -2   6    0.57    0.98
  16  -2  -6    2.01    0.79
  16   2  -6    1.70    1.02
 -16   2   6    1.85    1.15
 -16   2   6    1.65    1.09
  16   2  -6    1.22    0.79
  14  -2  -6   18.00    1.76
 -14  -2   6   20.74    1.74
  14  -2  -6   21.64    1.33
 -14  -2   6   18.63    1.62
  14   2  -6   18.19    1.39
  14   2  -6   22.90    1.76
 -14   2   6   20.56    1.66
 -14   2   6   18.53    1.78
 -12  -2   6   15.10    1.47
  12  -2  -6   11.16    1.43
  12  -2  -6   14.82    1.22
 -12  -2   6   10.93    1.70
 -12   2   6   14.14    1.45
  12   2  -6   17.61    1.53
 -12   2   6   14.07    1.54
  12   2  -6   15.49    1.25
 -10  -2   6    7.12    1.31
 -10  -2   6    7.32    1.07
  10  -2  -6    8.14    1.17
  10  -2  -6    7.07    1.10
 -10   2   6    6.07    1.11
  10   2  -6    8.26    1.09
  10   2  -6    6.93    1.29
   8  -2  -6   25.14    1.51
   8  -2  -6   23.98    1.47
  -8  -2   6   23.53    1.38
   8   2  -6   25.03    1.49
  -8   2   6   23.71    1.52
   6  -2  -6   19.27    1.34
  -6  -2   6   19.20    1.19
   6  -2  -6   18.50    1.11
   6   2  -6   17.87    1.31
   6   2  -6   20.03    1.12
   4  -2  -6   50.99    1.97
   4  -2  -6   54.03    2.20
  -4  -2   6   51.33    1.86
   4  -2  -6   52.71    1.92
   4   2  -6   52.59    2.20
   4   2  -6   52.51    1.68
  -4   2   6   51.21    1.95
   2  -2  -6   50.30    2.01
   2  -2  -6   50.34    2.18
   2  -2  -6   51.69    1.89
  -2  -2   6   53.41    1.77
   2   2  -6   51.43    2.19
  -2   2   6   47.90    1.85
   2   2  -6   51.37    2.15
   0  -2   6    8.69    0.70
   0  -2  -6   10.20    0.86
   0  -2  -6   10.70    0.95
   0  -2  -6   11.26    1.21
   0   2  -6    8.78    1.10
   0   2  -6   12.21    1.16
   0   2   6    8.36    0.80
   2  -2   6   45.96    1.42
  -2  -2  -6   45.67    1.64
  -2  -2  -6   48.89    1.98
  -2  -2  -6   48.75    2.45
   2   2   6   43.62    1.71
  -2   2  -6   41.73    2.07
   4  -2   6   53.14    1.44
  -4  -2  -6   51.48    1.73
  -4  -2  -6   55.86    2.28
  -4  -2  -6   52.76    2.46
  -4   2  -6   55.73    1.98
  -4   2  -6   52.77    2.28
   4   2   6   52.36    1.93
  -6  -2  -6   13.80    0.80
  -6  -2  -6   14.07    1.48
  -6  -2  -6   13.74    1.59
  -6  -2  -6   11.79    1.35
  -6   2  -6   13.24    1.36
   6   2   6   16.15    1.08
  -6   2  -6   13.74    1.16
  -8  -2  -6   27.40    1.86
  -8  -2  -6   26.53    2.00
  -8  -2  -6   24.02    1.85
  -8   2  -6   26.21    1.77
  -8   2  -6   28.94    2.08
   8   2   6   26.44    1.45
  -8   2  -6   26.63    1.61
 -10  -2  -6   16.13    1.59
 -10  -2  -6   19.76    2.04
 -10  -2  -6   17.93    1.79
 -10   2  -6   16.57    1.91
 -10   2  -6   16.92    1.60
 -10   2  -6   17.91    1.72
 -12  -2  -6   11.77    2.77
 -12  -2  -6    7.11    1.43
 -12  -2  -6    8.26    1.40
 -12   2  -6    9.38    1.48
 -12   2  -6    7.50    1.40
 -12   2  -6    6.43    1.26
  12   2   6    8.45    1.88
 -14  -2  -6    7.67    1.52
 -14  -2  -6    8.83    1.73
  14   2   6   11.01    1.53
 -14   2  -6   11.71    1.80
 -14   2  -6   10.15    1.55
  19  -3  -6    4.79    1.81
 -19  -3   6    6.04    1.71
 -19  -3   6    3.65    1.38
 -19   3   6    4.24    1.53
  19   3  -6    0.16    1.44
 -19   3   6    4.45    1.45
 -17  -3   6    3.25    1.18
  17  -3  -6    5.56    1.50
 -17  -3   6    4.50    1.37
  17   3  -6    2.07    1.20
 -17   3   6    5.56    1.50
 -17   3   6    4.55    1.37
 -15  -3   6    6.33    1.33
 -15  -3   6    5.07    1.12
  15  -3  -6    6.65    1.05
  15  -3  -6    6.68    1.41
 -15   3   6    6.66    1.44
 -15   3   6    7.00    1.32
  15   3  -6    5.13    1.25
 -13  -3   6    7.22    1.16
  13  -3  -6    9.77    1.46
 -13  -3   6    8.75    1.34
 -13   3   6    7.82    1.28
  13   3  -6   10.67    1.41
  13   3  -6    9.25    1.21
 -13   3   6    7.29    1.33
 -11  -3   6    5.10    1.05
  11  -3  -6    4.40    1.14
  11  -3  -6    4.67    1.16
 -11  -3   6    5.75    0.97
 -11   3   6    3.38    1.06
  11   3  -6    3.22    0.90
 -11   3   6    5.38    1.13
  11   3  -6    4.03    1.05
   9  -3  -6   34.85    1.93
   9  -3  -6   35.27    1.97
  -9  -3   6   32.68    2.14
  -9  -3   6   38.03    1.74
   9   3  -6   34.64    1.98
  -9   3   6   36.90    1.98
   9   3  -6   37.30    1.95
  -7  -3   6   35.75    1.59
   7  -3  -6   34.53    1.84
  -7  -3   6   34.91    2.43
   7   3  -6   32.29    1.58
   7   3  -6   32.23    1.91
   5  -3  -6    4.99    0.91
   5  -3  -6    6.22    0.81
   5  -3  -6    6.77    0.94
  -5  -3   6    7.60    0.82
  -5  -3   6    7.47    0.94
   5   3  -6    6.50    0.79
   5   3  -6    5.34    1.00
  -5   3   6    7.83    1.04
   3  -3  -6   48.52    1.81
   3  -3  -6   45.53    1.96
   3  -3  -6   47.82    2.21
  -3  -3   6   46.58    1.77
   3   3  -6   45.80    2.23
   3   3  -6   48.55    1.53
  -3   3   6   50.06    1.98
   1  -3  -6   37.24    2.05
  -1  -3   6   40.62    1.50
   1  -3  -6   39.94    1.68
   1   3  -6   40.63    2.08
   1  -3   6   24.12    1.13
  -1  -3  -6   26.77    1.47
  -1  -3  -6   26.22    1.77
  -1  -3  -6   26.39    1.37
   1   3   6   25.38    1.82
  -1   3  -6   26.05    1.77
  -1   3  -6   26.15    1.64
  -3  -3  -6   39.80    2.02
  -3  -3  -6   39.22    1.66
   3  -3   6   39.18    1.32
  -3  -3  -6   39.28    2.22
  -3  -3  -6   38.13    1.91
  -3   3  -6   41.49    2.18
  -3   3  -6   42.15    2.10
  -5  -3  -6   20.81    2.41
  -5  -3  -6   19.03    1.57
  -5  -3  -6   19.26    1.18
  -5  -3  -6   14.11    1.53
  -5   3  -6   19.52    1.23
  -5   3  -6   18.01    1.67
   5   3   6   20.64    1.41
  -5   3  -6   19.06    1.62
  -7  -3  -6   18.49    1.65
  -7  -3  -6   18.75    1.17
  -7  -3  -6   16.63    2.01
  -7  -3  -6   17.68    1.68
  -7   3  -6   20.13    1.32
  -7   3  -6   19.84    1.87
  -7   3  -6   15.60    1.69
   7   3   6   19.08    1.48
  -9  -3  -6   24.33    1.32
  -9  -3  -6   23.16    2.34
  -9  -3  -6   28.20    2.01
  -9  -3  -6   27.60    1.99
  -9   3  -6   21.98    1.95
  -9   3  -6   23.48    1.62
   9   3   6   23.33    1.87
 -11  -3  -6    5.09    1.27
 -11  -3  -6    6.38    1.59
 -11  -3  -6    6.86    1.39
 -11   3  -6    9.66    1.37
 -11   3  -6    7.28    1.48
  11   3   6    8.14    1.38
 -13  -3  -6    9.80    1.81
 -13  -3  -6   10.33    1.90
 -13  -3  -6    7.21    1.56
 -13   3  -6    8.34    1.43
 -13   3  -6    8.84    1.81
  18  -4  -6    1.96    1.73
 -18  -4   6    3.07    1.64
 -18  -4   6   -2.15    1.08
 -18   4   6    2.79    1.53
 -18   4   6    1.35    1.42
  18   4  -6    1.50    1.42
  16  -4  -6    3.71    1.14
 -16  -4   6    1.82    1.11
 -16  -4   6    1.94    1.22
  16  -4  -6    2.70    1.42
 -16   4   6    0.21    1.36
 -16   4   6    0.31    1.20
  16   4  -6    0.99    1.17
  14  -4  -6   10.50    1.63
 -14  -4   6   13.52    1.76
 -14  -4   6    9.66    1.39
  14  -4  -6   11.74    1.62
 -14   4   6   10.76    1.52
  14   4  -6   12.23    1.63
 -14   4   6   11.23    1.58
 -12  -4   6   11.85    1.54
 -12  -4   6    9.44    1.25
  12  -4  -6    9.38    1.38
  12   4  -6    8.92    1.29
 -12   4   6   10.67    1.47
 -12   4   6    8.18    1.38
 -10  -4   6    6.29    1.17
  10  -4  -6    7.52    1.23
 -10   4   6    8.03    1.33
  10   4  -6    7.90    1.27
  10   4  -6    6.67    1.10
  -8  -4   6   18.69    1.16
  -8  -4   6   17.37    1.55
   8  -4  -6   16.47    1.49
   8   4  -6   18.25    1.63
   8   4  -6   19.03    1.76
  -8   4   6   17.19    1.52
  -6  -4   6   16.25    1.36
   6  -4  -6   14.23    1.39
   6  -4  -6   14.98    1.00
   6  -4  -6   11.04    2.35
  -6  -4   6   15.17    1.00
   6   4  -6   16.69    1.17
  -6   4   6   16.09    1.52
   6   4  -6   13.19    1.52
   4  -4  -6   29.03    1.69
   4  -4  -6   28.92    1.37
  -4  -4   6   31.47    1.26
  -4  -4   6   32.18    1.54
   4  -4  -6   29.75    1.99
  -4   4   6   31.38    1.79
   4   4  -6   31.64    1.96
   2  -4  -6   31.40    1.73
   2  -4  -6   32.86    1.50
  -2  -4   6   29.50    1.19
   2  -4  -6   27.49    1.94
  -2  -4   6   30.32    1.43
  -2   4   6   33.12    1.81
   2   4  -6   29.62    1.98
   0  -4  -6   11.96    1.11
   0  -4   6   11.30    0.87
   0  -4  -6   10.31    1.44
   0  -4  -6    9.23    1.39
   0   4  -6   12.31    1.49
   0   4   6   10.45    1.26
  -2  -4  -6   29.73    2.09
  -2  -4  -6   27.97    1.67
   2  -4   6   27.34    1.18
  -2  -4  -6   25.05    2.02
   2   4   6   30.67    1.76
  -2   4  -6   28.11    1.93
  -4  -4  -6   29.13    1.90
  -4  -4  -6   28.52    2.11
  -4  -4  -6   28.22    1.79
  -4  -4  -6   27.49    2.09
   4   4   6   30.35    1.86
  -4   4  -6   32.02    3.08
  -4   4  -6   29.22    2.00
  -6  -4  -6   10.61    1.57
  -6  -4  -6   11.25    1.48
  -6  -4  -6   10.86    1.45
  -6  -4  -6    8.90    1.53
   6   4   6   12.76    1.45
  -6   4  -6   11.90    1.59
  -6   4  -6   11.22    1.58
  -8  -4  -6   16.75    1.75
  -8  -4  -6   16.92    1.75
  -8  -4  -6   16.13    2.05
  -8   4  -6   15.69    1.81
   8   4   6   13.97    1.74
  -8   4  -6   17.38    1.46
  -8   4  -6   15.34    1.75
 -10  -4  -6   12.03    1.63
 -10  -4  -6   13.44    1.76
 -10  -4  -6    7.56    1.43
 -10  -4  -6    9.95    1.84
 -10   4  -6   10.09    1.63
  10   4   6   10.42    1.59
 -10   4  -6   12.16    1.37
 -12  -4  -6    7.24    1.82
 -12  -4  -6    6.35    1.54
 -12  -4  -6    2.70    1.46
 -12   4  -6    4.39    1.54
  12   4   6    8.77    1.63
  15  -5  -6    2.40    1.55
 -15  -5   6    2.57    1.47
 -15  -5   6    5.18    1.16
  15  -5  -6    3.42    1.42
 -15   5   6    2.89    1.39
 -15   5   6    2.31    1.38
  15   5  -6    3.26    1.28
  13  -5  -6    5.48    1.37
 -13  -5   6    3.93    1.04
  13  -5  -6    5.32    1.42
 -13  -5   6    2.76    1.19
 -13   5   6    4.72    1.33
  13   5  -6    3.77    1.14
 -13   5   6    5.30    1.28
  11  -5  -6    3.56    1.19
  11  -5  -6    1.50    1.09
 -11  -5   6    3.08    1.09
 -11  -5   6    4.34    0.90
  11   5  -6    2.14    1.00
 -11   5   6    2.63    1.12
 -11   5   6    3.12    1.19
  -9  -5   6   11.71    1.44
   9  -5  -6   14.92    1.63
  -9  -5   6   12.52    1.13
   9  -5  -6   13.27    1.65
  -9   5   6   13.41    1.63
   9   5  -6   13.15    1.51
   7  -5  -6   11.25    1.37
   7  -5  -6   11.91    1.61
  -7  -5   6   13.03    1.55
  -7  -5   6   12.45    0.92
  -7   5   6   15.28    1.61
   7   5  -6   11.89    1.65
   5  -5  -6    3.44    0.67
   5  -5  -6    4.27    1.14
   5  -5  -6    4.40    0.98
  -5  -5   6    4.59    0.99
  -5  -5   6    4.91    0.55
   5   5  -6    3.92    1.25
  -5   5   6    4.80    1.07
   5   5  -6    4.90    0.79
   3  -5  -6   17.86    1.50
   3  -5  -6   17.57    1.74
  -3  -5   6   17.65    1.30
   3  -5  -6   16.59    1.13
   3   5  -6   16.98    0.87
   3   5  -6   15.98    1.74
  -3   5   6   18.60    1.56
   1  -5  -6   15.37    1.19
   1  -5  -6   15.70    1.73
   1  -5  -6   13.79    1.41
  -1  -5   6   14.74    1.15
   1   5  -6   15.46    1.66
  -1   5   6   14.63    1.50
   1  -5   6   10.82    1.01
  -1  -5  -6   11.24    1.37
  -1  -5  -6    7.97    1.43
  -1  -5  -6   10.70    1.23
  -1   5  -6   11.27    1.56
   1   5   6   10.85    1.35
   3  -5   6   17.45    1.09
  -3  -5  -6   15.61    1.86
  -3  -5  -6   15.49    1.46
  -3  -5  -6   14.49    1.53
  -3   5  -6   13.26    1.71
   3   5   6   15.99    1.60
  -5  -5  -6    9.88    1.68
  -5  -5  -6    8.19    1.23
  -5  -5  -6   10.57    1.35
  -5  -5  -6    4.88    1.24
   5   5   6    9.83    1.42
  -5   5  -6    8.56    1.50
  -7  -5  -6    6.66    1.27
  -7  -5  -6    7.47    1.17
  -7  -5  -6    8.52    1.65
  -7  -5  -6    7.52    1.25
  -7   5  -6    9.48    1.55
   7   5   6    7.74    1.41
  -9  -5  -6   10.11    1.91
  -9  -5  -6    8.43    1.40
  -9  -5  -6    9.81    1.36
  -9  -5  -6   10.80    1.62
   9   5   6    9.85    1.70
  -9   5  -6    9.78    1.64
 -11  -5  -6    7.10    1.94
 -11  -5  -6    3.53    1.25
 -11  -5  -6    0.89    1.31
 -11  -5  -6    3.16    1.48
  11   5   6    3.40    1.66
 -11   5  -6    6.08    1.66
  14  -6  -6    3.75    1.73
  14  -6  -6    4.15    1.53
 -14  -6   6    4.32    1.19
 -14  -6   6    2.77    1.67
 -14   6   6    2.35    1.50
  14   6  -6    2.43    1.39
 -14   6   6    4.39    1.52
  12  -6  -6    1.72    1.34
 -12  -6   6    4.52    1.48
 -12  -6   6    3.38    1.18
  12  -6  -6    3.62    1.60
  12   6  -6    6.50    1.45
 -12   6   6    4.17    1.36
 -12   6   6    3.68    1.46
 -10  -6   6    4.22    0.84
 -10  -6   6    1.69    1.28
  10  -6  -6    3.96    1.25
  10  -6  -6    5.35    1.27
 -10   6   6    2.49    1.26
  10   6  -6    2.49    1.08
   8  -6  -6    5.62    1.30
   8  -6  -6    4.50    1.12
  -8  -6   6    5.62    1.25
  -8   6   6    4.00    1.27
   6  -6  -6    4.52    1.22
   6  -6  -6    2.71    1.01
  -6  -6   6    5.77    1.25
   6   6  -6    3.14    1.75
  -6   6   6    7.21    1.33
   4  -6  -6    5.40    1.30
   4  -6  -6    5.96    0.88
   4  -6  -6    7.00    1.24
  -4  -6   6    8.45    1.31
   4   6  -6    7.58    1.27
  -4   6   6    6.71    1.31
  -2  -6   6    7.86    1.16
   2  -6  -6    4.56    1.29
   2  -6  -6    7.74    1.26
   2  -6  -6    7.93    0.93
  -2   6   6    7.52    1.31
   0  -6   6    4.19    1.35
   0  -6  -6    3.20    1.05
   0  -6  -6    4.59    0.91
   0  -6  -6    2.26    1.10
   0   6   6    2.66    1.11
  -2  -6  -6    9.04    1.66
  -2  -6  -6    8.34    1.29
  -2  -6  -6    9.34    1.31
   2  -6   6    7.92    0.96
   2   6   6   10.90    1.48
  -4  -6  -6    7.60    1.31
  -4  -6  -6    4.78    1.44
  -4  -6  -6    7.07    1.27
   4   6   6    8.75    1.53
  -6  -6  -6    4.00    1.25
  -6  -6  -6    3.33    1.51
  -6  -6  -6    3.59    1.16
  -6  -6  -6    1.33    1.10
   6   6   6    4.52    1.44
  -8  -6  -6    5.02    1.38
  -8  -6  -6    5.51    1.37
  -8  -6  -6    3.94    1.73
  -8  -6  -6    4.83    1.26
   8   6   6    5.75    1.71
 -11  -7   6   -0.74    1.59
  11  -7  -6    3.21    1.69
  11  -7  -6    2.40    1.34
 -11   7   6    1.14    1.55
 -11   7   6    1.34    1.46
  -9  -7   6    4.46    1.51
   9  -7  -6    2.07    1.28
   9  -7  -6    2.90    1.31
   9   7  -6    4.67    1.79
  -9   7   6    1.25    1.41
  -7  -7   6    4.41    1.45
   7  -7  -6    3.63    1.37
   7  -7  -6    1.76    1.22
  -7   7   6    4.86    1.45
   7   7  -6    3.28    1.16
  -5  -7   6    0.71    1.88
   5  -7  -6    3.33    1.19
   5  -7  -6    0.07    1.14
  -5   7   6    3.31    1.32
  -3  -7   6    6.02    1.28
   3  -7  -6    2.00    1.29
   3  -7  -6    4.95    1.25
  -3   7   6    5.11    1.41
   1  -7  -6    4.18    1.60
   1  -7  -6    3.93    1.22
   1  -7  -6    4.27    0.97
  -1  -7   6    4.92    1.21
  -1   7   6    4.84    1.34
   1  -7   6    3.30    1.26
  -1  -7  -6    3.70    1.20
  -1  -7  -6    3.65    1.19
  -1  -7  -6    2.84    1.37
   1   7   6    4.29    1.33
  -3  -7  -6    6.25    1.32
  -3  -7  -6    4.19    1.50
  -3  -7  -6    4.33    1.28
   3   7   6    3.25    1.48
  -5  -7  -6    2.20    1.25
  -5  -7  -6    2.95    1.57
  -5  -7  -6    3.26    1.28
   5   7   6    5.90    1.71
 -20   0   7    3.25    1.34
  20   0  -7    3.97    1.57
 -20   0   7    5.59    1.63
 -18   0   7   12.50    1.72
  18   0  -7    9.95    1.59
 -18   0   7   10.90    1.54
  16   0  -7   14.26    2.02
  16   0  -7    9.26    1.42
 -16   0   7    7.25    1.29
 -16   0   7    9.85    1.49
  14   0  -7   20.88    1.73
 -14   0   7   18.97    1.81
 -14   0   7   19.47    1.73
  14   0  -7   18.08    1.51
 -12   0   7   14.21    1.51
 -12   0   7   15.48    1.52
  12   0  -7   12.96    1.30
  12   0  -7   13.57    1.47
 -10   0   7   50.83    2.32
  10   0  -7   50.21    2.30
  10   0  -7   45.95    2.42
   8   0  -7   89.96    3.06
  -8   0   7   89.19    3.10
  -6   0   7   43.71    1.87
   6   0  -7   42.41    1.82
   4   0  -7   38.13    2.65
   4   0  -7   33.25    1.46
   4   0  -7   32.01    1.68
  -4   0   7   32.95    1.52
   2   0  -7  139.49    4.47
  -2   0   7  144.58    3.95
   2   0  -7  141.89    3.72
   0   0  -7   52.93    2.39
   0   0  -7   53.72    2.26
   0   0   7   52.19    1.81
  -2   0  -7   68.75    2.73
  -2   0  -7   65.65    2.79
   2   0   7   69.38    2.11
  -4   0  -7   51.53    2.54
  -4   0  -7   52.04    2.52
   4   0   7   55.30    1.88
  -4   0  -7   52.97    2.28
  -6   0  -7   23.54    1.89
  -6   0  -7   24.73    1.79
  -6   0  -7   28.36    1.75
   6   0   7   26.05    1.16
  -8   0  -7   44.82    2.28
   8   0   7   44.21    1.67
  -8   0  -7   45.27    2.44
 -10   0  -7   21.86    2.06
 -10   0  -7   21.10    2.06
 -10   0  -7   21.61    1.91
 -12   0  -7    5.56    1.48
 -12   0  -7    6.13    1.51
 -12   0  -7    8.89    1.61
 -19  -1   7    5.73    1.59
 -19  -1   7    5.50    1.38
  19  -1  -7    2.53    1.50
 -19   1   7    4.27    1.33
  19   1  -7    4.74    1.50
 -19   1   7    6.23    1.54
 -17  -1   7    2.35    1.13
  17  -1  -7    2.84    1.00
  17  -1  -7    1.37    1.21
 -17  -1   7    1.97    0.97
 -17   1   7    1.20    1.14
 -17   1   7    3.49    1.28
  17   1  -7    2.26    0.90
  17   1  -7    0.86    1.01
 -15  -1   7   24.20    1.95
 -15  -1   7   24.90    1.89
  15  -1  -7   24.81    1.96
  15  -1  -7   20.81    1.52
 -15   1   7   24.45    1.97
 -15   1   7   26.58    2.00
  15   1  -7   23.15    1.87
 -13  -1   7   29.92    1.99
 -13  -1   7   34.52    2.06
  13  -1  -7   32.96    1.99
  13  -1  -7   33.03    2.01
  13   1  -7   30.91    1.97
  13   1  -7   29.18    2.02
 -13   1   7   32.32    2.01
 -13   1   7   31.21    1.97
 -11  -1   7   17.88    1.65
 -11  -1   7   18.05    1.56
  11  -1  -7   18.96    1.59
  11   1  -7   18.80    1.44
 -11   1   7   18.40    1.65
 -11   1   7   18.77    1.62
  11   1  -7   18.67    1.61
  -9  -1   7   36.02    1.86
  -9  -1   7   34.18    1.93
   9  -1  -7   29.52    2.12
   9   1  -7   32.97    1.83
  -9   1   7   31.64    2.46
   9   1  -7   37.36    1.83
  -7  -1   7   41.50    1.94
   7  -1  -7   42.27    1.92
   7  -1  -7   43.92    2.38
   7   1  -7   44.54    1.83
  -7   1   7   47.06    2.07
   7   1  -7   44.32    2.11
  -5  -1   7   62.46    2.27
   5  -1  -7   62.05    2.41
   5  -1  -7   63.33    2.27
   5  -1  -7   63.42    2.63
   5   1  -7   62.83    2.60
  -5   1   7   64.81    2.33
   5   1  -7   61.63    2.11
   3  -1  -7   90.80    3.11
   3  -1  -7   99.25    2.92
   3  -1  -7   92.92    3.34
  -3  -1   7   92.12    2.86
   3   1  -7   92.75    2.57
   3   1  -7   97.77    3.29
   3   1  -7   96.92    3.40
  -3   1   7   94.90    2.96
   1  -1  -7   34.93    1.93
   1  -1  -7   35.97    1.43
  -1  -1   7   33.21    1.36
   1   1  -7   36.15    1.97
   1   1  -7   33.98    1.81
  -1   1   7   35.19    1.49
  -1  -1  -7   38.79    2.09
   1  -1   7   35.66    1.31
  -1  -1  -7   34.21    1.27
  -1  -1  -7   35.25    1.23
  -1  -1  -7   36.30    1.97
   1   1   7   36.68    1.47
  -1   1  -7   36.40    1.96
  -1   1  -7   37.39    2.05
  -3  -1  -7   91.18    3.44
  -3  -1  -7   89.92    3.32
   3  -1   7   93.40    2.51
  -3  -1  -7   83.89    4.18
  -3   1  -7   95.73    3.44
   3   1   7   90.35    2.72
  -3   1  -7   86.12    3.52
  -5  -1  -7   24.16    1.73
  -5  -1  -7   25.97    1.99
  -5  -1  -7   25.46    1.81
  -5   1  -7   27.48    1.66
   5   1   7   23.83    1.24
  -5   1  -7   23.87    1.81
  -5   1  -7   26.46    1.97
  -7  -1  -7   23.20    1.84
  -7  -1  -7   24.34    1.73
  -7   1  -7   22.74    1.93
   7   1   7   24.18    1.29
  -7   1  -7   25.95    1.75
  -7   1  -7   24.64    2.27
  -9  -1  -7   24.67    1.96
  -9  -1  -7   26.00    2.11
  -9  -1  -7   25.26    2.19
  -9   1  -7   25.02    2.24
  -9   1  -7   28.16    2.12
   9   1   7   24.50    1.44
  -9   1  -7   26.05    1.82
 -11  -1  -7    9.81    1.59
 -11  -1  -7   11.46    1.72
 -11  -1  -7   10.31    1.60
 -11   1  -7   13.09    1.74
 -11   1  -7   13.65    1.70
 -11   1  -7   13.97    1.82
 -13  -1  -7    7.64    1.66
 -13  -1  -7    9.01    1.91
 -13   1  -7   10.12    1.95
 -13   1  -7    8.60    1.62
 -18  -2   7    6.76    1.46
  18  -2  -7    8.76    1.71
 -18  -2   7    6.95    1.54
 -18   2   7    9.45    1.64
  18   2  -7    5.16    1.42
 -18   2   7    8.83    1.56
 -16  -2   7    6.84    1.20
 -16  -2   7    7.70    1.35
  16  -2  -7    8.25    1.44
  16   2  -7    6.97    1.18
 -16   2   7    7.32    1.45
 -16   2   7    7.51    1.46
  16   2  -7    5.87    1.30
 -14  -2   7   15.24    1.66
  14  -2  -7   15.86    1.70
  14  -2  -7   15.10    1.44
 -14  -2   7   15.50    1.58
  14   2  -7   12.33    1.48
 -14   2   7   15.23    1.64
 -14   2   7   14.33    1.64
  14   2  -7   13.70    1.65
  12  -2  -7   10.65    1.29
 -12  -2   7    9.43    1.32
  12  -2  -7   10.36    1.37
 -12  -2   7    8.79    1.32
 -12   2   7    9.92    1.39
  12   2  -7   11.92    1.43
 -12   2   7    9.38    1.39
  12   2  -7   12.20    1.48
 -10  -2   7   30.42    1.95
  10  -2  -7   30.50    1.82
 -10  -2   7   36.23    1.89
  10  -2  -7   31.05    1.92
  10   2  -7   31.70    1.84
 -10   2   7   31.75    1.97
  10   2  -7   30.36    1.89
  -8  -2   7   52.05    2.30
   8  -2  -7   55.72    2.40
   8  -2  -7   55.02    2.44
  -8  -2   7   51.83    2.44
   8   2  -7   55.25    2.18
  -8   2   7   53.22    2.41
   8   2  -7   55.35    2.44
   6  -2  -7   24.00    1.56
  -6  -2   7   26.04    1.46
   6  -2  -7   27.75    1.49
   6  -2  -7   24.96    1.72
   6   2  -7   28.84    1.77
   6   2  -7   25.65    1.32
  -6   2   7   27.17    1.61
   4  -2  -7   16.58    1.47
   4  -2  -7   18.17    1.31
  -4  -2   7   18.06    1.16
   4  -2  -7   18.42    1.27
   4   2  -7   15.63    1.45
  -4   2   7   16.91    1.25
   4   2  -7   17.40    0.91
  -2  -2   7   86.43    2.67
   2  -2  -7   86.81    2.81
   2  -2  -7   88.70    2.96
   2   2  -7   86.61    3.21
  -2   2   7   86.33    2.83
   2   2  -7   87.32    3.31
   0  -2  -7   29.74    1.95
   0  -2  -7   32.65    1.44
   0  -2  -7   30.54    1.70
   0  -2   7   29.30    1.27
   0   2  -7   28.91    1.86
   0   2  -7   27.15    1.88
   0   2   7   29.35    1.49
  -2  -2  -7   39.04    1.53
   2  -2   7   39.33    1.39
  -2  -2  -7   44.20    2.91
  -2  -2  -7   32.14    2.77
  -2   2  -7   39.74    3.41
   2   2   7   41.98    1.68
  -2   2  -7   36.97    2.16
  -4  -2  -7   32.15    1.21
  -4  -2  -7   30.34    1.89
  -4  -2  -7   28.18    2.11
  -4  -2  -7   28.90    1.79
   4  -2   7   28.41    1.09
  -4   2  -7   30.31    2.05
   4   2   7   30.88    1.50
  -6  -2  -7   13.01    1.58
  -6  -2  -7   15.60    1.54
  -6  -2  -7   16.97    1.93
  -6   2  -7   15.99    1.44
   6   2   7   16.39    1.23
  -6   2  -7   14.87    1.73
  -6   2  -7   18.99    1.79
  -8  -2  -7   28.53    2.35
  -8  -2  -7   23.74    1.99
  -8  -2  -7   29.44    2.05
  -8   2  -7   27.72    2.10
  -8   2  -7   29.41    2.07
   8   2   7   27.46    1.78
  -8   2  -7   31.52    2.15
 -10  -2  -7   18.37    2.06
 -10  -2  -7   16.04    1.86
 -10  -2  -7   15.04    1.90
 -10   2  -7   14.05    1.64
 -10   2  -7   13.69    1.82
 -10   2  -7   14.01    1.88
  10   2   7   12.13    1.59
 -12  -2  -7    3.84    1.45
 -12  -2  -7    5.07    1.54
 -12  -2  -7    0.59    1.31
 -12   2  -7    4.40    1.48
  12   2   7    5.70    1.32
 -12   2  -7    3.81    1.58
 -12   2  -7    1.94    1.24
 -17  -3   7    0.79    1.16
  17  -3  -7    3.84    1.48
 -17  -3   7    0.76    1.27
  17   3  -7    0.85    1.22
 -17   3   7   -0.13    1.32
 -17   3   7    1.75    1.35
 -15  -3   7   10.30    1.41
  15  -3  -7   16.82    1.94
 -15  -3   7   13.68    1.80
  15  -3  -7   13.62    1.51
  15   3  -7   15.94    1.82
 -15   3   7   14.35    1.87
  15   3  -7   16.41    1.91
 -15   3   7   11.78    1.63
 -13  -3   7   14.74    1.64
 -13  -3   7   15.83    1.54
  13  -3  -7   16.32    1.76
 -13   3   7   13.96    1.70
  13   3  -7   16.09    1.60
 -13   3   7   14.95    1.71
  13   3  -7   12.63    1.60
 -11  -3   7   11.36    1.47
  11  -3  -7   11.72    1.47
  11   3  -7   14.69    1.83
  11   3  -7   11.20    1.46
 -11   3   7    8.70    1.42
   9  -3  -7   18.86    1.66
  -9  -3   7   19.69    1.72
  -9  -3   7   19.26    1.41
  -9   3   7   19.82    1.67
   9   3  -7   17.33    1.60
   9   3  -7   22.01    1.83
  -7  -3   7   24.93    1.64
   7  -3  -7   22.50    1.64
  -7  -3   7   24.31    1.39
   7   3  -7   23.42    1.88
  -7   3   7   24.49    1.71
   5  -3  -7   33.98    1.84
   5  -3  -7   31.27    2.16
   5  -3  -7   34.82    1.60
  -5  -3   7   32.65    1.67
  -5   3   7   32.73    1.85
   5   3  -7   29.21    1.32
   5   3  -7   30.75    2.05
   3  -3  -7   47.23    2.41
   3  -3  -7   52.73    2.22
  -3  -3   7   47.37    1.91
   3  -3  -7   50.68    2.02
  -3   3   7   47.09    2.17
   3   3  -7   49.48    2.49
   1  -3  -7   18.92    1.73
  -1  -3   7   21.04    1.16
   1  -3  -7   20.09    1.41
   1  -3  -7   20.53    1.42
  -1   3   7   19.98    1.41
   1   3  -7   20.24    1.76
   1  -3   7   18.99    1.49
  -1  -3  -7   20.54    1.84
  -1  -3  -7   21.12    1.36
  -1  -3  -7   22.54    1.57
   1   3   7   21.23    1.42
  -1   3  -7   21.52    1.77
  -1   3  -7   19.18    1.84
  -3  -3  -7   49.02    2.72
   3  -3   7   49.16    1.63
  -3  -3  -7   52.52    2.40
  -3  -3  -7   53.79    2.04
  -3  -3  -7   48.76    2.31
  -3   3  -7   53.64    2.61
   3   3   7   50.71    2.18
  -3   3  -7   48.15    2.51
  -5  -3  -7   15.65    1.19
  -5  -3  -7   14.57    1.87
  -5  -3  -7   14.36    1.54
  -5  -3  -7   14.54    1.58
  -5   3  -7   12.35    1.68
   5   3   7   12.52    1.53
  -5   3  -7   13.71    1.74
  -7  -3  -7   15.98    1.68
  -7  -3  -7   16.68    1.78
  -7  -3  -7   16.80    1.73
  -7  -3  -7   13.07    1.85
  -7   3  -7   16.62    1.78
   7   3   7   13.20    1.64
  -7   3  -7   16.59    1.89
  -7   3  -7   15.30    1.48
  -9  -3  -7   14.91    1.97
  -9  -3  -7   15.62    1.95
  -9  -3  -7   13.04    1.79
   9   3   7   13.61    1.60
  -9   3  -7   16.04    1.94
  -9   3  -7   15.60    1.92
  -9   3  -7   15.04    1.67
 -11  -3  -7    6.85    1.77
 -11  -3  -7    3.83    1.42
 -11  -3  -7    7.04    1.59
 -11   3  -7    6.43    1.51
 -11   3  -7    8.12    1.36
 -11   3  -7    6.72    1.59
  11   3   7    6.51    1.37
 -16  -4   7    2.01    1.19
  16  -4  -7    3.28    1.31
  16  -4  -7    5.75    1.66
 -16  -4   7    3.23    1.45
 -16   4   7    5.79    1.59
  16   4  -7    2.05    1.27
 -16   4   7    2.11    1.32
  14  -4  -7    6.24    1.49
 -14  -4   7    7.76    1.24
 -14  -4   7    9.13    1.60
  14  -4  -7    7.40    1.44
 -14   4   7    7.27    1.48
  14   4  -7    7.78    1.44
 -14   4   7    6.00    1.33
  12  -4  -7    4.93    1.23
  12  -4  -7    5.32    1.33
 -12  -4   7    6.23    1.25
 -12  -4   7    5.03    1.15
  12   4  -7    5.48    1.17
 -12   4   7    5.21    1.30
 -12   4   7    6.83    1.28
  12   4  -7    5.61    1.30
  10  -4  -7   13.83    1.68
 -10  -4   7   15.98    1.34
 -10  -4   7   14.29    1.60
  10  -4  -7   10.60    1.46
 -10   4   7   13.98    1.64
  10   4  -7   14.19    1.73
  10   4  -7   13.23    1.48
  -8  -4   7   23.37    1.34
  -8  -4   7   21.80    1.80
   8  -4  -7   21.33    1.82
   8  -4  -7   21.85    1.74
  -8   4   7   25.12    1.77
   8   4  -7   23.77    1.90
  -6  -4   7   13.60    1.12
   6  -4  -7   14.20    1.54
   6  -4  -7   16.50    1.17
  -6  -4   7   14.90    1.46
   6  -4  -7   14.78    1.43
  -6   4   7   15.73    1.60
   6   4  -7   15.70    1.61
   6   4  -7   15.61    1.13
  -4  -4   7   10.36    0.92
  -4  -4   7   10.37    1.10
   4  -4  -7    7.89    1.15
   4  -4  -7    8.94    1.04
   4  -4  -7    9.28    1.41
   4   4  -7    9.65    0.72
  -4   4   7    8.53    1.32
   4   4  -7    9.00    1.53
   2  -4  -7   36.76    2.30
  -2  -4   7   38.20    1.66
   2  -4  -7   35.53    1.94
   2   4  -7   41.11    2.35
  -2   4   7   38.29    2.04
   0  -4  -7   14.06    1.39
   0  -4  -7   15.52    1.41
   0  -4   7   13.73    1.05
   0  -4  -7   15.24    1.72
   0   4  -7   14.82    1.75
   0   4   7   13.70    1.44
  -2  -4  -7   19.13    1.66
  -2  -4  -7   20.06    1.55
   2  -4   7   19.06    1.07
  -2  -4  -7   21.20    1.92
  -2   4  -7   18.35    1.85
   2   4   7   18.29    1.56
  -4  -4  -7   16.32    1.61
  -4  -4  -7   16.97    1.60
  -4  -4  -7   14.33    1.60
  -4  -4  -7   16.78    1.89
  -4   4  -7   16.11    1.86
  -4   4  -7   15.73    1.78
   4   4   7   15.09    1.57
  -6  -4  -7    7.34    1.61
  -6  -4  -7    8.24    1.37
  -6  -4  -7    9.80    1.66
  -6  -4  -7    9.66    1.42
  -6   4  -7    8.54    1.46
   6   4   7   10.19    1.45
  -6   4  -7    8.84    1.50
  -8  -4  -7   13.61    2.10
  -8  -4  -7   12.69    1.42
  -8  -4  -7   13.04    1.75
  -8  -4  -7   13.31    1.83
  -8   4  -7   14.62    1.91
   8   4   7   17.41    1.79
  -8   4  -7   17.23    2.20
 -10  -4  -7    5.86    1.55
 -10  -4  -7    8.61    1.66
 -10  -4  -7    8.86    1.88
  10   4   7    7.56    1.58
 -10   4  -7    9.63    1.91
 -10   4  -7   10.64    1.65
 -15  -5   7    3.97    1.66
 -15  -5   7    5.38    1.32
  15  -5  -7    2.53    1.61
  15  -5  -7    4.19    1.35
 -15   5   7    4.60    1.45
  15   5  -7    3.59    1.32
 -15   5   7    3.33    1.55
  13  -5  -7    3.66    1.35
 -13  -5   7    4.85    1.25
 -13  -5   7    7.13    1.58
  13  -5  -7    5.67    1.42
 -13   5   7    3.95    1.44
 -13   5   7    5.04    1.43
  13   5  -7    5.68    1.38
 -11  -5   7    3.89    1.33
  11  -5  -7    5.29    1.34
 -11  -5   7    4.90    1.25
  11  -5  -7    6.09    1.36
  11   5  -7    4.28    1.18
 -11   5   7    5.32    1.34
  -9  -5   7    6.71    0.89
   9  -5  -7    5.35    1.18
   9  -5  -7    8.80    1.57
  -9  -5   7    8.45    1.41
   9   5  -7    9.07    1.55
   9   5  -7    4.26    1.14
  -9   5   7    5.69    1.21
  -7  -5   7    8.00    1.33
   7  -5  -7   10.27    1.59
  -7  -5   7    8.10    0.91
   7  -5  -7    8.29    1.29
   7   5  -7    8.60    1.48
  -7   5   7    6.04    1.34
   7   5  -7    7.61    1.12
   5  -5  -7    6.97    1.18
   5  -5  -7    9.70    1.05
   5  -5  -7    9.01    1.42
  -5  -5   7   11.03    0.86
   5   5  -7    8.59    0.96
  -5   5   7    9.10    1.38
   5   5  -7    8.02    1.54
   3  -5  -7   13.70    1.72
   3  -5  -7   15.08    1.45
   3  -5  -7   14.18    1.26
  -3  -5   7   15.14    1.57
  -3   5   7   15.42    1.69
   3   5  -7   13.38    1.73
   1  -5  -7    7.58    1.05
  -1  -5   7    9.23    1.07
   1  -5  -7    6.34    1.15
   1  -5  -7    7.70    1.55
  -1   5   7    6.02    1.21
   1   5  -7    7.23    1.43
  -1  -5  -7    7.07    1.14
   1  -5   7    8.57    1.08
  -1  -5  -7    6.56    1.16
  -1  -5  -7    9.41    1.69
  -1   5  -7    6.37    1.47
   1   5   7    8.93    1.34
  -3  -5  -7   15.76    1.55
  -3  -5  -7   11.11    1.80
  -3  -5  -7   14.68    1.63
  -3   5  -7   17.53    1.97
   3   5   7   16.74    1.80
  -5  -5  -7    4.73    1.11
  -5  -5  -7    3.29    1.42
  -5  -5  -7    5.37    1.14
  -5   5  -7    3.92    1.37
   5   5   7    4.67    1.29
  -7  -5  -7    7.43    1.29
  -7  -5  -7    4.19    1.32
  -7  -5  -7    7.12    1.76
  -7  -5  -7    5.90    1.49
  -7   5  -7    8.23    1.64
   7   5   7    7.72    1.63
  -7   5  -7    7.05    1.64
  -9  -5  -7    4.47    1.74
  -9  -5  -7    4.20    1.50
  -9  -5  -7    7.14    1.39
  -9  -5  -7    3.63    1.49
   9   5   7    5.46    1.70
  -9   5  -7    7.41    1.83
  12  -6  -7    2.84    1.39
 -12  -6   7    2.95    1.59
  12  -6  -7    1.04    1.53
 -12   6   7   -1.39    1.42
 -12   6   7    1.33    1.40
  12   6  -7   -0.26    1.22
  10  -6  -7    1.93    1.26
  10  -6  -7    5.95    1.49
 -10  -6   7    1.48    1.34
 -10   6   7    2.19    1.37
  10   6  -7    2.73    1.12
   8  -6  -7    5.28    1.31
  -8  -6   7    7.61    1.47
   8  -6  -7    3.82    1.33
  -8   6   7    3.30    1.37
   8   6  -7    6.04    1.21
  -6  -6   7    4.12    1.21
   6  -6  -7    3.22    1.09
   6  -6  -7    2.45    1.24
  -6   6   7    2.35    1.24
   6   6  -7    4.17    1.04
   4  -6  -7    2.62    1.26
   4  -6  -7    3.51    0.84
   4  -6  -7    1.10    0.92
  -4  -6   7    3.47    1.16
  -4   6   7    1.23    1.17
   2  -6  -7    7.64    1.29
   2  -6  -7    9.62    1.12
   2  -6  -7    9.18    1.78
  -2  -6   7    8.32    2.24
  -2   6   7    8.87    1.44
   0  -6  -7    4.17    1.11
   0  -6  -7    3.69    1.42
   0  -6  -7    3.24    1.05
   0  -6   7    2.06    1.16
   0   6   7    5.88    1.35
  -2  -6  -7    3.55    1.18
  -2  -6  -7    4.45    1.19
  -2  -6  -7    4.68    1.52
   2   6   7    4.46    1.45
  -4  -6  -7    5.68    1.32
  -4  -6  -7    5.36    1.25
  -4  -6  -7    1.97    1.44
   4   6   7    5.52    1.46
  -6  -6  -7    1.72    1.26
  -6  -6  -7   -0.24    1.52
  -6  -6  -7   -0.20    1.16
   6   6   7    1.02    1.52
   9  -7  -7    0.77    1.36
  -9  -7   7    0.95    1.63
   9   7  -7    6.29    1.47
  -9   7   7    2.92    1.63
   7  -7  -7    2.17    1.39
   7  -7  -7    0.73    1.21
  -7  -7   7    1.59    1.48
  -7   7   7    3.30    1.56
  -5  -7   7    2.30    1.37
   5  -7  -7    1.40    1.12
   5  -7  -7    2.43    1.34
  -5   7   7    3.63    1.46
   3  -7  -7    4.04    1.26
  -3  -7   7    3.08    1.37
   3  -7  -7    3.55    1.46
  -3   7   7    3.65    1.48
  -1  -7   7    2.89    1.23
   1  -7  -7   -0.18    1.09
   1  -7  -7    1.09    1.49
  -1   7   7   -0.15    1.38
  -1  -7  -7    1.54    1.44
  -1  -7  -7    2.56    1.23
  -1  -7  -7    2.29    1.27
   1   7   7    1.93    1.47
 -18   0   8    0.87    1.27
 -18   0   8    3.00    1.33
  18   0  -8    1.84    1.23
 -16   0   8    9.85    1.54
  16   0  -8    6.91    1.32
 -16   0   8    6.02    1.34
  16   0  -8    9.57    1.38
 -14   0   8   21.76    1.98
  14   0  -8   17.57    1.80
 -14   0   8   23.72    1.87
  14   0  -8   22.37    3.08
 -12   0   8    6.48    1.19
 -12   0   8    5.70    1.17
  12   0  -8    4.03    1.05
  10   0  -8   11.60    1.38
 -10   0   8   15.57    1.57
   8   0  -8   23.82    1.89
  -6   0   8   11.30    1.30
   4   0  -8   41.86    2.67
   4   0  -8   51.01    2.34
   4   0  -8   50.38    1.87
  -4   0   8   49.78    2.01
   2   0  -8   17.88    2.57
  -2   0   8   13.30    1.07
   2   0  -8   13.08    1.63
   2   0  -8   15.56    0.86
   0   0  -8    7.67    1.23
   0   0  -8   11.11    1.62
   0   0   8    7.27    0.89
  -2   0  -8   29.36    2.13
  -2   0  -8   29.55    1.96
   2   0   8   30.40    1.34
  -4   0  -8   21.61    1.94
  -4   0  -8   19.98    1.80
   4   0   8   20.75    1.12
  -6   0  -8    3.81    1.14
   6   0   8    4.43    0.71
  -6   0  -8    4.40    1.07
  -6   0  -8    4.22    1.27
  -8   0  -8   17.67    1.76
  -8   0  -8   19.57    1.99
  -8   0  -8   14.60    1.94
 -10   0  -8    1.83    1.20
 -10   0  -8    2.65    1.32
 -10   0  -8    4.94    1.50
  19  -1  -8    3.82    1.55
 -19  -1   8    2.65    1.26
 -19  -1   8    2.34    1.57
 -19   1   8    5.19    1.53
  19   1  -8    4.58    1.48
 -19   1   8    2.58    1.66
 -17  -1   8    5.86    1.32
  17  -1  -8    2.67    1.42
 -17  -1   8    5.41    1.48
  17  -1  -8    8.18    1.35
 -17   1   8    4.29    1.41
 -17   1   8    4.84    1.45
  17   1  -8    5.30    1.28
  15  -1  -8    5.94    1.35
 -15  -1   8    5.02    1.16
 -15  -1   8    5.92    1.37
 -15   1   8    5.59    1.32
  15   1  -8    6.51    1.26
  15   1  -8    6.15    1.34
 -15   1   8    5.28    1.39
 -13  -1   8    5.63    1.13
  13  -1  -8    4.71    1.21
  13  -1  -8    8.60    1.95
 -13  -1   8    9.75    1.47
 -13   1   8    8.10    1.34
 -13   1   8    6.51    1.26
  13   1  -8    8.22    1.32
  13   1  -8    7.17    1.28
  11  -1  -8    9.40    1.32
  11  -1  -8    9.33    1.70
 -11  -1   8    7.05    1.21
 -11  -1   8   10.84    1.43
  11   1  -8    9.11    1.27
  11   1  -8    6.82    1.27
 -11   1   8    9.59    1.34
   9  -1  -8   29.57    2.21
   9  -1  -8   32.35    1.95
  -9  -1   8   34.69    1.99
  -9   1   8   37.87    2.10
   9   1  -8   34.80    2.06
   9   1  -8   33.99    1.86
  -7  -1   8    7.31    1.09
   7  -1  -8    7.00    1.34
   7  -1  -8    6.47    1.26
   7   1  -8    7.45    0.99
   7   1  -8    6.17    1.15
  -5  -1   8   15.24    1.28
   5  -1  -8   14.26    1.58
   5  -1  -8   16.17    1.27
   5  -1  -8   13.49    1.42
   5   1  -8   14.40    1.59
  -5   1   8   17.95    1.35
   5   1  -8   15.89    1.13
   3  -1  -8   21.89    1.30
   3  -1  -8   21.86    1.69
  -3  -1   8   23.80    1.35
   3  -1  -8   21.30    1.79
   3   1  -8   21.83    0.92
  -3   1   8   22.59    1.41
   3   1  -8   21.34    1.71
   3   1  -8   22.83    1.88
   1  -1  -8   18.69    1.78
   1  -1  -8   21.11    1.15
   1  -1  -8   20.31    1.87
  -1  -1   8   20.31    1.18
   1   1  -8   18.88    1.79
   1   1  -8   19.04    1.67
  -1   1   8   20.40    1.25
  -1  -1  -8   18.28    1.61
  -1  -1  -8   18.52    1.81
   1  -1   8   17.46    1.05
   1   1   8   16.53    1.15
  -1   1  -8   17.17    1.67
  -1   1  -8   15.82    1.79
  -3  -1  -8   12.85    1.74
  -3  -1  -8   13.80    1.60
   3  -1   8   13.52    0.94
  -3   1  -8   15.53    1.69
  -3   1  -8   12.48    1.61
   3   1   8   14.20    1.05
  -5  -1  -8    7.87    1.31
  -5  -1  -8    6.00    1.18
  -5  -1  -8    6.96    1.48
  -5   1  -8    7.22    1.35
  -5   1  -8    5.47    1.28
   5   1   8    7.24    0.95
  -7  -1  -8    9.20    1.43
  -7  -1  -8   11.81    1.78
  -7  -1  -8   10.04    1.48
  -7   1  -8   10.05    1.36
   7   1   8   11.03    1.14
  -7   1  -8   13.94    1.74
  -7   1  -8   10.46    1.63
  -9  -1  -8   10.93    1.77
  -9  -1  -8    8.11    1.51
  -9  -1  -8   10.16    1.68
  -9   1  -8   11.08    1.48
  -9   1  -8   11.55    1.63
  -9   1  -8    8.60    1.70
 -11  -1  -8    1.95    1.36
 -11  -1  -8    0.92    1.45
 -11  -1  -8    0.59    1.33
 -11   1  -8    2.66    1.44
 -11   1  -8    0.64    1.47
 -11   1  -8    0.30    1.18
 -18  -2   8   -0.42    1.11
 -18  -2   8   -0.07    1.36
  18  -2  -8    1.01    1.41
 -18   2   8    1.64    1.20
 -18   2   8    2.74    1.55
  18   2  -8    0.15    1.28
 -16  -2   8    3.06    1.13
  16  -2  -8    6.44    1.40
  16  -2  -8    5.15    1.37
 -16  -2   8    8.03    1.61
  16   2  -8    6.20    1.33
 -16   2   8    4.67    1.37
  16   2  -8    3.54    1.27
 -16   2   8    1.76    1.14
 -14  -2   8   16.79    1.68
 -14  -2   8   14.83    1.80
  14  -2  -8   16.84    1.88
  14  -2  -8   16.63    1.83
  14   2  -8   16.87    1.84
 -14   2   8   16.31    1.84
 -14   2   8   16.16    1.81
  14   2  -8   15.37    1.81
  12  -2  -8    5.38    1.21
 -12  -2   8    4.02    1.13
 -12  -2   8    3.27    1.01
  12  -2  -8    3.77    1.06
  12   2  -8    3.89    1.06
 -12   2   8    3.51    1.03
  12   2  -8    3.83    1.14
 -12   2   8    1.55    1.04
 -10  -2   8    9.15    1.33
  10  -2  -8    8.95    1.44
  10  -2  -8    9.51    1.34
 -10  -2   8    8.73    1.34
  10   2  -8    8.96    1.38
  10   2  -8    7.76    1.21
 -10   2   8   12.42    1.61
  -8  -2   8   22.31    2.29
   8  -2  -8   17.08    1.61
   8  -2  -8   17.05    1.72
   8   2  -8   19.47    1.51
   8   2  -8   14.94    1.67
  -8   2   8   16.17    1.59
  -6  -2   8    8.14    1.21
   6  -2  -8    7.05    1.04
   6  -2  -8    3.75    1.10
   6  -2  -8    6.52    1.11
   6   2  -8    7.20    0.89
   6   2  -8    6.90    1.31
  -6   2   8    8.00    1.23
   4  -2  -8   34.15    1.89
   4  -2  -8   31.19    2.09
   4  -2  -8   35.13    1.81
  -4  -2   8   34.21    1.65
  -4   2   8   34.17    1.90
   4   2  -8   31.67    2.08
   4   2  -8   33.90    1.17
   2  -2  -8   11.86    1.62
  -2  -2   8   11.73    1.06
   2  -2  -8   10.78    1.44
  -2   2   8   10.02    1.18
   2   2  -8   10.30    1.43
   2   2  -8    7.27    1.18
   0  -2  -8    5.05    1.04
   0  -2  -8    5.55    0.87
   0  -2   8    6.74    0.83
   0  -2  -8    5.53    1.29
   0   2  -8    5.40    1.30
   0   2  -8    5.69    1.11
   0   2   8    6.57    0.97
  -2  -2  -8   21.35    1.18
  -2  -2  -8   20.68    1.97
  -2  -2  -8   22.04    1.81
   2  -2   8   19.74    1.13
   2   2   8   19.17    1.45
  -2   2  -8   19.22    1.77
  -2   2  -8   22.35    1.87
  -4  -2  -8   13.59    1.54
  -4  -2  -8   14.94    1.93
  -4   2  -8   16.96    1.71
   4   2   8   12.84    1.23
  -4   2  -8   12.76    1.65
  -6  -2  -8    3.57    1.15
  -6  -2  -8    3.44    1.23
  -6  -2  -8    2.89    1.41
   6   2   8    0.81    0.81
  -6   2  -8    2.48    1.09
  -6   2  -8    3.06    1.27
  -8  -2  -8   10.67    1.59
  -8  -2  -8   17.03    1.94
  -8  -2  -8   14.17    1.95
  -8   2  -8   13.12    1.52
  -8   2  -8   13.08    1.70
  -8   2  -8   13.44    1.83
   8   2   8   12.25    1.42
 -10  -2  -8    5.19    1.64
 -10  -2  -8    0.37    1.32
 -10  -2  -8    1.76    1.43
 -10   2  -8    2.79    1.27
  10   2   8    1.27    1.26
 -10   2  -8    3.17    1.38
 -10   2  -8    0.66    1.40
  17  -3  -8    3.19    1.62
 -17  -3   8    7.31    1.49
 -17  -3   8    3.51    1.55
  17  -3  -8    6.67    1.53
 -17   3   8    2.20    1.40
  17   3  -8    3.75    1.44
  17   3  -8    3.48    1.38
 -17   3   8    1.32    1.44
 -15  -3   8    3.60    1.29
  15  -3  -8    5.14    1.34
 -15  -3   8    5.57    1.16
  15  -3  -8    5.38    1.51
 -15   3   8    2.70    1.13
  15   3  -8    5.31    1.27
 -15   3   8    6.53    1.44
  15   3  -8    5.69    1.36
 -13  -3   8    5.60    1.20
  13  -3  -8    4.78    1.32
 -13  -3   8    6.66    1.44
  13  -3  -8    7.12    1.36
  13   3  -8    5.33    1.22
 -13   3   8    4.41    1.23
 -13   3   8    5.90    1.32
  13   3  -8    5.69    1.24
  11  -3  -8    6.72    1.32
  11  -3  -8    5.99    1.25
 -11  -3   8    6.02    1.25
 -11  -3   8    5.33    1.15
  11   3  -8    6.44    1.20
 -11   3   8    7.74    1.47
  11   3  -8    5.49    1.23
   9  -3  -8   20.79    1.71
  -9  -3   8   21.27    1.55
  -9  -3   8   18.93    1.80
   9  -3  -8   20.68    1.81
   9   3  -8   21.57    1.68
  -9   3   8   20.89    1.73
   9   3  -8   18.62    1.86
   7  -3  -8    4.72    1.16
  -7  -3   8    6.69    1.52
   7  -3  -8    6.34    1.16
  -7  -3   8    6.93    0.99
   7   3  -8    5.01    1.25
  -7   3   8    6.13    1.11
   5  -3  -8   10.18    1.27
   5  -3  -8   12.43    1.54
   5  -3  -8   11.00    1.43
  -5   3   8   11.86    1.40
   5   3  -8   12.90    1.61
   5   3  -8   11.83    0.88
   3  -3  -8   13.27    1.70
  -3  -3   8   12.59    1.18
   3  -3  -8   13.39    1.43
   3  -3  -8   13.55    1.40
  -3   3   8   13.40    1.46
   3   3  -8   13.53    1.62
  -1  -3   8   13.35    1.06
   1  -3  -8   14.21    1.50
   1  -3  -8    9.02    1.40
   1   3  -8   12.93    1.61
  -1   3   8   12.53    1.44
  -1  -3  -8   12.51    1.63
  -1  -3  -8   12.44    1.28
   1  -3   8   11.73    1.35
  -1  -3  -8   12.38    1.47
   1   3   8   13.25    1.63
  -1   3  -8   15.29    1.74
  -1   3  -8   13.74    1.67
  -3  -3  -8   12.35    1.82
  -3  -3  -8    9.21    1.24
  -3  -3  -8   11.56    1.46
   3   3   8   11.05    1.44
  -3   3  -8    7.95    1.49
  -3   3  -8    8.25    1.35
  -5  -3  -8    5.08    1.51
  -5  -3  -8    4.88    1.18
  -5  -3  -8    5.50    1.21
  -5   3  -8    6.12    1.38
  -5   3  -8    7.60    1.53
   5   3   8    7.87    1.21
  -7  -3  -8    7.80    1.50
  -7  -3  -8    7.57    1.45
  -7  -3  -8    7.11    1.73
  -7   3  -8    8.73    1.58
   7   3   8    9.84    1.38
  -7   3  -8    6.27    1.50
  -9  -3  -8   10.18    1.97
  -9  -3  -8    5.96    1.54
  -9  -3  -8    4.78    1.46
  -9   3  -8    7.87    1.68
   9   3   8    9.91    1.49
  -9   3  -8    7.46    1.46
  -9   3  -8    6.41    1.64
 -16  -4   8   -0.53    1.57
  16  -4  -8    3.13    1.68
  16  -4  -8    5.07    1.39
 -16  -4   8    3.89    1.38
 -16   4   8    1.38    1.51
 -16   4   8    2.47    1.36
  16   4  -8    1.77    1.41
  14  -4  -8    7.34    1.41
 -14  -4   8    8.15    1.44
 -14  -4   8    9.60    1.72
  14  -4  -8    5.27    1.49
  14   4  -8    8.36    1.45
 -14   4   8    6.85    1.51
 -14   4   8    4.18    1.53
  14   4  -8    8.07    1.71
 -12  -4   8    3.45    1.05
 -12  -4   8    4.24    1.25
  12  -4  -8    1.74    1.08
  12  -4  -8    2.75    1.27
 -12   4   8    0.71    1.23
  12   4  -8    1.88    1.06
  12   4  -8    1.62    1.09
  10  -4  -8    6.18    1.36
 -10  -4   8    6.48    1.32
  10  -4  -8    5.50    1.30
 -10   4   8    6.20    1.34
  10   4  -8    7.04    1.42
  10   4  -8    7.38    1.20
   8  -4  -8   11.93    1.54
   8  -4  -8   12.11    1.72
  -8  -4   8   14.72    1.58
  -8  -4   8    9.90    1.21
  -8   4   8   12.09    1.56
   8   4  -8   10.52    1.64
   6  -4  -8    5.10    0.89
   6  -4  -8    4.07    1.07
  -6  -4   8    4.00    0.79
   6  -4  -8    5.70    1.36
  -6  -4   8    2.54    2.04
  -6   4   8    4.23    1.19
   6   4  -8    4.97    0.75
   6   4  -8    5.05    1.31
  -4  -4   8   18.75    1.95
   4  -4  -8   20.73    1.55
  -4  -4   8   20.82    1.32
   4  -4  -8   17.39    1.82
   4  -4  -8   17.36    1.61
   4   4  -8   18.21    1.91
  -4   4   8   21.03    1.71
  -2  -4   8    8.69    1.00
   2  -4  -8    8.93    1.21
   2  -4  -8    8.13    1.48
   2  -4  -8    8.90    1.48
   2   4  -8    9.83    1.71
  -2   4   8    6.91    1.23
   0  -4   8    8.14    1.07
   0  -4  -8    5.37    1.16
   0  -4  -8    4.92    1.27
   0  -4  -8    4.32    1.01
   0   4  -8    4.39    1.31
   0   4   8    5.51    1.10
  -2  -4  -8   12.02    1.44
  -2  -4  -8   12.22    1.79
  -2  -4  -8   11.15    1.49
   2   4   8   12.64    1.53
  -2   4  -8   11.67    1.78
  -4  -4  -8   13.57    1.64
  -4  -4  -8   10.54    1.47
  -4  -4  -8    7.59    1.74
  -4   4  -8   12.31    1.76
   4   4   8    8.66    1.37
  -4   4  -8    8.68    1.64
  -6  -4  -8    4.44    1.65
  -6  -4  -8    1.95    1.23
  -6  -4  -8    2.10    1.21
  -6  -4  -8    2.68    1.30
  -6   4  -8    2.40    1.33
   6   4   8    3.73    1.30
  -6   4  -8    2.05    1.34
  -8  -4  -8   10.34    2.05
  -8  -4  -8    7.36    1.56
  -8  -4  -8    7.61    1.55
  -8   4  -8   10.97    1.86
   8   4   8    8.50    1.60
  -8   4  -8   10.50    2.61
  13  -5  -8   -0.26    1.45
  13  -5  -8    2.80    1.38
 -13  -5   8    2.85    1.16
 -13  -5   8    2.05    1.54
 -13   5   8    4.08    1.60
  13   5  -8    2.12    1.29
 -13   5   8    3.80    1.49
  11  -5  -8    3.17    1.30
  11  -5  -8    3.09    1.31
 -11  -5   8    4.25    1.45
 -11  -5   8    1.88    1.15
  11   5  -8    2.51    1.30
  11   5  -8    3.48    1.24
 -11   5   8    2.25    1.38
  -9  -5   8    8.40    1.14
   9  -5  -8    7.87    1.40
   9  -5  -8    7.47    1.57
  -9  -5   8    8.19    1.51
  -9   5   8    7.20    1.46
   9   5  -8    8.20    1.27
   9   5  -8    7.58    1.46
  -7  -5   8    4.71    0.78
  -7  -5   8    4.12    1.20
   7  -5  -8    2.10    1.08
   7  -5  -8    1.59    1.02
  -7   5   8    4.78    1.25
   7   5  -8    3.70    0.97
   7   5  -8    1.38    1.31
  -5  -5   8    6.75    1.30
   5  -5  -8    4.03    1.18
   5  -5  -8    4.37    1.15
   5   5  -8    5.85    1.52
  -5   5   8    4.18    1.24
   3  -5  -8    5.36    1.34
   3  -5  -8    7.38    1.14
   3  -5  -8    6.00    1.20
  -3  -5   8    6.94    1.12
   3   5  -8    2.76    1.19
  -3   5   8    8.77    1.44
  -1  -5   8    6.91    1.04
   1  -5  -8    4.71    1.21
   1  -5  -8    8.71    1.26
   1  -5  -8    4.72    1.18
   1   5  -8    4.12    1.30
  -1   5   8    5.89    1.32
  -1  -5  -8    5.70    1.16
  -1  -5  -8    3.93    1.09
  -1  -5  -8    3.27    1.22
   1   5   8    8.87    1.41
  -1   5  -8    4.48    1.36
  -3  -5  -8    5.00    1.22
  -3  -5  -8    6.26    1.20
  -3  -5  -8    5.20    1.58
  -3   5  -8    4.47    1.56
   3   5   8    4.19    1.26
  -5  -5  -8    6.35    1.44
  -5  -5  -8    3.47    1.17
  -5  -5  -8    3.84    1.61
  -5   5  -8    2.39    1.51
   5   5   8    3.12    1.43
  -7  -5  -8    2.23    1.47
  -7   5  -8    3.56    1.59
  10  -6  -8    0.80    1.30
  10  -6  -8    1.90    1.35
 -10  -6   8    2.20    1.62
 -10   6   8    3.87    1.58
   8  -6  -8    0.27    1.17
   8  -6  -8    2.13    1.41
  -8  -6   8    2.72    1.45
  -8   6   8    4.43    1.45
   8   6  -8    3.00    1.19
   6  -6  -8    3.06    1.42
   6  -6  -8    2.20    1.19
  -6  -6   8    2.43    1.29
   6   6  -8    3.59    1.50
  -6   6   8    1.41    1.37
   4  -6  -8    4.66    1.23
   4  -6  -8    7.43    1.28
   4  -6  -8    5.06    1.49
  -4  -6   8    5.49    1.37
   4   6  -8    4.27    1.59
  -4   6   8    6.11    1.54
   2  -6  -8    2.11    1.11
   2  -6  -8    3.51    1.17
  -2  -6   8    4.16    1.41
   2  -6  -8    4.59    1.42
  -2   6   8    3.57    1.31
   2   6  -8    2.63    1.40
   0  -6  -8    0.81    1.10
   0  -6  -8    0.08    1.29
   0  -6  -8    1.66    1.08
   0   6  -8    1.70    1.46
   0   6   8    2.32    1.42
  -2  -6  -8    2.10    1.15
  -2  -6  -8    3.41    1.60
  -2  -6  -8    4.36    1.30
  -2   6  -8    2.23    1.47
   2   6   8    3.92    1.55
  18   0  -9   -0.65    1.23
 -18   0   9    0.25    1.52
 -18   0   9    1.01    1.45
  16   0  -9    0.93    1.08
  16   0  -9    1.34    1.20
 -16   0   9    2.17    1.30
 -16   0   9    1.74    1.22
  14   0  -9    2.89    1.10
 -14   0   9    0.96    0.99
 -14   0   9    1.09    1.28
  14   0  -9    0.73    1.04
  12   0  -9    3.89    1.08
 -12   0   9    2.84    1.12
  12   0  -9    2.65    1.08
 -12   0   9    1.07    1.07
  10   0  -9   10.54    1.40
 -10   0   9    9.48    1.36
  10   0  -9   11.21    1.55
  -8   0   9    8.13    1.33
   8   0  -9    9.34    1.46
   8   0  -9    6.78    1.15
   6   0  -9    1.57    0.82
   6   0  -9    0.96    0.94
   4   0  -9   19.71    1.22
   4   0  -9   17.47    1.76
  -4   0   9   22.09    1.53
   4   0  -9   18.60    1.70
  -2   0   9   11.98    1.18
   2   0  -9   11.46    1.52
   2   0  -9   12.79    1.60
   0   0  -9    6.02    1.37
   0   0  -9    3.29    0.99
   0   0   9    2.90    0.79
   2   0   9   15.88    1.19
  -2   0  -9   15.41    1.78
  -2   0  -9   20.19    1.98
   4   0   9    5.21    0.83
  -4   0  -9    4.00    1.40
  -4   0  -9    5.36    1.24
  -6   0  -9    8.82    1.60
  -6   0  -9   10.07    1.59
  -8   0  -9   15.24    1.88
  -8   0  -9    9.62    1.68
  -8   0  -9    9.30    1.78
  17  -1  -9    1.32    1.37
 -17  -1   9    0.72    1.28
  17  -1  -9    0.03    1.25
 -17  -1   9    0.88    1.36
  17   1  -9   -0.31    1.28
 -17   1   9    0.32    1.45
 -17   1   9    1.35    1.31
  17   1  -9   -0.57    1.12
  15  -1  -9    9.18    1.48
  15  -1  -9    7.32    1.49
 -15  -1   9    8.45    1.59
 -15  -1   9    5.88    1.43
 -15   1   9    7.79    1.58
  15   1  -9    5.58    1.31
 -15   1   9    7.33    1.35
  15   1  -9    7.91    1.39
  13  -1  -9    1.49    1.04
 -13  -1   9    2.75    1.26
  13  -1  -9    2.52    1.16
 -13  -1   9    3.23    1.03
 -13   1   9    0.81    1.07
  13   1  -9    0.40    0.96
  13   1  -9    4.05    1.16
 -13   1   9    4.02    1.28
  11  -1  -9    1.38    1.00
 -11  -1   9    1.41    1.01
  11  -1  -9    1.52    1.03
 -11  -1   9    2.47    0.99
 -11   1   9    1.81    1.08
  11   1  -9   -0.87    0.83
  11   1  -9    0.58    0.89
   9  -1  -9    8.42    1.27
   9  -1  -9    9.57    1.49
  -9  -1   9   11.15    1.39
  -9   1   9   10.13    1.43
   9   1  -9   10.80    1.50
   9   1  -9    8.75    1.29
   7  -1  -9    8.01    1.23
   7  -1  -9    9.73    1.53
  -7  -1   9    6.63    1.27
   7   1  -9    8.25    1.06
  -7   1   9    8.73    1.39
   7   1  -9    7.02    1.32
   5  -1  -9    4.52    1.09
   5  -1  -9    4.32    1.02
  -5  -1   9    5.53    1.02
   5  -1  -9    4.34    0.97
  -5   1   9    8.31    1.22
   5   1  -9    3.89    1.23
   5   1  -9    5.38    0.81
   3  -1  -9   16.11    1.24
   3  -1  -9   15.97    1.67
   3  -1  -9   15.49    1.66
  -3  -1   9   14.98    1.45
   3   1  -9   13.45    1.65
  -3   1   9   13.74    1.40
   3   1  -9   14.33    1.71
   1  -1  -9    3.67    1.24
   1  -1  -9    4.19    0.72
   1  -1  -9    3.22    1.11
  -1  -1   9    2.67    0.89
   1   1  -9    2.58    1.21
   1   1  -9    1.04    0.92
  -1   1   9    2.79    0.83
  -1  -1  -9   12.52    1.76
   1  -1   9   10.63    1.08
  -1  -1  -9   13.99    1.64
  -1   1  -9   11.10    1.53
  -1   1  -9   10.82    1.55
   1   1   9   11.82    1.28
  -3  -1  -9   14.92    1.84
  -3  -1  -9   12.71    1.69
   3   1   9   12.37    1.22
  -3   1  -9   11.19    1.65
  -3   1  -9   16.61    1.93
  -5  -1  -9    1.95    1.13
  -5  -1  -9    3.39    1.40
  -5   1  -9    2.98    1.21
   5   1   9    4.33    0.88
  -5   1  -9    2.41    1.23
  -7  -1  -9   10.51    1.61
  -7  -1  -9    8.42    1.66
  -7  -1  -9   10.41    1.82
  -7   1  -9    8.25    1.66
  -7   1  -9    8.46    1.67
  -9  -1  -9    5.86    1.74
  -9  -1  -9   10.32    1.89
  -9  -1  -9    7.37    1.54
  -9   1  -9    6.06    1.66
  -9   1  -9    9.35    1.69
  -9   1  -9    4.25    1.40
 -16  -2   9    0.84    1.15
 -16  -2   9    0.36    1.37
  16  -2  -9    2.82    1.33
  16  -2  -9    1.41    1.23
  16   2  -9    1.56    1.19
 -16   2   9    1.15    1.16
 -16   2   9    1.82    1.34
  16   2  -9    1.77    1.17
  14  -2  -9    1.65    1.10
  14  -2  -9    0.82    1.08
 -14  -2   9    3.54    1.16
 -14  -2   9    1.90    1.25
  14   2  -9    1.12    1.16
  14   2  -9    1.70    1.12
 -14   2   9    1.72    1.14
 -14   2   9    3.11    1.33
  12  -2  -9    4.30    1.23
 -12  -2   9    2.33    1.23
 -12  -2   9    0.31    0.91
  12  -2  -9    1.34    1.03
 -12   2   9    2.32    1.21
  12   2  -9    3.36    1.14
  12   2  -9    1.95    1.13
  10  -2  -9   12.05    1.63
  10  -2  -9   10.40    1.44
 -10  -2   9    8.62    1.32
 -10  -2   9    9.65    1.42
  10   2  -9    7.55    1.36
 -10   2   9   11.12    1.61
  10   2  -9    8.66    1.30
   8  -2  -9    5.38    1.14
  -8  -2   9    6.57    1.21
   8  -2  -9    6.02    1.37
   8   2  -9    4.84    1.13
  -8   2   9    7.59    1.32
   8   2  -9    7.54    1.19
   6  -2  -9    1.08    0.94
   6  -2  -9    1.07    0.91
   6  -2  -9    1.67    1.07
  -6  -2   9    0.68    0.89
  -6   2   9    1.03    0.97
   6   2  -9    1.75    0.97
   6   2  -9    1.23    0.69
   4  -2  -9   15.11    1.71
   4  -2  -9   13.31    1.59
   4  -2  -9   13.31    1.54
  -4  -2   9   13.29    1.48
   4   2  -9   14.13    1.67
  -4   2   9   12.30    1.58
   2  -2  -9   10.58    1.26
  -2  -2   9    9.85    1.18
   2  -2  -9    8.61    1.31
   2  -2  -9    8.63    1.47
  -2   2   9    8.16    1.26
   2   2  -9    7.16    1.26
   2   2  -9    7.13    1.41
   0  -2  -9    3.05    1.04
   0  -2   9    5.67    0.87
   0  -2  -9    5.07    0.87
   0  -2  -9    7.29    1.52
   0   2  -9    4.83    1.32
   0   2  -9    4.16    1.16
   0   2   9    5.09    1.44
  -2  -2  -9   15.12    1.69
  -2  -2  -9   15.27    2.02
  -2   2  -9   13.26    1.76
  -2   2  -9   11.83    1.59
  -4  -2  -9    2.18    1.23
  -4  -2  -9    8.36    1.74
  -4   2  -9    4.33    1.39
  -4   2  -9    4.12    1.34
  -6  -2  -9    5.09    1.67
  -6  -2  -9    6.07    1.36
  -6   2  -9    5.21    1.47
  -6   2  -9    6.60    1.50
   6   2   9    6.25    1.23
  -8  -2  -9    8.33    1.83
  -8  -2  -9    6.08    1.49
  -8  -2  -9    6.56    1.50
  -8   2  -9    7.97    1.75
   8   2   9    8.13    1.75
  -8   2  -9    7.45    1.88
  15  -3  -9    7.46    1.95
 -15  -3   9    7.16    1.67
 -15  -3   9    5.55    1.30
  15  -3  -9    1.42    1.32
  15   3  -9    3.52    1.38
 -15   3   9    5.15    1.54
 -15   3   9    1.45    1.36
  15   3  -9    6.98    1.47
 -13  -3   9    4.60    1.43
  13  -3  -9    1.88    1.28
  13  -3  -9    2.32    1.23
 -13  -3   9    2.54    1.27
  13   3  -9    1.42    1.16
  13   3  -9    4.57    1.24
 -13   3   9    4.84    1.28
 -13   3   9    1.86    1.31
 -11  -3   9    1.95    1.03
 -11  -3   9    1.01    1.05
  11  -3  -9    0.63    1.26
  11  -3  -9    3.38    1.22
 -11   3   9    1.59    1.18
  11   3  -9    2.67    1.23
  11   3  -9    0.67    1.02
  -9  -3   9    7.80    1.21
   9  -3  -9    9.47    1.54
   9  -3  -9    7.82    1.38
  -9  -3   9   11.60    1.51
   9   3  -9    8.25    1.24
   9   3  -9    8.21    1.54
  -9   3   9    8.27    1.47
   7  -3  -9    7.86    1.26
   7  -3  -9    5.90    1.24
  -7  -3   9    6.06    1.27
   7   3  -9    6.48    0.93
  -7   3   9    8.26    1.34
   7   3  -9    8.29    1.47
   5  -3  -9    6.03    1.29
   5  -3  -9    3.58    1.05
  -5  -3   9    5.10    1.14
   5  -3  -9    3.46    1.12
  -5   3   9    5.07    1.22
   5   3  -9    5.56    1.45
  -3  -3   9   11.96    1.31
   3  -3  -9   11.56    1.52
   3  -3  -9   13.89    1.54
   3  -3  -9   14.11    1.75
  -3   3   9   13.79    1.58
   3   3  -9    9.31    1.48
   1  -3  -9    1.81    0.93
   1  -3  -9    2.15    1.09
   1  -3  -9    2.02    1.00
  -1  -3   9    4.52    0.86
   1   3  -9    4.28    1.27
  -1   3   9    3.95    1.04
  -1  -3  -9    8.13    1.34
  -1  -3  -9    8.48    1.57
  -1  -3  -9    8.87    1.22
   1   3   9   11.63    1.37
  -1   3  -9   10.85    1.64
  -1   3  -9   10.99    1.71
  -3  -3  -9    9.78    1.52
  -3  -3  -9   11.74    1.93
   3   3   9   13.03    1.54
  -3   3  -9   10.30    1.78
  -3   3  -9    9.62    1.58
  -5  -3  -9    3.59    1.25
  -5  -3  -9    5.23    1.63
   5   3   9    3.33    1.17
  -5   3  -9    3.32    1.37
  -5   3  -9    2.03    1.32
  -7  -3  -9    4.56    1.43
  -7  -3  -9    5.52    1.47
  -7  -3  -9    8.45    2.04
   7   3   9    7.26    1.43
  -7   3  -9    7.66    1.89
  -7   3  -9    3.54    1.55
 -14  -4   9    1.85    1.55
  14  -4  -9    2.69    1.35
  14  -4  -9    1.51    1.52
 -14  -4   9    0.00    1.18
  14   4  -9    4.48    1.32
 -14   4   9   -1.24    1.39
  14   4  -9    1.34    1.28
 -14   4   9    1.62    1.36
  12  -4  -9    3.75    1.38
  12  -4  -9    4.03    1.32
 -12  -4   9    2.42    1.44
 -12  -4   9    2.00    1.07
  12   4  -9    3.10    1.21
 -12   4   9    1.05    1.47
  12   4  -9    1.29    1.24
  10  -4  -9    4.44    1.33
 -10  -4   9    6.19    1.19
  10  -4  -9    6.76    1.42
 -10  -4   9    5.92    1.46
 -10   4   9    8.36    1.59
  10   4  -9    3.54    1.33
  10   4  -9    3.45    1.11
  -8  -4   9    4.39    1.20
   8  -4  -9    2.46    1.16
   8  -4  -9    5.28    1.32
  -8  -4   9    4.97    1.30
   8   4  -9    5.82    1.15
  -8   4   9    4.79    1.30
   8   4  -9    5.76    1.53
   6  -4  -9    1.87    1.12
  -6  -4   9    2.90    0.87
  -6  -4   9    3.20    1.17
   6  -4  -9    3.28    1.48
   6  -4  -9    1.18    1.05
   6   4  -9    1.65    1.25
  -6   4   9    3.78    1.25
  -4  -4   9   11.55    1.16
   4  -4  -9   10.49    1.43
   4  -4  -9    9.04    1.59
   4  -4  -9    9.95    1.39
  -4  -4   9   10.90    1.32
  -4   4   9   12.83    1.65
   4   4  -9    9.23    1.71
   2  -4  -9    4.87    1.42
   2  -4  -9    8.23    1.26
   2  -4  -9    4.80    1.14
   2   4  -9    6.31    1.64
  -2   4   9    8.03    1.39
   0  -4  -9    4.71    1.12
   0  -4  -9    3.75    1.49
   0  -4  -9    3.69    1.11
   0   4   9    5.22    1.24
   0   4  -9    4.08    1.55
  -2  -4  -9    8.66    1.27
  -2  -4  -9    8.07    1.68
  -2  -4  -9   10.17    1.58
   2   4   9   10.18    1.46
  -2   4  -9   12.21    1.92
  -4  -4  -9    1.55    1.50
  -4  -4  -9    2.87    1.20
  -4   4  -9    4.29    1.55
   4   4   9    2.14    1.23
  -4   4  -9    3.59    1.58
  -6  -4  -9    4.24    1.79
  -6  -4  -9    3.59    1.51
   6   4   9    5.95    1.56
  -6   4  -9    3.28    1.64
  -6   4  -9    4.44    1.59
  11  -5  -9   -0.99    1.19
  11  -5  -9    2.70    1.48
 -11  -5   9    5.97    1.62
 -11  -5   9    2.58    1.24
  11   5  -9    2.39    1.30
  11   5  -9    1.10    1.31
 -11   5   9    1.19    1.57
  -9  -5   9    4.58    1.46
  -9  -5   9    4.02    1.45
   9  -5  -9    5.77    1.54
   9  -5  -9    4.87    1.50
   9   5  -9    2.89    1.15
   9   5  -9    4.56    1.59
  -9   5   9    2.72    1.34
   7  -5  -9    2.81    1.27
   7  -5  -9    2.68    1.21
  -7  -5   9    4.53    1.39
  -7   5   9    3.64    1.40
   7   5  -9    3.50    1.36
   5  -5  -9    2.56    1.23
   5  -5  -9    3.42    1.22
  -5  -5   9    2.72    1.26
   5  -5  -9    2.69    1.29
   5   5  -9    5.36    1.52
  -5   5   9    3.32    1.39
   3  -5  -9    4.60    1.45
   3  -5  -9    6.17    1.33
   3  -5  -9    5.44    1.24
  -3  -5   9    4.45    2.31
   3   5  -9    6.20    1.63
  -3   5   9    6.35    1.50
   1  -5  -9    2.71    1.44
   1  -5  -9    0.52    1.06
   1  -5  -9    1.66    1.13
   1   5  -9    2.50    1.34
  -1   5   9    3.19    1.34
  -1  -5  -9    5.60    1.40
  -1  -5  -9    3.37    1.24
  -1  -5  -9    6.36    1.71
   1   5   9    4.75    1.44
  -1   5  -9    4.38    1.45
  -3  -5  -9    6.06    1.84
  -3  -5  -9    3.30    1.29
  -3  -5  -9    5.55    1.36
   3   5   9    4.82    1.50
  -3   5  -9    2.22    1.67
   6  -6  -9    0.49    1.29
  -6  -6   9    3.01    1.44
   6  -6  -9    0.05    1.26
  -6   6   9    2.18    1.62
   6   6  -9    0.65    1.47
   4  -6  -9    3.42    1.32
   4  -6  -9    2.44    1.35
  -4  -6   9    4.92    1.52
  -4   6   9    3.88    1.72
   4   6  -9    4.02    1.58
   2  -6  -9    1.75    1.48
   2  -6  -9    0.15    1.18
   2  -6  -9    0.61    1.24
  -2   6   9    0.83    1.58
   2   6  -9    0.64    1.49
  16   0 -10   10.32    1.59
  16   0 -10    4.65    1.50
 -16   0  10    8.07    1.90
 -16   0  10    5.20    1.47
  14   0 -10    2.34    1.18
 -14   0  10    7.61    1.69
 -14   0  10    4.83    1.32
  14   0 -10    5.73    1.76
 -12   0  10    2.83    1.24
  12   0 -10    4.11    1.29
  12   0 -10    2.88    1.12
 -12   0  10    4.92    1.35
  10   0 -10   12.51    1.77
  10   0 -10   10.73    1.40
 -10   0  10   13.42    1.69
  -8   0  10   16.68    1.77
   8   0 -10   13.35    1.64
   8   0 -10   13.24    1.83
   6   0 -10   14.41    1.85
   6   0 -10   13.80    1.54
  -6   0  10   16.00    1.81
   4   0 -10   22.34    2.07
   4   0 -10   21.05    1.31
   4   0 -10   17.14    1.80
  -4   0  10   15.64    1.94
   2   0 -10   10.62    1.63
   2   0 -10   10.52    1.75
  -2   0  10   11.51    1.34
   0   0  10   17.01    1.79
   0   0 -10   18.96    2.05
   0   0 -10   17.88    1.94
   2   0  10   20.79    1.54
  -2   0 -10   24.83    2.25
  -2   0 -10   23.65    2.28
  -4   0 -10    8.82    1.85
  -4   0 -10    7.15    1.62
  -6   0 -10    8.34    1.85
  -6   0 -10    8.48    1.77
 -15  -1  10    2.95    1.29
  15  -1 -10    2.45    1.28
 -15  -1  10    6.29    1.69
  15  -1 -10    2.74    1.32
  15   1 -10    2.60    1.24
 -15   1  10    2.09    1.52
  15   1 -10    4.28    1.33
 -15   1  10    2.63    1.19
  13  -1 -10    1.42    1.15
 -13  -1  10    4.70    1.27
 -13  -1  10    3.79    1.41
  13  -1 -10    3.46    1.28
 -13   1  10    3.60    1.36
 -13   1  10    4.57    1.49
  13   1 -10    6.34    1.33
  13   1 -10    3.63    1.16
  11  -1 -10   12.30    1.58
 -11  -1  10   15.06    1.73
  11  -1 -10   10.96    1.62
 -11  -1  10   16.55    1.88
 -11   1  10   12.60    1.74
  11   1 -10   15.10    1.71
  11   1 -10    9.82    1.55
   9  -1 -10   12.22    1.71
  -9  -1  10   13.98    1.67
   9  -1 -10    8.51    1.33
   9   1 -10   10.08    1.55
  -9   1  10   11.12    1.64
   9   1 -10   11.74    1.44
  -7  -1  10    5.74    1.27
   7  -1 -10    3.42    1.27
   7  -1 -10    4.60    1.17
   7   1 -10    7.41    1.16
  -7   1  10    5.04    1.27
   7   1 -10    4.60    1.28
   5  -1 -10   16.66    2.02
  -5  -1  10   15.63    1.86
   5  -1 -10   16.13    1.91
   5  -1 -10   17.12    1.77
  -5   1  10   13.96    1.73
   5   1 -10   16.59    1.92
   5   1 -10   19.53    1.30
   3  -1 -10   23.50    1.94
   3  -1 -10   19.09    1.96
  -3  -1  10   19.44    1.80
   3  -1 -10   20.24    1.73
   3   1 -10   21.80    1.99
  -3   1  10   19.00    1.79
   3   1 -10   21.25    2.07
   1  -1 -10    9.82    1.70
   1  -1 -10    9.79    1.42
  -1  -1  10   13.41    1.41
   1   1 -10   12.61    1.84
   1   1 -10   13.10    1.79
  -1   1  10   11.30    1.53
   1  -1  10   14.43    1.55
  -1  -1 -10   16.50    2.00
  -1  -1 -10   18.11    2.16
   1   1  10   16.02    1.62
  -1   1 -10   15.59    1.93
  -1   1 -10   16.30    1.99
  -3  -1 -10   11.41    1.76
  -3  -1 -10   10.57    1.95
   3   1  10   16.22    1.55
  -3   1 -10   13.50    1.88
  -3   1 -10   14.98    1.99
  -5  -1 -10    6.22    1.74
  -5  -1 -10   11.52    1.82
  -5   1 -10    8.87    1.89
  -5   1 -10   10.68    1.85
  -7  -1 -10   11.79    2.12
  -7   1 -10   12.49    1.96
  -7   1 -10   10.40    2.02
 -14  -2  10    5.64    1.66
  14  -2 -10    2.94    1.31
  14  -2 -10    3.25    1.37
 -14  -2  10    5.97    1.44
 -14   2  10    2.57    1.28
 -14   2  10    5.66    1.63
  14   2 -10    6.49    1.41
  14   2 -10    2.96    1.28
 -12  -2  10    5.13    1.14
  12  -2 -10    2.08    1.24
  12  -2 -10    1.65    1.11
 -12  -2  10    2.58    1.42
  12   2 -10    2.00    1.20
 -12   2  10    2.95    1.44
  12   2 -10    2.09    1.20
 -10  -2  10    8.29    1.35
  10  -2 -10    8.13    1.34
 -10  -2  10    9.25    1.56
  10  -2 -10    8.15    1.51
  10   2 -10    9.32    1.61
 -10   2  10    8.33    1.71
  10   2 -10    8.88    1.35
   8  -2 -10    9.97    1.59
  -8  -2  10    9.10    1.49
   8  -2 -10    9.67    1.40
   8   2 -10    6.63    1.37
  -8   2  10    9.01    1.62
   8   2 -10   13.51    1.64
   6  -2 -10    8.44    1.30
   6  -2 -10   11.23    1.73
   6  -2 -10    7.95    1.24
  -6  -2  10   13.22    1.69
   6   2 -10    8.21    1.48
  -6   2  10   10.22    1.49
   4  -2 -10   15.29    1.67
  -4  -2  10   16.13    1.67
   4  -2 -10   15.37    1.88
   4  -2 -10   13.37    1.69
  -4   2  10   14.45    1.67
   4   2 -10   16.49    1.91
   2  -2 -10    4.41    1.42
   2  -2 -10    7.70    1.18
   2  -2 -10    7.39    1.30
  -2  -2  10    7.10    1.18
   2   2 -10    6.81    1.49
  -2   2  10    8.07    1.29
   0  -2 -10   10.12    1.52
   0  -2 -10   14.34    2.06
   0   2  10   14.50    1.59
   0   2 -10   11.87    1.83
   0   2 -10   11.65    1.79
  -2  -2 -10   16.66    1.97
  -2  -2 -10   16.57    2.25
  -2   2 -10   16.99    2.20
  -2   2 -10   15.07    2.03
   2   2  10   17.01    1.75
  -4  -2 -10    7.28    1.84
  -4  -2 -10    5.08    1.50
   4   2  10    5.80    1.29
  -4   2 -10    5.38    1.66
  -4   2 -10    6.65    1.76
  -6  -2 -10    5.05    1.65
  -6  -2 -10    7.93    1.97
  -6   2 -10    8.28    1.88
  -6   2 -10    5.16    1.64
   6   2  10   12.11    2.05
  13  -3 -10    3.99    1.45
  13  -3 -10    3.95    1.45
 -13  -3  10    3.33    1.50
 -13  -3  10    1.89    1.21
 -13   3  10   -0.05    1.52
  13   3 -10    3.24    1.34
  13   3 -10    1.36    1.27
  11  -3 -10    6.76    1.47
 -11  -3  10    8.26    1.67
  11  -3 -10    8.32    1.54
 -11  -3  10    7.68    1.39
 -11   3  10    9.30    1.76
  11   3 -10    9.07    1.37
  11   3 -10    5.83    1.52
  -9  -3  10    3.81    1.18
   9  -3 -10    5.74    1.37
  -9  -3  10    8.30    1.55
   9  -3 -10    7.79    1.70
   9   3 -10    7.57    1.54
  -9   3  10    9.86    1.66
   9   3 -10    6.47    1.31
   7  -3 -10    3.12    1.13
  -7  -3  10    2.05    1.23
   7  -3 -10    3.70    1.39
  -7  -3  10    0.94    1.06
  -7   3  10    7.82    1.43
   7   3 -10    1.82    1.28
  -5  -3  10    8.92    1.55
   5  -3 -10   10.05    1.40
   5  -3 -10   12.44    1.66
   5  -3 -10   12.06    1.90
   5   3 -10    8.52    1.65
  -5   3  10    9.48    1.58
   3  -3 -10   11.28    1.58
  -3  -3  10   13.96    1.62
   3  -3 -10   13.21    1.51
   3  -3 -10   14.86    2.05
  -3   3  10   15.16    1.78
   3   3 -10   11.31    1.81
   1  -3 -10    5.14    1.46
   1  -3 -10    7.51    1.42
   1  -3 -10    7.28    1.37
  -1   3  10    9.92    1.51
   1   3 -10    8.31    1.72
  -1  -3 -10   11.89    1.96
  -1  -3 -10    8.49    1.47
  -1   3 -10    9.13    1.67
   1   3  10   10.15    1.48
  -1   3 -10   11.03    1.87
  -3  -3 -10    7.75    1.57
  -3  -3 -10    7.76    1.98
  -3   3 -10    9.07    1.82
   3   3  10    8.79    1.60
  -3   3 -10   10.44    1.87
  -5  -3 -10    8.31    2.06
  -5  -3 -10    3.77    1.67
  -5   3 -10    3.83    1.80
   5   3  10    5.18    1.46
  -5   3 -10    7.50    1.82
 -12  -4  10    0.79    1.59
  12  -4 -10    0.74    1.37
  12  -4 -10    0.40    1.42
 -12  -4  10    1.65    1.20
  12   4 -10    0.53    1.32
 -12   4  10    1.33    1.77
  12   4 -10    1.88    1.28
  10  -4 -10    6.55    1.49
 -10  -4  10    5.56    1.24
 -10  -4  10    2.38    1.46
  10  -4 -10    4.52    1.41
  10   4 -10    6.84    1.51
  10   4 -10    6.75    1.69
 -10   4  10    3.94    1.57
  -8  -4  10    4.26    1.26
   8  -4 -10    3.58    1.46
   8  -4 -10    5.44    1.39
  -8   4  10    4.39    1.46
   8   4 -10    4.19    1.64
  -6  -4  10    3.33    1.27
   6  -4 -10    6.55    1.33
  -6  -4  10    4.40    1.35
   6  -4 -10    0.64    1.12
   6  -4 -10    5.29    1.49
  -6   4  10    4.83    1.64
   6   4 -10    7.26    1.73
  -4  -4  10    8.32    1.29
  -4  -4  10    9.61    1.55
   4  -4 -10    7.50    1.36
   4  -4 -10    7.67    1.60
   4  -4 -10    6.36    1.36
  -4   4  10    9.63    1.68
   4   4 -10    8.68    1.76
   2  -4 -10    3.79    1.47
   2  -4 -10    2.86    1.21
   2  -4 -10    2.10    1.14
  -2   4  10    3.88    1.41
   2   4 -10    6.73    1.71
   0  -4 -10    6.58    1.29
   0  -4 -10    6.87    1.78
   0  -4 -10    6.71    1.47
   0   4  10    8.59    1.54
   0   4 -10    4.05    1.70
  -2  -4 -10    8.23    1.82
  -2  -4 -10    9.39    1.65
   2   4  10   11.02    1.75
  -2   4 -10    8.49    1.90
   7  -5 -10    2.08    1.43
   7  -5 -10    2.03    1.36
  -7  -5  10    3.32    1.58
   7   5 -10    2.11    1.52
  -7   5  10    2.02    1.61
   5  -5 -10    1.36    1.38
  -5  -5  10    2.19    1.44
   5  -5 -10    6.40    1.49
   5  -5 -10    4.09    1.27
  -5   5  10    3.65    1.76
   5   5 -10    4.92    1.78
   3  -5 -10    3.77    1.32
   3  -5 -10    2.29    1.42
   3  -5 -10    4.29    1.37
   3   5 -10    5.35    1.72
  -3   5  10    5.13    1.68
   1  -5 -10   -1.25    1.38
   1  -5 -10    2.36    1.31
   1   5 -10    2.49    1.48
  -1   5  10    1.84    1.58
 -14   0  11    3.42    1.31
  14   0 -11    2.45    1.38
  14   0 -11    0.46    1.25
 -14   0  11    1.06    1.58
 -12   0  11    3.58    1.45
  12   0 -11    3.08    1.25
  12   0 -11    4.18    1.41
 -12   0  11    5.63    1.53
 -10   0  11   13.42    1.88
  10   0 -11   16.05    1.84
  10   0 -11   12.39    1.89
  -8   0  11    3.78    1.43
   8   0 -11    0.95    1.10
   8   0 -11    5.78    1.43
   6   0 -11    8.29    1.69
   6   0 -11    9.80    1.37
  -6   0  11   10.83    1.65
   4   0 -11    6.33    1.37
   4   0 -11   10.70    1.81
   2   0 -11    8.56    1.74
  -2   0  11    7.39    1.57
   2   0 -11    6.33    1.46
   0   0 -11    5.00    1.56
   0   0 -11   12.09    1.84
   0   0  11    7.71    1.56
  -2   0 -11    7.13    1.75
  -2   0 -11    8.14    1.79
  -4   0 -11    6.55    1.73
 -13  -1  11    1.75    1.28
 -13  -1  11    1.70    1.61
  13  -1 -11    0.66    1.21
  13  -1 -11    2.05    1.41
  13   1 -11    0.35    1.28
 -13   1  11    1.80    1.60
  13   1 -11   -0.97    1.17
 -13   1  11    2.04    1.35
  11  -1 -11    5.65    1.52
 -11  -1  11    6.44    1.44
  11  -1 -11    7.14    1.35
 -11  -1  11    6.09    1.65
  11   1 -11    7.56    1.43
  11   1 -11    4.89    1.47
 -11   1  11    2.27    1.55
   9  -1 -11    7.92    1.66
  -9  -1  11    9.93    1.68
   9  -1 -11   13.43    1.77
  -9   1  11   14.49    1.96
   9   1 -11    9.40    1.58
   9   1 -11    8.80    1.40
   7  -1 -11    5.70    1.53
  -7  -1  11    8.88    1.50
   7  -1 -11    6.46    1.27
   7   1 -11    4.80    1.33
  -7   1  11    7.08    1.54
  -5  -1  11    9.86    1.59
   5  -1 -11    6.91    1.44
   5  -1 -11    8.16    1.56
  -5   1  11    8.75    1.67
   5   1 -11    7.17    1.47
   3  -1 -11    6.38    1.41
   3  -1 -11    9.48    1.74
  -3  -1  11    9.05    1.57
   3   1 -11    5.07    1.41
   3   1 -11    7.39    1.64
  -3   1  11    7.77    2.35
   1  -1 -11    2.41    1.49
  -1  -1  11    2.85    1.41
   1  -1 -11    3.47    1.32
  -1   1  11    3.03    1.31
   1   1 -11    4.82    1.51
   1   1 -11    5.48    1.43
  -1  -1 -11    9.75    1.73
  -1  -1 -11    7.25    1.74
  -1   1 -11    9.76    1.84
  -1   1 -11    7.70    1.71
   1   1  11   13.16    1.60
  -3  -1 -11    1.37    1.48
  -3  -1 -11    4.56    1.71
  -3   1 -11    1.47    1.44
  -3   1 -11    3.07    1.73
 -12  -2  11    4.88    1.70
  12  -2 -11    5.60    1.49
  12  -2 -11    6.37    1.66
 -12  -2  11    5.33    1.37
  12   2 -11    4.43    1.46
  12   2 -11    4.48    1.40
 -12   2  11    2.37    1.74
 -10  -2  11   12.30    1.86
 -10  -2  11   10.24    1.60
  10  -2 -11    8.63    1.53
  10  -2 -11   10.26    1.75
 -10   2  11    9.35    1.89
  10   2 -11    5.88    1.44
  10   2 -11    9.58    1.62
   8  -2 -11    3.24    1.44
  -8  -2  11    1.53    1.39
   8  -2 -11    0.99    1.14
   8   2 -11    1.87    1.31
  -8   2  11    2.63    1.43
  -6  -2  11    9.45    1.56
   6  -2 -11    8.98    1.38
  -6   2  11    9.90    1.66
   4  -2 -11    9.00    1.53
  -4  -2  11    8.03    1.51
   4  -2 -11    6.02    1.36
   4  -2 -11    7.71    1.70
   4   2 -11    7.29    1.62
  -4   2  11    7.84    1.54
   2  -2 -11    3.98    1.45
   2  -2 -11    3.09    1.34
  -2  -2  11    3.63    1.41
  -2   2  11    2.69    1.39
   2   2 -11    6.49    1.61
   0  -2 -11    5.97    1.52
   0  -2 -11    4.67    1.68
   0   2  11    3.11    1.33
   0   2 -11    3.46    1.43
   0   2 -11    2.55    1.35
  -2  -2 -11    4.30    1.69
  -2  -2 -11    6.58    1.59
  -2   2 -11    5.38    1.75
   2   2  11    4.93    1.43
  -2   2 -11    9.21    1.88
  11  -3 -11    3.30    1.57
 -11  -3  11    3.41    1.32
  11  -3 -11    1.08    1.37
 -11  -3  11    6.14    1.81
  11   3 -11    3.77    1.66
 -11   3  11    2.83    1.77
  11   3 -11    3.08    1.37
  -9  -3  11   10.85    1.86
   9  -3 -11    4.37    1.60
   9  -3 -11    2.89    1.39
  -9  -3  11    4.47    1.31
   9   3 -11    5.77    1.57
  -9   3  11    2.99    1.67
   7  -3 -11    3.33    1.28
   7  -3 -11    3.26    1.48
  -7  -3  11    2.73    1.21
  -7  -3  11    3.84    1.56
  -7   3  11    5.36    1.60
   7   3 -11    1.78    1.40
   5  -3 -11    3.39    1.73
   5  -3 -11    5.75    1.31
  -5  -3  11    4.76    1.49
   5  -3 -11    6.73    1.39
  -5   3  11    6.84    1.53
   5   3 -11    3.37    1.45
   3  -3 -11    1.39    1.22
   3  -3 -11    4.10    1.31
   3  -3 -11    6.17    1.80
   3   3 -11    5.45    1.62
  -3   3  11    3.51    1.50
   1  -3 -11    1.65    1.30
   1  -3 -11    5.50    1.95
  -1   3  11    2.58    1.44
   1   3 -11    2.13    1.40
  -1  -3 -11    5.94    1.78
   1   3  11    9.75    1.66
  -1   3 -11    4.77    1.77
   6  -4 -11    3.61    1.44
  -6  -4  11    5.63    1.64
  -6  -4  11    4.06    1.40
   6  -4 -11    3.14    1.54
   6   4 -11    3.06    1.77
  -6   4  11    0.95    1.59
   4  -4 -11    3.50    2.67
   4  -4 -11    2.85    1.33
  -4   4  11    3.09    1.77
   4   4 -11    3.08    1.79
 -10   0  12    2.76    1.75
  10   0 -12    2.63    1.56
   8   0 -12   -1.04    1.29
  -8   0  12    2.83    1.63
   6   0 -12    2.09    1.38
  -6   0  12    0.98    1.58
   4   0 -12    3.70    1.57
  -4   0  12    6.21    1.70
  -2   0  12   -3.41    1.52
   2   0 -12    2.42    1.58
   2   0 -12    0.38    1.26
   9  -1 -12    2.74    1.33
   9  -1 -12    0.17    1.44
  -9  -1  12    2.67    1.65
  -9   1  12    2.63    1.83
   9   1 -12    2.32    1.33
   7  -1 -12    0.97    1.42
   7  -1 -12   -1.13    1.37
  -7  -1  12    3.39    1.62
  -7   1  12    0.37    1.75
   7   1 -12    0.20    1.24
  -5  -1  12    3.29    1.59
   5  -1 -12    3.16    1.44
   5   1 -12    3.66    1.39
  -5   1  12    4.23    1.68
   3  -1 -12    1.61    1.28
  -3  -1  12    2.01    1.50
   3  -1 -12   -0.81    1.36
   3   1 -12    1.29    1.40
  -3   1  12    0.63    1.60
   0   0   0    0.00    0.00
;
_shelx_hkl_checksum              56945
loop_
_space_group_symop_operation_xyz
'x, y, z'
'-x, y, -z'
'x+1/2, y+1/2, z'
'-x+1/2, y+1/2, -z'
'-x, -y, -z'
'x, -y, z'
'-x+1/2, -y+1/2, -z'
'x+1/2, -y+1/2, z'
loop_
_atom_site_label
_atom_site_type_symbol
_atom_site_fract_x
_atom_site_fract_y
_atom_site_fract_z
_atom_site_U_iso_or_equiv
_atom_site_adp_type
_atom_site_occupancy
_atom_site_site_symmetry_order
_atom_site_calc_flag
_atom_site_refinement_flags_posn
_atom_site_refinement_flags_adp
_atom_site_refinement_flags_occupancy
C1 C 0.1888(3) 0.0000 0.6106(6) 0.0572(13) Uani 1 2 d S T P
H1 H 0.1275 0.0000 0.5811 0.069 Uiso 1 2 calc R U P
C2 C 0.2342(3) 0.0000 0.5038(5) 0.0500(11) Uani 1 2 d S T P
H2 H 0.2051 0.0000 0.4003 0.060 Uiso 1 2 calc R U P
C3 C 0.3248(3) 0.0000 0.5528(6) 0.0494(11) Uani 1 2 d S T P
C4 C 0.3685(3) 0.0000 0.7050(6) 0.0618(14) Uani 1 2 d S T P
H4 H 0.4297 0.0000 0.7373 0.074 Uiso 1 2 calc R U P
C5 C 0.3193(4) 0.0000 0.8080(6) 0.0665(15) Uani 1 2 d S T P
H5 H 0.3467 0.0000 0.9121 0.080 Uiso 1 2 calc R U P
N1 N 0.2321(3) 0.0000 0.7581(5) 0.0590(11) Uani 1 2 d S T P
HN1 H 0.2020 0.0000 0.8243 0.071 Uiso 1 2 calc R U P
O1 O 0.0000 -0.2593(6) 0.0000 0.0696(10) Uani 1 2 d S T P
Cl1 Cl 0.17631(7) 0.0000 0.06980(13) 0.0577(3) Uani 1 2 d S T P
Cl2 Cl 0.00737(9) 0.0000 0.29175(15) 0.0917(6) Uani 1 2 d S T P
Cl3 Cl 0.38354(10) 0.0000 0.4192(2) 0.0822(5) Uani 1 2 d S T P
Np1 Np 0.0000 0.0000 0.0000 0.03936(9) Uani 1 4 d S T P
loop_
_atom_site_aniso_label
_atom_site_aniso_U_11
_atom_site_aniso_U_22
_atom_site_aniso_U_33
_atom_site_aniso_U_23
_atom_site_aniso_U_13
_atom_site_aniso_U_12
C1 0.044(3) 0.068(3) 0.059(3) 0.000 0.013(2) 0.000
C2 0.034(2) 0.068(3) 0.044(2) 0.000 0.0043(18) 0.000
C3 0.041(2) 0.050(3) 0.056(3) 0.000 0.011(2) 0.000
C4 0.044(3) 0.065(3) 0.066(3) 0.000 -0.004(2) 0.000
C5 0.079(4) 0.062(4) 0.047(3) 0.000 -0.001(3) 0.000
N1 0.073(3) 0.055(3) 0.054(3) 0.000 0.026(2) 0.000
O1 0.055(2) 0.055(2) 0.085(3) 0.000 -0.0042(18) 0.000
Cl1 0.0357(5) 0.0893(9) 0.0443(6) 0.000 0.0044(4) 0.000
Cl2 0.0436(7) 0.192(2) 0.0378(6) 0.000 0.0082(5) 0.000
Cl3 0.0516(7) 0.1163(14) 0.0877(11) 0.000 0.0344(7) 0.000
Np1 0.03190(13) 0.04774(16) 0.03467(14) 0.000 0.00245(9) 0.000
loop_
_atom_type_symbol
_atom_type_description
_atom_type_scat_dispersion_real
_atom_type_scat_dispersion_imag
_atom_type_scat_source
C C 0.0033 0.0016 'International Tables Vol C Tables 4.2.6.8 and 6.1.1.4'
H H 0.0000 0.0000 'International Tables Vol C Tables 4.2.6.8 and 6.1.1.4'
N N 0.0061 0.0033 'International Tables Vol C Tables 4.2.6.8 and 6.1.1.4'
O O 0.0106 0.0060 'International Tables Vol C Tables 4.2.6.8 and 6.1.1.4'
Cl Cl 0.1484 0.1585 'International Tables Vol C Tables 4.2.6.8 and 6.1.1.4'
Np Np -11.4937 4.1493 'International Tables Vol C Tables 4.2.6.8 and 6.1.1.4'
loop_
_geom_angle_atom_site_label_1
_geom_angle_atom_site_label_2
_geom_angle_atom_site_label_3
_geom_angle
_geom_angle_site_symmetry_1
_geom_angle_site_symmetry_3
N1 C1 C2 119.8(5) . .
N1 C1 H1 120.1 . .
C2 C1 H1 120.1 . .
C1 C2 C3 118.1(4) . .
C1 C2 H2 120.9 . .
C3 C2 H2 120.9 . .
C4 C3 C2 121.5(5) . .
C4 C3 Cl3 119.7(4) . .
C2 C3 Cl3 118.8(4) . .
C5 C4 C3 117.9(5) . .
C5 C4 H4 121.0 . .
C3 C4 H4 121.0 . .
N1 C5 C4 119.5(5) . .
N1 C5 H5 120.3 . .
C4 C5 H5 120.3 . .
C5 N1 C1 123.2(5) . .
C5 N1 HN1 118.4 . .
C1 N1 HN1 118.4 . .
O1 Np1 O1 180.0 5 .
O1 Np1 Cl2 90.0 5 5
O1 Np1 Cl2 90.0 . 5
O1 Np1 Cl2 90.0 5 .
O1 Np1 Cl2 90.0 . .
Cl2 Np1 Cl2 180.0 5 .
O1 Np1 Cl1 90.0 5 .
O1 Np1 Cl1 90.0 . .
Cl2 Np1 Cl1 90.05(4) 5 .
Cl2 Np1 Cl1 89.95(4) . .
O1 Np1 Cl1 90.0 5 5
O1 Np1 Cl1 90.0 . 5
Cl2 Np1 Cl1 89.95(4) 5 5
Cl2 Np1 Cl1 90.05(4) . 5
Cl1 Np1 Cl1 180.0 . 5
loop_
_geom_bond_atom_site_label_1
_geom_bond_atom_site_label_2
_geom_bond_distance
_geom_bond_site_symmetry_2
C1 N1 1.333(7) .
C1 C2 1.352(7) .
C1 H1 0.9300 .
C2 C3 1.378(6) .
C2 H2 0.9300 .
C3 C4 1.371(7) .
C3 Cl3 1.714(5) .
C4 C5 1.368(8) .
C4 H4 0.9300 .
C5 N1 1.327(7) .
C5 H5 0.9300 .
N1 HN1 0.8600 .
O1 Np1 1.739(4) .
Cl1 Np1 2.6803(11) .
Cl2 Np1 2.6253(14) .
Np1 O1 1.739(4) 5
Np1 Cl2 2.6252(14) 5
Np1 Cl1 2.6804(11) 5
loop_
_geom_hbond_atom_site_label_D
_geom_hbond_atom_site_label_H
_geom_hbond_atom_site_label_A
_geom_hbond_distance_DH
_geom_hbond_distance_HA
_geom_hbond_distance_DA
_geom_hbond_angle_DHA
_geom_hbond_site_symmetry_A
C1 H1 Cl2 0.93 2.80 3.484(5) 131.2 .
C1 H1 Cl2 0.93 2.68 3.440(5) 139.3 5_556
C2 H2 Cl1 0.93 2.92 3.806(5) 160.2 .
N1 HN1 Cl1 0.86 2.37 3.186(5) 157.4 1_556
C1 H1 Cl2 0.93 2.80 3.484(5) 131.2 .
C1 H1 Cl2 0.93 2.68 3.440(5) 139.3 5_556
C2 H2 Cl1 0.93 2.92 3.806(5) 160.2 .
N1 HN1 Cl1 0.86 2.37 3.186(5) 157.4 1_556
