#------------------------------------------------------------------------------
#$Date: 2017-10-27 01:42:22 +0300 (Fri, 27 Oct 2017) $
#$Revision: 202353 $
#$URL: file:///home/coder/svn-repositories/cod/cif/4/12/66/4126648.cif $
#------------------------------------------------------------------------------
#
# This file is available in the Crystallography Open Database (COD),
# http://www.crystallography.net/
#
# All data on this site have been placed in the public domain by the
# contributors.
#
data_4126648
loop_
_publ_author_name
'Gibson, Quinn D.'
'Dyer, Matthew S.'
'Whitehead, George F. S.'
'Alaria, Jonathan'
'Pitcher, Michael J.'
'Edwards, Holly J.'
'Claridge, John B.'
'Zanella, Marco'
'Dawson, Karl'
'Manning, Troy D.'
'Dhanak, Vin R.'
'Rosseinsky, Matthew J.'
_publ_section_title
;
 Bi4O4Cu1.7Se2.7Cl0.3: Intergrowth of BiOCuSe and Bi2O2Se Stabilized by
 the Addition of a Third Anion.
;
_journal_name_full               'Journal of the American Chemical Society'
_journal_paper_doi               10.1021/jacs.7b06168
_journal_year                    2017
_chemical_formula_moiety         '2(Bi4 Cu1.73 O4 Se2), 1.35(Se), 0.65(Cl)'
_chemical_formula_sum            'Bi8 Cl0.64 Cu3.46 O8 Se5.36'
_chemical_formula_weight         2465.17
_space_group_crystal_system      tetragonal
_space_group_IT_number           139
_space_group_name_Hall           '-I 4 2'
_space_group_name_H-M_alt        'I 4/m m m'
_symmetry_space_group_name_Hall  '-I 4 2'
_symmetry_space_group_name_H-M   'I 4/m m m'
_atom_sites_solution_primary     dual
_audit_creation_date             2016-12-22
_audit_creation_method
;
Olex2 1.2
(compiled 2016.11.30 svn.r3356 for OlexSys, GUI svn.r5269)
;
_cell_angle_alpha                90
_cell_angle_beta                 90
_cell_angle_gamma                90
_cell_formula_units_Z            1
_cell_length_a                   3.89790(10)
_cell_length_b                   3.89790(10)
_cell_length_c                   29.8291(13)
_cell_measurement_reflns_used    1872
_cell_measurement_temperature    100
_cell_measurement_theta_max      29.9680
_cell_measurement_theta_min      2.7160
_cell_volume                     453.21(3)
_computing_cell_refinement       'CrysAlisPro 1.171.38.43 (Rigaku OD, 2015)'
_computing_data_collection       'CrysAlisPro 1.171.38.43 (Rigaku OD, 2015)'
_computing_data_reduction        'CrysAlisPro 1.171.38.43 (Rigaku OD, 2015)'
_computing_molecular_graphics    'Olex2 (Dolomanov et al., 2009)'
_computing_publication_material  'Olex2 (Dolomanov et al., 2009)'
_computing_structure_refinement  'ShelXL (Sheldrick, 2015)'
_computing_structure_solution    'ShelXT (Sheldrick, 2015)'
_diffrn_ambient_temperature      100
_diffrn_detector                 'CCD plate'
_diffrn_measured_fraction_theta_full 0.9947
_diffrn_measured_fraction_theta_max 0.9961
_diffrn_measurement_details
;
List of Runs (angles in degrees, time in seconds):

  # Type    Start    End  Width  t~exp~   \w     \q     \k     \f   Frames
--------------------------------------------------------------------------
  1  \w   -110.00  15.00   1.00    1.00    --  -20.00 -68.00   0.00  125
  2  \w   -110.00  15.00   1.00    1.00    --  -20.00 -68.00 120.00  125
  3  \w   -110.00  15.00   1.00    1.00    --  -20.00 -68.00 240.00  125
  4  \w   -110.00  15.00   1.00    1.00    --  -20.00 -30.00  90.00  125
;
_diffrn_measurement_device       'abstract diffractometer'
_diffrn_measurement_device_type
'dtrek-CrysAlisPro-abstract goniometer imported rigaku-d*trek images'
_diffrn_measurement_method       '\w scans'
_diffrn_orient_matrix_type
'CrysAlisPro convention (1999,Acta A55,543-557)'
_diffrn_orient_matrix_UB_11      -0.0708588000
_diffrn_orient_matrix_UB_12      0.0985147000
_diffrn_orient_matrix_UB_13      -0.0177164000
_diffrn_orient_matrix_UB_21      -0.0698422000
_diffrn_orient_matrix_UB_22      0.1164314000
_diffrn_orient_matrix_UB_23      0.0158303000
_diffrn_orient_matrix_UB_31      0.1523370000
_diffrn_orient_matrix_UB_32      0.0992956000
_diffrn_orient_matrix_UB_33      -0.0009894000
_diffrn_radiation_monochromator  graphite
_diffrn_radiation_probe          x-ray
_diffrn_radiation_type           'Mo K\a'
_diffrn_radiation_wavelength     0.71073
_diffrn_reflns_av_R_equivalents  0.0688
_diffrn_reflns_av_unetI/netI     0.0249
_diffrn_reflns_Laue_measured_fraction_full 0.994
_diffrn_reflns_Laue_measured_fraction_max 0.996
_diffrn_reflns_limit_h_max       3
_diffrn_reflns_limit_h_min       -5
_diffrn_reflns_limit_k_max       5
_diffrn_reflns_limit_k_min       -5
_diffrn_reflns_limit_l_max       42
_diffrn_reflns_limit_l_min       -42
_diffrn_reflns_number            3394
_diffrn_reflns_point_group_measured_fraction_full 0.994
_diffrn_reflns_point_group_measured_fraction_max 0.996
_diffrn_reflns_theta_full        25.242
_diffrn_reflns_theta_max         30.029
_diffrn_reflns_theta_min         2.731
_diffrn_source                   'fine-focus sealed X-ray tube'
_diffrn_source_type              'Enhance (Mo) X-ray Source'
_exptl_absorpt_coefficient_mu    92.178
_exptl_absorpt_correction_T_max  1.00000
_exptl_absorpt_correction_T_min  0.17624
_exptl_absorpt_correction_type   multi-scan
_exptl_absorpt_process_details
;
CrysAlisPro 1.171.38.43 (Rigaku Oxford Diffraction, 2015)
Empirical absorption correction using spherical harmonics,
 implemented in SCALE3 ABSPACK scaling algorithm.
;
_exptl_crystal_colour            black
_exptl_crystal_colour_primary    black
_exptl_crystal_density_diffrn    9.032
_exptl_crystal_description       block
_exptl_crystal_F_000             1021
_exptl_crystal_size_max          0.02
_exptl_crystal_size_mid          0.01
_exptl_crystal_size_min          0.01
_refine_diff_density_max         1.736
_refine_diff_density_min         -2.163
_refine_diff_density_rms         0.490
_refine_ls_extinction_method     none
_refine_ls_goodness_of_fit_ref   1.174
_refine_ls_hydrogen_treatment    undef
_refine_ls_matrix_type           full
_refine_ls_number_parameters     20
_refine_ls_number_reflns         258
_refine_ls_number_restraints     0
_refine_ls_restrained_S_all      1.174
_refine_ls_R_factor_all          0.0324
_refine_ls_R_factor_gt           0.0291
_refine_ls_shift/su_max          0.000
_refine_ls_shift/su_mean         0.000
_refine_ls_structure_factor_coef Fsqd
_refine_ls_weighting_details
'w=1/[\s^2^(Fo^2^)+(0.0453P)^2^+3.0443P] where P=(Fo^2^+2Fc^2^)/3'
_refine_ls_weighting_scheme      calc
_refine_ls_wR_factor_gt          0.0759
_refine_ls_wR_factor_ref         0.0783
_reflns_Friedel_coverage         0.000
_reflns_number_gt                234
_reflns_number_total             258
_reflns_threshold_expression     'I > 2\s(I)'
_cod_data_source_file            ja7b06168_si_002.cif
_cod_data_source_block           c9_qdg_5_2_100k
_cod_database_code               4126648
_chemical_oxdiff_formula         Bi4Cl0.3Cu1.7O4Se2.7
_shelx_space_group_comment
;
The symmetry employed for this shelxl refinement is uniquely defined
by the following loop, which should always be used as a source of
symmetry information in preference to the above space-group names.
They are only intended as comments.
;
_reflns_odcompleteness_completeness 99.47
_reflns_odcompleteness_iscentric 1
_reflns_odcompleteness_theta     26.32
_olex2_refinement_description
;
1. Shared sites
{Se04, Cl}
2. Uiso/Uaniso restraints and constraints
Uanis(Se04) = Uanis(Cl)
3. Others
 Sof(Cl)=0.0625*(1-FVAR(2))
 Sof(Se04)=0.0625*FVAR(2)
;
_shelx_res_file
;
    c9_qdg_5_2_100k.res created by SHELXL-2014/7

TITL c9_qdg_5_2_100k_a.res in I4/mmm
REM Old TITL C9_QDG_5_2_100K in I4/mmm
REM SHELXT solution in I4/mmm
REM R1 0.090, Rweak 0.003, Alpha 0.088, Orientation as input
REM Formula found by SHELXT: O4 Se5 Bi4
CELL 0.71073 3.8979 3.8979 29.8291 90 90 90
ZERR 1 0.0001 0.0001 0.0013 0 0 0
LATT 2
SYMM -X,-Y,+Z
SYMM -Y,+X,+Z
SYMM +Y,-X,+Z
SYMM -X,+Y,-Z
SYMM +X,-Y,-Z
SYMM +Y,+X,-Z
SYMM -Y,-X,-Z
SFAC Bi Cl Cu O Se
UNIT 8 0.65 3.46 8 5.35
EADP Se04 Cl
EXYZ Se04 Cl

L.S. 10
PLAN  20
TEMP -173.15
BOND $H
list 4
fmap 2
acta
REM <olex2.extras>
REM <HklSrc "%.\\C9_QDG_5_2_100K.hkl">
REM </olex2.extras>

WGHT    0.045300    3.044300
FVAR       1.39436   0.67580
BI01  1    1.000000    1.000000    0.439464    10.12500    0.00905    0.00905 =
         0.00989    0.00000    0.00000    0.00000
BI02  1    0.500000    0.500000    0.355477    10.12500    0.00860    0.00860 =
         0.01433    0.00000    0.00000    0.00000
SE03  5    0.000000    0.000000    0.302566    10.12500    0.00613    0.00613 =
         0.00642    0.00000    0.00000    0.00000
PART 3
SE04  5    0.500000    0.500000    0.500000    20.06250    0.00339    0.00339 =
         0.01133    0.00000    0.00000    0.00000
PART 0
CU05  3   -0.500000    0.000000    0.250000     0.10799    0.00694    0.00694 =
         0.00908    0.00000    0.00000    0.00000
O006  4    0.500000    1.000000    0.399264    10.25000    0.00767    0.00664 =
         0.01482    0.00000    0.00000    0.00000
PART 4
CL    2    0.500000    0.500000    0.500000   -20.06250    0.00339    0.00339 =
         0.01133    0.00000    0.00000    0.00000
HKLF 4

REM  c9_qdg_5_2_100k_a.res in I4/mmm
REM R1 =  0.0291 for     234 Fo > 4sig(Fo)  and  0.0324 for all     258 data
REM     20 parameters refined using      0 restraints

END

WGHT      0.0453      3.0442

REM Highest difference peak  1.736,  deepest hole -2.163,  1-sigma level  0.490
Q1    1   0.3238  0.3238  0.3552  10.50000  0.05    1.74
Q2    1   0.5000  1.1702  0.4317  10.50000  0.05    1.64
Q3    1   1.1715  1.1715  0.4406  10.50000  0.05    1.60
Q4    1   0.2246  1.0000  0.3661  10.50000  0.05    1.43
Q5    1   0.5000  0.5000  0.3346  10.12500  0.05    1.40
Q6    1   1.3106  1.0000  0.4377  10.50000  0.05    1.37
Q7    1   0.3619  1.3619  0.4392  10.50000  0.05    1.34
Q8    1   0.5000  0.7362  0.5000  10.25000  0.05    1.29
Q9    1   1.0000  1.2341  0.5000  10.25000  0.05    1.27
Q10   1   0.5000  0.2326  0.3574  10.50000  0.05    1.19
Q11   1   0.6739  1.0000  0.3682  10.50000  0.05    1.11
Q12   1   0.0000  0.0000  0.2713  10.12500  0.05    1.10
Q13   1   1.0000  1.0000  0.4215  10.12500  0.05    1.07
Q14   1   0.3105  0.0934  0.3063  11.00000  0.05    1.02
Q15   1  -0.6682  0.1682  0.2500  10.50000  0.05    0.98
Q16   1   0.5000  1.0000  0.3570  10.25000  0.05    0.86
Q17   1   1.0000  1.0000  0.4561  10.12500  0.05    0.86
Q18   1   1.1129  1.1748  0.4684  11.00000  0.05    0.85
Q19   1   1.1957  1.0000  0.4695  10.50000  0.05    0.84
Q20   1   0.6045  1.0000  0.3533  10.50000  0.05    0.81
;
_shelx_res_checksum              84370
_shelx_hkl_file
;
   0   0  -4 26700.5 2575.88   4
   0   0   4 30985.0 2786.81   4
   0   0  -4 30541.4 2836.18   1
   0   0   4 30965.4 2536.83   2
   0   0   4 29398.5 2641.72   1
   0   0  -4 28094.3 2310.22   2
   0   0  -6 2687.02 824.032   2
   0   0   6 2300.16 870.612   2
   0   0   6 1686.48 697.665   1
   0   0  -6 1888.14 617.591   1
   0   0   6 2517.37 801.544   4
   0   0  -6 4829.32 1474.10   4
   0   0  -8 14030.8 2586.54   1
   0   0   8 17268.2 2634.96   2
   0   0   8 18116.5 2854.04   4
   0   0  -8 7923.18 1770.78   4
   0   0  -8 10495.0 1837.81   2
   0   0   8 11725.2 2265.14   1
   0   0 -10 271587. 9918.04   2
   0   0  10 348330. 12362.3   2
   0   0  10 311756. 12349.1   4
   0   0 -10 330224. 13304.5   1
   0   0 -10 304225. 11764.1   4
   0   0  10 295072. 11863.8   1
   0   0  12 2533.59 1629.39   4
   0   0 -12 760.784 1299.67   1
   0   0  12-30.0574 425.080   2
   0   0  12 265.031 98.6722   1
   0   0 -12 1351.74 1181.50   4
   0   0 -12-406.162 456.772   2
   0   0 -14 284573. 13256.3   1
   0   0  14 244330. 11417.0   1
   0   0  14 277632. 11942.9   2
   0   0  14 274821. 12449.8   4
   0   0 -14 233036. 9873.13   2
   0   0 -14 245645. 11083.4   4
   0   0  16 162956. 9572.77   1
   0   0 -16 173278. 8703.92   2
   0   0  16 191724. 10104.2   2
   0   0 -16 185366. 9901.65   4
   0   0  16 181931. 10334.0   4
   0   0 -16 196703. 11230.9   1
   0   0 -18 17095.3 2704.93   2
   0   0  18 20397.8 3466.58   1
   0   0 -18 12950.6 2702.84   4
   0   0  18 17601.5 3167.42   2
   0   0 -20 350723. 12907.8   2
   0   0  20 362206. 14678.7   1
   0   0 -20 320331. 13504.7   4
   0   0  22 19850.6 3523.29   1
   0   0 -22 13738.2 2985.38   4
   0   0 -22 13957.7 2499.05   2
   0   0  24 190160. 10939.7   1
   0   0 -24 180566. 9571.43   2
   0   0 -24 188179. 10653.3   4
   0   0 -26 39770.5 4881.77   4
   0   0  26 39389.8 4436.32   3
   0   0 -26 32180.8 4116.56   2
   0   0  26 41673.4 5119.53   1
   0   0 -28 21130.3 3754.97   4
   0   0  28 16522.4 3564.64   1
   0   0  28 24513.8 3444.93   3
   0   0 -28 20712.0 3434.08   2
   0   0 -30 4563.54 1668.30   2
   0   0  30 3491.73 1326.10   1
   0   0 -32 12153.3 2645.25   2
   0   0 -32 11677.4 2934.90   4
   0   0  32 6841.48 2359.79   1
   0   0  32 16021.3 2710.76   3
   0   0  34 77593.3 6126.83   3
   0   0  34 73425.8 7482.19   1
   0   0 -34 75979.4 6916.87   2
   0   0 -34 72525.9 7373.44   4
   0   0  36 61653.4 5527.90   3
   0   0 -36 65471.6 6534.04   2
   0   0 -36 60691.0 6703.64   4
   0   0  36 63814.6 7254.39   1
   0   0  38 78931.5 8292.42   1
   0   0 -38 75261.5 7180.92   2
   0   0 -38 74212.4 7664.44   4
   0   0 -40 582.816 1489.75   4
   0   0 -40-978.189 1003.82   2
   0   0  40 652.579 985.871   1
   0   0  42 4239.37 1844.67   1
   0   0 -42 3845.81 2093.54   2
   0   0 -42 4527.58 2030.18   4
   0   1   1 15280.1 1563.31   2
   0  -1   1 12418.1 1146.08   1
   0   1   1 11618.6 1114.70   3
  -1   0  -1 11102.9 862.515   1
   0  -1  -1 13019.9 1177.56   1
   0  -1  -1 13403.9 1083.80   4
   0  -1  -1 12564.3 1123.66   2
   1   0  -1 10104.8 1120.47   3
   0  -1  -1 12310.5 1103.62   3
   0  -1   1 12705.4 1197.62   3
   0   1  -1 12395.0 991.419   4
   0  -1   1 11938.3 825.017   2
   0   1  -1 13279.5 1219.06   1
   0   1  -1 12345.2 1232.17   3
   0   1   1 14212.1 1161.79   4
   1   0   1 13909.1 1245.46   3
   0   1  -1 14702.6 1197.61   2
  -1   0  -1 10533.2 1036.71   3
  -1   0   1 12392.9 1225.59   3
   0   1  -3 108044. 3585.34   1
   0  -1   3 105650. 3807.70   3
   0   1  -3 103657. 3873.09   3
   0  -1   3 95357.8 3360.45   1
   0  -1  -3 113055. 4311.78   2
  -1   0   3 103565. 1905.60   1
  -1   0   3 100847. 3843.89   3
   1   0  -3 102795. 1871.86   1
   1   0  -3 105343. 3953.05   3
   0   1   3 115966. 5447.06   2
   0   1   3 102591. 3114.83   3
   0  -1  -3 102278. 3395.90   4
  -1   0  -3 103704. 3050.16   3
   1   0   3 110181. 3306.22   3
   0  -1  -3 108550. 3112.24   3
   0   1   3 110099. 3613.54   4
   0   1  -3 106663. 2156.23   2
  -1   0   3 106521. 2890.82   4
  -1   0  -3 108037. 3775.84   1
   1   0  -5 1060.26 568.906   3
   0  -1   5 1762.04 699.690   3
  -1   0   5 1364.36 308.126   1
  -1   0   5 799.108 388.481   2
  -1   0   5 1336.74 379.570   4
   1   0   5 1544.06 506.512   1
   1   0  -5 1010.07 292.793   4
   0   1   5 1270.66 532.236   4
   0   1  -5 511.318 281.009   1
   0  -1  -5 1519.57 372.962   3
  -1   0  -5 619.844 219.208   3
   0   1   5 565.465 453.471   2
   1   0   5 1013.23 254.623   3
   1   0  -5 1292.07 273.778   1
   0  -1   5 1605.91 485.363   1
   0  -1  -5 989.753 309.349   4
   0  -1  -5 1694.10 667.881   2
  -1   0  -5 756.237 456.871   4
  -1   0   5 823.162 327.053   3
  -1   0  -5 2177.69 740.145   1
   0   1   5 1408.87 361.748   3
  -1   0  -5 1681.22 590.146   2
  -1   0  -7 793964. 11546.4   2
  -1   0  -7 725577. 15714.8   1
  -1   0   7 759038. 10268.9   2
   1   0   7 752023. 8210.51   3
   0  -1   7 709539. 11286.6   1
   0   1   7 794193. 18503.8   2
   0  -1  -7 743688. 11447.9   4
  -1   0   7 755893. 13858.8   3
   0   1   7 753853. 8089.44   3
   0  -1   7 775227. 13618.8   3
  -1   0   7 746726. 9975.71   1
   0   1  -7 751878. 6494.14   2
  -1   0  -7 745487. 8021.48   3
   0  -1  -7 714041. 16088.4   2
  -1   0   7 768319. 9352.27   4
   1   0   7 740117. 13579.5   1
   1   0  -7 726002. 9959.76   2
   1   0  -7 755200. 8173.87   1
   0   1   7 758506. 11662.0   4
   0  -1  -7 757806. 7784.88   3
  -1   0  -7 763626. 11962.3   4
   1   0  -7 749357. 9046.27   4
   0   1  -7 761143. 11386.9   1
  -1   0   9 71684.2 4865.32   3
  -1   0   9 75873.3 3491.34   2
   0   1  -9 70100.4 3252.62   4
   0  -1  -9 66269.8 5525.74   2
   0   1   9 69229.0 2569.81   3
  -1   0  -9 72998.2 5743.79   1
   0   1   9 70620.8 5896.62   2
  -1   0  -9 73839.0 3807.25   2
  -1   0  -9 70262.2 2555.75   3
  -1   0  -9 77230.4 4237.23   4
   0   1   9 69669.4 4025.66   4
   0  -1  -9 79775.8 4305.49   4
   0  -1   9 76001.1 4849.83   3
   0  -1  -9 77929.4 2681.92   3
   1   0  -9 72850.8 3192.93   4
   1   0   9 69293.3 3773.54   2
   0   1  -9 70882.1 3777.45   1
   1   0   9 70913.1 2628.61   3
   1   0  -9 68058.1 3266.88   2
   0  -1   9 68053.2 3761.21   1
  -1   0   9 68892.9 3124.16   4
   1   0   9 73565.3 5051.60   1
   1   0   9 80731.7 4383.21   4
   1   0  -9 70199.9 3163.97   1
  -1   0   9 74178.3 4154.57   1
   0  -1   9 73938.2 2228.34   2
   0   1  -9 71358.4 3113.58   2
   0  -1 -11 13359.8 1727.33   1
  -1   0  11 13400.7 2057.40   1
   1   0  11 13794.8 1907.33   2
  -1   0 -11 14483.5 1846.42   2
   0   1  11 12203.5 1829.87   4
   0   1 -11 16272.9 1762.99   4
   0   1  11 14610.0 1278.03   3
   0  -1 -11 17450.8 3020.94   2
   0  -1  11 15666.1 1296.93   2
   0   1 -11 17840.9 1921.04   2
   1   0  11 15169.4 1359.15   3
   0   1  11 13562.1 2791.04   2
   0  -1 -11 16818.6 2300.45   4
   0   1 -11 16184.4 2017.12   1
   1   0  11 9143.01 2039.42   1
   0  -1  11 15514.0 2469.78   3
   0  -1 -11 12929.8 1204.65   3
  -1   0 -11 14329.4 2728.50   1
   1   0  11 16792.5 2299.87   4
  -1   0 -11 14423.4 1278.73   3
   1   0 -11 15742.9 1720.34   2
   1   0 -11 13281.7 1701.93   1
   0  -1  11 15094.6 1973.87   1
   1   0 -11 14431.3 1592.10   4
  -1   0  11 18342.4 1827.82   4
  -1   0  11 15268.6 2536.76   3
  -1   0  11 15970.8 1747.34   2
  -1   0 -11 15906.3 2137.55   4
   0   1 -13 135494. 5864.84   2
   1   0  13 124502. 7071.59   4
   1   0  13 89128.3 6987.94   1
   0  -1  13 121882. 6117.70   1
   0  -1 -13 131711. 8582.23   2
   0   1 -13 114517. 5375.80   4
   0  -1  13 124834. 7663.92   3
   1   0 -13 116376. 5259.76   2
   0   1  13 114061. 6425.72   4
  -1   0  13 120312. 5271.74   2
   1   0 -13 121934. 5319.24   4
  -1   0 -13 117064. 5742.00   2
  -1   0  13 107111. 6406.71   1
   0   1  13 112300. 3935.36   3
   0  -1 -13 120396. 5698.62   1
   1   0  13 125639. 6311.72   2
   0  -1 -13 119156. 6898.69   4
  -1   0  13 120082. 7759.13   3
   1   0 -13 117820. 5925.62   1
   1   0  13 118128. 4105.18   3
   0  -1  13 124252. 4584.55   2
  -1   0 -13 123344. 6730.73   4
   0   1 -13 119627. 6106.59   1
  -1   0 -13 118904. 8568.12   1
   0   1  13 128224. 8854.83   2
  -1   0  13 123062. 5375.93   4
   0  -1 -15 40353.1 4932.52   2
  -1   0 -15 28166.9 3477.50   4
  -1   0  15 32674.2 3162.49   4
   0  -1 -15 21739.1 3265.54   4
   1   0  15 38300.3 3865.97   2
  -1   0  15 42843.0 4333.05   1
   0   1 -15 44325.1 3616.46   2
   0  -1  15 38509.1 3548.91   4
  -1   0  15 23149.9 3667.88   3
   1   0  15 37158.7 2553.57   3
   0  -1  15 33412.9 2806.20   2
  -1   0  15 35549.1 3135.81   2
  -1   0 -15 38276.5 3616.50   2
   0   1 -15 33248.4 3305.54   4
   1   0  15 33187.9 4585.74   1
   1   0 -15 38742.3 3401.42   2
   0  -1  15 40508.5 3903.45   1
   0  -1  15 25972.1 3886.86   3
   0  -1 -15 35300.9 3454.18   1
   1   0 -15 40745.8 3462.21   4
   1   0 -15 32809.3 3516.11   1
   0   1  15 37307.8 2544.25   3
   0  -1  17 218423. 9640.33   4
  -1   0 -17 225249. 9614.81   2
   1   0 -17 211014. 8814.09   2
  -1   0 -17 171231. 9534.55   4
  -1   0  17 198559. 8264.56   2
   0  -1 -17 159591. 9541.48   4
  -1   0  17 164981. 7983.53   4
   0  -1 -17 229553. 11759.0   2
   1   0 -17 206832. 8888.96   4
   0  -1  17 207352. 9639.78   1
   1   0 -17 153863. 8561.18   1
   1   0  17 216329. 6774.65   3
  -1   0  17 247845. 10758.3   1
   1   0  17 229007. 12139.1   1
   0   1 -17 193503. 8922.89   4
   0  -1  17 170235. 7364.08   2
   0   1  17 212447. 6847.29   3
  -1   0  17 194547. 10898.7   3
   0   1 -17 248245. 8945.14   2
   1   0  19 19130.6 3642.35   1
   1   0 -19 15410.3 2644.83   4
   0  -1  19 15971.7 2941.85   1
   0  -1 -19 13897.1 5296.67   2
  -1   0  19 16620.5 3297.24   3
   0   1 -19 9765.42 2264.70   4
   0   1 -19 20379.9 2795.66   2
   0  -1  19 8433.39 1936.81   2
   0   1  19 12662.4 1856.87   3
   0  -1 -19 6096.90 2051.64   4
  -1   0  19 14719.3 2679.83   1
  -1   0 -19 15746.4 2713.14   2
  -1   0 -19 11618.4 2773.09   4
   1   0  19 13965.4 1881.09   3
   1   0 -19 17346.3 2742.51   2
  -1   0 -21 46432.7 5444.62   4
   0  -1 -21 75159.4 6853.27   2
   1   0 -21 58285.1 5464.15   2
   0   1  21 65942.8 4700.95   3
   0  -1 -21 60524.1 6463.85   4
   0   1 -21 58298.9 5610.71   4
  -1   0  21 79022.0 6360.77   1
   0  -1  21 63030.0 6332.26   1
  -1   0 -21 60186.7 5651.49   2
   0   1 -21 76374.5 5421.47   2
   1   0 -21 59087.7 5723.13   4
   0  -1  21 52993.7 4965.53   2
   1   0  21 63294.5 6774.98   1
  -1   0  21 82825.8 7292.10   3
   1   0  21 58741.9 4284.94   3
  -1   0 -23 46435.0 5696.80   4
   0  -1  23 41068.7 4593.62   2
  -1   0  23 55176.3 5444.82   1
   0   1  23 43546.7 4002.64   3
   1   0  23 54582.2 6427.29   1
   0   1 -23 50568.9 4504.29   2
   0  -1 -23 50709.2 6158.54   4
   1   0 -23 34384.1 4692.58   4
   1   0 -23 46990.3 5292.45   2
   1   0  23 35953.6 3611.29   3
   0   1 -23 47816.1 5285.35   4
  -1   0  23 63379.0 6420.04   3
   0  -1 -23 56958.9 5951.25   2
   0  -1  23 46154.0 5700.32   1
  -1   0 -23 43373.7 5091.78   2
   0  -1 -25 77.2008 369.156   4
   0  -1  25 1453.66 1413.75   1
   1   0  25-40.6017 878.577   1
   1   0  25 925.112 718.042   3
   0   1  25 784.656 456.263   3
   0   1 -25 350.869 426.366   2
  -1   0 -25 1734.52 1014.73   4
   0   1 -25 298.194 628.480   4
   1   0 -25 540.663 752.734   4
  -1   0  25 507.848 623.854   1
   1   0 -25 340.377 1058.06   2
  -1   0 -25 1280.43 1102.52   2
   0  -1 -25 1122.15 1120.50   2
  -1   0  25 832.873 496.215   3
   0   1  27 163483. 8270.74   3
  -1   0  27 190408. 11056.5   3
   0   1 -27 156280. 9832.42   4
  -1   0 -27 148943. 9993.33   2
   1   0 -27 164200. 10774.3   4
   1   0 -27 168011. 10715.1   2
   0  -1 -27 165406. 11464.1   4
  -1   0  27 173919. 10179.8   1
  -1   0 -27 165397. 11348.1   4
   0  -1  27 150878. 11165.4   1
   1   0  27 198780. 12374.0   1
   0   1 -27 173808. 8740.95   2
   0  -1 -27 169628. 10561.7   2
  -1   0 -29 10330.5 2630.47   4
   1   0  29 16521.1 3703.12   1
   1   0 -29 11822.7 2718.65   2
   0  -1 -29 13974.8 3286.11   4
   0   1 -29 9011.12 2352.87   4
  -1   0  29 9883.35 2500.33   3
   0  -1 -29 13503.5 3052.16   2
   1   0 -29 10600.4 2913.25   4
  -1   0 -29 7674.63 2517.51   2
  -1   0  29 9379.05 2412.07   1
   0  -1  29 7020.67 2593.28   1
   0   1  29 12688.2 2318.28   3
   0   1 -29 9445.63 2052.20   2
   1   0  31 134729. 10865.6   1
  -1   0  31 106224. 8437.72   1
   1   0 -31 136165. 9877.49   2
  -1   0 -31 125845. 9535.95   2
   0  -1 -31 128546. 10341.1   4
  -1   0 -31 134267. 10506.8   4
   0   1  31 143285. 7746.57   3
   0   1 -31 125715. 9082.54   4
   1   0 -31 133956. 10228.6   4
   0  -1 -31 136824. 9736.03   2
  -1   0  31 147289. 9694.16   3
   0   1 -31 128453. 7949.28   2
   0  -1  31 120519. 10296.1   1
  -1   0  33 4987.26 1602.82   3
   0  -1 -33 2138.13 1616.12   2
   0  -1  33 3272.15 1935.87   1
  -1   0 -33 3349.99 1302.31   2
   0   1 -33 3290.26 1517.96   4
   1   0 -33 7778.00 2622.00   2
   0   1 -33 6092.13 1900.29   2
   1   0  33 1714.17 647.053   3
  -1   0 -33 10760.4 3075.34   4
   0  -1 -33 6310.67 2452.45   4
   1   0 -33 3520.11 1939.60   4
   1   0  33 3754.60 1958.57   1
  -1   0  33 3887.94 1516.34   1
   0   1  33 3974.59 1402.82   3
   1   0 -35 64.6261 491.685   2
  -1   0  35 950.222 927.454   3
   0   1 -35 467.904 757.147   4
  -1   0  35-120.694 896.221   1
   1   0  35 1704.19 1827.98   1
   1   0 -35 126.924 388.286   4
   0  -1 -35 685.327 658.538   4
   0  -1 -35-1039.46 769.016   2
   0   1 -35-727.569 559.117   2
   0  -1  35 356.976 602.631   1
  -1   0 -35 670.602 699.456   2
  -1   0 -35 2174.78 1690.82   4
   0  -1  37 2722.78 1967.89   1
  -1   0 -37 2116.94 1979.47   2
   1   0  37 1701.17 1426.37   1
   0   1 -37 3690.41 1695.71   4
   1   0 -37 4949.03 2326.49   4
  -1   0  37 3472.32 1837.22   1
   1   0 -37 3694.00 1665.99   2
   0  -1 -37 1393.92 267.991   4
  -1   0 -37 287.306 789.300   4
   0  -1 -37 654.420 1100.20   2
   0   1 -37 3643.59 1661.07   2
  -1   0  37 1467.14 809.373   3
  -1   0 -39 1829.18 1325.12   4
   0  -1  39-152.922 617.437   1
   0   1 -39 4382.74 2055.73   4
   1   0 -39 6379.60 2286.33   4
   1   0 -39 668.266 1432.35   2
  -1   0  39-392.788 469.703   1
   0  -1 -39 3387.51 1844.43   4
   1   0  39 2023.34 1721.94   1
  -1   0 -39 7578.59 2721.21   2
   0  -1 -39 3961.44 1683.20   2
   0  -1  39 3564.42 2117.22   3
  -1   0  39 2677.44 1027.68   3
   0  -1  41 50965.9 7666.68   1
  -1   0  41 39201.0 6077.09   1
  -1   0 -41 66734.3 7423.91   2
   1   0 -41 53154.7 6495.21   2
   0  -1 -41 53847.4 6705.49   2
  -1   0 -41 49049.8 6884.65   4
   0  -1 -41 61651.4 7686.55   4
   1   0 -41 56476.6 7076.10   4
   0   1 -41 58640.6 6853.37   4
  -1   1   0 620695. 9821.19   2
  -1  -1   0 569105. 7332.10   4
  -1   1   0 587804. 6900.84   1
  -1  -1   0 592074. 9331.00   1
  -1   1   0 601152. 10359.4   3
  -1  -1   0 564105. 8643.49   2
   1  -1   0 624835. 10377.0   3
   1  -1   0 617819. 7352.53   1
   1   1   0 590716. 6770.46   4
  -1  -1  -2 49766.4 3324.06   4
  -1   1   2 49525.9 3010.63   3
  -1  -1   2 48603.2 2339.26   2
  -1   1   2 50539.0 2855.04   4
   1  -1  -2 44319.8 1796.70   1
   1  -1   2 47805.1 2890.30   3
  -1   1   2 50208.2 2899.88   2
  -1  -1  -2 51769.5 2842.19   2
   1   1   2 50522.4 2701.40   2
   1  -1  -2 52506.7 3031.46   3
  -1   1  -2 48912.1 3014.44   3
   1  -1   2 50979.2 2413.16   1
  -1   1  -2 46087.9 2203.99   1
  -1  -1   2 45404.6 2601.32   1
   1   1   2 50137.4 3021.47   4
   1  -1  -4 78473.9 3741.04   3
   1  -1   4 71426.3 3613.49   3
   1  -1   4 69958.4 3173.36   1
  -1   1  -4 73033.4 3136.34   1
  -1   1   4 74044.0 3673.62   2
   1  -1  -4 71313.2 3437.46   4
   1  -1  -4 62246.4 3276.88   2
  -1   1   4 72359.3 3658.70   3
   1   1  -4 77977.6 3443.83   1
  -1  -1  -4 67334.1 4981.56   4
  -1   1  -4 71761.1 3692.68   3
   1  -1  -4 71599.4 2350.45   1
  -1  -1  -4 73222.6 3781.01   2
  -1   1   4 69601.9 3388.65   4
   1   1   4 73281.9 3598.88   2
  -1  -1   4 69551.8 3194.79   1
   1   1   4 67877.6 4655.06   4
  -1   1   6 90306.1 4181.26   3
   1   1  -6 92431.5 3810.11   1
   1  -1  -6 85029.5 4018.79   3
  -1  -1  -6 77532.6 6154.37   4
  -1   1  -6 87558.8 3826.05   1
  -1   1   6 88967.9 4240.70   2
  -1  -1  -6 87198.9 4591.54   2
  -1  -1   6 81028.1 3505.36   1
  -1   1  -6 86299.4 4130.00   3
  -1  -1  -6 82822.9 2355.85   3
   1  -1  -6 89433.9 4054.81   4
   1  -1  -6 81506.0 3945.23   2
   1   1   6 79765.9 4121.35   2
  -1   1   6 81484.7 3848.87   4
   1  -1   6 82156.4 3933.14   1
   1  -1   6 95343.2 4286.74   3
   1   1   6 89101.2 6502.40   4
  -1  -1   8 122226. 2708.08   4
   1  -1  -8 137039. 4207.08   1
   1  -1  -8 119996. 4926.77   4
  -1   1   8 124381. 5057.90   4
   1  -1  -8 127280. 5142.83   3
  -1   1  -8 136190. 5408.60   1
  -1  -1   8 118955. 4527.87   1
   1   1   8 124642. 8710.12   4
   1   1  -8 133275. 4847.99   1
   1  -1  -8 115076. 5091.64   2
   1   1  -8 124074. 2472.18   4
  -1  -1  -8 122118. 8320.28   4
  -1   1   8 129762. 5194.47   3
   1  -1   8 122629. 5506.01   1
  -1   1   8 126185. 5359.39   2
  -1  -1  -8 123756. 6113.26   2
  -1  -1   8 123312. 3232.51   2
   1   1   8 131406. 5996.11   2
  -1   1  -8 129189. 5114.15   3
   1  -1   8 120049. 4999.54   3
  -1  -1  10 126860. 5150.15   1
   1  -1 -10 126765. 4718.49   1
   1  -1 -10 102350. 4863.95   4
  -1   1 -10 118372. 5107.26   3
   1   1  10 134663. 9697.90   4
  -1  -1 -10 115729. 6449.41   2
  -1   1  10 117827. 5252.82   4
  -1  -1 -10 135553. 9071.28   4
  -1   1  10 120474. 5277.20   3
   1  -1 -10 130775. 5369.70   3
   1  -1  10 124555. 6335.30   1
  -1   1  10 113773. 5543.23   2
  -1   1 -10 101964. 4852.47   4
  -1  -1 -10 133474. 5766.97   1
  -1   1 -10 121083. 5782.21   1
   1  -1  10 117811. 5186.79   3
  -1  -1  10 124486. 3608.43   2
  -1   1 -10 103941. 4092.79   2
   1  -1 -10 116238. 5511.61   2
  -1  -1  10 131292. 4145.55   4
   1   1  10 131169. 6827.72   2
   1   1 -10 119039. 4888.07   1
   1   1 -10 130767. 3735.83   4
   1  -1 -12 41851.1 3568.88   2
   1  -1 -12 47014.1 3348.79   1
   1  -1  12 49119.7 3552.94   3
  -1  -1 -12 46661.2 4428.76   2
  -1   1  12 52167.2 3730.34   4
  -1  -1 -12 67108.7 6635.74   4
  -1   1 -12 47866.9 3558.91   4
   1   1 -12 50904.4 3390.16   1
  -1   1 -12 55674.2 4461.51   1
   1  -1 -12 50977.1 3631.02   4
   1   1  12 65321.1 7020.76   4
  -1  -1  12 50305.9 3480.37   1
  -1  -1  12 47644.5 3226.90   4
  -1   1 -12 45105.0 3291.35   3
  -1   1 -12 48306.4 2987.32   2
   1   1 -12 50757.8 3016.94   4
  -1  -1  12 50949.0 2634.90   2
  -1   1  12 50062.0 3662.81   3
   1  -1 -12 45294.8 3319.05   3
   1  -1  12 43129.7 4179.52   1
   1   1 -14 406091. 10292.4   4
   1  -1 -14 435808. 11583.4   4
  -1  -1 -14 411443. 14399.7   2
   1  -1 -14 414958. 11658.2   1
   1  -1  14 412290. 11199.5   3
   1  -1 -14 429267. 10828.8   3
   1  -1 -14 443582. 12831.2   2
  -1   1 -14 445883. 9857.92   2
   1   1 -14 431348. 10745.0   1
  -1  -1  14 384990. 11033.2   4
   1  -1  14 403130. 14076.3   1
   1   1 -14 438542. 7849.30   2
  -1   1 -14 442708. 10957.9   3
  -1   1  14 418100. 11476.5   3
  -1   1 -14 442902. 11481.8   4
  -1  -1  14 468946. 11539.3   1
  -1  -1  14 426525. 8842.73   2
  -1   1 -16 53198.1 3748.30   2
   1  -1  16 47209.6 4164.86   3
   1  -1  16 42651.8 4900.58   1
   1   1 -16 43448.7 3814.13   4
  -1  -1 -16 67701.6 6818.83   4
  -1   1  16 60385.8 4789.65   3
   1  -1 -16 56755.8 4584.39   4
   1  -1 -16 50555.1 3967.21   3
  -1  -1  16 53401.2 4303.64   1
  -1  -1 -16 45479.6 5027.63   2
  -1  -1  16 40718.2 3989.42   4
   1  -1 -16 56223.5 5019.22   2
  -1  -1  16 47627.4 3439.12   2
   1  -1 -16 45109.1 4335.69   1
  -1   1 -16 48437.6 4075.05   4
   1   1 -16 58058.9 3184.46   2
  -1   1 -18 293.213 162.925   2
  -1   1 -18 1653.25 1028.74   4
   1  -1 -18 1287.10 668.039   2
  -1  -1  18 138.014 617.014   4
   1   1 -18 1062.28 537.850   2
   1  -1  18 218.108 669.368   1
  -1  -1  18 1160.81 591.378   1
   1  -1 -18 529.494 560.487   4
  -1  -1 -18-829.652 914.177   2
  -1   1  18 1276.22 813.161   3
   1   1 -18 778.597 483.591   4
  -1  -1 -18 994.140 721.119   4
  -1  -1  18 664.810 496.568   2
  -1  -1 -20 63497.6 6517.07   2
   1   1 -20 91834.4 5200.77   2
   1   1 -20 88430.5 6259.44   4
  -1  -1  20 85774.7 6707.12   4
   1  -1 -20 76711.1 6786.02   2
  -1   1 -20 88556.2 5839.75   2
  -1   1  20 90211.8 6841.19   3
  -1   1 -20 92318.6 6752.10   4
  -1  -1 -20 103091. 8331.64   4
   1  -1  20 81587.9 7412.22   1
   1  -1 -20 95438.8 7195.12   4
  -1  -1  20 100742. 7109.43   1
  -1  -1  20 86683.0 5776.69   2
  -1   1  22 1079.76 1004.55   3
   1  -1 -22-308.861 445.662   2
   1  -1 -22 2281.29 1120.73   4
  -1   1 -22 612.704 959.187   4
  -1  -1  22 2807.45 1407.04   1
   1   1 -22 845.783 1010.41   4
  -1  -1  22 1441.03 906.013   2
   1   1 -22 1755.21 776.420   2
  -1  -1 -22 65.3839 490.099   2
  -1   1 -22-116.183 295.890   2
  -1  -1 -22 920.923 1086.42   4
   1  -1  22 504.050 600.180   1
   1  -1  24 204641. 12500.8   1
  -1  -1 -24 188462. 11662.2   2
   1   1 -24 216080. 9814.54   2
  -1  -1  24 200384. 11702.1   1
   1   1 -24 229693. 10771.6   4
   1  -1 -24 200232. 12416.2   4
  -1  -1 -24 211675. 12209.4   4
  -1   1 -24 192628. 10140.5   2
   1  -1 -24 171548. 11291.5   2
  -1   1  24 165073. 10120.5   3
  -1   1 -24 215667. 12163.5   4
  -1   1  26 3141.59 1476.36   3
   1   1  26 413.965 241.447   3
   1   1 -26 1612.88 1446.66   2
  -1   1 -26 3330.39 1908.43   4
  -1  -1  26 645.261 1025.32   1
   1  -1 -26 3290.41 1500.66   2
  -1  -1 -26 1011.99 1178.78   4
   1   1 -26 1313.84 1118.75   4
   1  -1 -26 1268.29 1501.10   4
  -1  -1 -26 4118.29 1905.83   2
   1   1  26 598.815 290.258   3
   1  -1  26 557.528 947.359   1
  -1   1 -26 658.915 829.608   2
  -1  -1 -28-35.9106 147.066   2
   1  -1  28 509.976 69.1866   1
  -1   1 -28 804.745 1049.21   4
   1  -1 -28 675.063 614.084   4
  -1   1  28 276.607 554.386   3
  -1   1 -28 1671.58 1323.82   2
  -1  -1 -28 655.641 680.765   4
   1   1 -28-179.886 519.278   4
   1   1 -28 1460.24 1178.78   2
  -1  -1  28 1119.18 1204.94   1
   1  -1 -28 1168.63 1438.35   2
   1  -1 -30 15455.7 3902.35   4
   1  -1 -30 14956.6 3554.64   2
   1  -1  30 13138.0 3467.12   1
  -1  -1  30 18491.0 4063.98   1
   1   1 -30 13675.1 2849.28   2
  -1   1 -30 6833.91 2530.54   4
  -1  -1 -30 18857.5 3830.57   4
   1   1 -30 14877.7 2936.07   4
  -1  -1 -30 16928.3 3669.65   2
  -1   1  30 23437.6 3766.86   3
  -1   1 -30 12787.1 2805.85   2
  -1   1 -32-76.0818 459.622   2
  -1   1  32 1506.45 1324.52   3
   1  -1 -32-1240.29 706.501   2
   1  -1  32-357.442 1111.68   1
  -1  -1 -32 1195.71 1304.83   2
  -1   1 -32 1395.26 2006.71   4
   1   1 -32-113.254 717.861   2
   1  -1 -32 677.545 1470.96   4
   1   1 -32-268.280 526.451   4
  -1  -1 -32 1224.10 1463.94   4
  -1  -1  32 1116.13 1078.33   1
  -1  -1  32-685.607 503.317   3
   1   1 -34 142030. 9695.40   2
   1  -1 -34 169781. 13203.1   4
  -1   1 -34 150028. 9916.97   2
  -1  -1  34 128540. 10853.7   1
   1  -1  34 141825. 11267.9   1
  -1   1  34 143332. 9415.50   3
   1   1 -34 136079. 9260.88   4
  -1   1 -34 130584. 11278.7   4
  -1  -1 -34 134831. 10639.3   4
  -1  -1  34 168499. 11593.0   3
   1  -1 -34 129820. 10403.7   2
  -1  -1 -34 146244. 11099.1   2
   1   1 -36 26582.3 4226.83   4
   1  -1 -36 27592.3 5370.86   4
  -1  -1  36 24296.9 4446.02   3
  -1  -1  36 27338.7 5127.78   1
  -1   1 -36 31415.6 5486.43   4
   1  -1  36 29179.0 5243.16   1
   1  -1 -36 26470.6 4731.88   2
  -1  -1 -36 27444.8 4933.13   4
  -1  -1 -36 25907.8 4811.09   2
   1   1 -36 31973.2 4588.86   2
  -1   1 -36 24703.7 4141.61   2
  -1   1  36 28059.1 4217.29   3
  -1  -1 -38 32226.1 5595.85   4
  -1   1 -38 35336.1 5880.97   4
  -1   1 -38 38790.5 5145.61   2
   1   1 -38 39230.0 5178.16   4
   1  -1  38 35180.1 6150.79   1
  -1  -1  38 35051.1 5812.61   1
  -1  -1  38 33270.3 5353.40   3
  -1  -1 -38 36629.5 5764.22   2
   1  -1 -38 42855.1 6759.97   4
   1  -1 -38 33854.5 5147.64   2
  -1  -1 -40 10782.3 3187.90   4
   1  -1 -40 14621.8 3526.10   2
  -1   1 -40 11709.7 3532.11   4
  -1  -1  40 9860.35 3234.17   1
   1  -1 -40 12573.5 3621.73   4
   1   1 -40 8319.91 2220.41   4
  -1  -1 -40 5981.33 2246.06   2
   1  -1  40 10287.4 3447.50   1
  -1  -1  40 13179.8 3509.19   3
   0   2   0 957682. 22118.5   2
   0  -2   0 970492. 12546.7   4
   0  -2   0 979042. 11793.9   2
   2   0   0 999999. 16177.2   3
   0  -2   0 978106. 14612.1   3
  -2   0   0 943160. 14375.5   3
   0  -2   0 983977. 14322.7   1
   0   2   0 974941. 15480.5   3
   0   2   0 999803. 13386.8   4
   0  -2  -2 1239.57 712.499   1
  -2   0   2 542.612 532.174   3
  -2   0   2 279.564 150.285   1
  -2   0  -2 573.794 424.715   1
   0   2  -2 1012.89 387.438   1
   0   2  -2 703.210 357.381   4
   0  -2  -2 582.093 502.963   4
   0  -2  -2 679.759 397.295   3
   0  -2   2 875.714 298.131   2
  -2   0  -2 1723.84 671.959   3
   0  -2   2 747.272 463.347   1
  -2   0   2 684.463 214.412   1
   0  -2  -2 634.072 504.630   2
   0   2   2 1067.07 460.299   4
   0   2   2 2141.99 767.917   3
   2   0  -2 514.925 304.632   3
   0  -2   2 1108.99 488.263   3
   0   2  -2 901.495 1036.47   2
   2   0   2 584.440 370.778   3
   0   2   2 3241.52 1667.29   2
   0   2  -2 873.845 662.170   3
   0   2  -4 13786.1 1511.35   4
   0   2   4 18173.5 2020.43   4
   0   2   4 18408.0 3568.59   2
   0   2  -4 16364.1 2015.64   1
  -2   0   4 14284.6 1946.97   3
   2   0   4 15978.8 1935.48   3
  -2   0   4 15257.6 885.118   1
   0  -2   4 15720.5 1917.43   1
  -2   0   4 15309.5 1642.78   4
  -2   0  -4 20229.1 2438.92   1
  -2   0  -4 19032.3 1877.63   3
   0  -2   4 16288.6 1124.06   2
   2   0  -4 17883.7 2370.89   3
   0  -2  -4 17503.6 1801.95   3
   0  -2  -4 16817.7 2024.75   2
   0  -2   4 15394.7 1998.52   3
   0  -2  -4 15145.3 1841.03   1
   0   2   4 15450.2 1824.19   3
   0   2  -4 22022.4 2623.32   2
   0  -2  -4 15054.4 1722.19   4
   0   2  -4 15175.8 2121.48   3
   0  -2  -6 534.131 377.511   2
  -2   0  -6 1070.41 527.074   4
   2   0   6 892.240 462.480   3
  -2   0  -6 423.719 394.220   3
   0  -2  -6 988.861 483.972   3
   0  -2   6 1088.40 553.060   1
  -2   0   6 812.613 629.867   3
  -2   0  -6 208.065 391.352   1
  -2   0   6 637.540 184.524   1
  -2   0   6 1274.33 632.775   2
   0   2   6 834.240 432.486   4
   0  -2  -6-71.0480 182.057   4
   0   2  -6 277.073 399.178   4
  -2   0   6 720.645 293.862   4
   0   2   6 790.568 451.451   3
   0   2   6 1314.98 1053.17   2
   0   2  -6 829.229 283.621   2
  -2   0   8 9817.65 1314.63   4
  -2   0  -8 7142.80 1373.59   2
  -2   0   8 6611.20 1272.59   2
   0   2   8 4878.84 2063.36   2
   2   0   8 8211.54 1327.19   3
   0  -2  -8 10429.6 1577.97   4
  -2   0  -8 8568.50 1548.37   4
   0   2   8 6931.77 1449.02   4
   0  -2   8 8416.28 1502.52   1
   0  -2  -8 9368.61 1974.80   2
  -2   0  -8 12681.1 2605.46   1
   0  -2  -8 8286.69 1098.10   3
  -2   0  -8 10625.9 1326.32   3
   0   2   8 8624.95 1317.68   3
   2   0  -8 9139.77 853.005   1
  -2   0   8 7484.29 936.089   1
  -2   0   8 7879.56 1682.92   3
  -2   0  10 153671. 5504.32   1
   0  -2  10 153037. 6803.32   1
  -2   0 -10 169788. 10089.7   1
  -2   0 -10 149584. 6620.73   2
  -2   0 -10 159048. 5160.39   3
   0  -2 -10 172445. 9365.13   2
  -2   0 -10 156515. 7005.67   4
  -2   0  10 171190. 8643.63   3
   0   2  10 166733. 5832.03   3
   0  -2 -10 154706. 4800.63   3
  -2   0  10 167229. 5599.10   4
   0  -2 -10 157875. 6750.25   4
   2   0  10 163121. 5821.42   3
   2   0 -10 160199. 3912.78   1
   2   0 -10 163137. 5505.79   4
   0  -2 -12 95.5248 195.255   3
   2   0  12 252.184 81.0023   3
   0   2  12 35.4639 128.961   3
  -2   0 -12 162.639 334.523   3
  -2   0 -12 891.319 426.778   4
  -2   0  12 265.601 475.207   3
  -2   0  12 157.195 127.283   4
   0   2 -12 500.404 352.341   4
  -2   0  12 216.213 412.788   1
   2   0  12-107.204 577.710   1
   0  -2 -12-71.0557 1063.00   2
   0  -2 -12 128.098 492.473   4
   2   0 -12 71.0243 174.117   1
  -2   0 -12 395.845 471.240   2
   0  -2  12 156.083 445.651   1
   2   0 -12-112.303 198.180   4
   0  -2  14 111520. 6356.15   1
   0   2 -14 140361. 5789.14   4
  -2   0 -14 146832. 7787.59   4
  -2   0 -14 138850. 6928.07   2
   2   0  14 143507. 5487.25   3
  -2   0  14 151559. 7272.01   1
  -2   0  14 137760. 9178.78   3
   2   0 -14 130241. 5369.35   4
   2   0 -14 139863. 4766.19   1
   0  -2 -14 143443. 4819.94   3
   0  -2 -14 124849. 9244.62   2
  -2   0 -14 139166. 4754.16   3
  -2   0  14 136182. 5735.08   4
   0  -2 -14 154663. 7899.86   4
   0   2  14 156109. 5713.56   3
   2   0  14 139903. 8385.37   1
  -2   0 -16 114466. 6613.75   2
  -2   0  16 99415.4 6253.02   1
  -2   0  16 88650.7 7838.68   3
   2   0 -16 89688.1 4740.36   4
  -2   0 -16 105141. 7230.53   4
   2   0 -16 100646. 4694.77   1
   2   0  16 84617.5 7166.66   1
   0  -2 -16 99769.9 4162.77   3
   0   2  16 108072. 4864.82   3
   0  -2 -16 100249. 6998.70   4
   0  -2 -16 93838.9 8359.99   2
   2   0  16 99070.0 4669.18   3
   0   2 -16 88451.8 3006.51   2
   0  -2  16 107195. 6667.71   1
   0   2 -16 108858. 5547.77   4
  -2   0 -16 96049.5 4047.98   3
  -2   0  18 9278.97 2661.22   3
   0  -2 -18 9867.15 2599.63   2
   2   0  18 7987.08 1368.69   3
   0  -2 -18 8952.09 1285.55   3
   2   0 -18 14455.3 2268.06   2
   0   2 -18 7914.32 1166.13   2
   0  -2 -18 8582.25 2250.99   4
   0   2 -18 9395.07 1874.29   4
   2   0  18 10585.4 2925.92   1
   0   2  18 10407.8 1585.16   3
  -2   0 -18 8445.94 2115.27   4
   0  -2  18 5891.07 1788.98   1
   2   0 -18 7013.82 1465.78   1
  -2   0 -18 7498.85 1833.10   2
  -2   0  18 11066.3 2153.27   1
   2   0 -18 10213.5 1652.54   4
  -2   0 -18 8960.07 1315.24   3
  -2   0 -20 225997. 12250.8   4
   2   0  20 169703. 11677.7   1
   0   2 -20 213428. 6591.31   2
   2   0 -20 243774. 10278.3   2
   2   0 -20 246015. 9156.95   4
  -2   0 -20 233822. 10689.8   2
  -2   0  20 254701. 10757.8   1
  -2   0  20 172291. 12073.2   3
   2   0  20 206262. 7312.72   3
   0   2  20 240434. 7686.51   3
   0  -2 -20 226603. 12721.6   4
   0  -2  20 226100. 11108.6   1
   0  -2 -20 219741. 13331.0   2
   0   2 -20 224539. 9700.87   4
  -2   0  22 12845.1 3343.68   3
   0  -2 -22 6688.70 2025.37   2
  -2   0 -22 10922.9 2983.51   4
   2   0 -22 7842.37 1954.09   2
   2   0 -22 9878.58 1897.26   4
   0   2 -22 5671.68 1604.17   4
   0  -2  22 6240.27 2002.32   1
   2   0  22 5365.62 2243.09   1
   0   2 -22 8635.42 1470.49   2
  -2   0  22 9672.91 2261.13   1
   2   0  22 6974.67 1413.34   3
   0   2  22 8422.85 1550.84   3
  -2   0 -22 10041.5 2397.16   2
   0  -2 -22 8082.13 2751.49   4
   0   2 -24 98150.4 7681.30   4
   0   2  24 126402. 5985.07   3
  -2   0 -24 113492. 9924.31   4
  -2   0  24 131144. 8222.95   1
  -2   0 -24 116103. 8598.47   2
   0  -2 -24 99820.1 9589.89   4
   2   0 -24 131673. 8030.19   4
   2   0  24 123305. 10533.0   1
   2   0 -24 137254. 9075.45   2
  -2   0  24 125231. 10659.4   3
   0   2 -24 137982. 6168.71   2
   0  -2 -24 113570. 9701.63   2
   0  -2  24 131437. 9716.65   1
   0  -2  26 30623.6 5034.94   1
   0   2 -26 21537.5 3710.69   4
  -2   0 -26 29458.2 4609.44   2
   2   0 -26 21836.1 3481.58   4
  -2   0  26 31147.1 5048.71   3
  -2   0 -26 19165.0 4188.25   4
   0  -2 -26 30338.0 5135.70   2
   2   0  26 19554.5 4554.09   1
   0  -2 -26 18952.7 4281.64   4
   2   0 -26 30999.8 4647.06   2
   0   2 -26 29658.0 3013.39   2
   0   2  26 21338.5 2537.46   3
  -2   0  26 23814.1 3571.22   1
  -2   0  28 16228.1 3994.49   3
   2   0 -28 13430.3 3106.97   2
  -2   0 -28 9355.04 3111.02   4
   0   2 -28 16373.7 2357.63   2
   2   0 -28 11381.8 2926.70   4
   0   2 -28 9824.69 2595.97   4
   0  -2  28 14977.3 3934.17   1
   0  -2 -28 8018.42 2963.61   4
   0  -2 -28 14186.9 3382.55   2
  -2   0  28 10350.1 2546.21   1
   2   0  28 7198.79 2631.75   1
  -2   0 -28 16635.5 3814.33   2
  -2   0  30 5021.12 2394.66   3
   2   0  30 2599.76 1986.20   1
   0  -2 -30 3307.94 1709.66   2
   2   0 -30 846.736 893.272   2
   0  -2  30 2800.29 2031.43   1
  -2   0 -30 2765.03 1845.10   4
   2   0 -30 1967.01 1470.20   4
   0   2 -30 1652.52 1431.79   4
  -2   0 -30 2588.69 1308.01   2
   0  -2 -30 2885.83 1841.27   4
  -2   0  30 3054.94 1557.57   1
  -2   0  32 8738.47 2885.89   3
   0  -2 -32 9524.34 2920.12   2
   2   0 -32 7111.86 2611.85   4
  -2   0  32 5628.23 2076.13   1
   0  -2  32 6827.33 3226.68   1
  -2   0 -32 9298.43 3353.46   4
   0   2 -32 11056.9 3045.81   4
   0  -2 -32 9024.15 2989.14   4
  -2   0 -32 5508.64 2102.24   2
   2   0 -32 12103.0 3638.64   2
   2   0  32 6954.17 2510.61   1
  -2   0 -34 48576.1 6986.53   2
   0   2 -34 59524.3 6707.20   4
   0  -2 -34 60481.3 8267.94   4
   0  -2  34 55541.2 8382.45   1
   0  -2 -34 59937.8 7328.74   2
   2   0 -34 63841.7 7786.69   2
  -2   0  34 58565.9 6395.72   1
  -2   0 -34 68768.3 8436.21   4
  -2   0  34 68176.4 7538.69   3
   2   0 -34 47955.8 6411.62   4
  -2   0 -36 41870.7 6806.91   4
   0  -2  36 46920.5 7596.52   1
   0   2 -36 57532.9 6425.64   4
  -2   0  36 46969.6 5812.75   1
   0  -2 -36 38370.4 6758.05   4
   0  -2 -36 50580.4 6751.17   2
  -2   0 -36 38398.0 6283.13   2
   2   0 -36 54303.8 7112.60   2
  -2   0  36 63155.5 7299.34   3
   2   0 -36 36736.7 5691.86   4
  -2   0 -38 66809.4 8823.29   4
   0  -2  38 64685.2 9048.36   1
   0  -2 -38 72648.8 8422.14   2
  -2   0 -38 63925.5 8167.73   2
   0   2 -38 62893.2 6744.74   4
   0  -2 -38 77461.7 9458.96   4
  -2   0  38 49943.2 6253.66   1
   2   0 -38 59390.6 7704.12   2
  -2   0  38 67055.9 7615.30   3
   2   0 -38 65361.3 7804.29   4
  -2  -1   1 8329.71 1452.87   3
  -1  -2   1 13026.2 2785.35   2
  -1  -2  -1 7301.78 1284.99   3
   1   2   1 6577.27 1063.47   2
   1  -2  -1 8331.09 1266.37   1
   2  -1   1 6480.18 1380.98   1
  -1   2   1 7345.20 1352.43   2
  -1  -2   1 7442.59 1334.50   1
  -2  -1  -1 7275.30 1313.10   3
   2  -1  -1 9428.06 1069.55   1
  -2   1   1 6080.72 612.579   1
   1   2  -1 9518.93 1288.09   4
  -1  -2   1 6175.01 1283.53   3
  -1   2  -1 7070.75 1131.15   1
  -2  -1  -1 9533.66 1477.31   4
  -2  -1  -1 10148.4 1590.41   2
  -1  -2  -1 7475.99 1403.03   1
  -2   1  -1 6831.55 749.072   1
   1   2   1 9836.32 1600.59   4
   1   2  -1 7823.76 1101.34   2
   1  -2   1 7688.02 1203.76   1
  -2  -1   1 8384.57 1249.07   1
  -1   2  -1 10414.5 1485.94   2
  -1  -2   1 7321.87 847.577   4
  -1  -2  -1 7028.04 945.733   4
  -2  -1   1 9906.85 1322.69   4
  -1   2  -1 6542.95 1321.19   3
   1  -2  -1 7988.46 1300.16   2
  -2   1  -1 6678.67 1327.18   3
  -1   2   1 9059.47 1584.40   3
  -1  -2  -1 9277.58 2678.49   2
  -2   1   1 6232.75 1345.07   3
  -2  -1  -3 81547.4 5031.00   4
  -2  -1   3 60427.4 4374.68   3
   2  -1   3 73906.5 5504.43   1
  -1  -2  -3 68756.2 4244.88   1
  -1  -2   3 64486.5 4046.97   1
   1   2   3 65578.1 3780.77   2
  -2   1   3 67678.2 4423.43   3
   1   2   3 78118.8 5209.35   4
  -2  -1  -3 67150.1 3621.78   3
  -2  -1   3 72959.8 3615.03   1
   1  -2  -3 67408.3 3537.37   1
  -1  -2   3 84538.0 6469.16   2
  -2   1  -3 66664.8 2891.83   1
   1  -2   3 71064.5 3934.89   1
  -1  -2   3 67371.8 4756.29   3
  -1   2   3 65143.1 4055.08   2
  -1  -2  -3 73694.5 7529.42   2
  -1  -2  -3 72770.8 3427.52   4
  -1  -2  -3 65113.1 3501.20   3
  -1   2  -3 68753.6 3731.72   2
   1  -2  -3 74243.1 4182.59   2
  -2  -1   3 71023.1 2898.99   4
  -2   1  -3 74386.3 4487.16   3
  -1   2   3 74925.3 4670.26   3
   1   2  -3 70336.3 2892.01   4
  -1   2  -3 72487.4 4708.24   3
  -1   2  -3 66514.3 3728.26   1
  -2  -1  -3 69582.0 4310.55   2
  -2  -1  -5 1205.94 411.599   3
  -1  -2   5 614.465 197.312   2
  -2  -1   5 2315.36 1027.66   3
  -1  -2   5 498.087 212.722   1
  -1   2   5 204.801 364.920   3
  -1   2  -5 1379.99 542.655   2
   1  -2  -5 301.070 289.746   2
  -1  -2  -5 585.430 369.554   4
   1  -2   5 645.664 510.738   1
  -1   2  -5 398.822 529.244   3
   1  -2  -5 1423.88 553.432   4
  -1   2  -5 215.315 103.316   1
  -2  -1   5 1209.12 386.896   4
  -2  -1  -5-655.539 547.906   4
  -2   1  -5 233.133 127.609   1
   1   2   5 891.944 482.432   4
   1   2  -5 601.079 183.038   4
  -2   1  -5 585.324 339.322   3
   2  -1   5 407.539 253.339   1
   1  -2  -5 370.820 36.5937   1
  -2  -1   5 773.403 233.882   4
  -2   1   5 1049.72 529.092   3
  -2  -1  -5 329.775 193.303   2
  -1  -2  -5 1346.33 429.969   3
   1   2   5 809.678 651.485   2
  -2  -1   5 675.867 289.976   1
  -1  -2  -5 931.161 1093.18   2
  -2  -1  -7 483543. 12492.0   2
   2  -1   7 556585. 18041.9   1
  -1  -2  -7 481037. 19849.7   2
   1  -2  -7 550753. 10662.3   1
   1  -2   7 532342. 12110.6   1
   1   2   7 474502. 16443.2   4
   1   2   7 479284. 13142.1   2
  -2  -1   7 495145. 5894.82   4
  -1  -2  -7 476818. 10727.9   4
   1   2  -7 498927. 5370.79   4
  -2  -1   7 493704. 9160.42   1
  -1  -2   7 505147. 8577.31   2
   1  -2  -7 510690. 12075.5   4
  -1  -2   7 527858. 12058.4   1
  -2  -1  -7 510365. 8336.49   3
  -2   1   7 483344. 12532.7   3
  -2  -1  -7 497907. 15352.4   4
  -1   2   7 497123. 12175.7   3
  -2   1  -7 507484. 11676.0   3
  -2   1  -7 481312. 10286.4   1
  -2  -1   7 509700. 15625.7   3
  -1  -2  -7 508728. 8029.71   3
   1  -2  -7 490176. 11845.9   2
  -1   2  -7 506319. 12937.9   3
  -1   2  -7 521190. 9777.92   2
   1   2  -7 497310. 5561.96   4
  -1  -2   9 49472.6 3822.89   1
   1   2  -9 46004.2 1982.46   4
   1   2  -9 46391.7 1639.97   4
   2  -1   9 49127.0 5678.35   1
   2   1   9 44028.9 3867.34   4
   2   1  -9 48921.6 3195.27   1
  -2  -1  -9 42993.3 5006.53   4
   1   2   9 35360.9 4819.28   4
  -2  -1  -9 47993.1 4075.36   2
  -2  -1   9 45068.8 1955.74   4
  -1  -2  -9 46488.3 3771.51   4
   1  -2  -9 45573.3 3844.30   2
  -1  -2  -9 45636.4 6187.41   2
   1  -2  -9 48959.5 3860.70   4
   2  -1  -9 50377.5 3716.47   4
  -2  -1   9 49642.3 3035.07   1
  -1   2  -9 47228.2 4072.06   3
  -2  -1   9 46927.9 5174.47   3
  -2  -1   9 49200.8 3142.13   2
  -2   1  -9 44703.6 3573.41   1
   1  -2   9 45855.5 3731.41   1
  -1   2  -9 47018.3 2872.96   2
  -2   1   9 49597.7 4159.89   3
  -2  -1  -9 45999.3 2196.67   3
   2  -1  -9 45019.8 1742.92   1
  -1   2   9 49555.2 3846.24   3
  -1  -2  -9 48218.9 2161.24   3
  -2   1  -9 49133.2 3609.82   3
   2  -1  -9 37386.0 1351.99   1
  -2  -1  11 10164.9 2640.22   3
   2   1 -11 9975.87 1470.00   1
   1   2 -11 10007.7 875.966   4
  -1   2 -11 8795.94 1813.19   3
  -2  -1 -11 11637.7 2155.56   2
  -1   2  11 11521.3 1887.67   3
  -2   1 -11 10461.8 1702.07   2
   1  -2 -11 9415.38 1931.87   2
  -2  -1 -11 14678.0 3173.27   4
  -2  -1  11 10684.8 1232.49   4
   2  -1  11 12339.9 2943.70   1
  -1  -2 -11 9230.02 1872.25   4
  -1   2 -11 8098.77 1131.02   2
   2  -1 -11 10207.6 1857.36   4
  -2   1 -11 9928.91 1877.27   1
   1  -2 -11 10432.9 1830.37   4
  -1  -2  11 10234.5 1718.57   1
  -2  -1  11 12149.1 1634.69   1
  -2  -1  11 11305.1 1487.54   2
  -2  -1 -11 12371.7 1006.05   3
   2  -1 -11 8829.27 1659.54   2
   1  -2  11 11782.7 2003.81   1
   1   2 -11 9353.12 1259.13   4
   2  -1 -11 9054.76 1150.32   1
  -1  -2 -11 10372.7 848.889   3
  -2   1 -11 10785.5 1759.93   3
  -1  -2 -11 16123.3 3524.92   2
  -2   1  11 9353.41 1922.26   3
  -1   2 -13 78913.0 3619.87   2
   2  -1 -13 70547.8 4118.22   1
   2  -1  13 90765.0 7997.84   1
  -2   1 -13 78116.7 5334.58   4
  -1   2  13 82892.1 5246.32   3
  -2  -1 -13 62655.0 6612.45   4
  -1  -2 -13 77965.2 6176.92   4
  -1  -2 -13 78081.1 8003.25   2
  -2  -1  13 65387.3 3968.81   4
   1   2 -13 86947.5 4554.99   4
   2  -1 -13 81555.0 4999.81   4
   1  -2 -13 79131.2 5337.27   4
  -2  -1 -13 86996.8 6146.74   2
  -2  -1  13 78259.6 4086.85   2
  -2  -1  13 60534.8 6706.49   3
   1  -2 -13 79619.6 5872.85   2
  -1  -2  13 82738.4 5254.03   1
   2  -1 -13 78742.8 5327.50   2
  -2  -1  13 84590.2 4597.87   1
  -2   1  13 81393.4 6026.75   3
  -2   1 -13 74891.5 4589.17   2
   1  -2  13 68150.7 5146.18   1
  -2  -1 -13 68764.5 1982.42   3
  -2   1 -13 70256.3 4384.92   3
   2   1 -13 74297.3 4168.31   1
  -1   2 -13 83986.9 5795.11   3
  -1   2 -15 23177.7 2707.33   4
   1  -2 -15 25958.8 3642.49   2
  -2  -1 -15 22284.9 4014.52   4
   1   2 -15 27124.2 2824.19   4
   2  -1  15 24237.8 4109.84   1
   2  -1 -15 26181.9 2950.44   4
  -1  -2 -15 27878.1 4005.59   4
  -2  -1  15 30871.9 3008.29   1
  -2  -1  15 31707.8 3195.47   4
  -1   2 -15 26653.0 2237.93   2
  -2  -1 -15 25905.2 3641.33   2
   1  -2 -15 22512.3 3022.15   4
   2   1 -15 23846.8 1736.18   4
   2  -1 -15 22676.6 2986.39   2
  -2  -1  15 21566.4 2206.42   2
  -2  -1  15 17647.9 3899.06   3
  -1   2 -15 23003.7 3218.49   3
  -1  -2  15 25826.5 3071.19   1
  -2   1  15 29154.0 3885.29   3
  -2   1 -15 24691.2 3099.95   4
   1  -2  15 18548.2 2878.02   1
  -2   1 -15 24215.5 2683.19   2
  -1   2  15 28113.8 3183.71   3
  -1  -2 -15 25847.1 4536.10   2
   2  -1 -15 24465.7 2777.78   1
  -2   1 -15 24159.6 2661.15   3
   2  -1 -17 154843. 7503.65   4
  -2   1 -17 144617. 7883.78   4
  -1   2 -17 137373. 6877.82   4
  -2  -1  17 184080. 8293.25   4
  -2   1 -17 131055. 6510.56   2
  -2  -1 -17 140579. 10392.1   4
   2  -1  17 160137. 10874.7   1
  -2  -1 -17 177857. 10079.5   2
  -2   1 -17 140852. 6557.32   3
  -1  -2  17 146078. 7567.88   1
  -1   2 -17 155693. 5888.40   2
   1  -2 -17 156397. 9666.70   2
  -2  -1  17 144202. 11124.5   3
  -1  -2 -17 128221. 9586.41   4
   2  -1 -17 146963. 8138.13   2
  -2   1  17 146945. 9362.92   3
  -2  -1  17 160426. 7532.83   1
  -1   2  17 155203. 7842.14   3
   2   1 -17 145456. 4849.69   4
   2  -1 -17 140521. 7327.84   1
  -1  -2 -17 177042. 11946.7   2
   1   2 -17 182763. 7598.37   4
   1  -2  17 148554. 8892.66   1
   1  -2 -17 152542. 8330.28   4
  -2  -1  19 14736.8 3647.57   3
  -1   2 -19 8815.22 1908.92   4
  -1  -2 -19 17774.2 4012.41   2
   1  -2 -19 11558.2 2889.33   2
   1   2 -19 15061.7 2288.53   4
   2  -1  19 14221.5 3284.59   1
  -1   2 -19 11958.7 1848.43   2
   1  -2 -19 15598.7 2830.00   4
  -2   1  19 14457.3 3192.32   3
  -2  -1 -19 11874.6 3124.28   4
  -1  -2 -19 8088.11 2693.94   4
  -2  -1  19 14842.5 2609.71   4
   2  -1 -19 9073.91 2113.59   1
   2  -1 -19 13259.0 2611.04   2
  -2  -1 -19 12897.1 2962.86   2
   2   1 -19 10895.1 1513.67   4
  -2   1 -19 12668.0 2436.37   4
   2  -1 -19 9496.36 1991.42   4
  -1   2  19 11986.3 2271.89   3
  -1  -2  19 15414.8 2670.15   1
  -2  -1  19 11475.1 2267.08   1
   1  -2  19 12587.9 2802.30   1
  -2   1 -19 10169.9 1872.10   3
  -2   1 -19 8960.81 1819.06   2
   1  -2  21 50849.9 6052.55   1
  -1  -2 -21 56367.3 6787.70   2
  -2   1 -21 48735.6 5067.97   4
  -2  -1  21 59478.8 7019.35   3
   1  -2 -21 35639.4 5153.61   2
   2  -1  21 63031.4 6878.26   1
  -2  -1  21 51450.1 5179.01   1
  -2  -1 -21 60341.1 7054.60   4
   2  -1 -21 63173.1 6222.73   2
   1   2 -21 56087.7 4553.32   4
  -1  -2 -21 39496.0 5700.51   4
  -1   2 -21 55656.0 4390.72   2
  -1   2 -21 52057.0 4734.36   4
   1  -2 -21 55797.2 5910.03   4
   2   1 -21 54098.5 3769.45   4
   2  -1 -21 53549.7 4948.44   4
  -2   1 -21 50718.6 4489.82   2
  -1   2  21 47221.9 4716.92   3
  -2   1  21 44522.3 5814.66   3
  -2  -1  21 50621.0 4711.63   4
  -1  -2  21 51898.4 5163.58   1
  -2  -1 -21 55283.2 6523.11   2
  -2   1 -21 52635.3 4328.64   3
  -2  -1  23 39019.5 4884.86   1
   1  -2  23 36779.1 5626.85   1
  -1  -2 -23 45983.9 6136.22   2
  -2   1 -23 36480.6 4786.55   4
  -1  -2 -23 29516.8 5190.93   4
  -2  -1 -23 54175.2 6613.02   2
  -1   2 -23 39773.1 4380.82   4
   2  -1  23 45079.9 5866.93   1
  -2   1 -23 36432.5 4051.66   2
  -2  -1 -23 44287.8 6119.77   4
   1   2 -23 49771.9 4457.66   4
  -1   2 -23 43125.1 4203.25   2
   1  -2 -23 47202.3 5823.62   4
   2   1 -23 41710.3 3699.56   4
   2  -1 -23 43941.1 4763.79   4
   1  -2 -23 31903.1 5207.12   2
  -1  -2  23 47074.3 5242.20   1
   2  -1 -23 44766.6 5612.41   2
  -2   1  23 32105.0 5196.11   3
  -1   2  23 35260.4 4282.60   3
  -2  -1  23 43840.5 6035.03   3
  -2  -1  25 1411.59 1598.85   3
  -1  -2 -25-200.602 1106.21   2
  -1  -2 -25-837.128 889.545   4
  -1   2  25 2423.26 1256.81   3
   1  -2 -25 14.4712 881.830   2
   1  -2  25 14.3372 236.327   1
   1  -2 -25 2236.03 1426.53   4
   2  -1 -25 966.803 864.418   2
  -2  -1  25-243.590 888.295   1
  -2   1 -25-160.577 475.233   4
  -1   2 -25 882.874 990.180   4
  -2  -1 -25 296.538 261.094   4
   1   2 -25-149.788 459.641   4
   2  -1  25 2097.52 1398.34   1
   2   1 -25-153.077 129.045   4
   2  -1 -25-715.284 762.781   4
  -1  -2  25 406.111 242.741   1
  -2   1 -25-271.428 725.001   2
  -2   1  25 957.327 633.075   3
  -2  -1 -25-827.489 858.721   2
  -1   2 -25 1038.34 564.468   2
  -2  -1 -27 128655. 10540.1   4
   1  -2  27 90463.3 9788.49   1
   2  -1  27 130554. 10297.9   1
  -2  -1 -27 111942. 10426.6   2
  -1   2  27 111005. 8242.45   3
  -1   2 -27 108983. 8578.97   4
  -2   1 -27 123656. 9951.17   4
  -1   2 -27 109755. 7268.42   2
  -2  -1  27 136792. 10729.6   3
  -1  -2 -27 133645. 11181.1   4
  -2   1 -27 129452. 8841.31   2
   1  -2 -27 116168. 10662.8   4
   2  -1 -27 138447. 10045.7   4
  -1  -2 -27 118140. 9947.83   2
  -2  -1  27 92781.8 8418.39   1
   2   1 -27 130474. 8092.07   4
   1  -2 -27 116359. 10674.1   2
   2  -1 -27 127746. 10752.7   2
  -2   1  27 124506. 10620.8   3
   1   2 -27 142622. 7870.23   4
  -1  -2  27 142292. 10637.1   1
  -1   2 -29 11940.8 2255.37   2
  -2  -1  29 8497.61 2699.97   3
  -1  -2  29 11584.1 3326.40   1
  -1  -2 -29 11701.9 3133.11   2
  -2  -1  29 9035.51 2697.90   1
  -2   1  29 8441.35 2473.07   3
  -2   1 -29 9930.22 2885.93   4
  -1   2  29 8924.37 2368.58   3
   1   2 -29 8772.00 2081.91   4
  -1  -2 -29 13787.8 3680.97   4
   1  -2 -29 8836.34 3182.94   2
   1  -2 -29 12910.8 3641.27   4
   2  -1 -29 6915.13 2740.46   2
   1  -2  29 9787.18 3386.29   1
  -2  -1 -29 9095.67 2915.17   4
   2   1 -29 10344.7 2538.16   4
   2  -1 -29 7823.65 2663.36   4
   2  -1  29 10299.5 2977.10   1
  -1   2 -29 5327.48 2152.92   4
  -2   1 -29 11956.9 2864.28   2
  -2  -1 -29 5269.39 2522.94   2
  -1  -2  31 85441.0 9255.52   1
   1  -2  31 85533.4 10019.2   1
  -2  -1  31 83597.3 8494.43   1
   2  -1  31 113609. 9951.65   1
  -1   2  31 98317.7 8068.39   3
   2   1 -31 75309.2 7012.69   4
  -1   2 -31 77086.7 8276.88   4
   1  -2 -31 98929.3 9894.50   2
  -2  -1 -31 96808.4 9327.16   4
   1   2 -31 94429.9 6815.99   4
  -2   1 -31 95454.6 8662.97   2
   2  -1 -31 82907.0 8973.18   4
  -2  -1 -31 95805.6 10000.9   2
  -1  -2 -31 106698. 9766.34   2
   2  -1 -31 99680.0 10176.7   2
  -2  -1  31 112452. 9726.51   3
  -2   1  31 116583. 10338.0   3
   1  -2 -31 75326.4 9491.24   4
  -1  -2 -31 107209. 10065.2   4
  -2   1 -31 59791.6 7905.55   4
  -2  -1  33 3905.53 1981.67   3
   2  -1  33 1105.48 781.466   1
  -2  -1  33 3844.85 1524.17   1
  -1  -2 -33 2867.57 1638.65   2
  -2   1  33 1391.20 1389.35   3
   1  -2 -33 5641.51 2576.65   2
   2  -1 -33 1870.86 1155.78   2
  -1  -2 -33 3069.67 1521.17   4
  -1  -2  33 5542.25 2737.39   1
  -2   1 -33 1645.56 1308.44   4
  -1   2 -33 2772.06 1815.86   4
  -2  -1 -33 3412.59 2080.18   4
   1   2 -33 4945.12 1689.58   4
   2   1 -33 3651.73 1749.42   4
   1  -2 -33 1687.67 1450.19   4
   2  -1 -33 4569.61 2372.97   4
   1  -2  33 3067.19 2031.62   1
  -2   1 -33 2927.56 1362.09   2
  -2  -1 -33 6256.36 2792.87   2
  -2  -1 -35 1479.50 1464.36   2
  -2  -1  35 2044.31 1530.98   3
  -1  -2 -35-471.394 161.879   2
  -2   1  35 1308.81 973.498   3
   1  -2 -35-1386.03 819.992   4
   1  -2 -35 2075.21 1190.67   2
   2  -1 -35-844.371 382.574   2
  -2  -1  35 2062.60 1719.56   1
   2  -1  35 2398.26 860.515   1
  -1  -2  35 748.063 986.264   1
  -2   1 -35-655.469 871.433   4
  -2  -1 -35 31.0057 1303.01   4
  -1  -2 -35 172.716 1314.05   4
   2  -1 -35-323.386 1082.55   4
  -1   2 -35 189.832 1035.76   4
   1  -2  35 437.681 1013.05   1
  -2   1 -35 768.042 918.032   2
  -2  -1  37 2508.76 1494.73   3
  -2  -1 -37-799.868 1158.37   2
  -1  -2 -37 1547.07 811.269   2
  -2   1  37 4398.98 2024.17   3
   2  -1  37 1801.55 1926.58   1
   1  -2  37 3122.63 1839.94   1
   1  -2 -37-663.177 1714.16   4
   1  -2 -37 1597.53 1557.06   2
  -1  -2  37 2230.47 1455.71   1
   2  -1 -37 3566.62 2114.74   2
  -2  -1  37 669.066 382.548   1
  -2   1 -37 1928.01 1926.23   4
  -1   2 -37 1526.55 1811.58   4
   2  -1 -37 2022.40 1500.04   4
  -2  -1 -37 3043.52 1695.15   4
  -1  -2 -37 736.305 880.210   4
  -2   1 -37 460.764 811.699   2
  -2  -2   0 700960. 14214.1   1
  -2  -2   0 649575. 14199.6   2
  -2  -2   0 652806. 8378.22   4
   2  -2   0 694421. 11293.6   1
  -2   2   2 735.517 703.707   3
  -2   2  -2 504.727 846.285   3
   2  -2  -2 11.6710 237.171   1
   2   2   2 1155.89 610.499   4
   2  -2   2 883.903 395.196   1
  -2  -2  -2 734.720 320.371   4
  -2   2  -2 69.4095 271.271   1
  -2  -2   2 448.418 474.921   1
  -2  -2   2 670.695 354.166   2
  -2  -2  -2 1454.39 885.319   2
  -2  -2   2 235.594 112.376   4
   2   2   4 10034.9 1582.80   4
  -2  -2   4 10248.7 1542.33   2
  -2   2  -4 9080.52 1361.43   1
  -2  -2  -4 9997.73 1957.26   2
  -2  -2  -4 8702.05 1415.06   4
  -2  -2   4 10026.4 1766.97   1
   2  -2  -4 11768.1 1296.27   1
  -2  -2  -4 10241.9 1683.36   3
   2  -2   4 12037.4 1719.38   1
  -2   2   4 10988.3 2105.39   3
  -2   2  -4 13163.9 2245.27   3
  -2  -2  -6 253.850 446.228   3
  -2  -2  -6 195.985 531.822   4
  -2   2   6-16.1014 364.337   3
  -2   2  -6-49.6609 449.910   3
   2   2   6 1420.08 738.717   4
   2  -2   6-282.762 200.566   1
  -2  -2   6 216.406 225.206   2
  -2   2  -6 549.810 454.881   1
  -2  -2  -6-260.141 426.146   2
  -2  -2   6 731.170 558.398   1
   2  -2  -6 412.944 293.578   1
  -2  -2   8 6507.61 1450.49   1
  -2   2   8 6005.19 1686.90   3
  -2   2  -8 4292.16 1299.59   3
  -2  -2  -8 5081.90 955.431   3
  -2  -2   8 6781.79 1168.84   2
   2  -2  -8 7643.91 1058.19   1
  -2  -2  -8 5909.11 1748.49   4
   2   2   8 5711.40 1478.45   4
  -2  -2  -8 6025.23 979.617   3
   2  -2   8 7285.34 1512.73   1
  -2  -2  -8 6775.06 1908.87   2
  -2  -2 -10 118806. 8420.81   4
   2  -2 -10 132327. 4586.29   1
  -2  -2  10 131066. 5206.61   2
  -2  -2 -10 127075. 8481.93   2
   2  -2 -10 126746. 7103.34   4
   2  -2 -10 120211. 4591.36   1
  -2  -2  10 123654. 6327.04   1
  -2  -2  10 115065. 4269.87   2
  -2  -2 -10 127502. 3901.89   3
   2  -2 -10 121900. 7016.15   2
  -2   2  10 110733. 6932.76   3
  -2   2 -10 127756. 7172.46   3
  -2  -2 -10 115873. 3640.89   3
   2  -2  10 119537. 7106.77   1
  -2  -2  12-89.8930 243.082   1
  -2  -2 -12 271.307 109.865   3
  -2   2  12 271.289 606.745   3
  -2  -2  12 382.663 263.117   2
  -2  -2 -12 146.354 99.0729   3
  -2   2 -12 73.3762 367.689   3
   2  -2 -12-6.79393 454.129   2
  -2  -2 -12 1284.10 1378.71   4
   2  -2 -12 117.819 366.762   4
  -2  -2  12 259.005 218.923   2
   2  -2 -12-174.507 215.809   1
  -2  -2 -12 435.191 614.836   2
   2  -2 -12 370.059 420.552   1
   2  -2  12 262.202 495.958   1
   2  -2  14 95691.9 7421.09   1
   2  -2 -14 104483. 5193.53   1
  -2  -2 -14 98477.9 8968.32   4
  -2  -2 -14 100327. 8419.47   2
  -2  -2  14 102950. 3904.55   2
  -2  -2  14 113476. 6310.19   1
   2  -2 -14 112168. 7279.11   2
  -2   2 -14 117539. 6010.75   2
  -2   2  14 117044. 7638.85   3
  -2   2 -14 107718. 6716.89   3
   2  -2 -14 110082. 6873.46   4
   2  -2  16 60265.8 6453.95   1
   2  -2 -16 64743.7 4707.74   1
  -2  -2 -16 68294.2 7698.48   4
  -2  -2 -16 73823.5 7495.73   2
   2  -2 -16 69737.1 5631.81   4
  -2  -2  16 72413.5 3504.39   2
  -2   2 -16 78758.3 4886.19   2
  -2  -2  16 82714.9 5578.59   1
  -2   2  16 77914.2 6495.10   3
   2  -2 -16 74268.7 6224.66   2
  -2   2 -16 71811.6 5718.47   4
  -2   2 -16 72815.5 5671.97   3
  -2   2  18 7118.57 2108.83   3
   2  -2 -18 6436.28 1746.30   2
   2  -2  18 4882.92 1961.10   1
  -2   2 -18 6854.63 1900.49   3
  -2   2 -18 11146.9 2291.49   4
  -2  -2  18 6446.67 1698.06   1
  -2  -2 -18 6873.35 2569.57   4
   2  -2 -18 5504.49 1741.18   4
  -2   2 -18 5292.52 1427.63   2
  -2  -2 -18 6302.62 2412.07   2
   2  -2  20 130982. 10401.2   1
  -2   2 -20 161570. 8904.47   4
  -2   2 -20 175192. 7742.15   2
  -2  -2 -20 210349. 13950.6   4
  -2  -2 -20 153462. 11970.8   2
   2  -2 -20 145058. 8895.62   4
   2  -2 -20 183353. 11201.7   2
  -2   2  20 176705. 10901.5   3
  -2  -2  20 158951. 8403.49   1
  -2   2 -20 165505. 9040.37   3
  -2   2  22 7868.08 2473.69   3
  -2  -2 -22 7097.45 2604.10   4
   2  -2 -22 6017.37 2208.41   2
  -2   2 -22 5745.77 1800.05   4
   2  -2  22 5470.84 2356.87   1
  -2  -2  22 6227.21 1936.39   1
   2  -2 -22 5647.16 1681.24   4
  -2   2 -22 7332.53 1723.42   2
  -2  -2 -22 8535.18 2827.79   2
  -2   2 -24 84411.6 7010.13   4
   2  -2  24 86628.3 9023.04   1
   2  -2 -24 104743. 8455.57   4
  -2  -2 -24 112782. 10164.6   4
  -2   2 -24 100778. 6590.04   2
  -2  -2 -24 81512.4 9228.12   2
   2  -2 -24 103598. 9518.87   2
  -2   2  24 83095.7 8268.16   3
  -2  -2  24 102449. 7698.75   1
   2  -2  26 25865.1 5139.64   1
  -2   2 -26 21087.1 3599.17   4
  -2   2  26 18192.6 3981.50   3
  -2   2 -26 21844.5 3381.93   2
  -2  -2 -26 20592.6 4421.00   4
   2  -2 -26 26097.1 5243.88   2
  -2  -2  26 16543.5 3370.95   1
   2  -2 -26 17937.3 3728.39   4
  -2  -2 -26 14728.1 3912.69   2
  -2   2 -28 9539.49 2731.72   4
   2  -2 -28 18360.9 4686.63   2
  -2   2  28 6732.55 2655.39   3
  -2  -2 -28 12480.6 3385.65   4
   2  -2 -28 8595.12 2779.71   4
   2  -2  28 11309.7 3522.04   1
  -2   2 -28 13108.3 2749.10   2
  -2  -2  28 9608.51 2808.31   1
  -2  -2 -28 11224.8 3528.85   2
  -2  -2 -30 5645.68 2970.47   2
  -2  -2  30 3128.41 2045.08   1
  -2   2  30 4037.23 2330.54   3
   2  -2  30 872.684 1090.13   1
   2  -2 -30 3399.17 2511.62   2
  -2   2 -30 38.3854 358.475   4
  -2  -2 -30 2156.28 1869.19   4
   2  -2 -30 469.271 409.959   4
  -2   2 -30 2262.26 1082.29   2
  -2  -2  30 182.039 514.550   3
  -2  -2 -32 3151.05 2360.45   2
  -2   2  32 9736.51 3304.73   3
   2  -2 -32 3804.71 2830.12   2
  -2  -2  32 5404.70 2648.76   1
   2  -2  32 3530.64 1839.17   1
  -2   2 -32 3016.83 1001.30   4
  -2  -2 -32 6662.63 2603.35   4
   2  -2 -32 6591.00 3550.27   4
  -2   2 -32 7873.55 2772.76   2
  -2  -2  32 2801.77 1253.83   3
   2  -2 -34 33447.2 6531.57   4
  -2   2 -34 32580.9 5892.47   4
  -2  -2  34 37619.0 6300.50   1
   2  -2  34 39589.8 6854.76   1
  -2  -2 -34 53746.7 8032.84   2
  -2  -2 -34 48691.7 7213.83   4
   2  -2 -34 53467.6 7988.46   2
  -2  -2  34 58489.8 7752.30   3
  -2   2  34 51173.2 6686.52   3
  -2  -2  36 30194.7 6078.50   1
   2  -2  36 36101.2 6468.04   1
   2  -2 -36 41507.2 7338.32   4
   2  -2 -36 36212.3 6753.23   2
   0   3  -1 5993.99 2080.66   2
  -3   0   1 5244.96 1382.14   3
  -3   0  -1 4242.60 1029.12   3
   0   3   1 4032.10 1334.16   3
   0   3  -1 5280.25 1548.35   3
  -3   0   1 5132.74 675.869   1
  -3   0  -1 10328.5 2515.22   1
  -3   0   1 3980.52 1264.08   1
   0  -3  -1 6093.79 1245.51   2
   0  -3   1 5856.42 1049.00   2
   0  -3  -1 3674.74 1078.09   1
   0  -3   1 3361.63 1140.63   1
   0   3   1 12559.8 3698.70   2
  -3   0  -3 52193.3 6247.09   1
  -3   0   3 45498.2 3595.10   1
   0   3  -3 59820.3 5282.48   2
   0  -3   3 46996.5 3968.72   1
   0  -3  -3 44858.7 3909.26   1
  -3   0   3 40717.1 1519.48   1
   0  -3  -3 53562.3 3756.96   2
   0  -3   3 46597.4 2665.81   2
  -3   0   3 51204.6 4373.51   3
  -3   0  -3 46518.7 3858.86   3
   0  -3  -3 49945.7 3729.40   4
   0   3   3 51016.5 4594.84   3
   0   3  -3 53811.6 4984.94   3
   0  -3   5 199.929 346.573   1
  -3   0   5-51.5787 302.669   3
  -3   0  -5 1257.90 738.066   3
   0  -3  -5 223.323 389.460   2
   0   3   5 290.289 279.088   3
  -3   0  -5 777.558 711.176   4
  -3   0  -5 951.093 1202.27   1
   0  -3  -5 376.102 313.023   1
   0  -3  -5 524.248 547.409   4
   0   3  -5-151.236 118.709   2
  -3   0  -7 376803. 19276.4   1
  -3   0  -7 379064. 11931.6   4
   0  -3  -7 391959. 12320.3   1
   0   3  -7 352488. 6561.18   2
   0  -3  -7 374899. 11057.3   4
   0  -3   7 361890. 11643.6   1
   0  -3  -7 373857. 11930.2   2
  -3   0   7 370484. 12862.0   3
  -3   0  -7 361847. 11951.6   2
  -3   0  -7 356382. 9974.25   3
   0   3   7 374048. 12307.3   3
  -3   0  -9 43477.5 4197.81   4
   0  -3  -9 33713.6 3475.58   4
   0  -3   9 34571.3 3728.25   1
   0  -3  -9 33734.2 4018.50   2
  -3   0   9 34161.9 4193.02   3
   0  -3  -9 42235.6 4233.87   1
  -3   0  -9 32937.8 2949.22   3
  -3   0  -9 29932.9 3427.05   2
   0   3   9 35378.0 3669.87   3
  -3   0  11 9716.01 2415.63   3
   0  -3 -11 5976.92 1807.52   2
   0   3  11 8054.02 1723.83   3
  -3   0  11 7855.84 976.865   1
  -3   0 -11 8916.47 1984.06   4
   0  -3 -11 7964.72 1679.00   4
  -3   0 -11 10723.7 2118.96   2
   0  -3  11 7441.85 1717.78   1
  -3   0 -11 8830.45 1520.76   3
  -3   0 -13 59939.5 5327.91   4
  -3   0  13 48280.4 3214.65   1
  -3   0 -13 57149.0 4903.90   2
   0  -3 -13 59946.7 5043.36   4
   0  -3 -13 59707.5 6438.95   2
   0  -3  13 62352.5 5315.53   1
  -3   0  13 60547.8 6341.37   3
  -3   0 -13 63940.2 4053.05   3
   0   3  13 61874.6 5046.99   3
   0  -3 -15 15167.2 3493.10   2
   0   3 -15 17773.4 2228.66   4
  -3   0  15 21247.4 2405.43   1
  -3   0 -15 19890.8 3049.18   2
   0  -3 -15 22700.0 3264.00   4
   0  -3  15 18799.8 3037.35   1
  -3   0  15 20701.4 4194.56   3
  -3   0 -15 19075.4 3179.30   4
  -3   0 -15 21097.6 2322.71   3
   0   3  15 23557.6 3074.88   3
   0   3 -17 121168. 6111.46   4
  -3   0 -17 110304. 8121.68   4
  -3   0 -17 120725. 7647.09   2
  -3   0  17 129801. 6516.85   1
   0  -3 -17 117547. 7935.58   4
   0  -3 -17 99678.4 9335.84   2
  -3   0  17 130990. 10725.3   3
   0  -3  17 106553. 7473.10   1
  -3   0 -17 117981. 5323.93   3
   0   3  17 118789. 6980.45   3
  -3   0  19 15118.2 3900.61   3
   0  -3 -19 9892.75 3056.20   2
   0   3  19 9916.93 2050.00   3
  -3   0 -19 7018.75 1247.58   3
  -3   0 -19 6060.25 2072.46   4
   0   3 -19 8803.45 1734.10   4
   0  -3  19 8491.26 2218.07   1
   0  -3 -19 7501.39 2155.71   4
  -3   0  19 8550.58 1796.74   1
  -3   0 -19 9630.83 2387.23   2
   0   3 -21 45456.8 4313.24   4
  -3   0 -21 36742.1 5223.71   4
  -3   0 -21 36940.5 4615.63   2
  -3   0  21 42998.7 4184.27   1
   0  -3 -21 43155.3 5755.44   4
   3   0 -21 43906.2 4001.68   4
   0  -3 -21 38138.6 6315.93   2
  -3   0  21 28233.4 5473.70   3
   0  -3  21 41640.3 5148.81   1
   0   3  21 38977.9 3928.39   3
  -3   0 -21 34985.6 2899.38   3
  -3   0  23 34480.1 3969.86   1
   3   0 -23 30565.3 3559.20   4
   0   3 -23 30844.7 3858.30   4
  -3   0 -23 28414.7 5053.19   4
  -3   0 -23 33976.5 4586.68   2
   0  -3 -23 33864.0 5364.76   4
   0  -3 -23 34651.0 6144.31   2
  -3   0  23 28993.0 5680.97   3
   0  -3  23 34067.6 5009.34   1
  -3   0  25-3450.75 2657.48   3
   0  -3 -25-1351.41 899.886   2
  -3   0 -25-599.761 731.317   4
   0   3 -25-610.467 977.009   4
   0  -3 -25-275.246 707.370   4
   3   0 -25 977.427 1026.30   4
   0  -3  25 1887.24 1404.64   1
  -3   0 -25 80.1004 694.328   2
   0   3 -27 79359.3 7393.33   4
  -3   0 -27 85523.5 9627.80   4
   3   0 -27 113980. 7688.80   4
  -3   0 -27 109949. 9041.36   2
   0  -3 -27 91845.0 10419.2   4
   0  -3 -27 107429. 10977.1   2
  -3   0  27 106914. 11304.9   3
   0  -3  27 117189. 10372.1   1
  -3   0  29 10017.5 3410.03   3
   0  -3 -29 17350.9 4302.44   2
  -3   0 -29 5629.94 2724.51   4
   0   3 -29 9596.65 2592.71   4
   0  -3 -29 5737.84 2757.98   4
   3   0 -29 10249.6 2411.04   4
  -3   0 -29 5405.81 2589.19   2
   0  -3  29 9753.79 2939.71   1
   0  -3  31 82935.6 9616.30   1
  -3   0 -31 60304.1 8741.35   4
   0   3 -31 74671.9 7572.15   4
  -3   0 -31 79085.4 8476.75   2
   0  -3 -31 54459.3 8570.44   4
   0  -3 -31 88096.5 9804.19   2
   3   0 -31 85384.6 7598.65   4
  -3   0  31 100006. 10879.9   3
  -3   0  33 8418.54 3334.97   3
   0  -3 -33 5720.54 2338.49   2
   0  -3  33 1806.28 1474.84   1
  -3   0 -33 2823.41 2097.87   4
   0  -3 -33 855.202 1961.93   4
  -3   0 -33 871.246 1585.74   2
  -3   0  35-315.687 963.631   3
   0  -3 -35-1606.11 1747.04   2
   0  -3  35 115.922 968.899   1
  -3   0 -35 2622.43 2633.77   4
   0  -3 -35-1527.59 1863.10   4
  -3   0 -35 1103.65 1416.21   2
  -3  -1   0 305820. 10619.7   2
  -3  -1   0 318331. 9294.55   4
   1   3   0 306241. 8213.90   2
  -3  -1   0 323738. 8644.58   1
   1   3   0 287168. 9007.91   4
  -1  -3   0 311726. 10732.0   1
   1  -3   0 308198. 9938.90   1
  -1  -3   0 330356. 9779.96   2
  -3  -1   0 311098. 10399.4   3
  -3   1   0 328696. 11441.9   3
  -1   3   0 313494. 11703.0   3
  -3  -1  -2 26052.0 3164.62   2
  -3  -1  -2 20388.9 2567.24   4
   1   3   2 18320.2 2197.57   2
  -1  -3  -2 16419.9 2519.48   1
  -3  -1   2 21011.8 2055.74   1
   1   3   2 18044.9 2440.70   4
   1   3  -2 20139.5 2198.82   4
  -1  -3   2 20538.9 2755.15   1
   1  -3  -2 24140.2 2759.57   1
  -3   1  -2 19585.2 1295.78   1
  -1  -3  -2 17629.9 1911.89   4
   1  -3   2 18104.2 2442.75   1
  -1  -3   2 21623.9 2091.89   2
  -1  -3  -2 26691.5 3374.14   2
  -3  -1   2 20597.7 2850.85   3
   1  -3  -2 24967.5 2764.81   2
  -3  -1  -2 18563.0 2421.43   3
  -3   1   2 19408.8 2818.55   3
  -3   1  -2 25232.2 3203.41   3
   1   3  -2 21171.5 1922.64   2
  -3  -1   2 19637.2 2135.33   4
  -1   3   2 25312.0 3260.46   3
  -1   3  -2 19369.3 2910.34   3
  -1  -3  -4 36146.3 3004.54   4
  -3  -1  -4 42311.0 4139.81   2
  -3  -1  -4 38681.0 3741.06   4
  -3  -1   4 37894.5 2809.91   4
   1   3  -4 33484.9 2575.43   4
   1  -3  -4 36978.3 3386.65   1
  -3  -1   4 35666.0 2605.60   1
  -1  -3   4 38151.3 3802.19   1
  -3  -1   4 36838.5 2447.85   4
  -1  -3  -4 39287.4 4724.87   2
  -1  -3  -4 34673.2 3617.08   1
   1  -3   4 35805.8 3515.29   1
  -1   3  -4 36209.5 3340.07   2
  -3   1  -4 36477.5 2285.25   1
  -1  -3   4 32770.3 2087.30   2
   1  -3  -4 34426.6 3360.29   2
  -3  -1   4 31876.2 3659.07   3
  -3  -1  -4 39837.3 3430.15   3
  -3   1   4 37263.3 3943.55   3
  -3   1  -4 36657.2 3709.56   3
  -1   3   4 35402.6 3872.54   3
  -1   3  -4 43126.9 4471.05   3
  -3  -1  -6 31991.0 3680.16   4
  -3  -1  -6 30414.8 3587.01   2
   1  -3  -6 38282.3 3467.08   1
   1   3  -6 31471.0 2298.16   4
  -3  -1   6 27037.5 1956.69   4
  -1  -3  -6 36420.4 3150.49   4
  -1  -3  -6 33933.5 3773.94   1
  -1  -3   6 35116.2 3750.97   1
   1  -3  -6 30833.1 3444.90   4
  -3  -1   6 30817.9 2342.57   1
  -1  -3  -6 32657.2 4871.38   2
  -1   3  -6 33669.1 3099.70   2
   1  -3   6 32282.6 3402.89   1
  -3   1  -6 29118.7 2387.82   1
  -1  -3   6 26159.1 1372.60   2
   1  -3  -6 35864.5 3539.34   2
  -3  -1   6 29316.7 3677.02   3
  -3  -1  -6 38568.4 3199.32   3
  -3   1   6 36326.6 3997.01   3
  -3  -1   6 33096.4 2475.97   4
  -3   1  -6 34740.5 3640.86   3
  -1   3   6 29785.7 3546.95   3
  -1   3  -6 37014.9 4267.73   3
  -1  -3  -8 59204.8 5149.99   1
   3  -1   8 52195.5 3934.27   1
  -3  -1  -8 64557.3 5630.34   4
  -3  -1  -8 59477.0 5097.37   2
   1  -3  -8 55252.4 4234.04   1
   1   3  -8 52649.4 2818.93   4
  -3  -1   8 54171.8 2736.12   4
  -1  -3  -8 62418.9 4371.94   4
   1  -3  -8 56629.8 4757.86   4
  -1  -3  -8 61532.4 7341.08   2
  -1  -3   8 60737.2 5046.73   1
  -3  -1   8 55274.2 3198.93   1
  -1   3  -8 59482.8 3879.32   2
   1  -3   8 59082.5 4812.88   1
   1  -3  -8 55396.4 4702.92   2
  -3  -1   8 56188.6 5478.44   3
  -3   1   8 49694.0 4850.51   3
  -3  -1  -8 58234.1 3652.55   3
  -1  -3  -8 49092.3 3246.25   3
  -3   1  -8 55923.2 4551.42   3
  -1   3   8 52585.7 4827.04   3
  -3   1  -8 43507.6 3387.64   1
  -1   3  -8 66397.0 5824.83   3
  -3  -1 -10 55114.0 5057.66   2
   1   3 -10 63848.4 2939.43   4
   1  -3 -10 61757.9 4698.47   1
  -3  -1 -10 52178.2 5475.55   4
   1   3 -10 55720.3 2772.25   4
  -3  -1  10 59383.2 2964.04   4
  -1  -3 -10 58734.9 4528.17   4
   1  -3 -10 54287.8 4894.74   4
  -1  -3 -10 49474.7 6875.17   2
   3  -1  10 54356.9 4644.61   1
  -1  -3  10 69748.2 5554.80   1
  -1   3 -10 54522.2 3574.76   2
  -3  -1  10 56808.0 3444.81   1
   1  -3 -10 57400.8 5029.69   2
   1  -3  10 62157.5 5188.93   1
  -3  -1  10 54455.4 5727.62   3
  -3   1  10 51470.7 5105.03   3
  -3  -1 -10 60619.1 3483.87   3
  -1  -3 -10 49936.1 2978.47   3
  -3   1 -10 61315.7 4708.74   3
  -1   3  10 47750.2 4621.13   3
  -1   3 -10 38923.6 4557.52   3
  -1  -3 -12 19503.3 4426.11   2
   1   3 -12 25716.3 1961.48   4
  -3   1 -12 27637.7 3593.29   4
   1  -3 -12 20188.6 3010.91   4
  -3  -1 -12 20867.1 3656.23   4
  -1   3 -12 27539.3 2130.25   2
  -3  -1 -12 23208.2 3387.63   2
  -3   1 -12 28069.0 3473.04   2
  -3  -1  12 22692.0 1937.13   4
  -3  -1  12 20712.0 3810.11   3
  -1  -3 -12 24286.4 3104.30   4
   1   3 -12 20613.1 1658.03   4
   3  -1  12 23877.1 3547.41   1
  -1  -3  12 26572.5 3529.42   1
  -1   3 -12 23283.8 2289.69   2
   1  -3 -12 25724.5 3524.31   2
   1  -3 -12 23026.0 2958.60   1
  -3  -1  12 28874.4 2621.18   1
   1  -3  12 29655.0 3661.18   1
  -3   1  12 19526.3 3382.61   3
  -1  -3 -12 19648.2 1747.49   3
  -3  -1 -12 21097.7 1977.01   3
  -1   3  12 23039.5 3264.27   3
  -3   1 -12 27716.3 3189.61   3
  -1   3 -12 25117.3 3822.80   3
  -3   1 -14 235941. 10858.1   4
  -3   1 -14 242993. 10320.5   2
  -1   3 -14 234583. 6038.55   2
   1   3 -14 230140. 6540.08   4
  -3  -1 -14 208448. 12565.2   4
  -3  -1 -14 244579. 11481.2   2
  -1  -3 -14 223130. 10303.4   4
   1  -3 -14 234637. 10567.2   4
   3  -1  14 193174. 11106.3   1
  -1  -3 -14 286975. 17355.8   2
  -1  -3  14 264390. 11429.9   1
   1  -3 -14 228657. 11461.7   2
  -3  -1  14 214608. 13038.1   3
  -3   1  14 246442. 12583.5   3
   1  -3  14 242223. 10975.2   1
  -3  -1  14 251648. 8440.45   1
  -3  -1 -14 239843. 6263.69   3
  -1   3  14 250112. 11155.3   3
  -3   1 -14 233123. 9151.30   3
  -1   3 -14 224202. 11701.0   3
  -3   1 -16 27921.6 3827.52   4
  -3   1 -16 32543.4 3786.98   2
  -3  -1 -16 26938.5 4739.61   4
  -1   3 -16 32376.7 2339.00   2
  -3  -1 -16 38288.0 4732.69   2
  -1  -3 -16 21764.4 3604.60   4
   1  -3 -16 28487.5 3873.25   4
   3  -1  16 20946.1 4043.29   1
  -1  -3 -16 48972.8 7122.93   2
   1  -3 -16 35698.3 4762.56   2
  -1  -3  16 35419.4 4365.67   1
  -3  -1  16 23726.8 4521.72   3
  -3   1  16 32917.3 4938.96   3
   1  -3  16 25833.4 3843.23   1
  -1   3 -16 27822.5 3456.67   4
  -1   3  16 31808.2 4099.32   3
  -3  -1  16 34991.6 3511.30   1
  -3  -1 -16 27748.2 1857.94   3
  -3   1 -16 33631.4 3457.78   3
   1   3 -16 25989.2 2487.75   4
  -3  -1  18 863.873 1457.51   3
  -1  -3 -18-40.3072 524.088   2
  -3   1  18-59.8821 350.651   3
   1  -3 -18 138.565 880.784   2
  -1   3  18 360.024 680.307   3
  -3   1 -18 557.548 314.199   3
   3  -1  18 1041.45 1250.13   1
  -1  -3  18 1618.66 1126.48   1
  -3   1 -18 652.663 667.190   4
  -3  -1 -18-490.711 701.816   4
   1   3 -18-154.677 331.746   4
  -1   3 -18 962.504 739.086   4
  -1  -3 -18 734.548 653.445   4
   1  -3 -18-531.042 832.413   4
   1  -3  18-14.2459 451.915   1
  -3   1 -18 197.089 691.078   2
  -3  -1 -18 1096.06 1101.21   2
  -1   3 -18 980.825 469.255   2
  -3  -1  18 550.755 649.664   1
  -3  -1  20 66238.6 5817.78   1
  -1   3 -20 50299.7 4663.19   4
  -3   1 -20 57881.5 5822.21   4
  -3  -1 -20 32885.7 5620.31   4
   1   3 -20 57198.1 4217.76   4
  -3   1 -20 58794.0 5419.50   2
  -3  -1 -20 71004.7 7160.75   2
  -1  -3 -20 64154.4 7296.21   4
   1  -3 -20 59769.7 6090.26   4
   3  -1  20 60772.7 7367.43   1
   3  -1 -20 57803.3 5244.58   4
  -1  -3 -20 52499.4 7229.75   2
   1  -3 -20 52378.0 6874.33   2
  -3  -1  20 37789.6 6284.36   3
  -3   1  20 61172.8 7543.85   3
  -1  -3  20 59797.7 5886.36   1
  -1   3  20 68472.0 6381.56   3
   1  -3  20 55113.9 6134.77   1
  -3   1 -20 61924.2 4807.70   3
  -3  -1  22-276.085 551.616   3
  -1  -3 -22 3521.24 2310.69   2
  -3   1  22-1123.97 262.667   3
  -3  -1  22 624.317 976.207   1
   1  -3 -22-327.153 877.109   2
  -1   3  22 2915.72 1759.94   3
  -3   1 -22 391.203 385.642   3
  -1   3 -22 350.757 304.101   4
  -3   1 -22 847.710 1147.03   4
   3  -1  22 847.404 1382.37   1
  -3  -1 -22 692.963 684.490   4
  -1  -3  22-165.940 273.473   1
  -1  -3 -22 989.250 1246.26   4
   1  -3 -22-624.967 490.553   4
   3  -1 -22 172.166 559.005   4
   1  -3  22 686.005 674.366   1
  -3   1 -22 131.073 738.235   2
  -3  -1 -22 974.912 871.386   2
  -3  -1  24 113822. 8795.94   1
   1  -3 -24 149823. 11084.6   4
  -3  -1 -24 151490. 11479.9   2
  -1   3 -24 132563. 8288.40   4
  -3   1 -24 143119. 10265.1   4
  -3  -1 -24 133032. 11781.6   4
  -3   1 -24 120741. 8194.53   2
  -1  -3 -24 118918. 11304.6   4
   3  -1 -24 138829. 8783.41   4
   3  -1  24 130384. 11346.6   1
  -1  -3 -24 153599. 12331.0   2
   1  -3 -24 109337. 10965.1   2
  -3  -1  24 143200. 12389.6   3
  -3   1  24 123654. 11847.1   3
  -1  -3  24 137358. 9672.94   1
  -1   3  24 141803. 9880.09   3
   1  -3  24 139145. 11222.0   1
  -3   1 -24 133788. 7318.61   3
  -3  -1  26-415.751 632.373   3
  -1  -3 -26 2784.72 1958.92   2
  -3   1  26 28.8659 1472.72   3
   1  -3 -26 2824.32 1855.33   2
  -1   3  26-236.560 918.038   3
  -1   3 -26 87.6378 168.109   4
  -3   1 -26 214.060 771.030   4
  -3  -1  26 3865.85 1699.01   1
  -3  -1 -26 363.917 966.154   4
  -1  -3 -26 2496.24 2292.70   4
   1  -3 -26 488.249 860.326   4
   3  -1 -26 1985.59 1256.01   4
  -1  -3  26 3302.28 1864.65   1
   3  -1  26 288.041 669.270   1
  -3   1 -26 1094.37 545.439   2
  -3  -1 -26-782.331 1189.32   2
   1  -3  26 1302.35 825.389   1
  -3  -1  28 6730.72 2940.54   3
  -1  -3 -28-734.566 1276.60   2
   1  -3  28 1755.18 1995.12   1
  -3   1  28 3980.45 2361.93   3
   1  -3 -28-1747.98 1912.55   2
  -1   3 -28-816.489 639.375   4
  -3   1 -28 1141.50 1388.47   4
  -1  -3 -28-1471.73 927.236   4
   1  -3 -28 752.470 1349.58   4
   3  -1 -28-22.5737 638.487   4
  -3  -1  28 1857.74 1376.35   1
  -1  -3  28 176.657 1249.47   1
  -3   1 -28 1005.14 1100.72   2
  -3  -1 -28 1410.93 1269.38   2
   3  -1  28 695.270 1050.47   1
  -3  -1  30 15032.0 3639.90   3
  -1  -3 -30 10885.2 3430.49   2
  -3   1  30 14840.7 4280.64   3
   1  -3 -30 7158.92 3428.40   2
   1  -3  30 13097.2 3791.10   1
   3  -1  30 9901.17 3560.25   1
  -1   3 -30 9204.03 2737.73   4
  -3   1 -30 4682.43 2329.46   4
  -3  -1 -30 9396.79 3175.51   4
  -1  -3 -30 10512.9 3604.86   4
   1  -3 -30 11284.9 3762.48   4
   3  -1 -30 9461.04 2824.53   4
  -3   1 -30 11284.7 3131.88   2
  -1  -3  30 8578.28 2848.73   1
  -3  -1 -30 9183.17 3136.73   2
  -1  -3  32 1611.83 1891.32   1
  -3  -1  32-545.177 803.504   3
  -1  -3 -32 347.018 546.679   2
  -3   1  32-1216.61 1398.16   3
   1  -3 -32 955.083 1724.42   2
   1  -3  32 907.532 1858.99   1
  -1   3 -32 1714.31 1486.76   4
  -3   1 -32-865.823 1771.02   4
  -3  -1 -32 2365.32 1796.43   4
  -1  -3 -32 909.972 1853.33   4
   1  -3 -32 1083.57 1799.40   4
   3  -1 -32 976.999 1143.40   4
  -3   1 -32-1387.42 1514.22   2
   3  -1  32 602.042 1348.58   1
  -3  -1 -32 571.987 1119.32   2
  -1  -3  34 77499.4 9680.06   1
   1  -3  34 64252.7 9676.01   1
  -1   3 -34 59776.9 7780.78   4
  -3   1 -34 60802.6 8568.87   4
  -3  -1 -34 105608. 11036.4   4
  -1  -3 -34 87975.4 10781.1   4
  -3   1 -34 77903.5 8321.11   2
   1  -3 -34 55346.0 8861.98   4
  -3  -1 -34 82449.8 9967.75   2
   3  -1 -34 71155.0 8548.16   4
  -1  -3 -34 89691.4 9732.54   2
   3  -1  34 93414.0 10238.4   1
   1  -3 -34 103775. 11438.3   2
  -3  -1  34 111297. 10945.5   3
  -3   1  34 99435.6 10737.8   3
  -3  -2   1 4008.64 1388.29   3
  -3  -2  -1 4419.18 1285.47   3
  -3   2   1 4246.39 1466.61   3
  -3   2  -1 3103.21 1304.22   3
  -2   3   1 3954.17 1377.56   3
  -2   3  -1 3013.33 1303.08   3
   2  -3  -1 6067.12 1388.45   1
   2  -3   1 4746.56 1248.61   1
   2   3  -1 3434.61 628.491   4
   2   3   1 1581.32 588.985   4
  -3  -2  -1 4391.71 1092.47   4
  -3  -2   1 3531.67 710.917   4
  -2  -3  -1 3362.91 712.536   4
  -3  -2  -1 5637.98 1435.20   1
  -2  -3  -1 6179.10 1655.82   1
  -3  -2   1 3474.43 1003.99   1
   3  -2   1 4308.55 1255.99   1
  -2  -3   1 2796.51 1009.52   1
  -3  -2   1 4014.47 1442.56   2
  -3  -2  -1 7806.39 1834.82   2
  -2  -3   1 6732.80 2886.85   2
  -2  -3  -1 1846.91 1982.88   2
   3  -2  -1 4553.92 952.421   1
   3  -2   3 36924.6 4660.35   1
   2   3   3 31172.4 3142.77   4
  -3  -2  -3 38103.3 3660.94   1
  -3  -2   3 38208.2 3853.57   2
  -2  -3  -3 29329.2 3521.18   1
  -3  -2  -3 35984.7 4041.39   2
  -3  -2  -3 37313.8 3936.93   4
  -3  -2   3 32355.2 3279.75   1
  -2  -3   3 34507.2 3823.48   1
  -2  -3   3 44282.1 6458.41   2
  -2  -3  -3 31514.1 6126.47   2
  -2  -3  -3 37252.5 2673.97   4
   2  -3  -3 42138.2 3429.84   1
   2  -3   3 33802.3 3408.69   1
  -3  -2   3 35060.6 4059.50   3
  -3  -2  -3 36485.6 3465.77   3
  -3   2   3 42916.2 4752.69   3
  -3   2  -3 36927.2 4326.14   3
  -2   3   3 50303.1 5218.22   3
  -2   3  -3 38050.4 4559.54   3
  -3  -2   5-500.523 498.767   3
  -3  -2  -5 240.380 242.589   3
   2  -3  -5 1176.17 662.679   1
  -3   2   5 1259.39 979.664   3
  -3   2  -5 1307.22 1091.43   3
  -2   3   5 558.567 368.080   3
  -2   3  -5 386.633 493.807   3
   2  -3   5 1706.67 880.572   1
  -3  -2  -5 796.105 567.063   4
  -3  -2  -5 1880.42 875.514   1
  -2  -3  -5 494.070 338.599   1
  -2  -3  -5 480.041 83.0733   4
   3  -2   5-348.707 599.049   1
  -3  -2   5 395.074 258.975   2
  -3  -2  -5 481.419 578.718   2
  -3  -2   5 480.682 382.339   1
  -2  -3   5 1409.28 972.782   1
  -2  -3   5-189.763 1286.91   2
  -2  -3  -5 1730.53 2074.16   2
   3  -2   7 316896. 16141.1   1
  -2  -3  -7 302213. 11976.0   1
  -3  -2  -7 299711. 15421.1   4
  -3  -2  -7 282503. 12247.0   2
  -2  -3  -7 286963. 9206.58   4
  -2  -3   7 317754. 12580.9   2
  -2  -3  -7 266014. 17558.5   2
   2  -3  -7 313858. 9343.71   1
  -2  -3   7 302385. 11893.4   1
  -3  -2   7 282510. 9666.23   1
  -3  -2   7 276041. 13481.1   3
  -3  -2  -7 311519. 9134.19   3
  -3  -2   7 296612. 10453.6   2
   2  -3   7 285599. 10634.0   1
  -3   2   7 290689. 12520.2   3
  -2   3   7 294299. 12975.4   3
  -3   2  -7 288207. 12044.5   3
  -2   3  -7 317106. 13354.2   3
   3  -2   9 31172.9 5291.44   1
  -3  -2   9 30380.8 3288.94   2
  -3  -2  -9 27530.0 5131.71   4
  -3  -2  -9 27701.1 3969.62   2
  -2  -3  -9 31673.6 3285.65   4
   2  -3  -9 30101.0 2888.31   1
  -2  -3   9 22706.2 2359.65   2
  -2  -3   9 30293.3 3810.07   1
  -3  -2   9 29228.9 3134.02   1
  -3  -2   9 29633.1 4863.11   3
  -3  -2  -9 26134.1 2360.46   3
  -3   2   9 28793.0 3971.21   3
   2  -3   9 27268.6 3415.16   1
  -2   3   9 32133.9 4363.41   3
  -3   2  -9 26851.3 3649.53   3
  -2   3  -9 26345.0 3864.60   3
  -2  -3  -9 25209.9 5318.81   2
  -2  -3 -11 4907.26 961.785   3
  -3  -2  11 7759.07 2515.73   3
  -3   2  11 5926.99 1622.11   3
  -2   3  11 5888.59 1908.94   3
  -2  -3  11 5969.20 1707.30   1
  -3   2 -11 6248.13 1828.72   3
  -2   3 -11 6479.46 1928.83   3
   2  -3 -11 5024.68 1540.96   2
  -3  -2  11 5335.68 1373.77   1
   2  -3 -11 8200.11 1544.26   1
  -3  -2 -11 6997.80 2712.89   4
  -2  -3 -11 5580.81 1536.89   4
   2  -3  11 5601.30 1547.82   1
  -3  -2  11 5999.67 1485.62   2
  -3  -2 -11 6152.33 970.444   3
  -3  -2 -11 9126.90 2381.15   2
   3  -2  11 7657.80 3020.39   1
  -2  -3 -11 5914.84 2581.05   2
   3  -2  13 65374.6 7803.83   1
  -3   2 -13 53535.4 5161.26   2
  -3  -2 -13 58978.6 7835.64   4
   2  -3 -13 49217.8 3842.34   1
  -3  -2 -13 43916.2 5505.06   2
  -2  -3 -13 44536.7 4837.51   4
  -2  -3 -13 51971.3 7720.60   2
   2  -3 -13 48332.3 5160.47   4
  -2  -3  13 54222.2 5309.58   1
  -3  -2  13 42481.9 3844.91   1
  -3  -2  13 49602.6 7180.42   3
   2  -3 -13 44645.7 4935.19   2
  -3   2  13 44040.7 5323.74   3
  -2   3  13 50175.5 5731.79   3
   2  -3  13 49082.4 5187.50   1
  -3   2 -13 48494.0 4819.52   3
  -2   3 -13 51052.1 5546.52   3
  -3  -2  15 8608.11 2959.07   3
   3  -2  15 18472.8 3958.31   1
  -3   2  15 11156.8 2913.30   3
  -2   3  15 12460.7 2991.95   3
   2  -3 -15 12086.1 2649.82   2
  -3   2 -15 18937.2 3120.02   2
   2  -3 -15 10054.8 1800.97   1
   2  -3 -15 14540.2 2924.19   4
  -3   2 -15 14227.8 2922.68   4
  -3  -2 -15 9176.10 3118.40   4
  -2   3 -15 13059.0 2129.58   2
  -2  -3 -15 15010.9 3162.73   4
  -2  -3  15 19207.3 3334.02   1
  -3  -2  15 11458.5 2065.52   1
   2  -3  15 9223.19 2459.63   1
  -3  -2 -15 14248.3 3327.67   2
  -3   2 -15 17365.5 2878.33   3
  -2   3 -15 15604.7 3067.40   3
  -2  -3 -15 14854.5 4131.97   2
   3  -2  17 109046. 9982.59   1
  -2   3 -17 111229. 8263.22   4
  -3   2 -17 107943. 8169.54   4
  -3   2 -17 97773.1 7031.15   2
   2  -3 -17 93617.5 5751.22   1
  -2   3 -17 89251.7 5295.51   2
  -3  -2 -17 119932. 11087.6   4
  -3  -2 -17 91798.8 8858.05   2
  -2  -3 -17 98111.3 8639.08   4
   2  -3 -17 102341. 7918.14   4
  -2  -3 -17 98159.4 10132.6   2
  -3  -2  17 79651.3 9860.51   3
  -2  -3  17 102448. 7758.09   1
   2  -3 -17 93841.7 7954.54   2
  -3  -2  17 93171.2 6100.03   1
  -3   2  17 101239. 8830.13   3
  -2   3  17 106758. 8827.13   3
  -3   2 -17 84217.3 6485.55   3
   2  -3  17 112758. 8882.46   1
  -2   3 -17 81592.0 7360.95   3
  -2  -3 -19 7383.26 2640.56   2
  -3  -2  19 11090.7 3955.87   3
  -3   2  19 10853.0 3013.50   3
  -2   3  19 13320.0 3306.19   3
   3  -2  19 6320.39 2416.08   1
  -3   2 -19 8308.62 2078.31   3
   2  -3 -19 7507.26 2535.04   2
  -2   3 -19 9930.94 2523.60   3
   2  -3 -19 10410.8 2037.66   1
  -2   3 -19 9181.65 2338.80   4
  -3   2 -19 5572.24 1752.75   4
  -2  -3  19 8441.78 2223.35   1
  -3  -2 -19 12233.8 3416.74   4
  -2  -3 -19 8215.12 3000.27   4
  -3  -2  19 6574.96 1707.78   1
   2  -3 -19 6998.56 2030.12   4
  -3   2 -19 9934.17 2181.02   2
  -2   3 -19 8491.95 1667.41   2
  -3  -2 -19 6023.46 2443.89   2
   2  -3  19 11347.6 3127.02   1
   2  -3  21 25303.4 4775.60   1
   2  -3 -21 38442.0 3908.53   1
  -2   3 -21 38413.7 4926.37   4
  -3   2 -21 33313.3 4761.39   4
  -3   2 -21 35393.6 4306.75   2
  -2   3 -21 32134.8 3295.16   2
  -3  -2 -21 37728.6 6410.84   4
  -3  -2 -21 44494.0 6751.73   2
   2  -3 -21 37157.2 5018.84   4
   3  -2 -21 29990.4 4341.28   4
   3  -2  21 33314.7 5600.41   1
  -2  -3 -21 36604.1 6258.36   2
  -2  -3 -21 19362.2 4629.28   4
  -3  -2  21 42593.0 7177.07   3
   2  -3 -21 30464.2 5116.28   2
  -2  -3  21 36486.1 4725.75   1
  -3   2  21 36983.9 5908.57   3
  -2   3  21 37424.0 5652.39   3
  -3  -2  21 32132.6 3992.77   1
  -3   2 -21 30398.1 4041.62   3
  -3  -2  23 22923.2 5448.05   3
  -2  -3 -23 13744.8 3807.01   2
  -2   3  23 17333.3 4147.54   3
   2  -3  23 20526.6 4831.28   1
   2  -3 -23 17389.9 4000.34   2
  -2   3 -23 27756.4 4243.78   4
  -3   2 -23 32692.4 4621.22   4
   3  -2  23 33968.1 5677.15   1
  -3   2 -23 31088.4 4221.71   2
  -3  -2 -23 31839.5 5823.34   4
   2  -3 -23 30863.1 4900.63   4
   3  -2 -23 25072.9 4085.36   4
  -2  -3 -23 16807.8 4195.19   4
  -3   2  23 28514.7 5662.42   3
  -2  -3  23 22987.6 3838.90   1
  -3  -2 -23 22947.2 5256.99   2
  -3  -2  23 24348.6 3762.13   1
  -3   2 -23 27893.0 3977.33   3
  -3  -2  25 1726.88 1666.67   3
  -2  -3 -25-1329.89 761.924   2
  -3   2  25-1643.91 1676.03   3
  -2   3  25-164.345 557.338   3
   2  -3 -25-565.890 913.500   2
   2  -3  25 85.1451 777.215   1
  -3   2 -25-1234.51 926.486   3
  -2   3 -25 542.955 974.281   4
  -3   2 -25 398.090 798.139   4
   3  -2  25 2767.12 1846.51   1
  -3  -2 -25-1176.28 843.418   4
  -2  -3 -25-542.998 1243.05   4
   2  -3 -25 203.052 772.957   4
   3  -2 -25-35.8945 197.222   4
  -2  -3  25 405.786 594.557   1
  -3   2 -25 450.891 1058.06   2
  -3  -2  25 15.4575 591.137   1
  -3  -2 -25 1384.21 1898.17   2
  -3  -2  27 80879.0 7833.58   1
   2  -3  27 59138.5 8590.40   1
  -2   3 -27 73917.3 7321.11   4
  -3   2 -27 82294.2 8155.98   4
   3  -2  27 84757.0 9010.78   1
  -3  -2 -27 95876.4 9902.14   4
  -3   2 -27 79497.3 6914.80   2
  -2  -3 -27 84584.9 10436.7   4
  -3  -2 -27 68081.6 9538.15   2
   2  -3 -27 92045.9 9485.02   4
   3  -2 -27 78113.9 8076.80   4
  -2  -3 -27 87653.5 9835.40   2
  -3  -2  27 91846.9 10125.6   3
   2  -3 -27 81875.8 10035.4   2
  -3   2  27 62049.0 8446.30   3
  -2   3  27 63802.5 7919.91   3
  -2  -3  27 76112.4 7650.81   1
  -3  -2  29 4565.87 2548.60   3
  -2  -3 -29 9028.86 3179.63   2
  -3  -2  29 5724.36 2329.66   1
  -3   2  29 3193.06 2622.57   3
  -2   3  29 2908.68 1856.52   3
   2  -3 -29 8461.09 3307.91   2
   2  -3  29 10865.0 3489.51   1
  -2   3 -29 10459.9 2885.50   4
  -3   2 -29 7175.82 2507.23   4
  -3  -2 -29 6044.83 2671.92   4
  -2  -3 -29 4428.37 2249.67   4
   2  -3 -29 2827.40 1454.80   4
   3  -2 -29 8825.32 2946.99   4
   3  -2  29 9250.52 3445.40   1
  -2  -3  29 5527.57 2125.80   1
  -3   2 -29 7439.62 2148.92   2
  -3  -2 -29 5289.21 2750.82   2
   2  -3  31 63416.4 9115.46   1
  -2   3 -31 53786.2 6906.96   4
  -3   2 -31 56475.2 7496.90   4
  -3  -2 -31 82163.9 9239.12   4
  -3   2 -31 65496.3 6960.81   2
   3  -2  31 60198.3 7989.15   1
  -2  -3 -31 80545.4 10127.0   4
  -3  -2 -31 75178.4 10110.6   2
   2  -3 -31 64004.4 8639.71   4
   3  -2 -31 62787.2 7816.61   4
  -2  -3 -31 74620.7 9417.58   2
   2  -3 -31 68306.2 9592.82   2
  -3  -2  31 82371.4 9661.23   3
   3  -2 -31 43896.1 7806.58   2
  -3   2  31 71727.3 9221.56   3
  -2  -3  31 65199.1 7667.14   1
  -3  -3   0 191710. 9321.75   1
  -3  -3   0 231351. 13958.4   2
  -3  -3   0 225187. 11346.2   3
  -3   3   0 213092. 12067.5   3
   3  -3   0 226087. 9455.05   1
  -3  -3   2 10567.5 2639.78   3
  -3  -3  -2 13242.7 2529.57   3
  -3   3   2 11394.9 2772.14   3
  -3  -3   2 12933.2 2334.23   1
  -3  -3  -2 10082.2 2162.07   1
  -3  -3   2 14709.1 3516.44   2
  -3  -3  -2 13447.4 3594.31   2
  -3   3  -2 15973.3 3366.87   3
   3  -3   2 17604.7 2779.49   1
  -3  -3  -4 17909.1 2880.06   1
  -3  -3   4 31731.6 4871.82   2
  -3  -3  -4 28549.2 5032.63   2
  -3  -3   4 16989.3 2807.58   1
  -3  -3   4 31496.3 4971.16   3
  -3  -3  -4 21466.0 2854.26   3
  -3   3   4 21171.1 3836.48   3
  -3   3  -4 26551.0 4232.27   3
   3  -3   4 26886.8 3743.55   1
  -3   3   6 13976.1 3267.81   3
  -3  -3  -6 17416.5 2962.04   1
  -3  -3   6 19867.6 3091.53   1
  -3  -3  -6 20685.9 2645.78   3
  -3  -3   6 21955.1 3938.42   2
  -3  -3  -6 20897.2 4567.79   2
  -3   3  -6 22641.5 4018.19   3
   3  -3   6 14215.3 3020.98   1
  -3  -3   6 17625.1 4481.33   3
   3  -3   8 33035.9 5024.88   1
  -3  -3  -8 33967.4 4207.29   1
  -3  -3  -8 31512.3 3261.95   4
  -3  -3  -8 42524.9 6568.64   2
  -3  -3   8 36990.6 4248.68   1
  -3  -3   8 36138.5 6759.38   3
  -3   3   8 36325.1 5031.63   3
  -3   3  -8 33196.5 4791.45   3
   3  -3  10 32460.0 5028.56   1
  -3  -3 -10 38320.0 4674.16   1
  -3  -3 -10 37774.8 4022.17   4
  -3  -3 -10 36805.5 6359.69   2
  -3  -3  10 42669.0 4719.01   1
  -3   3  10 32590.9 4990.88   3
  -3   3 -10 39288.8 5110.82   3
  -3  -3  10 33388.5 6926.48   3
  -3   3  12 11891.3 3113.95   3
   3  -3  12 14006.6 3669.43   1
  -3   3 -12 14374.5 3099.98   3
  -3  -3 -12 17111.6 2948.94   4
  -3  -3  12 15718.2 2814.79   1
  -3  -3 -12 18969.2 4690.69   2
  -3  -3  12 9962.82 4471.62   3
   3  -3  14 130194. 11035.5   1
  -3   3 -14 181165. 10066.4   2
  -3  -3 -14 148712. 9850.83   4
  -3  -3 -14 130943. 12189.4   2
  -3  -3  14 158776. 9326.04   1
  -3  -3  14 143118. 15251.8   3
  -3   3  14 158692. 11534.9   3
  -3   3 -14 154458. 10225.7   3
   3  -3  16 18124.2 4434.89   1
  -3  -3 -16 20875.8 3962.26   4
  -3  -3  16 17973.8 3397.80   1
  -3   3 -16 29021.7 3901.85   2
  -3   3  16 25915.3 4746.19   3
  -3  -3 -16 11280.8 3358.40   2
  -3   3 -16 20865.1 3691.72   3
  -3  -3  16 25441.4 6346.58   3
  -3   3  18-116.770 1008.57   3
  -3   3 -18 1369.36 1323.17   3
   3  -3  18 2701.04 2187.23   1
  -3  -3  18-634.102 266.131   1
  -3   3 -18 378.268 1093.97   4
  -3  -3 -18 377.942 1126.69   4
  -3   3 -18 222.568 768.805   2
  -3  -3 -18 2476.58 2407.63   2
  -3  -3  18-1174.42 1513.01   3
  -3   3 -20 46347.1 4889.76   2
  -3  -3 -20 33107.2 5808.13   4
   3  -3  20 23621.4 5140.72   1
  -3  -3  20 31975.4 4377.78   1
  -3   3 -20 41180.0 6010.68   4
  -3   3  20 44456.9 6851.43   3
  -3   3 -20 34048.0 4924.83   3
  -3  -3 -20 30342.9 6335.65   2
  -3  -3  20 31257.7 7018.66   3
  -3  -3  22 335.099 694.358   3
  -3   3  22-2365.70 1897.09   3
  -3   3 -22 2215.10 1503.63   3
  -3   3 -22 704.966 774.356   4
  -3  -3  22-539.437 458.364   1
  -3  -3 -22 1356.52 705.003   4
   3  -3  22-360.310 943.560   1
  -3   3 -22 1489.23 1317.91   2
  -3  -3 -22 61.6397 1151.29   2
   3  -3  24 93477.4 9882.82   1
  -3   3 -24 96995.3 9366.92   4
  -3  -3 -24 73285.2 9603.01   4
  -3  -3 -24 87295.7 10952.3   2
  -3  -3  24 102947. 11937.9   3
  -3   3  24 82651.7 10016.4   3
  -3  -3  24 86256.1 7539.98   1
  -3   3 -24 94399.0 8560.39   3
  -3  -3  26-191.040 521.582   3
   3  -3  26 2419.70 1609.15   1
  -3   3  26 543.662 229.780   3
  -3   3 -26-1678.06 1318.96   4
  -3  -3 -26-186.981 1671.86   4
   3  -3 -26 1524.12 1932.04   4
  -3  -3  26 1614.20 1066.94   1
  -3  -3 -26 1182.11 705.055   2
   0  -4   0 375273. 13492.4   1
   0  -4   0 379747. 10170.9   2
  -4   0   0 412393. 14302.1   3
  -4   0   2 304.941 378.870   3
  -4   0  -2 973.115 797.115   3
   0  -4  -2 1346.25 764.045   2
  -4   0  -2 1504.53 1247.60   4
   0  -4  -2 2261.34 1305.13   1
   0  -4   2 775.128 852.850   1
   0  -4   4 7570.96 1937.76   1
  -4   0   4 8280.92 2108.15   3
  -4   0  -4 7434.28 1826.25   3
   0  -4  -4 4431.72 1278.48   2
   0   4   4 7644.37 2442.35   3
  -4   0  -4 7853.60 1895.80   4
   0  -4  -4 8714.74 2059.69   1
  -4   0   6-212.154 601.409   3
  -4   0  -6-3.40965 560.778   3
   0  -4   6 32.3787 542.900   1
   0  -4  -6 1891.21 983.169   2
   0   4   6 571.213 602.828   3
  -4   0  -6 875.396 820.371   4
  -4   0  -6 54.0045 482.023   2
   0  -4  -6 2505.87 1231.99   1
  -4   0   8 3135.17 1331.16   3
  -4   0  -8 5588.15 1639.09   3
   0  -4  -8 2473.85 1059.08   2
   0  -4   8 1923.96 1060.42   1
   0   4   8 4822.27 2208.87   3
  -4   0  -8 4177.06 1494.24   4
   0  -4  -8 5259.31 1611.47   4
   0  -4  -8 3942.48 1683.66   1
  -4   0  -8 6134.76 1941.66   2
  -4   0 -10 84786.3 6799.34   4
  -4   0 -10 60249.3 5910.62   2
   0  -4 -10 81900.2 6717.86   1
   0  -4 -10 71221.8 5799.69   4
   0  -4  10 70878.9 6269.18   1
   0  -4 -10 69079.2 5968.65   2
  -4   0  10 75759.8 7101.04   3
  -4   0 -10 71747.5 5258.83   3
   0   4  10 67668.7 7241.75   3
  -4   0  12 2160.54 1276.92   3
   0  -4 -12 1687.32 915.800   2
  -4   0 -12 667.872 615.410   3
   0   4  12-204.007 665.616   3
   0  -4  12-241.500 228.237   1
  -4   0 -12 1534.01 973.361   4
   0  -4 -12 712.033 900.500   1
   0  -4 -12 1274.46 882.828   4
  -4   0 -12 614.120 596.475   2
   0   4 -14 72551.8 5005.97   4
  -4   0 -14 77427.9 7000.65   4
   0  -4 -14 81278.8 7193.24   1
  -4   0 -14 71827.9 6582.26   2
   0  -4 -14 66185.7 5957.10   4
   0  -4 -14 81363.6 7798.62   2
   0  -4  14 76814.6 6952.75   1
  -4   0  14 82246.2 8188.56   3
  -4   0 -14 81472.2 5566.40   3
   0   4  14 69590.6 7423.16   3
   0   4 -16 45736.8 4034.67   4
   0  -4 -16 55548.2 5884.72   1
  -4   0 -16 47551.7 5769.24   4
  -4   0 -16 52831.2 5780.39   2
   0  -4 -16 44841.6 5101.35   4
   0  -4 -16 51896.0 6806.82   2
   0  -4  16 50004.8 5765.62   1
  -4   0  16 58193.3 7304.43   3
  -4   0 -16 56965.1 4635.39   3
   0   4  16 33493.8 4985.26   3
  -4   0  18 1990.30 1329.29   3
   0  -4 -18 9356.68 3275.50   2
   0   4 -18 6869.79 1608.23   4
   0  -4  18 9017.83 2200.54   1
  -4   0 -18 3587.56 1823.87   4
   0  -4 -18 4967.68 1889.12   1
   0  -4 -18 3822.43 1426.59   4
  -4   0 -18 5254.27 1934.04   2
  -4   0 -20 116857. 9976.57   4
  -4   0 -20 107591. 8620.23   2
   0  -4 -20 110634. 8821.03   4
   0  -4 -20 104064. 11015.6   2
  -4   0  20 95056.6 10495.0   3
   0  -4  20 102766. 8630.32   1
  -4   0  22 1882.74 1894.59   3
   0  -4 -22 1839.38 1840.71   2
  -4   0 -22 1076.05 777.716   4
   0  -4  22 4192.53 1796.64   1
   0  -4 -22 2960.43 1288.39   4
  -4   0 -22 4636.43 2011.43   2
  -4   0 -24 47756.6 7167.75   4
  -4   0 -24 71756.3 7482.53   2
   0  -4 -24 54715.8 7113.91   4
   0  -4 -24 48750.2 7933.15   2
  -4   0  24 51753.6 8098.63   3
  -4   0  26 12240.1 4572.58   3
   0  -4 -26 14647.0 4239.74   2
  -4   0 -26 13126.9 3780.79   4
   0  -4 -26 17674.6 4214.34   4
   0  -4  26 14559.8 4090.68   1
  -4   0 -26 11421.6 3149.45   2
  -4   0  28 5185.13 2775.33   3
   0  -4 -28 13782.5 4645.78   2
  -4   0 -28 11728.0 3766.11   4
   0  -4 -28 9615.27 3371.63   4
   0  -4  28 11751.1 3809.91   1
  -4   0 -28 6970.82 2643.67   2
   1  -4  -1 4223.08 1434.90   1
  -4  -1   1 3477.49 1280.94   3
  -4  -1  -1 5231.35 1547.41   3
  -1  -4  -1 2851.03 897.575   2
  -4   1   1 2606.93 1245.51   3
  -4   1  -1 3573.60 1527.66   3
   1  -4   1 2917.94 1090.35   1
  -1  -4   1 2710.49 703.235   2
  -1   4   1 3096.23 1435.84   3
  -1   4  -1 1124.37 701.058   3
  -4  -1   1 4445.11 1427.80   4
  -4  -1  -1 2941.32 1059.40   4
  -4  -1  -1 3531.80 1007.93   1
  -4  -1   1 2850.45 1172.86   2
  -4  -1  -1 3711.46 1517.64   2
  -4  -1   1 2395.78 737.837   1
  -1  -4  -1 2469.63 1305.71   1
  -1  -4   1 2639.76 1075.46   1
  -4  -1   3 28612.4 3187.35   4
  -4  -1  -3 28272.0 3988.04   2
  -4  -1  -3 23904.5 3418.09   4
  -4  -1  -3 32586.4 3198.96   1
  -1  -4  -3 31884.2 4143.09   1
  -1  -4   3 22993.1 3474.36   1
   1  -4  -3 34662.1 3927.37   1
  -4  -1   3 29099.2 2415.78   1
   1  -4   3 25193.5 3446.38   1
  -1  -4  -3 24425.9 2970.52   2
  -4  -1   3 31650.9 4024.39   3
  -4  -1  -3 30422.6 3632.95   3
  -4   1   3 29814.0 4072.12   3
  -4   1  -3 30091.3 4015.14   3
  -1   4   3 28284.4 4222.99   3
  -1   4  -3 23668.3 4042.92   3
  -1  -4   5-719.957 950.493   1
  -4  -1   5 896.966 881.351   3
  -4  -1  -5 394.017 633.236   3
  -1  -4  -5 744.308 612.924   2
  -4   1   5 663.784 934.565   3
  -4   1  -5-412.795 477.917   3
  -4  -1   5-152.645 175.504   1
   1  -4  -5 945.653 696.264   2
  -1   4  -5 464.942 104.111   3
   1  -4   5 955.868 1010.06   1
  -4  -1   5 708.732 400.517   4
  -4  -1  -5 851.531 878.740   4
  -4  -1  -5 820.809 720.220   1
  -1  -4  -5-838.455 543.057   4
  -1  -4  -5 196.932 396.566   1
  -4  -1  -5 607.016 475.803   2
   1  -4  -5 448.137 370.785   1
  -4  -1   7 228714. 8324.10   4
  -4  -1  -7 213602. 11090.6   4
  -4  -1  -7 223639. 11385.0   2
  -1  -4  -7 222669. 11341.5   1
   1  -4  -7 215475. 10040.2   1
  -1  -4  -7 217362. 9115.57   4
  -1  -4   7 235575. 11287.8   1
  -1  -4  -7 239568. 11643.3   2
   1  -4   7 235805. 11180.5   1
   1  -4  -7 237195. 10534.3   2
  -4  -1   7 226929. 11644.9   3
  -4  -1  -7 243144. 9572.02   3
  -4   1   7 213240. 11577.1   3
  -4   1  -7 231198. 10891.0   3
  -1   4   7 239359. 12529.0   3
  -1   4  -7 227880. 12890.2   3
  -4   1   9 13890.5 2924.38   3
  -4   1  -9 27717.9 4162.52   4
  -4  -1  -9 25903.8 4066.87   4
  -4  -1  -9 16115.2 3127.99   2
  -1  -4  -9 28579.1 4114.09   1
   1  -4  -9 20061.1 3023.85   1
  -1  -4  -9 20954.2 2882.91   4
  -1  -4   9 23654.1 3661.08   1
  -1  -4  -9 29340.2 4415.69   2
   1  -4   9 22331.0 3557.88   1
   1  -4  -9 19368.4 3162.52   2
  -4  -1   9 23947.6 3898.76   3
  -4  -1  -9 21859.5 2658.46   3
  -4   1  -9 24491.7 3534.45   3
  -1   4   9 24935.3 4022.12   3
  -1   4  -9 16923.8 3730.12   3
  -4  -1  11 1786.04 1051.49   3
  -1  -4 -11 4044.48 1888.82   2
  -4   1  11 2828.79 1364.93   3
  -4  -1 -11 7641.03 1597.90   3
  -4   1 -11 5994.09 1715.53   3
   1  -4 -11 4692.54 1641.40   2
  -1   4  11 7914.91 2183.59   3
  -1  -4  11 4979.91 1813.03   1
   1  -4  11 6487.48 2137.70   1
  -4   1 -11 6191.12 1966.07   4
  -4  -1 -11 6149.70 2193.06   4
  -1  -4 -11 8321.35 2536.37   1
  -1  -4 -11 3280.41 1190.29   4
   1  -4 -11 6224.43 2052.06   4
   1  -4 -11 4401.10 1470.21   1
  -4   1 -11 8814.17 2166.77   2
  -4  -1 -11 6135.92 2169.93   2
  -4   1 -13 32586.7 4824.53   4
  -4   1 -13 44661.5 5305.05   2
  -1  -4 -13 38796.9 5131.06   1
  -4  -1 -13 34613.0 5218.18   4
  -4  -1 -13 28455.2 4371.43   2
   1  -4 -13 39884.5 4489.03   1
  -1  -4 -13 38912.4 4445.90   4
   1  -4 -13 38710.4 4763.63   4
  -1  -4 -13 26884.8 5093.58   2
  -1  -4  13 41828.7 5096.15   1
   1  -4 -13 31110.5 4358.29   2
   1  -4  13 33817.6 4603.61   1
  -4  -1  13 38774.6 5599.05   3
  -4   1  13 39638.5 5647.40   3
  -4   1 -13 40695.8 4423.93   3
  -1   4  13 34111.4 4953.01   3
  -4  -1  15 7517.77 2694.58   3
  -1  -4 -15 6162.27 2706.97   2
  -4   1  15 7107.05 2742.58   3
  -4   1 -15 10484.3 2290.01   3
   1  -4 -15 12961.1 2925.51   2
  -1   4  15 13682.9 3403.04   3
  -4   1 -15 12409.1 2909.12   4
  -4  -1 -15 8725.25 2939.92   4
   1  -4  15 13636.8 2968.54   1
  -1  -4 -15 11823.4 2928.43   1
  -1  -4  15 14380.2 3280.60   1
  -1  -4 -15 11589.2 2452.53   4
   1  -4 -15 14216.5 2950.40   4
   1  -4 -15 10754.1 2444.21   1
  -4   1 -15 11429.1 2706.98   2
  -4  -1 -15 12044.8 2882.72   2
  -1   4 -17 79814.8 6543.21   4
  -4   1 -17 77287.2 7385.86   4
  -4   1 -17 74027.7 6931.55   2
   1  -4 -17 77861.6 6610.62   1
  -4  -1 -17 58225.5 7527.59   4
  -4  -1 -17 85349.0 7866.03   2
  -1  -4 -17 69970.8 6541.56   4
   1  -4 -17 82056.2 7370.36   4
  -1  -4 -17 53297.9 7832.46   2
   1  -4 -17 82702.3 8405.71   2
  -1  -4  17 88617.6 8089.62   1
  -4  -1  17 78271.6 9115.81   3
  -4   1  17 80160.1 8931.37   3
   1  -4  17 71759.8 7064.43   1
  -4   1 -17 70433.1 5921.13   3
  -1   4  17 73597.4 7538.42   3
  -4  -1  19 4441.91 2447.41   3
  -1  -4 -19 6316.91 2971.56   2
  -4   1  19 9729.46 3260.82   3
   1  -4 -19 6601.82 2551.73   2
  -1   4  19 4333.25 2134.67   3
  -4   1 -19 8285.78 2155.79   3
  -1  -4  19 6000.42 1900.81   1
  -1   4 -19 4789.99 1489.15   4
  -4   1 -19 2067.85 1387.87   4
  -4  -1 -19 6242.96 2589.35   4
   1  -4 -19 6810.59 1975.65   1
  -1  -4 -19 7914.50 2264.17   4
   1  -4  19 3976.52 1685.68   1
   1  -4 -19 3969.84 1710.11   4
  -4   1 -19 5725.19 2083.13   2
  -4  -1 -19 7440.81 2258.54   2
  -4  -1  21 20896.6 5334.10   3
  -1  -4 -21 21890.9 5241.76   2
  -4   1  21 28981.1 6011.95   3
  -1   4  21 23012.3 4519.34   3
  -1   4 -21 25909.6 3682.66   4
   1  -4 -21 29230.8 4284.19   1
  -4   1 -21 36681.3 5326.76   4
  -4   1 -21 29406.1 4476.84   2
  -4  -1 -21 29647.6 4823.68   2
  -1  -4 -21 25622.9 4522.84   4
   1  -4 -21 22409.9 4073.05   4
  -4  -1 -21 19434.8 4607.24   4
   1  -4 -21 31110.0 5899.19   2
  -1  -4  21 40628.2 5837.10   1
   1  -4  21 28200.9 4813.96   1
  -4   1 -21 27059.6 3700.69   3
  -4  -1  23 15760.6 4526.14   3
  -1  -4 -23 23207.5 5612.22   2
  -4   1  23 18048.2 5030.81   3
   1  -4 -23 16319.7 4350.82   2
   1  -4 -23 25656.4 4207.36   1
  -1   4 -23 21552.2 3471.16   4
   1  -4 -23 24033.9 4493.55   4
  -4   1 -23 26017.8 4683.87   4
  -4  -1 -23 13261.5 4140.36   4
  -1  -4 -23 22199.0 4485.94   4
  -1  -4  23 29766.5 5023.42   1
  -4   1 -23 18891.3 3788.09   2
  -4  -1 -23 20783.4 4257.25   2
   1  -4  23 27182.5 5059.18   1
  -4  -1  25 810.883 1694.40   3
  -1  -4 -25 1766.64 1039.90   2
  -4   1  25 2905.55 2694.17   3
   1  -4 -25 3718.26 2180.90   2
  -1   4 -25-1059.77 684.123   4
  -4   1 -25-1086.34 1272.19   4
  -4  -1 -25 2001.99 1928.76   4
  -1  -4 -25-876.506 550.619   4
  -1  -4  25-523.090 690.965   1
   1  -4 -25-60.9018 354.922   4
  -4   1 -25 325.640 486.604   2
   1  -4  25-31.5468 765.420   1
  -4  -1 -25 236.190 623.878   2
  -1   4 -27 61540.6 6338.09   4
  -4   1 -27 59340.6 7893.95   4
  -4  -1 -27 63912.5 8777.72   4
  -4   1 -27 74399.7 7812.11   2
  -4  -1 -27 59394.9 7809.40   2
  -1  -4 -27 79802.0 9965.36   4
   1  -4 -27 64885.4 8339.27   4
  -1  -4 -27 64008.1 8819.22   2
   1  -4 -27 61041.0 9657.90   2
  -4  -1  27 60319.0 9154.89   3
  -4   1  27 55662.1 9016.60   3
  -1  -4  27 71323.3 8477.35   1
   1  -4  27 61349.7 8295.63   1
  -4  -2   0 296564. 13025.0   2
  -4  -2   0 317783. 11210.1   1
  -2  -4   0 308738. 13120.4   1
   2  -4   0 322208. 12303.5   1
  -4  -2   0 303001. 12269.0   3
  -4   2   0 320172. 14638.6   3
  -2   4   0 325213. 15482.7   3
  -2  -4  -2 1458.54 969.027   2
  -4  -2   2 165.279 539.093   3
  -4  -2  -2 1113.09 684.959   3
  -4   2   2 656.546 1073.59   3
  -4   2  -2 1386.88 1288.78   3
  -2   4   2-208.425 512.933   3
  -2   4  -2-338.971 700.593   3
   2  -4  -2 400.725 206.140   1
   2  -4   2 630.378 748.003   1
  -4  -2  -2 1312.07 798.173   1
  -2  -4  -2 1564.10 1259.92   1
  -4  -2   2 326.088 779.239   2
  -4  -2  -2 1288.13 996.406   2
  -4  -2   2 585.921 597.617   1
  -2  -4   2-44.5344 456.470   1
  -2  -4  -4 4579.18 1979.18   2
  -4  -2   4 631.844 688.754   3
  -4  -2  -4 4215.97 1366.90   3
  -4   2   4 5804.91 1994.99   3
  -4   2  -4 8080.08 2585.69   3
   2  -4  -4 7005.25 1712.65   1
  -2   4   4 3250.11 1423.04   3
  -2   4  -4 6255.60 2118.40   3
   2  -4   4 4968.47 1493.99   1
  -4  -2  -4 9972.97 2091.19   1
  -2  -4  -4 5959.69 1845.82   1
  -4  -2   4 4665.62 1600.67   2
  -4  -2  -4 4025.01 1649.61   2
  -2  -4   4 3456.41 1386.72   1
  -4  -2   4 5027.07 1340.20   1
  -2  -4   6 438.537 637.630   1
  -2  -4  -6 477.688 146.646   2
  -4  -2   6-200.806 294.003   3
  -4  -2  -6 1060.19 759.618   3
  -4  -2   6 404.671 459.188   1
   2  -4  -6 1236.00 909.761   1
  -4   2   6-160.379 219.118   3
  -4   2  -6 768.927 457.639   3
  -2   4   6 1147.32 1209.03   3
  -2   4  -6-702.976 461.382   3
   2  -4   6 872.617 879.523   1
  -4  -2  -6 1438.78 1003.81   1
  -2  -4  -6-285.952 353.284   1
  -4  -2   6-452.685 422.367   2
  -4  -2  -6 129.138 409.328   2
  -2  -4  -8 740.666 1854.29   2
  -4  -2   8 6537.42 2156.49   3
   2  -4  -8 3956.94 1364.51   1
  -2  -4   8 1710.53 1133.49   1
  -4   2   8 6198.46 2359.67   3
  -4   2  -8 4847.84 1909.62   3
  -4  -2   8 4072.23 1141.00   1
  -2   4   8 1631.11 1144.18   3
  -2   4  -8 6214.19 2293.23   3
   2  -4   8 1418.49 1097.01   1
  -4  -2  -8 3376.09 2558.58   4
  -4  -2  -8 1846.57 902.967   1
  -2  -4  -8 4650.98 1748.78   1
  -4  -2   8 2580.34 1218.82   2
  -4  -2  -8 3924.99 1701.25   2
  -4  -2  10 50600.2 5185.73   2
  -2  -4 -10 64110.6 6721.96   1
  -4  -2 -10 59159.7 7872.90   4
  -4  -2 -10 68859.7 7094.30   2
  -2  -4 -10 53887.5 4568.89   4
   2  -4 -10 57367.5 4887.87   1
  -2  -4 -10 39473.2 7349.84   2
  -2  -4  10 57986.3 6094.92   1
  -4  -2  10 56221.6 4398.81   1
  -4  -2  10 69943.4 7514.52   3
   2  -4  10 59792.0 6016.86   1
  -4   2  10 56027.8 6409.75   3
  -4   2 -10 54781.3 5803.80   3
  -2   4  10 55309.5 6536.06   3
  -2   4 -10 63980.9 7224.10   3
  -2  -4 -12 2992.61 2295.12   2
  -4  -2  12 2170.30 1977.07   3
  -4   2  12-58.0067 819.870   3
  -2   4  12-1455.02 1027.79   3
  -4   2 -12 323.810 739.731   3
  -2  -4  12 1294.09 1211.34   1
  -2   4 -12 2529.18 1890.77   3
  -4  -2 -12 1783.29 2273.96   4
  -2  -4 -12-174.192 660.019   1
   2  -4  12 390.288 857.483   1
  -2  -4 -12-413.475 458.184   4
  -4   2 -12 355.635 980.151   2
  -4  -2  12 1174.56 911.316   2
  -4  -2 -12 273.275 606.621   2
   2  -4 -12 653.149 792.396   1
  -4   2 -14 68082.1 7171.59   4
  -4  -2  14 62595.1 5739.71   2
  -4   2 -14 56281.3 6315.59   2
  -2  -4 -14 67268.0 6983.29   1
  -4  -2 -14 76386.7 9287.20   4
  -4  -2 -14 74033.4 7810.95   2
   2  -4 -14 54324.4 4866.82   1
  -2  -4 -14 57716.0 5383.24   4
  -2  -4 -14 71061.5 9791.63   2
  -2  -4  14 67017.8 6891.14   1
  -4  -2  14 60513.0 8036.49   3
   2  -4 -14 55580.2 6244.04   2
  -4   2  14 68599.7 7797.25   3
   2  -4  14 50084.9 5897.14   1
  -2   4  14 67748.0 7886.43   3
  -4   2 -14 65052.9 6361.88   3
  -2   4 -14 57633.2 7056.44   3
  -2  -4 -16 32774.9 6600.62   2
  -2  -4 -16 48181.2 6128.29   1
  -4   2 -16 41272.6 5617.74   4
  -4   2 -16 48393.0 5869.93   2
  -4  -2 -16 54301.1 7694.91   4
  -4  -2 -16 45456.9 6387.86   2
   2  -4 -16 31584.3 3845.20   1
  -2  -4 -16 31000.9 4314.31   4
  -2  -4  16 43704.1 5815.34   1
  -4  -2  16 39820.6 6896.74   3
   2  -4 -16 39330.1 5378.54   2
  -4   2  16 39860.4 6280.97   3
  -2   4  16 36040.4 6077.75   3
   2  -4  16 44790.9 5931.04   1
  -4   2 -16 35648.3 4634.12   3
  -2   4 -16 51420.0 6811.15   3
  -4  -2  18 2692.51 1373.37   3
  -2  -4 -18 3987.33 2548.14   2
  -4   2  18 6317.40 2865.62   3
  -2   4  18 4683.83 2637.17   3
  -4   2 -18 4878.71 1632.81   3
   2  -4 -18 5088.98 2185.69   2
  -2  -4  18 2798.94 1202.63   1
  -2   4 -18 6153.94 2211.09   4
  -4   2 -18 6075.79 2447.30   4
  -4  -2 -18 6073.58 2890.36   4
  -2  -4 -18 3367.86 1664.10   4
   2  -4  18 6827.52 2335.39   1
  -4   2 -18 2467.94 1235.00   2
  -4  -2 -18 9833.50 3388.26   2
  -2   4 -20 105313. 9008.69   4
  -4   2 -20 108927. 9576.68   4
  -4   2 -20 96921.9 8642.50   2
  -4  -2 -20 104323. 10837.1   4
  -4  -2 -20 82282.5 9559.24   2
  -2  -4 -20 88858.4 8610.60   4
   2  -4 -20 82966.9 8250.72   4
  -2  -4 -20 100223. 11048.8   2
  -4  -2  20 72281.7 10031.1   3
  -2  -4  20 104539. 9334.27   1
   2  -4 -20 94434.7 9524.39   2
  -4   2  20 91423.2 10344.2   3
  -2   4  20 96182.8 10180.0   3
  -4   2 -20 77876.0 7047.84   3
   2  -4  20 86554.6 8894.14   1
  -4  -2  22-82.1834 1878.50   3
  -2  -4 -22 7182.39 3592.24   2
  -4   2  22 116.464 1007.59   3
  -2   4  22 4519.77 2507.41   3
   2  -4 -22 1629.10 1158.54   2
  -4   2 -22 3761.26 1524.39   3
  -2   4 -22 3725.11 1790.83   4
  -4   2 -22 3715.81 2055.82   4
  -2  -4  22 5193.60 1931.68   1
  -4  -2 -22 6188.63 2992.35   4
  -2  -4 -22 2849.87 2298.86   4
   2  -4 -22 3191.97 1733.15   4
  -4   2 -22 316.147 878.894   2
  -4  -2 -22 4098.46 2503.35   2
   2  -4  22 2844.47 1847.02   1
   2  -4  24 41057.5 6938.45   1
  -2   4  24 35990.6 6846.80   3
  -2   4 -24 50018.2 6427.65   4
  -4   2 -24 50283.9 7006.39   4
  -4   2 -24 67625.4 7353.69   2
  -4  -2 -24 65414.8 8381.80   4
  -4  -2 -24 62109.7 8694.71   2
  -2  -4 -24 50509.5 7757.44   4
   2  -4 -24 54137.4 7333.56   4
  -2  -4 -24 65730.7 9040.87   2
  -4  -2  24 52016.3 8863.69   3
   2  -4 -24 56613.5 8485.77   2
  -2  -4  24 73720.1 8238.25   1
  -4   2  24 74845.8 10318.2   3
  -4   2 -24 51443.6 6088.77   3
  -4  -3   1 459.701 701.120   3
  -4   3   1 291.781 378.654   3
  -4   3  -1 6.59667 542.470   3
  -3   4   1 2327.50 1362.96   3
  -3   4  -1 4691.18 1978.25   3
  -4  -3  -1 3078.33 1267.66   1
  -3  -4  -1 3232.94 1578.48   1
  -4  -3   1 1607.72 1375.21   2
  -4  -3  -1-477.902 887.597   2
  -4  -3   1 1295.51 791.007   1
  -3  -4   1 1419.56 842.296   1
  -3  -4   1 2514.81 1323.73   3
  -4  -3   3 17357.1 3336.00   3
  -4   3  -3 18977.0 4022.44   3
  -3   4   3 19762.2 4249.86   3
  -3   4  -3 17439.7 4084.50   3
  -4  -3  -3 21547.8 3361.28   1
  -3  -4  -3 19938.5 3406.65   1
  -3  -4   3 21665.5 3624.62   1
  -4  -3   3 21142.7 3279.24   1
  -4  -3  -3 19338.8 4114.17   2
  -4   3   3 22144.1 4365.15   3
  -3  -4   3 18605.0 4809.65   3
  -3  -4   5 1384.60 645.268   1
  -4  -3   5-680.197 258.475   3
  -4  -3   5-30.0573 663.960   1
  -4   3   5 1559.33 1615.29   3
  -4   3  -5-441.026 503.962   3
  -3   4   5-1554.57 1008.19   3
  -3   4  -5 377.750 741.325   3
  -4  -3  -5 1345.82 934.730   1
  -3  -4  -5 1327.95 791.857   1
  -4  -3  -5 174.195 1505.01   2
  -4  -3  -7 156551. 9597.55   1
  -3  -4  -7 136818. 9467.13   1
  -4  -3  -7 136921. 11621.4   2
  -3  -4  -7 194569. 19734.1   2
  -3  -4   7 148603. 9729.99   1
  -4  -3   7 154710. 9122.36   1
  -4  -3   7 155133. 11766.7   3
  -4   3   7 163603. 12115.4   3
  -3   4   7 147453. 11702.7   3
  -4   3  -7 168595. 11798.5   3
  -3   4  -7 163793. 12272.3   3
  -4  -3   9 13560.4 3540.65   3
  -4   3   9 10559.3 3216.00   3
  -3  -4   9 18341.5 3379.86   1
  -3   4   9 22846.0 4618.81   3
  -4  -3   9 14578.3 2700.39   1
  -4   3  -9 17066.2 3670.02   3
  -3   4  -9 16552.8 3898.35   3
  -4  -3  -9 13156.1 2890.79   1
  -3  -4  -9 14396.4 3325.08   1
  -4  -3  -9 17557.8 4210.33   2
  -3  -4  -9 21328.1 6752.17   2
  -3  -4 -11 7596.07 4190.77   2
  -4  -3  11 1272.49 1746.17   3
  -4   3  11 4885.89 2632.59   3
  -3   4  11 4356.64 2424.21   3
  -4   3 -11 3095.11 810.094   3
  -3  -4  11 2771.29 1550.84   1
  -3   4 -11 5286.33 2123.58   3
  -4  -3  11 2399.61 1245.83   1
  -4  -3 -11 5893.71 1997.50   1
  -3  -4 -11 4896.23 1729.81   1
  -4  -3 -11 8388.44 3099.78   2
  -3  -4 -13 20236.1 5603.27   2
  -4  -3  13 29296.0 6142.89   3
   3  -4  13 17428.6 4193.98   1
  -4   3  13 18632.7 4252.67   3
  -3   4  13 26304.9 5319.70   3
  -3   4 -13 22356.6 4468.57   3
  -4   3 -13 25170.5 4508.42   2
  -4  -3 -13 24869.3 4259.22   1
  -3  -4  13 28216.2 4503.97   1
  -3  -4 -13 22031.6 4210.87   1
  -4  -3  13 21160.0 3263.46   1
  -4  -3 -13 24269.1 5109.82   2
  -4   3 -13 26703.3 4622.55   3
  -3  -4 -15 5282.46 2974.46   2
  -4  -3  15 3187.13 2131.21   3
   3  -4  15 5708.65 2527.75   1
  -4   3  15 6781.35 3142.37   3
  -3   4  15 10645.2 3237.84   3
  -4   3 -15 5191.47 2178.11   3
  -3   4 -15 1608.83 1183.70   3
  -3  -4  15 5121.64 2072.54   1
  -4   3 -15 5246.23 2481.31   4
  -4  -3 -15 4510.28 1759.97   1
  -3  -4 -15 6482.86 2439.00   1
  -4   3 -15 9054.67 2474.35   2
  -4  -3 -15 4492.98 2291.14   2
  -4  -3  17 40502.5 8213.17   3
   3  -4  17 36310.2 6707.99   1
  -3   4 -17 63877.0 8005.42   4
  -4   3 -17 67258.2 7689.09   4
  -3  -4 -17 52511.5 6782.07   1
  -4   3 -17 65945.2 7268.05   2
  -4  -3 -17 50632.7 8324.53   2
  -3  -4 -17 61237.5 9537.81   2
  -3  -4  17 60509.5 6964.23   1
  -4   3  17 49289.7 7727.00   3
  -3   4  17 46251.2 7595.85   3
  -4   3 -17 57839.0 6737.74   3
  -3   4 -17 49779.0 6877.13   3
   0  -5  -1 3775.58 1787.80   1
   0  -5   1 3199.25 1681.04   1
  -5   0   1 6839.85 2114.86   3
  -5   0  -1 4116.42 1695.03   3
  -5   0   1 2328.83 1216.33   4
  -5   0  -1 3515.26 1479.18   4
  -5   0   3 19784.7 3627.43   3
  -5   0  -3 24998.2 4309.64   2
  -5   0  -3 24510.9 3958.42   4
   0  -5  -3 25518.8 4224.23   1
  -5   0   3 22168.7 3635.03   4
   0  -5   3 22376.7 3846.84   1
  -5   0  -3 22619.0 3939.27   3
  -5   0   5-301.126 412.407   3
  -5   0  -5 450.693 1077.56   3
   0  -5   5-149.298 446.523   1
  -5   0  -5 178.128 1057.76   4
  -5   0  -5-390.904 1010.72   2
   0  -5  -5 182.920 399.429   1
  -5   0  -7 160421. 10622.5   4
  -5   0  -7 157325. 11302.3   2
   0  -5  -7 161799. 10536.1   1
   0  -5   7 148431. 10230.9   1
  -5   0   7 141453. 10262.1   3
  -5   0  -7 153358. 9526.25   3
  -5   0   9 18418.4 3883.67   3
  -5   0  -9 11538.9 2704.04   3
   0  -5   9 13242.7 3092.81   1
   0  -5  -9 20120.1 3719.17   1
  -5   0  -9 12124.6 3033.36   4
  -5   0  -9 19279.3 3837.24   2
  -5   0  11 2934.68 1707.60   3
   0  -5 -11 4720.66 1621.99   2
   0  -5  11 2283.94 860.885   1
  -5   0 -11 420.372 1010.96   4
  -5   0 -11 6752.94 2238.16   2
   0  -5 -11 3409.19 1653.57   1
   0  -5 -13 20381.9 3944.97   2
   0  -5 -13 23799.1 4131.36   1
   0  -5 -13 22543.4 3930.04   4
  -5   0 -13 23324.6 4503.63   4
   0  -5  13 21575.2 4223.17   1
  -5   0  13 26702.2 5019.31   3
  -5   0 -13 21784.2 4190.78   2
  -5   0  15 9169.15 3212.51   3
   0  -5 -15 6281.96 2213.07   2
   0  -5  15 9064.75 2902.33   1
  -5   0 -15 6534.91 2769.38   4
   0  -5 -15 6169.51 2048.51   4
   0  -5 -15 7402.57 2312.44   1
  -5   0 -15 6621.18 2642.92   2
  -5   0 -17 55084.6 7296.18   4
  -5   0 -17 52215.3 6724.07   2
   0  -5 -17 46661.3 6020.36   1
   0  -5 -17 43382.5 5556.29   4
   0  -5 -17 45122.3 6874.41   2
   0  -5  17 46219.1 6364.97   1
  -5   0  17 63276.7 8394.68   3
  -5  -1   0 162016. 11175.7   2
  -1  -5   0 137484. 9833.43   1
   1  -5   0 137801. 9531.16   1
  -5  -1   0 134526. 9165.72   3
  -5   1   0 159311. 10930.2   3
  -1   5   0 123034. 11176.9   3
  -1  -5   2 9092.39 2638.08   1
  -5  -1   2 9141.56 2442.43   3
  -5  -1  -2 13224.7 2771.94   3
  -5   1   2 6290.68 2359.51   3
   1  -5  -2 6755.37 2060.38   1
  -5   1  -2 10296.1 2870.71   3
   1  -5   2 2919.67 1101.68   1
  -1   5   2 8009.96 2824.08   3
  -1   5  -2 10127.7 3111.94   3
  -5  -1   2 8810.86 2740.14   2
  -5  -1  -2 9617.82 2876.96   2
  -1  -5  -2 11582.3 2922.59   1
   1  -5  -4 15611.5 3182.41   1
  -5  -1   4 12614.1 3013.45   3
  -1  -5   4 9293.11 2733.06   1
  -5  -1  -4 13285.5 2762.01   3
  -5   1   4 13370.8 3045.80   3
  -5   1  -4 18025.7 3736.16   3
  -1   5   4 8725.16 2680.37   3
   1  -5   4 17373.8 3395.38   1
  -5   1  -4 16737.6 3804.02   4
  -5  -1   4 14376.7 3237.48   2
  -5  -1  -4 18772.3 3785.07   2
  -1  -5  -4 16265.3 3499.88   1
   1  -5  -6 14086.5 2854.21   1
  -5  -1   6 11917.3 2956.07   3
  -5   1   6 11305.1 2958.65   3
  -5   1  -6 16073.8 3443.43   3
  -1  -5   6 11575.3 3108.83   1
  -1   5   6 9619.79 2810.64   3
   1  -5   6 12877.3 3018.59   1
  -5   1  -6 16065.6 3552.96   4
  -5   1  -6 12421.0 2977.01   2
  -5  -1   6 10537.1 3020.37   2
  -5  -1  -6 12831.6 3231.97   2
  -1  -5  -6 11749.6 2928.19   1
  -5  -1   8 19202.6 3773.95   3
  -5   1   8 18199.8 3724.50   3
  -1   5   8 21805.0 4918.43   3
  -5   1  -8 22950.0 4212.62   2
  -1  -5  -8 22442.2 4229.47   1
   1  -5   8 15363.3 3356.53   1
   1  -5  -8 25203.4 3986.21   1
  -5   1  -8 20548.8 3968.12   4
  -1  -5   8 21901.6 3971.60   1
  -5  -1  -8 18240.3 3651.14   2
  -5   1  -8 28047.5 4475.73   3
  -5  -1  10 21827.1 3946.25   3
  -5   1  10 21754.1 4419.84   3
  -1   5  10 23827.3 5133.60   3
  -5  -1 -10 34020.1 5163.50   2
   1  -5  10 22378.9 3982.16   1
   1  -5 -10 24698.2 4009.82   1
  -5   1 -10 26123.9 4596.72   4
  -1  -5  10 31452.8 5016.93   1
   1  -5 -10 23012.2 3606.95   2
  -5   1 -10 17331.6 3814.61   2
  -1  -5 -10 20846.8 4197.71   1
  -5   1 -10 27726.8 4279.27   3
  -5  -1  12 7934.85 2965.83   3
  -5   1  12 8546.26 2700.76   3
  -5   1 -12 10019.1 2502.06   3
  -1   5  12 5350.57 2615.99   3
   1  -5 -12 11638.0 3035.48   2
  -1  -5  12 6760.48 2113.84   1
   1  -5  12 3708.01 1945.28   1
  -5   1 -12 14491.9 3593.12   4
  -5  -1 -12 5657.72 2282.40   4
  -1  -5 -12 9935.63 2433.79   1
  -5   1 -12 12832.4 3555.40   2
  -5  -1 -12 10989.6 2976.82   2
   1  -5 -12 6870.78 2054.78   1
  -5   1 -14 116803. 10202.3   4
  -5   1 -14 108427. 9578.35   2
  -5  -1 -14 88974.9 9689.53   4
  -1  -5 -14 114967. 9796.75   1
  -5  -1 -14 105993. 9562.70   2
   1  -5 -14 106433. 8354.96   1
  -1  -5  14 98543.3 9215.49   1
   1  -5 -14 88767.5 8140.91   2
   1  -5  14 99384.0 9179.52   1
  -5  -1  14 86868.8 9258.46   3
  -5   1  14 110837. 10594.0   3
  -5   1 -14 99101.0 7794.14   3
  -1   5  14 86151.4 9916.02   3
  -5  -2   1 1908.72 1552.28   3
  -5   2   1 1396.35 1410.66   3
  -5   2  -1 5556.53 2664.04   3
  -2   5   1 1801.76 1012.97   3
  -2   5  -1 1799.87 1692.17   3
   2  -5  -1 3324.14 1760.97   1
   2  -5   1 877.513 978.604   1
  -5  -2   1 367.314 1178.72   2
  -5  -2  -1 2149.97 1696.12   2
  -2  -5  -1 1526.29 1323.39   1
  -2  -5   1 3157.70 1610.56   1
  -2  -5   3 16111.5 3235.44   1
  -5  -2   3 12223.5 2841.64   3
  -5   2   3 14831.7 3593.21   3
  -5   2  -3 17097.0 3674.73   3
  -2   5   3 10344.2 3536.50   3
  -2   5  -3 13196.5 3513.99   3
   2  -5  -3 13565.3 3084.27   1
   2  -5   3 13004.6 3130.40   1
  -5  -2   3 17853.6 3535.45   2
  -5  -2  -3 11661.8 2817.51   2
  -2  -5  -3 13459.1 3127.60   1
  -5  -2   5 905.232 200.363   3
  -2  -5   5 1238.20 1280.78   1
  -5   2   5-407.499 871.287   3
  -5   2  -5 917.963 1501.79   3
  -2   5   5-667.690 893.930   3
  -2   5  -5 555.668 1288.88   3
   2  -5   5 2274.38 1232.26   1
  -5  -2   5 1571.79 1417.72   2
  -5  -2  -5-341.997 1044.84   2
  -2  -5  -5 1098.83 936.798   1
  -5  -2   7 124013. 9666.84   2
  -5  -2  -7 107826. 9518.11   2
  -2  -5  -7 127983. 10137.6   1
  -2  -5   7 125780. 9764.45   1
   2  -5   7 122127. 9469.67   1
  -5  -2   7 116758. 9513.50   3
  -5   2   7 137205. 11183.5   3
  -5   2  -7 131819. 10381.0   3
  -2   5   7 105714. 10832.3   3
  -2   5  -7 135769. 12111.8   3
   0   0   0    0.00    0.00   0

TITL C9_QDG_5_2_100K in I4/mmm
REM I4/mmm (#139 in standard setting)
CELL 0.71073   3.897860   3.897860  29.829121  90.0000  90.0000  90.0000
ZERR    2.00   0.000116   0.000116   0.001299   0.0000   0.0000   0.0000
LATT  2
SYMM -x,-y, z
SYMM -y, x, z
SYMM  y,-x, z
SYMM -x, y,-z
SYMM  x,-y,-z
SYMM  y, x,-z
SYMM -y,-x,-z
SFAC O Cl Cu Se Bi
UNIT 8.00 0.60 3.40 5.40 8.00
TREF
HKLF 4
END
;
_shelx_hkl_checksum              22311
_shelx_shelxl_version_number     2014/7
_olex2_submission_special_instructions 'No special instructions were received'
_oxdiff_exptl_absorpt_empirical_details
;
Empirical correction (ABSPACK) includes:
- Absorption correction using spherical harmonics
- Frame scaling
- Detector area scaling
;
_oxdiff_exptl_absorpt_empirical_full_max 3.519
_oxdiff_exptl_absorpt_empirical_full_min 0.618
loop_
_space_group_symop_operation_xyz
'x, y, z'
'-x, -y, z'
'-y, x, z'
'y, -x, z'
'-x, y, -z'
'x, -y, -z'
'y, x, -z'
'-y, -x, -z'
'x+1/2, y+1/2, z+1/2'
'-x+1/2, -y+1/2, z+1/2'
'-y+1/2, x+1/2, z+1/2'
'y+1/2, -x+1/2, z+1/2'
'-x+1/2, y+1/2, -z+1/2'
'x+1/2, -y+1/2, -z+1/2'
'y+1/2, x+1/2, -z+1/2'
'-y+1/2, -x+1/2, -z+1/2'
'-x, -y, -z'
'x, y, -z'
'y, -x, -z'
'-y, x, -z'
'x, -y, z'
'-x, y, z'
'-y, -x, z'
'y, x, z'
'-x+1/2, -y+1/2, -z+1/2'
'x+1/2, y+1/2, -z+1/2'
'y+1/2, -x+1/2, -z+1/2'
'-y+1/2, x+1/2, -z+1/2'
'x+1/2, -y+1/2, z+1/2'
'-x+1/2, y+1/2, z+1/2'
'-y+1/2, -x+1/2, z+1/2'
'y+1/2, x+1/2, z+1/2'
loop_
_atom_site_label
_atom_site_type_symbol
_atom_site_fract_x
_atom_site_fract_y
_atom_site_fract_z
_atom_site_U_iso_or_equiv
_atom_site_adp_type
_atom_site_occupancy
_atom_site_site_symmetry_order
_atom_site_calc_flag
_atom_site_refinement_flags_posn
_atom_site_refinement_flags_adp
_atom_site_refinement_flags_occupancy
_atom_site_disorder_assembly
_atom_site_disorder_group
Bi01 Bi 1.0000 1.0000 0.43946(3) 0.0093(3) Uani 1 8 d S T P . .
Bi02 Bi 0.5000 0.5000 0.35548(3) 0.0105(3) Uani 1 8 d S T P . .
Se03 Se 0.0000 0.0000 0.30257(7) 0.0062(4) Uani 1 8 d S T P . .
Se04 Se 0.5000 0.5000 0.5000 0.0060(10) Uani 0.68(2) 16 d S T P A 3
Cu05 Cu -0.5000 0.0000 0.2500 0.0077(9) Uani 0.864(12) 8 d S T P . .
O006 O 0.5000 1.0000 0.3993(3) 0.010(2) Uani 1 4 d S T P . .
Cl Cl 0.5000 0.5000 0.5000 0.0060(10) Uani 0.32(2) 16 d S T P A 4
loop_
_atom_site_aniso_label
_atom_site_aniso_U_11
_atom_site_aniso_U_22
_atom_site_aniso_U_33
_atom_site_aniso_U_23
_atom_site_aniso_U_13
_atom_site_aniso_U_12
Bi01 0.0090(3) 0.0090(3) 0.0099(4) 0.000 0.000 0.000
Bi02 0.0086(3) 0.0086(3) 0.0143(4) 0.000 0.000 0.000
Se03 0.0061(6) 0.0061(6) 0.0064(9) 0.000 0.000 0.000
Se04 0.0034(12) 0.0034(12) 0.0113(17) 0.000 0.000 0.000
Cu05 0.0069(11) 0.0069(11) 0.0091(15) 0.000 0.000 0.000
O006 0.008(5) 0.007(5) 0.015(6) 0.000 0.000 0.000
Cl 0.0034(12) 0.0034(12) 0.0113(17) 0.000 0.000 0.000
loop_
_atom_type_symbol
_atom_type_description
_atom_type_scat_dispersion_real
_atom_type_scat_dispersion_imag
_atom_type_scat_source
Bi Bi -4.1077 10.2566 'International Tables Vol C Tables 4.2.6.8 and 6.1.1.4'
Cl Cl 0.1484 0.1585 'International Tables Vol C Tables 4.2.6.8 and 6.1.1.4'
Cu Cu 0.3201 1.2651 'International Tables Vol C Tables 4.2.6.8 and 6.1.1.4'
O O 0.0106 0.0060 'International Tables Vol C Tables 4.2.6.8 and 6.1.1.4'
Se Se -0.0929 2.2259 'International Tables Vol C Tables 4.2.6.8 and 6.1.1.4'
loop_
_geom_angle_atom_site_label_1
_geom_angle_atom_site_label_2
_geom_angle_atom_site_label_3
_geom_angle
_geom_angle_site_symmetry_1
_geom_angle_site_symmetry_3
O006 Bi01 Bi01 121.6(2) 3_755 17_776
O006 Bi01 Bi01 121.6(2) . 17_776
O006 Bi01 Bi01 121.6(2) 1_655 17_776
O006 Bi01 Bi01 121.6(2) 3_765 17_776
O006 Bi01 O006 74.1(2) 3_755 1_655
O006 Bi01 O006 74.1(2) 3_765 1_655
O006 Bi01 O006 116.8(4) 1_655 .
O006 Bi01 O006 74.1(2) 3_765 .
O006 Bi01 O006 74.1(2) 3_755 .
O006 Bi01 O006 116.8(4) 3_755 3_765
Se03 Bi02 Se03 120.41(7) . 1_665
Se03 Bi02 Se03 120.40(7) 1_565 1_655
Se03 Bi02 Se03 75.70(3) 1_665 1_655
Se03 Bi02 Se03 75.70(3) 1_665 1_565
Se03 Bi02 Se03 75.70(3) . 1_655
Se03 Bi02 Se03 75.70(3) . 1_565
O006 Bi02 Se03 141.85(3) . .
O006 Bi02 Se03 141.85(3) . 1_655
O006 Bi02 Se03 141.85(3) 3_755 .
O006 Bi02 Se03 141.85(3) 1_545 1_565
O006 Bi02 Se03 76.52(16) 3_755 1_655
O006 Bi02 Se03 76.52(16) 1_545 .
O006 Bi02 Se03 141.85(3) 3_755 1_565
O006 Bi02 Se03 76.52(16) . 1_665
O006 Bi02 Se03 76.52(16) 3_755 1_665
O006 Bi02 Se03 76.52(16) 3_655 .
O006 Bi02 Se03 141.85(3) 3_655 1_655
O006 Bi02 Se03 141.85(3) 1_545 1_665
O006 Bi02 Se03 76.52(16) . 1_565
O006 Bi02 Se03 76.52(16) 1_545 1_655
O006 Bi02 Se03 76.52(16) 3_655 1_565
O006 Bi02 Se03 141.85(3) 3_655 1_665
O006 Bi02 O006 71.9(2) . 3_655
O006 Bi02 O006 71.9(2) 3_655 1_545
O006 Bi02 O006 112.3(4) . 1_545
O006 Bi02 O006 71.9(2) . 3_755
O006 Bi02 O006 112.3(4) 3_755 3_655
O006 Bi02 O006 71.9(2) 3_755 1_545
Bi02 Se03 Bi02 120.41(7) . 1_445
Bi02 Se03 Bi02 75.70(3) 1_445 1_545
Bi02 Se03 Bi02 75.70(3) . 1_545
Bi02 Se03 Bi02 75.70(3) . 1_455
Bi02 Se03 Bi02 120.40(7) 1_545 1_455
Bi02 Se03 Bi02 75.70(3) 1_445 1_455
Cu05 Se03 Bi02 142.148(15) 1_655 1_445
Cu05 Se03 Bi02 80.411(11) 25_445 1_445
Cu05 Se03 Bi02 80.411(11) 25_445 1_545
Cu05 Se03 Bi02 142.148(15) . .
Cu05 Se03 Bi02 142.148(15) 1_655 1_455
Cu05 Se03 Bi02 80.411(11) . 1_445
Cu05 Se03 Bi02 142.148(15) 25_455 1_545
Cu05 Se03 Bi02 142.148(15) 25_455 1_445
Cu05 Se03 Bi02 142.148(15) 25_445 1_455
Cu05 Se03 Bi02 80.411(11) . 1_455
Cu05 Se03 Bi02 80.409(11) 25_455 .
Cu05 Se03 Bi02 80.409(11) 1_655 .
Cu05 Se03 Bi02 80.411(11) 25_455 1_455
Cu05 Se03 Bi02 142.148(15) . 1_545
Cu05 Se03 Bi02 80.411(11) 1_655 1_545
Cu05 Se03 Bi02 142.148(15) 25_445 .
Cu05 Se03 Cu05 66.86(4) . 25_455
Cu05 Se03 Cu05 66.86(4) 25_445 .
Cu05 Se03 Cu05 66.86(4) 25_455 1_655
Cu05 Se03 Cu05 66.86(4) 25_445 1_655
Cu05 Se03 Cu05 102.36(7) . 1_655
Cu05 Se03 Cu05 102.36(7) 25_445 25_455
Se03 Cu05 Se03 113.14(4) 25_445 1_455
Se03 Cu05 Se03 102.37(7) 1_455 .
Se03 Cu05 Se03 113.14(4) 25_455 .
Se03 Cu05 Se03 113.14(4) 25_455 1_455
Se03 Cu05 Se03 113.14(4) 25_445 .
Se03 Cu05 Se03 102.37(7) 25_445 25_455
Se03 Cu05 Cu05 56.568(19) 25_455 25_455
Se03 Cu05 Cu05 56.569(19) . 25_445
Se03 Cu05 Cu05 123.432(19) 25_445 25_455
Se03 Cu05 Cu05 123.431(19) . 25_345
Se03 Cu05 Cu05 56.568(19) 25_455 25_355
Se03 Cu05 Cu05 123.432(19) 25_445 25_355
Se03 Cu05 Cu05 123.432(19) 1_455 25_455
Se03 Cu05 Cu05 123.432(19) 25_455 25_445
Se03 Cu05 Cu05 123.432(19) 25_455 25_345
Se03 Cu05 Cu05 56.568(19) 1_455 25_355
Se03 Cu05 Cu05 123.431(19) . 25_355
Se03 Cu05 Cu05 123.432(19) 1_455 25_445
Se03 Cu05 Cu05 56.568(19) 1_455 25_345
Se03 Cu05 Cu05 56.568(19) 25_445 25_345
Se03 Cu05 Cu05 56.569(19) . 25_455
Se03 Cu05 Cu05 56.568(19) 25_445 25_445
Cu05 Cu05 Cu05 180.0 25_455 25_345
Cu05 Cu05 Cu05 90.0 25_345 25_355
Cu05 Cu05 Cu05 90.0 25_455 25_355
Cu05 Cu05 Cu05 90.0 25_455 25_445
Cu05 Cu05 Cu05 90.0 25_345 25_445
Cu05 Cu05 Cu05 180.0 25_445 25_355
Bi01 O006 Bi01 116.8(4) . 1_455
Bi01 O006 Bi02 106.962(19) . .
Bi01 O006 Bi02 106.962(19) 1_455 .
Bi01 O006 Bi02 106.961(19) . 1_565
Bi01 O006 Bi02 106.961(19) 1_455 1_565
Bi02 O006 Bi02 112.3(4) 1_565 .
loop_
_geom_bond_atom_site_label_1
_geom_bond_atom_site_label_2
_geom_bond_distance
_geom_bond_site_symmetry_2
Bi01 Bi01 3.6115(16) 17_776
Bi01 O006 2.288(5) 1_655
Bi01 O006 2.288(5) 3_755
Bi01 O006 2.288(5) 3_765
Bi01 O006 2.288(5) .
Bi02 Se03 3.1762(11) 1_665
Bi02 Se03 3.1761(11) .
Bi02 Se03 3.1762(11) 1_655
Bi02 Se03 3.1762(11) 1_565
Bi02 O006 2.346(6) .
Bi02 O006 2.346(6) 1_545
Bi02 O006 2.346(6) 3_655
Bi02 O006 2.346(6) 3_755
Se03 Bi02 3.1762(11) 1_545
Se03 Bi02 3.1762(11) 1_455
Se03 Bi02 3.1762(11) 1_445
Se03 Cu05 2.5014(13) 25_455
Se03 Cu05 2.5014(13) .
Se03 Cu05 2.5014(13) 1_655
Se03 Cu05 2.5014(13) 25_445
Cu05 Se03 2.5014(13) 25_445
Cu05 Se03 2.5013(13) 25_455
Cu05 Se03 2.5013(13) 1_455
Cu05 Cu05 2.75623(7) 25_455
Cu05 Cu05 2.75623(7) 25_345
Cu05 Cu05 2.75623(7) 25_355
Cu05 Cu05 2.75623(7) 25_445
O006 Bi01 2.288(5) 1_455
O006 Bi02 2.346(6) 1_565
