#------------------------------------------------------------------------------
#$Date: 2017-07-25 03:02:39 +0300 (Tue, 25 Jul 2017) $
#$Revision: 198965 $
#$URL: file:///home/coder/svn-repositories/cod/cif/4/12/62/4126298.cif $
#------------------------------------------------------------------------------
#
# This file is available in the Crystallography Open Database (COD),
# http://www.crystallography.net/
#
# All data on this site have been placed in the public domain by the
# contributors.
#
data_4126298
loop_
_publ_author_name
'Sharber, Seth A.'
'Baral, Rom Nath'
'Frausto, Fanny'
'Haas, Terry E.'
'M\"uller, Peter'
'Thomas Iii, Samuel W.'
_publ_section_title
;
 Substituent Effects That Control Conjugated Oligomer Conformation through
 Non-covalent Interactions.
;
_journal_name_full               'Journal of the American Chemical Society'
_journal_paper_doi               10.1021/jacs.7b00878
_journal_year                    2017
_chemical_formula_sum            'C40 H18 F14 O4'
_chemical_formula_weight         828.54
_space_group_crystal_system      triclinic
_space_group_IT_number           2
_space_group_name_Hall           '-P 1'
_space_group_name_H-M_alt        'P -1'
_symmetry_space_group_name_Hall  '-P 1'
_symmetry_space_group_name_H-M   'P -1'
_atom_sites_solution_hydrogens   geom
_audit_creation_method           SHELXL-2014/7
_audit_update_record
;
2016-11-15 # Formatted by publCIF

;
_cell_angle_alpha                77.396(3)
_cell_angle_beta                 85.184(3)
_cell_angle_gamma                79.972(3)
_cell_formula_units_Z            1
_cell_length_a                   4.3521(7)
_cell_length_b                   11.0812(17)
_cell_length_c                   17.984(3)
_cell_measurement_reflns_used    6260
_cell_measurement_temperature    100(2)
_cell_measurement_theta_max      25.58
_cell_measurement_theta_min      2.32
_cell_volume                     832.5(2)
_computing_structure_refinement  'SHELXL-2014/7 (Sheldrick, 2014)'
_diffrn_ambient_temperature      100(2)
_diffrn_measured_fraction_theta_full 0.997
_diffrn_measured_fraction_theta_max 0.992
_diffrn_measurement_device_type  'Bruker APEX-II CCD'
_diffrn_radiation_type           MoK\a
_diffrn_radiation_wavelength     0.71073
_diffrn_reflns_av_R_equivalents  0.0280
_diffrn_reflns_av_unetI/netI     0.0276
_diffrn_reflns_Laue_measured_fraction_full 0.997
_diffrn_reflns_Laue_measured_fraction_max 0.992
_diffrn_reflns_limit_h_max       5
_diffrn_reflns_limit_h_min       -5
_diffrn_reflns_limit_k_max       13
_diffrn_reflns_limit_k_min       -13
_diffrn_reflns_limit_l_max       21
_diffrn_reflns_limit_l_min       -21
_diffrn_reflns_number            10936
_diffrn_reflns_point_group_measured_fraction_full 0.997
_diffrn_reflns_point_group_measured_fraction_max 0.992
_diffrn_reflns_theta_full        25.242
_diffrn_reflns_theta_max         25.610
_diffrn_reflns_theta_min         1.162
_exptl_absorpt_coefficient_mu    0.159
_exptl_absorpt_correction_type   multi-scan
_exptl_absorpt_process_details   SADABS-2014/5
_exptl_crystal_colour            Colorless
_exptl_crystal_density_diffrn    1.653
_exptl_crystal_description       Prism
_exptl_crystal_F_000             416
_exptl_crystal_size_max          2.000
_exptl_crystal_size_mid          1.000
_exptl_crystal_size_min          1.000
_exptl_transmission_factor_max   0.8670
_exptl_transmission_factor_min   0.7580
_refine_diff_density_max         0.342
_refine_diff_density_min         -0.232
_refine_diff_density_rms         0.060
_refine_ls_extinction_method     none
_refine_ls_goodness_of_fit_ref   1.109
_refine_ls_hydrogen_treatment    constr
_refine_ls_matrix_type           full
_refine_ls_number_parameters     290
_refine_ls_number_reflns         3132
_refine_ls_number_restraints     27
_refine_ls_restrained_S_all      1.105
_refine_ls_R_factor_all          0.0531
_refine_ls_R_factor_gt           0.0400
_refine_ls_shift/su_max          0.000
_refine_ls_shift/su_mean         0.000
_refine_ls_structure_factor_coef Fsqd
_refine_ls_weighting_details
'w=1/[\s^2^(Fo^2^)+(0.0567P)^2^+0.5018P] where P=(Fo^2^+2Fc^2^)/3'
_refine_ls_weighting_scheme      calc
_refine_ls_wR_factor_gt          0.1042
_refine_ls_wR_factor_ref         0.1242
_reflns_Friedel_coverage         0.000
_reflns_number_gt                2562
_reflns_number_total             3132
_reflns_threshold_expression     'I > 2\s(I)'
_cod_data_source_file            ja7b00878_si_002.cif
_cod_data_source_block           CF3-F3_Blue
_cod_database_code               4126298
_shelx_shelxl_version_number     2014/7
_shelx_space_group_comment
;
The symmetry employed for this shelxl refinement is uniquely defined
by the following loop, which should always be used as a source of
symmetry information in preference to the above space-group names.
They are only intended as comments.
;
_shelx_estimated_absorpt_t_min   0.742
_shelx_estimated_absorpt_t_max   0.857
_shelx_res_file
;

    FF1.res created by SHELXL-2014/7


TITL FF161017 in P-1
CELL 0.71073   4.35210  11.08120  17.98440  77.3962  85.1839  79.9720
ZERR    1.00   0.00070   0.00170   0.00280   0.0030   0.0031   0.0032
LATT  1
SFAC C H O F
UNIT 40 18 4 14
TEMP -173.150
SIZE 1.00 1.00 2.00

L.S. 10
BOND
FMAP 2
PLAN 10
ACTA

SIMU C1 C2 C3 C5 C6

WGHT    0.056700    0.501800
FVAR       0.24745   0.50202
O1    3    0.492165    0.753990    0.558774    11.00000    0.02347    0.02098 =
         0.02072   -0.00222    0.00155   -0.00496
O2    3    0.679899    0.764820    0.437481    11.00000    0.02450    0.01838 =
         0.01893   -0.00535   -0.00021   -0.00603
SAME F2B F2C F2A
REM ******Disorder of CF3**********
PART 1
F1A   4    0.138727    0.820267    1.054180    21.00000    0.11558    0.11056 =
         0.02909   -0.02817    0.02624   -0.05018
F1B   4   -0.045674    0.670122    1.027049    21.00000    0.04700    0.09822 =
         0.02620    0.00704    0.00506   -0.03144
F1C   4    0.432177    0.643822    1.051196    21.00000    0.06184    0.10759 =
         0.02418    0.01720   -0.00960   -0.01798
C1AB  1    0.206163    0.727301    1.015982   -21.00000    0.04459    0.07732 =
         0.02509   -0.00809    0.00037   -0.01653
PART 2
C1AA  1    0.204844    0.791552    1.021972    21.00000    0.03680    0.05518 =
         0.02290   -0.00700    0.00355   -0.00885
F2A   4    0.352245    0.847715    1.063599   -21.00000    0.07189    0.07205 =
         0.01957   -0.01116    0.00288   -0.03144
F2B   4   -0.097058    0.830951    1.032382   -21.00000    0.03989    0.13908 =
         0.02523   -0.01840    0.00753   -0.01022
F2C   4    0.257407    0.671868    1.054991   -21.00000    0.10235    0.05680 =
         0.02595    0.00569    0.00750   -0.02491
PART 0
C1    1    0.301503    0.795072    0.936875    11.00000    0.03430    0.11512 =
         0.01896    0.01419    0.00198    0.00841
C2    1    0.257601    0.719680    0.888771    11.00000    0.04560    0.11825 =
         0.03562    0.02779   -0.00435   -0.04119
AFIX  43
H2    2    0.160891    0.647813    0.907887    11.00000   -1.20000
AFIX   0
C3    1    0.353289    0.747771    0.812747    11.00000    0.04259    0.06686 =
         0.02691    0.00977   -0.00363   -0.02665
AFIX  43
H3    2    0.320780    0.695573    0.779623    11.00000   -1.20000
AFIX   0
C4    1    0.495910    0.851346    0.784717    11.00000    0.02811    0.03169 =
         0.01941    0.00194    0.00055    0.00125
C5    1    0.534024    0.927501    0.833785    11.00000    0.08488    0.03875 =
         0.02062   -0.00487    0.00238   -0.00028
AFIX  43
H5    2    0.629219    0.999891    0.815160    11.00000   -1.20000
AFIX   0
C6    1    0.435184    0.899137    0.909202    11.00000    0.09582    0.07036 =
         0.01780   -0.00827    0.00439    0.01744
AFIX  43
H6    2    0.460340    0.952540    0.942253    11.00000   -1.20000
AFIX   0
C7    1    0.611100    0.878996    0.707234    11.00000    0.02530    0.02228 =
         0.02011   -0.00200   -0.00286   -0.00295
C8    1    0.714775    0.902141    0.642860    11.00000    0.02044    0.01737 =
         0.02032   -0.00354   -0.00414   -0.00188
C9    1    0.855524    0.947199    0.569740    11.00000    0.01577    0.01568 =
         0.01760   -0.00040   -0.00283    0.00228
C10   1    0.828807    0.902823    0.503430    11.00000    0.01619    0.01449 =
         0.01774   -0.00146   -0.00360    0.00175
C11   1    0.972471    0.956386    0.435414    11.00000    0.01821    0.01693 =
         0.01614   -0.00347   -0.00382    0.00190
AFIX  43
H11   2    0.952696    0.926163    0.390793    11.00000   -1.20000
AFIX   0
C12   1    0.646372    0.800207    0.505234    11.00000    0.01719    0.01590 =
         0.01753   -0.00171   -0.00333    0.00353
C13   1    0.510565    0.666008    0.431754    11.00000    0.02002    0.01850 =
         0.02554   -0.00535   -0.00140   -0.00589
AFIX  23
H13A  2    0.285598    0.699313    0.425979    11.00000   -1.20000
H13B  2    0.533731    0.598621    0.478155    11.00000   -1.20000
AFIX   0
C14   1    0.646985    0.616641    0.363231    11.00000    0.02144    0.01951 =
         0.02149   -0.00472   -0.00218   -0.00797
F15   4    0.962337    0.450759    0.438219    11.00000    0.03147    0.02905 =
         0.02261   -0.00194   -0.00419    0.00482
C15   1    0.871441    0.510530    0.368442    11.00000    0.02578    0.02048 =
         0.01926   -0.00244   -0.00179   -0.00678
C16   1    1.008549    0.462644    0.307172    11.00000    0.04439    0.02109 =
         0.02971   -0.00764    0.00923   -0.00691
AFIX  43
H16   2    1.159255    0.388491    0.313233    11.00000   -1.20000
AFIX   0
F17   4    1.046418    0.485277    0.175080    11.00000    0.11887    0.04124 =
         0.02589   -0.01578    0.02598   -0.02350
C17   1    0.915080    0.528167    0.236778    11.00000    0.06509    0.02930 =
         0.02188   -0.01146    0.01227   -0.02042
C18   1    0.693990    0.634544    0.225582    11.00000    0.06043    0.03298 =
         0.01866    0.00021   -0.00561   -0.01857
AFIX  43
H18   2    0.633031    0.677483    0.176001    11.00000   -1.20000
AFIX   0
F19   4    0.347029    0.779006    0.281669    11.00000    0.04948    0.03392 =
         0.03856    0.00626   -0.01302    0.00588
C19   1    0.565968    0.675427    0.289878    11.00000    0.03320    0.02235 =
         0.02712   -0.00063   -0.00623   -0.00683
HKLF 4

REM  FF161017 in P-1
REM R1 =  0.0400 for    2562 Fo > 4sig(Fo)  and  0.0531 for all    3132 data
REM    290 parameters refined using     27 restraints

END

WGHT      0.0567      0.5018

REM Highest difference peak  0.342,  deepest hole -0.232,  1-sigma level  0.060
Q1    1   0.3327  0.7433  0.9210  11.00000  0.05    0.34
Q2    1   0.3765  0.8359  0.9226  11.00000  0.05    0.33
Q3    1   0.2103  0.8238  0.9348  11.00000  0.05    0.25
Q4    1   0.7364  0.5650  0.2325  11.00000  0.05    0.23
Q5    1   0.8396  0.9242  0.5376  11.00000  0.05    0.23
Q6    1   0.5577  0.9004  0.9150  11.00000  0.05    0.22
Q7    1   0.6357  0.9692  0.9438  11.00000  0.05    0.22
Q8    1   0.2915  0.6614  0.8970  11.00000  0.05    0.22
Q9    1   0.3364  0.6797  0.8817  11.00000  0.05    0.21
Q10   1   0.3763  0.6990  0.8608  11.00000  0.05    0.19
;
_shelx_res_checksum              48302
_shelx_hkl_file
;
  -1   0   0   45.73    1.54
  -1   0   0   43.85    1.54
  -1   0   0   43.20    1.54
  -2   0   0   30.75    1.12
  -2   0   0   31.20    1.13
  -2   0   0   33.30    1.12
  -3   0   0   15.95    0.61
  -3   0   0   15.77    0.62
  -3   0   0   16.45    0.59
  -4   0   0   -0.27    0.18
  -4   0   0    0.14    0.13
  -4   0   0   -0.01    0.17
  -5   0   0    1.82    0.28
   5   0   0    1.83    0.24
  -5   1   0    0.65    0.18
  -5   1   0   -0.16    0.25
  -5   1   0    0.35    0.25
  -4   1   0   -0.19    0.19
  -4   1   0    0.04    0.14
  -4   1   0    0.12    0.18
  -3   1   0   -0.07    0.10
  -3   1   0    0.07    0.12
  -2   1   0   11.36    0.45
  -2   1   0   11.90    0.45
  -2   1   0   12.22    0.44
  -1   1   0  161.41    5.69
  -1   1   0  164.58    5.69
  -1   1   0  167.29    5.69
  -1  -1   0   79.04    2.76
  -1  -1   0   77.67    2.75
   1   1   0   81.77    2.75
   1   1   0   79.27    2.75
  -2  -1   0   37.59    1.29
  -2  -1   0   36.16    1.31
  -3  -1   0   25.57    0.93
  -3  -1   0   24.71    0.90
  -4  -1   0    2.15    0.31
   4   1   0    2.13    0.20
  -5  -1   0    0.77    0.25
   5   1   0    0.83    0.16
  -5   2   0    1.62    0.21
  -4   2   0    0.11    0.18
  -4   2   0    0.18    0.15
  -4   2   0    0.03    0.20
  -3   2   0    1.28    0.15
  -3   2   0    1.48    0.16
  -3   2   0    1.35    0.22
  -2   2   0  115.59    3.97
  -2   2   0  111.56    3.97
  -2   2   0  115.74    3.97
  -1   2   0  514.12   17.85
  -1   2   0  518.14   17.87
   0  -2   0   59.77    2.09
   0  -2   0   60.46    2.09
   0   2   0   60.84    2.09
   0   2   0   57.65    2.09
   0   2   0   62.80    2.09
  -1  -2   0  445.16   15.52
  -1  -2   0  446.99   15.55
   1   2   0  454.54   15.51
   1   2   0  447.58   15.52
  -2  -2   0   23.61    0.85
   2   2   0   23.24    0.83
  -3  -2   0    0.11    0.13
   3   2   0    0.06    0.09
  -4  -2   0   -0.15    0.20
   4   2   0   -0.16    0.12
  -5  -2   0    2.69    0.37
   5   2   0    2.45    0.27
  -4   3   0    0.45    0.20
  -4   3   0    0.74    0.16
  -3   3   0    4.88    0.30
  -3   3   0    5.25    0.26
  -2   3   0    1.09    0.12
  -2   3   0    1.10    0.12
   1  -3   0   18.02    0.65
  -1   3   0   18.91    0.66
  -1   3   0   17.99    0.65
  -1   3   0   18.72    0.67
  -1   3   0   18.85    0.65
   0  -3   0   83.40    2.83
   0  -3   0   82.54    2.83
   0   3   0   84.06    2.83
   0   3   0   77.87    2.83
   0   3   0   79.63    2.83
  -1  -3   0  449.93   15.67
  -1  -3   0  444.50   15.69
  -1  -3   0  458.87   15.71
   1   3   0  456.71   15.67
   1   3   0  457.01   15.70
  -2  -3   0    2.07    0.19
  -2  -3   0    2.26    0.13
  -2  -3   0    2.05    0.14
   2   3   0    2.18    0.14
  -3  -3   0    1.95    0.23
   3   3   0    1.72    0.16
   4   3   0    5.87    0.30
  -5  -3   0    0.83    0.25
   5   3   0    1.13    0.18
  -4   4   0   -0.02    0.20
  -3   4   0    9.59    0.40
  -3   4   0    9.53    0.44
  -2   4   0    2.89    0.17
  -2   4   0    2.77    0.22
   1  -4   0  102.88    3.49
  -1   4   0  101.34    3.50
  -1   4   0   95.85    3.49
  -1   4   0  102.77    3.49
   0  -4   0   20.89    0.70
   0  -4   0   19.83    0.71
   0   4   0   19.42    0.74
   0   4   0   17.85    0.70
   0   4   0   21.14    0.71
  -1  -4   0   25.61    0.91
  -1  -4   0   26.20    0.90
  -1  -4   0   24.45    0.90
   1   4   0   25.96    0.90
   1   4   0   25.64    0.90
  -2  -4   0   -0.03    0.07
  -2  -4   0    0.00    0.08
  -2  -4   0   -0.22    0.11
   2   4   0   -0.03    0.08
   2   4   0   -0.03    0.08
  -3  -4   0    0.05    0.13
  -3  -4   0    0.08    0.08
  -3  -4   0   -0.02    0.09
   3   4   0   -0.06    0.10
  -4  -4   0    0.48    0.20
   4   4   0    0.63    0.15
  -5  -4   0    1.75    0.27
   5   4   0    2.56    0.26
  -4   5   0    0.78    0.16
  -3   5   0    7.03    0.33
  -3   5   0    6.99    0.38
  -2   5   0    0.15    0.09
  -2   5   0    0.00    0.08
  -2   5   0    0.02    0.09
   1  -5   0   12.98    0.47
   1  -5   0   12.85    0.49
  -1   5   0   12.85    0.47
  -1   5   0   12.69    0.48
   0  -5   0   32.44    1.17
   0  -5   0   33.66    1.17
   0   5   0   33.51    1.17
   0   5   0   32.99    1.17
  -1  -5   0   16.12    0.58
  -1  -5   0   15.78    0.58
   1   5   0   15.74    0.58
   1   5   0   15.95    0.58
  -2  -5   0   44.65    1.61
  -2  -5   0   46.27    1.59
   2   5   0   46.52    1.60
   2   5   0   44.38    1.59
  -3  -5   0   10.07    0.41
  -3  -5   0   10.68    0.46
  -3  -5   0   10.98    0.41
   3   5   0   10.60    0.42
  -4  -5   0    1.26    0.22
   4   5   0    1.36    0.16
  -5  -5   0    0.01    0.26
   5   5   0    0.76    0.18
   4  -6   0    0.94    0.18
  -4   6   0    0.81    0.17
   3  -6   0   -0.01    0.14
  -3   6   0    0.04    0.13
   2  -6   0    4.75    0.27
  -2   6   0    4.74    0.23
  -2   6   0    5.16    0.25
  -2   6   0    4.09    0.24
   1  -6   0   14.95    0.54
   1  -6   0   15.05    0.56
  -1   6   0   14.97    0.55
  -1   6   0   14.79    0.55
   0  -6   0    0.01    0.07
   0  -6   0   -0.11    0.09
   0   6   0   -0.08    0.09
   0   6   0   -0.07    0.08
  -1  -6   0    8.93    0.35
  -1  -6   0    8.79    0.35
   1   6   0    9.06    0.36
   1   6   0    8.83    0.35
  -2  -6   0   19.45    0.75
  -2  -6   0   20.67    0.77
  -2  -6   0   21.33    0.75
   2   6   0   21.46    0.75
   2   6   0   20.43    0.75
  -3  -6   0    0.17    0.11
  -3  -6   0    0.09    0.15
  -3  -6   0    0.15    0.11
   3   6   0    0.21    0.12
  -4  -6   0    3.26    0.35
  -4  -6   0    3.27    0.22
   4   6   0    3.21    0.26
  -5  -6   0    0.14    0.24
   3  -7   0    1.34    0.18
  -3   7   0    1.84    0.22
   2  -7   0    5.60    0.31
  -2   7   0    5.45    0.28
  -2   7   0    5.45    0.26
  -2   7   0    4.96    0.24
   1  -7   0    0.17    0.11
   1  -7   0    0.18    0.08
  -1   7   0    0.01    0.06
  -1   7   0    0.17    0.10
  -1   7   0    0.19    0.10
   0  -7   0   77.12    2.71
   0  -7   0   78.95    2.71
   0   7   0   77.15    2.71
   0   7   0   77.10    2.71
  -1  -7   0    6.02    0.28
  -1  -7   0    6.12    0.27
   1   7   0    6.29    0.29
   1   7   0    6.10    0.27
  -2  -7   0    1.99    0.21
  -2  -7   0    1.60    0.18
   2   7   0    1.76    0.19
   2   7   0    1.74    0.19
  -3  -7   0   13.06    0.57
  -3  -7   0   12.92    0.52
  -3  -7   0   14.13    0.53
   3   7   0   13.36    0.53
  -4  -7   0    3.39    0.23
  -4  -7   0    2.74    0.33
   3  -8   0    0.09    0.16
  -3   8   0    0.12    0.14
   2  -8   0    1.28    0.17
  -2   8   0    1.19    0.16
  -2   8   0    1.47    0.19
   1  -8   0   20.87    0.75
   1  -8   0   20.44    0.77
  -1   8   0   20.08    0.76
  -1   8   0   20.22    0.75
   0  -8   0    2.17    0.20
   0  -8   0    2.03    0.23
   0   8   0    2.33    0.19
   0   8   0    2.37    0.20
  -1  -8   0    0.17    0.11
  -1  -8   0    0.22    0.10
   1   8   0    0.29    0.11
   1   8   0    0.36    0.12
  -2  -8   0    1.02    0.13
  -2  -8   0    1.32    0.16
   2   8   0    1.03    0.13
   2   8   0    0.91    0.14
  -3  -8   0    0.69    0.19
  -3  -8   0    0.69    0.18
   3   8   0    0.59    0.16
  -4  -8   0    0.35    0.22
  -4  -8   0    0.25    0.14
   4   8   0    0.57    0.17
   3  -9   0    2.28    0.30
  -3   9   0    2.40    0.22
  -3   9   0    1.93    0.26
   2  -9   0    0.34    0.16
  -2   9   0    0.47    0.15
  -2   9   0    0.38    0.12
   1  -9   0    2.76    0.26
   1  -9   0    3.49    0.22
  -1   9   0    3.06    0.30
  -1   9   0    3.46    0.24
   0  -9   0    8.46    0.36
   0  -9   0    8.36    0.40
   0   9   0    8.29    0.38
   0   9   0    8.29    0.37
  -1  -9   0   13.28    0.52
  -1  -9   0   13.26    0.51
  -1  -9   0   12.88    0.53
   1   9   0   12.66    0.53
   1   9   0   13.52    0.53
  -2  -9   0    1.12    0.15
  -2  -9   0    1.39    0.23
   2   9   0    1.10    0.16
   2   9   0    1.17    0.15
  -3  -9   0    0.82    0.20
  -3  -9   0    0.95    0.15
  -4  -9   0    0.07    0.14
  -4  -9   0   -0.34    0.22
   4   9   0   -0.11    0.18
   2 -10   0   14.28    0.60
  -2  10   0   14.15    0.58
  -2  10   0   14.39    0.56
   1 -10   0    2.04    0.27
  -1  10   0    2.02    0.23
  -1  10   0    2.14    0.23
   0 -10   0    2.82    0.30
   0 -10   0    2.95    0.23
   0  10   0    2.85    0.26
   0  10   0    2.78    0.24
  -1 -10   0    1.81    0.27
  -1 -10   0    1.65    0.22
   1  10   0    1.40    0.16
  -2 -10   0    4.07    0.28
  -2 -10   0    3.78    0.29
   2  10   0    4.27    0.28
   2  10   0    3.79    0.30
  -3 -10   0    0.08    0.18
  -3 -10   0    0.09    0.15
   3  10   0   -0.03    0.16
  -4 -10   0    0.98    0.28
   2 -11   0    0.54    0.19
  -2  11   0    0.45    0.14
  -2  11   0    0.63    0.17
   1 -11   0    6.26    0.38
  -1  11   0    6.15    0.34
  -1  11   0    5.94    0.34
   0 -11   0    1.27    0.20
   0 -11   0    1.39    0.16
   0  11   0    1.28    0.18
   0  11   0    1.17    0.17
  -1 -11   0   -0.11    0.19
  -1 -11   0    0.06    0.14
   1  11   0   -0.18    0.16
   1  11   0    0.09    0.15
  -2 -11   0    0.62    0.18
  -2 -11   0    0.65    0.16
   2  11   0    0.64    0.17
   2  11   0    0.39    0.18
  -3 -11   0    0.31    0.16
  -3 -11   0    0.45    0.20
   3  11   0    0.24    0.18
   1 -12   0    4.41    0.38
  -1  12   0    3.68    0.30
  -1  12   0    3.56    0.31
   0 -12   0   -0.05    0.20
   0  12   0    0.05    0.16
   0  12   0    0.07    0.16
  -1 -12   0    3.01    0.28
  -1 -12   0    2.51    0.25
   1  12   0    2.97    0.28
   1  12   0    2.68    0.30
  -2 -12   0    2.45    0.31
   2  12   0    2.22    0.29
   2  12   0    1.89    0.22
  -1 -13   0    1.75    0.22
  -1 -13   0    0.87    0.25
   1  13   0    1.24    0.20
   2  12  -1   -0.35    0.20
   2  12  -1    0.04    0.18
  -2 -12   1   -0.09    0.16
   1  12  -1    0.79    0.18
   1  12  -1    0.49    0.17
  -1 -12   1    0.45    0.25
  -1 -12   1    0.92    0.17
   0  12  -1    2.27    0.29
   0  12  -1    2.99    0.28
   0 -12   1    2.51    0.34
  -1  12  -1    2.47    0.29
  -1  12  -1    2.54    0.29
   1 -12   1    2.61    0.36
   3  11  -1    0.09    0.18
  -3 -11   1    0.20    0.16
  -3 -11   1    0.05    0.20
   2  11  -1    0.04    0.18
   2  11  -1    0.33    0.17
  -2 -11   1    0.19    0.18
  -2 -11   1    0.07    0.16
   1  11  -1    0.15    0.15
   1  11  -1    0.12    0.15
  -1 -11   1   -0.06    0.19
  -1 -11   1    0.20    0.14
   0  11  -1   -0.01    0.16
   0  11  -1   -0.09    0.14
   0 -11   1   -0.05    0.13
   0 -11   1   -0.12    0.18
  -1  11  -1    0.93    0.16
  -1  11  -1    0.61    0.15
   1 -11   1    0.98    0.19
  -2  11  -1    0.10    0.15
  -2  11  -1   -0.01    0.16
   2 -11   1    0.06    0.17
   3  10  -1    0.75    0.18
  -3 -10   1    0.58    0.16
  -3 -10   1    0.61    0.20
   2  10  -1    0.01    0.15
   2  10  -1    0.26    0.14
  -2 -10   1    0.03    0.16
  -2 -10   1   -0.04    0.14
   1  10  -1    6.84    0.34
   1  10  -1    6.63    0.35
  -1 -10   1    6.23    0.36
  -1 -10   1    6.93    0.34
   0  10  -1    0.02    0.13
   0  10  -1   -0.06    0.14
   0 -10   1    0.03    0.12
   0 -10   1   -0.10    0.17
  -1  10  -1    0.30    0.14
  -1  10  -1    0.41    0.13
   1 -10   1    0.38    0.15
  -2  10  -1    7.45    0.38
  -2  10  -1    7.48    0.36
   2 -10   1    7.71    0.41
   4   9  -1    0.37    0.18
  -4  -9   1    0.38    0.22
  -4  -9   1    0.36    0.14
   3   9  -1    0.46    0.16
  -3  -9   1    0.39    0.19
  -3  -9   1    0.45    0.14
   2   9  -1    0.20    0.13
   2   9  -1    0.14    0.14
  -2  -9   1    0.14    0.16
  -2  -9   1    0.16    0.14
   1   9  -1    4.43    0.28
   1   9  -1    4.38    0.28
  -1  -9   1    4.35    0.29
  -1  -9   1    4.23    0.26
  -1  -9   1    4.75    0.26
   0   9  -1    4.41    0.26
   0   9  -1    4.49    0.28
   0  -9   1    4.36    0.30
   0  -9   1    4.33    0.25
  -1   9  -1    0.09    0.12
   1  -9   1   -0.09    0.14
   1  -9   1    0.04    0.12
  -2   9  -1    4.32    0.28
  -2   9  -1    4.44    0.27
   2  -9   1    4.49    0.31
  -3   9  -1    1.00    0.18
  -3   9  -1    0.85    0.19
   3  -9   1    0.64    0.19
   4   8  -1    0.51    0.17
  -4  -8   1    0.36    0.21
  -4  -8   1    0.30    0.13
   3   8  -1    1.71    0.24
   2   8  -1    2.19    0.22
   2   8  -1    1.92    0.23
  -2  -8   1    2.33    0.25
  -2  -8   1    2.07    0.22
   1   8  -1    8.26    0.36
   1   8  -1    8.17    0.36
  -1  -8   1    8.04    0.35
  -1  -8   1    8.09    0.35
   0   8  -1    0.54    0.12
   0   8  -1    0.65    0.12
   0  -8   1    0.66    0.13
  -1   8  -1    6.91    0.32
  -1   8  -1    6.83    0.32
   1  -8   1    6.66    0.34
   1  -8   1    7.04    0.30
  -2   8  -1   -0.02    0.10
  -2   8  -1   -0.06    0.11
   2  -8   1   -0.14    0.14
  -3   8  -1    2.05    0.24
   3  -8   1    1.95    0.28
   4   7  -1    2.90    0.26
  -4  -7   1    2.84    0.23
  -4  -7   1    2.80    0.33
   3   7  -1    2.89    0.24
  -3  -7   1    2.96    0.29
  -3  -7   1    3.11    0.23
  -3  -7   1    2.62    0.25
   2   7  -1    3.46    0.23
   2   7  -1    3.66    0.23
  -2  -7   1    3.55    0.23
  -2  -7   1    3.76    0.26
   1   7  -1    0.07    0.10
   1   7  -1    0.05    0.10
  -1  -7   1   -0.01    0.09
  -1  -7   1   -0.02    0.09
   0   7  -1    0.89    0.11
   0   7  -1    0.96    0.11
   0  -7   1    0.91    0.11
   0  -7   1    0.96    0.10
  -1   7  -1    7.04    0.31
  -1   7  -1    6.98    0.31
   1  -7   1    7.04    0.29
   1  -7   1    7.18    0.32
  -2   7  -1    3.07    0.21
  -2   7  -1    2.90    0.19
  -2   7  -1    3.06    0.22
   2  -7   1    3.00    0.25
  -3   7  -1    0.24    0.13
   3  -7   1    0.20    0.15
   4   6  -1    2.26    0.26
  -4  -6   1    2.27    0.20
  -4  -6   1    2.21    0.24
  -4  -6   1    2.54    0.32
   3   6  -1    2.08    0.21
  -3  -6   1    1.65    0.21
  -3  -6   1    2.08    0.26
  -3  -6   1    2.15    0.20
   2   6  -1    0.43    0.10
   2   6  -1    0.19    0.10
  -2  -6   1    0.48    0.13
  -2  -6   1    0.44    0.10
  -2  -6   1    0.36    0.10
   1   6  -1   21.26    0.77
   1   6  -1   21.65    0.77
  -1  -6   1   20.72    0.77
  -1  -6   1   21.08    0.76
   0   6  -1    0.07    0.08
   0   6  -1   -0.05    0.09
   0  -6   1    0.04    0.07
   0  -6   1    0.01    0.08
  -1   6  -1    2.41    0.17
  -1   6  -1    2.51    0.17
   1  -6   1    2.47    0.15
   1  -6   1    2.48    0.18
  -2   6  -1    2.15    0.17
  -2   6  -1    2.11    0.19
  -2   6  -1    2.22    0.16
  -3   6  -1    9.14    0.40
  -4   6  -1    3.85    0.29
   5   5  -1    0.38    0.18
  -5  -5   1   -0.24    0.25
   4   5  -1    0.39    0.15
  -4  -5   1    0.43    0.18
   3   5  -1    7.27    0.33
  -3  -5   1    7.35    0.32
  -3  -5   1    7.70    0.31
  -3  -5   1    7.38    0.37
   2   5  -1   11.62    0.44
   2   5  -1   11.63    0.44
  -2  -5   1   10.99    0.47
  -2  -5   1   11.79    0.44
   1   5  -1   12.24    0.45
   1   5  -1   12.43    0.46
  -1  -5   1   11.88    0.45
  -1  -5   1   11.79    0.46
   0   5  -1   14.87    0.55
   0   5  -1   15.28    0.55
   0  -5   1   14.80    0.55
   0  -5   1   15.04    0.55
  -1   5  -1    2.22    0.15
  -1   5  -1    2.24    0.15
   1  -5   1    2.24    0.14
  -2   5  -1    5.06    0.28
  -2   5  -1    4.66    0.22
  -2   5  -1    5.00    0.24
  -3   5  -1    5.13    0.28
  -3   5  -1    5.26    0.35
  -4   5  -1    0.89    0.16
  -4   5  -1    0.88    0.22
   5   4  -1    2.10    0.27
  -5  -4   1    1.69    0.27
   4   4  -1    7.59    0.36
  -4  -4   1    7.64    0.42
   3   4  -1   -0.08    0.11
  -3  -4   1    0.06    0.08
  -3  -4   1   -0.06    0.13
   2   4  -1   25.33    0.89
   2   4  -1   25.14    0.89
  -2  -4   1   25.76    0.89
  -2  -4   1   24.14    0.89
  -2  -4   1   25.04    0.91
   1   4  -1    0.00    0.08
   1   4  -1    0.00    0.07
  -1  -4   1    0.08    0.07
  -1  -4   1   -0.03    0.08
  -1  -4   1    0.04    0.08
   0   4  -1   25.25    0.94
   0   4  -1   26.45    0.93
   0  -4   1   26.75    0.93
   0  -4   1   27.03    0.93
  -2   4  -1   88.67    3.10
  -2   4  -1   88.72    3.09
  -2   4  -1   89.47    3.11
  -3   4  -1    3.26    0.28
  -3   4  -1    3.32    0.22
  -4   4  -1    1.21    0.22
  -4   4  -1    1.47    0.20
   5   3  -1    0.12    0.17
  -5  -3   1   -0.15    0.23
   4   3  -1    3.48    0.25
   3   3  -1   11.25    0.44
  -3  -3   1   11.89    0.49
   2   3  -1   42.58    1.48
  -2  -3   1   43.84    1.48
  -2  -3   1   40.01    1.48
  -2  -3   1   42.93    1.50
   1   3  -1   29.24    1.00
   1   3  -1   29.05    1.00
  -1  -3   1   27.98    1.01
  -1  -3   1   28.20    1.00
  -1  -3   1   28.32    1.00
   0   3  -1   40.86    1.38
   0   3  -1   36.15    1.38
   0   3  -1   40.27    1.39
   0  -3   1   40.27    1.38
   0  -3   1   40.41    1.38
  -1   3  -1   11.88    0.43
  -1   3  -1   11.66    0.42
  -1   3  -1   11.96    0.43
  -1   3  -1   12.16    0.45
   1  -3   1   11.29    0.42
  -2   3  -1   34.10    1.23
  -2   3  -1   35.72    1.24
  -3   3  -1    2.70    0.26
  -3   3  -1    2.80    0.19
   3  -3   1    2.72    0.22
  -4   3  -1    1.32    0.20
  -4   3  -1    1.62    0.23
   4  -3   1    2.18    0.27
   5   2  -1    5.31    0.31
  -5  -2   1    4.11    0.43
   4   2  -1    0.25    0.14
  -4  -2   1    0.08    0.20
   3   2  -1    3.90    0.21
  -3  -2   1    4.48    0.27
   2   2  -1    7.10    0.29
  -2  -2   1    7.32    0.27
  -2  -2   1    7.21    0.32
   1   2  -1  353.70   12.19
   1   2  -1  344.59   12.20
  -1  -2   1  359.77   12.23
   0   2  -1   17.74    0.68
   0   2  -1   19.18    0.68
   0   2  -1   19.61    0.68
   0  -2   1   20.85    0.68
  -1   2  -1  918.60   33.17
  -1   2  -1  980.22   33.13
  -1   2  -1 1000.00   33.18
   1  -2   1  933.18   33.12
  -2   2  -1    7.29    0.32
  -2   2  -1    7.57    0.29
  -3   2  -1    1.09    0.15
  -3   2  -1    1.01    0.16
  -3   2  -1    0.92    0.14
  -4   2  -1    0.44    0.15
  -4   2  -1    0.09    0.20
  -5   2  -1    2.56    0.29
   5   1  -1    6.11    0.34
  -5  -1   1    5.80    0.43
   4   1  -1    2.94    0.23
  -4  -1   1    2.86    0.32
  -3  -1   1    5.13    0.25
  -3  -1   1    4.84    0.29
  -2  -1   1    5.43    0.26
  -2  -1   1    5.47    0.23
   1   1  -1  421.91   13.93
   1   1  -1  411.95   13.91
  -1  -1   1  354.70   13.91
  -1  -1   1  421.26   13.95
   0   1  -1    0.02    0.02
   0   1  -1    0.09    0.03
   0   1  -1    0.00    0.01
   0  -1   1    0.11    0.03
   0  -1   1    0.01    0.02
   0  -1   1    0.03    0.02
   0  -1   1    0.04    0.03
   0  -1   1    0.08    0.03
  -1   1  -1  813.44   27.49
  -1   1  -1  786.43   27.49
  -1   1  -1  782.57   27.47
  -2   1  -1  169.05    5.70
  -2   1  -1  164.18    5.71
  -2   1  -1  160.50    5.71
  -3   1  -1    1.43    0.22
  -3   1  -1    1.85    0.16
  -3   1  -1    1.85    0.21
  -4   1  -1    1.81    0.29
  -4   1  -1    1.47    0.21
  -4   1  -1    1.63    0.21
  -5   1  -1    1.50    0.20
  -5   1  -1    1.23    0.26
   5   0  -1    0.03    0.16
  -5   0   1   -0.38    0.24
  -5   0   1   -0.19    0.23
  -4   0   1    0.35    0.20
  -4   0   1    0.59    0.14
  -4   0   1    0.82    0.19
  -3   0   1    2.35    0.18
  -3   0   1    2.05    0.23
  -2   0   1   16.96    0.65
  -2   0   1   18.69    0.64
  -1   0   1    8.43    0.30
  -1   0   1    7.97    0.31
   0   0  -1    0.00    0.00
   0   0  -1   -0.01    0.01
   0   0  -1    0.01    0.01
   0   0  -1    0.00    0.00
   0   0   1    0.00    0.01
   0   0   1    0.00    0.00
   0   0   1   -0.01    0.00
  -2   0  -1   12.31    0.43
  -2   0  -1   11.36    0.45
  -2   0  -1   11.53    0.45
  -3   0  -1    0.04    0.09
  -3   0  -1   -0.11    0.13
  -3   0  -1    0.09    0.11
  -4   0  -1    0.69    0.20
  -4   0  -1    0.86    0.14
  -4   0  -1    0.79    0.18
  -5   0  -1    0.97    0.24
   5   0   1    1.32    0.23
  -5   1   1    0.18    0.26
  -5   1   1    0.20    0.18
  -5   1   1   -0.29    0.25
  -4   1   1    0.52    0.19
  -4   1   1    0.42    0.19
  -4   1   1    0.36    0.15
  -3   1   1   22.85    0.83
  -3   1   1   22.87    0.84
  -3   1   1   22.93    0.85
  -2   1   1   26.02    0.94
  -2   1   1   26.93    0.94
  -2   1   1   26.60    0.95
  -1   1   1  137.47    4.73
  -1   1   1  135.82    4.73
  -1   1   1  136.76    4.73
   0   1   1    0.58    0.04
  -1  -1  -1   21.63    0.72
  -1  -1  -1   20.64    0.74
  -1  -1  -1   20.51    0.73
   1   1   1   20.10    0.72
  -2  -1  -1    4.50    0.22
  -2  -1  -1    4.76    0.24
  -2  -1  -1    4.85    0.20
  -3  -1  -1    0.65    0.12
  -3  -1  -1    0.58    0.14
  -3  -1  -1    0.77    0.10
  -4  -1  -1    1.93    0.27
  -4  -1  -1    1.36    0.21
   4   1   1    1.49    0.19
  -5  -1  -1    1.45    0.24
  -5  -1  -1    1.41    0.27
  -5   2   1    0.14    0.18
  -4   2   1    1.62    0.23
  -4   2   1    1.01    0.21
  -4   2   1    1.34    0.21
  -3   2   1    0.02    0.13
  -3   2   1   -0.02    0.13
  -3   2   1   -0.05    0.10
  -2   2   1    4.70    0.24
  -2   2   1    4.23    0.23
  -2   2   1    5.09    0.21
  -1   2   1   47.78    1.69
  -1   2   1   49.32    1.69
   0  -2  -1  477.54   16.39
   0  -2  -1  479.72   16.38
   0   2   1  484.93   16.38
   0   2   1  450.89   16.38
  -1  -2  -1    1.72    0.11
  -1  -2  -1    1.95    0.13
   1   2   1    1.69    0.11
   1   2   1    2.05    0.12
  -2  -2  -1   31.92    1.11
   2   2   1   30.44    1.09
  -3  -2  -1    4.07    0.26
   3   2   1    3.42    0.19
  -4  -2  -1    2.40    0.31
   4   2   1    2.04    0.21
  -5  -2  -1    1.50    0.26
   5   2   1    1.07    0.26
  -4   3   1    1.85    0.24
  -4   3   1    2.21    0.25
  -3   3   1    0.30    0.15
  -3   3   1    0.40    0.11
  -2   3   1    0.37    0.09
  -2   3   1    0.43    0.12
   1  -3  -1    1.04    0.08
  -1   3   1    1.43    0.11
  -1   3   1    1.07    0.10
  -1   3   1    1.07    0.09
   0  -3  -1   39.24    1.37
   0  -3  -1   39.74    1.37
   0   3   1   40.80    1.37
   0   3   1   36.54    1.37
   0   3   1   40.20    1.37
  -1  -3  -1   19.86    0.74
  -1  -3  -1   20.90    0.73
  -1  -3  -1   20.38    0.76
   1   3   1   21.19    0.73
   1   3   1   21.33    0.73
  -2  -3  -1   41.02    1.45
  -2  -3  -1   42.16    1.43
  -2  -3  -1   40.55    1.43
   2   3   1   40.55    1.44
  -3  -3  -1   12.89    0.52
   3   3   1   12.11    0.47
   4   3   1    3.12    0.22
  -5  -3  -1    0.33    0.23
  -4   4   1    3.04    0.25
  -3   4   1    3.16    0.21
  -3   4   1    2.82    0.28
  -2   4   1   18.05    0.68
  -2   4   1   17.91    0.65
   1  -4  -1    2.18    0.16
   1  -4  -1    2.23    0.13
  -1   4   1    2.62    0.14
  -1   4   1    2.09    0.13
  -1   4   1    2.28    0.14
   0  -4  -1   36.54    1.24
   0  -4  -1   36.20    1.25
   0   4   1   32.63    1.24
   0   4   1   36.93    1.25
  -1  -4  -1   52.67    1.84
  -1  -4  -1   51.38    1.83
  -1  -4  -1   53.03    1.83
   1   4   1   52.99    1.84
   1   4   1   53.08    1.83
  -2  -4  -1   27.30    0.96
  -2  -4  -1   27.27    0.96
  -2  -4  -1   26.47    0.98
   2   4   1   27.87    0.96
   2   4   1   26.65    0.96
  -3  -4  -1    0.30    0.08
  -3  -4  -1    0.34    0.10
  -3  -4  -1    0.35    0.14
   3   4   1    0.16    0.10
  -4  -4  -1    0.59    0.21
   4   4   1    0.81    0.14
  -5  -4  -1    6.63    0.46
   4  -5  -1    1.90    0.28
  -4   5   1    1.80    0.24
  -3   5   1    0.15    0.12
   2  -5  -1   11.54    0.44
  -2   5   1   10.26    0.41
  -2   5   1   10.99    0.41
  -2   5   1   11.47    0.43
   1  -5  -1    0.58    0.07
   1  -5  -1    0.60    0.09
  -1   5   1    0.65    0.09
  -1   5   1    0.41    0.07
  -1   5   1    0.59    0.08
   0  -5  -1   40.37    1.41
   0  -5  -1   40.19    1.41
   0   5   1   39.75    1.41
   0   5   1   40.44    1.41
  -1  -5  -1   21.10    0.73
  -1  -5  -1   19.68    0.73
  -1  -5  -1   20.49    0.73
   1   5   1   19.60    0.75
   1   5   1   20.83    0.73
  -2  -5  -1    2.06    0.19
  -2  -5  -1    2.28    0.15
   2   5   1    1.92    0.17
   2   5   1    2.03    0.16
  -3  -5  -1   37.92    1.32
  -3  -5  -1   37.77    1.36
  -3  -5  -1   36.83    1.32
   3   5   1   37.30    1.33
  -4  -5  -1    0.93    0.20
   4   5   1    1.10    0.15
  -5  -5  -1    0.82    0.27
   5   5   1    1.35    0.19
   4  -6  -1    0.58    0.19
  -4   6   1    0.52    0.17
   3  -6  -1    2.81    0.27
  -3   6   1    3.45    0.27
   2  -6  -1   -0.07    0.12
  -2   6   1   -0.09    0.08
  -2   6   1   -0.07    0.10
  -2   6   1    0.01    0.10
   1  -6  -1    8.44    0.35
   1  -6  -1    8.00    0.33
  -1   6   1    8.63    0.34
  -1   6   1    8.59    0.34
   0  -6  -1  231.70    8.02
   0  -6  -1  232.71    8.01
   0   6   1  229.34    8.01
   0   6   1  231.77    8.01
  -1  -6  -1   12.88    0.49
  -1  -6  -1   13.00    0.49
  -1  -6  -1   13.11    0.49
   1   6   1   13.26    0.49
   1   6   1   13.07    0.49
  -2  -6  -1    0.43    0.12
  -2  -6  -1    0.37    0.11
  -2  -6  -1    0.42    0.09
   2   6   1    0.51    0.10
   2   6   1    0.36    0.10
  -3  -6  -1   52.21    1.89
  -3  -6  -1   54.77    1.89
  -3  -6  -1   52.91    1.92
   3   6   1   55.03    1.89
  -4  -6  -1    1.92    0.18
  -4  -6  -1    2.26    0.19
  -4  -6  -1    1.87    0.32
   4   6   1    1.77    0.24
  -5  -6  -1   -0.25    0.26
   5   6   1   -0.16    0.17
   3  -7  -1    2.45    0.27
  -3   7   1    2.32    0.24
   2  -7  -1    0.84    0.15
  -2   7   1    0.56    0.10
  -2   7   1    0.85    0.13
  -2   7   1    1.24    0.17
   1  -7  -1    5.45    0.28
   1  -7  -1    5.36    0.24
  -1   7   1    5.60    0.26
  -1   7   1    5.52    0.26
   0  -7  -1   21.93    0.77
   0  -7  -1   21.71    0.79
   0   7   1   20.95    0.78
   0   7   1   21.42    0.78
  -1  -7  -1   33.30    1.21
  -1  -7  -1   34.83    1.21
  -1  -7  -1   34.60    1.21
   1   7   1   34.68    1.22
   1   7   1   33.79    1.21
  -2  -7  -1    0.57    0.10
  -2  -7  -1    0.68    0.13
   2   7   1    0.69    0.11
   2   7   1    0.57    0.12
  -3  -7  -1    3.54    0.26
  -3  -7  -1    4.25    0.25
  -3  -7  -1    3.27    0.29
   3   7   1    3.94    0.26
  -4  -7  -1    5.60    0.41
  -4  -7  -1    5.67    0.30
   4   7   1    6.43    0.34
   3  -8  -1    1.76    0.28
  -3   8   1    1.76    0.24
   2  -8  -1    0.33    0.15
  -2   8   1    0.12    0.10
  -2   8   1    0.23    0.11
   1  -8  -1   26.61    0.98
   1  -8  -1   26.49    0.96
  -1   8   1   26.70    0.97
  -1   8   1   26.79    0.96
   0  -8  -1    1.89    0.23
   0  -8  -1    1.76    0.16
   0   8   1    2.23    0.18
   0   8   1    1.76    0.19
  -1  -8  -1   20.47    0.75
  -1  -8  -1   20.07    0.76
  -1  -8  -1   19.89    0.75
   1   8   1   21.02    0.76
   1   8   1   21.62    0.76
  -2  -8  -1    9.76    0.41
  -2  -8  -1    9.89    0.43
   2   8   1   10.00    0.42
   2   8   1   10.10    0.42
  -3  -8  -1    5.89    0.37
  -3  -8  -1    6.39    0.32
   3   8   1    5.82    0.32
  -4  -8  -1    3.19    0.36
  -4  -8  -1    3.28    0.25
   4   8   1    3.51    0.35
   3  -9  -1    0.12    0.18
  -3   9   1   -0.08    0.15
   2  -9  -1    9.25    0.43
  -2   9   1    8.90    0.41
  -2   9   1    9.28    0.39
   1  -9  -1    9.61    0.40
   1  -9  -1    9.36    0.44
  -1   9   1    9.58    0.41
  -1   9   1    9.53    0.43
   0  -9  -1    7.33    0.33
   0  -9  -1    7.33    0.38
   0   9   1    7.40    0.34
   0   9   1    7.52    0.35
  -1  -9  -1    0.41    0.11
  -1  -9  -1    0.87    0.15
   1   9   1    0.54    0.13
   1   9   1    0.59    0.13
  -2  -9  -1    4.57    0.27
  -2  -9  -1    4.38    0.28
   2   9   1    4.33    0.27
   2   9   1    4.37    0.29
  -3  -9  -1    0.47    0.15
   3   9   1    0.74    0.18
  -4  -9  -1    2.65    0.26
  -4  -9  -1    2.11    0.28
   4   9   1    2.27    0.29
   2 -10  -1    8.10    0.41
  -2  10   1    7.88    0.36
  -2  10   1    7.82    0.39
   1 -10  -1    1.37    0.17
  -1  10   1    1.50    0.18
  -1  10   1    1.74    0.23
   0 -10  -1    7.18    0.38
   0 -10  -1    7.20    0.33
   0  10   1    7.07    0.35
   0  10   1    5.63    0.46
  -1 -10  -1   -0.06    0.16
  -1 -10  -1   -0.10    0.12
   1  10   1    0.07    0.17
   1  10   1   -0.10    0.14
  -2 -10  -1   15.08    0.60
  -2 -10  -1   14.86    0.59
   2  10   1   13.99    0.59
  -3 -10  -1   -0.01    0.18
  -3 -10  -1    0.11    0.15
   3  10   1   -0.17    0.16
  -4 -10  -1    6.55    0.46
  -4 -10  -1    5.70    0.37
   4  10   1    6.15    0.38
   2 -11  -1    1.28    0.21
  -2  11   1    1.70    0.23
  -2  11   1    1.04    0.19
   1 -11  -1    5.82    0.38
  -1  11   1    5.58    0.33
  -1  11   1    5.82    0.32
   0 -11  -1    1.55    0.21
   0 -11  -1    1.61    0.23
   0  11   1    1.54    0.18
   0  11   1    1.41    0.17
  -1 -11  -1    0.32    0.19
  -1 -11  -1    0.25    0.14
   1  11   1    0.06    0.16
   1  11   1    0.08    0.15
  -2 -11  -1   -0.07    0.15
  -2 -11  -1   -0.23    0.17
   2  11   1    0.09    0.16
   2  11   1    0.08    0.17
  -3 -11  -1    0.50    0.22
  -3 -11  -1    0.26    0.16
   3  11   1    0.50    0.18
   1 -12  -1    1.65    0.24
  -1  12   1    1.50    0.19
  -1  12   1    1.79    0.26
   0 -12  -1   -0.21    0.20
   0  12   1   -0.24    0.15
   0  12   1   -0.03    0.17
  -1 -12  -1    4.00    0.30
  -1 -12  -1    2.77    0.35
   1  12   1    3.87    0.30
   1  12   1    4.13    0.32
  -2 -12  -1    0.37    0.20
   2  12   1    0.15    0.17
   2  12   1    0.30    0.19
  -3 -12  -1    2.89    0.37
   0 -13  -1   -0.22    0.23
   0  13   1    0.10    0.18
   0  13   1    0.17    0.17
  -1 -13  -1    1.73    0.21
   1  13   1    1.39    0.20
   1  13   1    1.66    0.29
   2  12  -2    0.42    0.19
  -2 -12   2   -0.03    0.18
  -2 -12   2    0.24    0.17
   1  12  -2    0.02    0.17
   1  12  -2   -0.16    0.16
  -1 -12   2    0.23    0.17
   0  12  -2    1.83    0.19
   0  12  -2    1.33    0.19
   0 -12   2    1.31    0.23
  -1  12  -2    1.28    0.19
  -1  12  -2    2.08    0.28
   1 -12   2    1.77    0.23
   3  11  -2   -0.05    0.18
  -3 -11   2    0.18    0.16
  -3 -11   2   -0.12    0.21
   2  11  -2    2.60    0.28
   2  11  -2    2.39    0.30
  -2 -11   2    2.33    0.30
  -2 -11   2    2.14    0.28
   1  11  -2    0.13    0.15
   1  11  -2    0.11    0.16
  -1 -11   2    0.14    0.14
  -1 -11   2   -0.27    0.19
  -1 -11   2    0.06    0.15
   0  11  -2    0.46    0.17
   0  11  -2    0.86    0.16
   0 -11   2    0.54    0.15
   0 -11   2    0.80    0.20
  -1  11  -2    0.57    0.16
  -1  11  -2    0.65    0.15
   1 -11   2    0.62    0.18
   3  10  -2    0.00    0.16
  -3 -10   2    0.13    0.19
  -3 -10   2    0.04    0.15
   2  10  -2    0.16    0.16
   2  10  -2    0.11    0.15
  -2 -10   2    0.20    0.15
  -2 -10   2    0.07    0.17
   1  10  -2    5.37    0.31
   1  10  -2    4.98    0.33
  -1 -10   2    5.10    0.30
  -1 -10   2    5.45    0.30
   0  10  -2    0.86    0.15
   0  10  -2    0.66    0.16
   0 -10   2    0.64    0.13
   0 -10   2    0.72    0.18
  -1  10  -2    0.34    0.14
  -1  10  -2    0.27    0.14
   1 -10   2    0.24    0.15
  -2  10  -2    5.33    0.31
  -2  10  -2    5.29    0.33
   2 -10   2    5.41    0.36
   4   9  -2    0.07    0.18
  -4  -9   2    0.18    0.15
  -4  -9   2   -0.07    0.26
   3   9  -2    0.00    0.16
  -3  -9   2    0.54    0.19
  -3  -9   2    0.54    0.14
   2   9  -2   -0.06    0.14
  -2  -9   2   -0.03    0.13
  -2  -9   2    0.01    0.16
   1   9  -2    4.85    0.28
   1   9  -2    4.28    0.29
  -1  -9   2    4.49    0.27
  -1  -9   2    4.47    0.27
   0   9  -2    0.68    0.13
   0   9  -2    0.59    0.14
   0  -9   2    0.68    0.15
   0  -9   2    0.55    0.12
  -1   9  -2    1.13    0.15
   1  -9   2    1.42    0.17
  -2   9  -2    3.67    0.25
  -2   9  -2    3.47    0.27
   2  -9   2    3.67    0.30
  -3   9  -2    0.11    0.17
  -3   9  -2    0.21    0.16
   3  -9   2    0.21    0.24
   4   8  -2    5.45    0.33
  -4  -8   2    5.04    0.40
  -4  -8   2    5.37    0.31
  -3  -8   2    1.63    0.21
  -3  -8   2    1.40    0.31
   2   8  -2    0.32    0.14
   2   8  -2    0.46    0.14
  -2  -8   2    0.69    0.16
  -2  -8   2    0.43    0.13
   1   8  -2    0.16    0.11
   1   8  -2    0.08    0.12
  -1  -8   2    0.23    0.11
   0   8  -2   12.60    0.49
   0   8  -2   12.45    0.49
   0  -8   2   11.82    0.48
   0  -8   2   12.19    0.49
  -1   8  -2    3.32    0.24
  -1   8  -2    3.53    0.24
   1  -8   2    3.18    0.26
   1  -8   2    3.24    0.22
  -2   8  -2    1.06    0.12
  -2   8  -2    1.03    0.12
   2  -8   2    0.96    0.16
  -3   8  -2    0.22    0.11
  -3   8  -2    0.42    0.15
   3  -8   2    0.51    0.17
   4   7  -2    2.81    0.28
  -4  -7   2    3.55    0.25
  -4  -7   2    2.76    0.33
   3   7  -2    1.02    0.15
  -3  -7   2    1.27    0.15
  -3  -7   2    1.31    0.19
   2   7  -2    2.91    0.22
   2   7  -2    2.84    0.22
  -2  -7   2    3.18    0.25
  -2  -7   2    2.91    0.22
   1   7  -2    2.96    0.20
   1   7  -2    2.97    0.21
  -1  -7   2    2.65    0.19
  -1  -7   2    2.99    0.19
   0   7  -2    1.73    0.17
   0   7  -2    1.86    0.19
   0  -7   2    1.66    0.17
   0  -7   2    1.79    0.15
  -1   7  -2    0.87    0.11
  -1   7  -2    1.00    0.12
   1  -7   2    0.73    0.12
   1  -7   2    0.90    0.10
  -2   7  -2    0.06    0.09
  -2   7  -2    0.10    0.12
   2  -7   2   -0.02    0.13
  -3   7  -2    0.24    0.14
   4   6  -2    6.39    0.39
  -4  -6   2    5.81    0.32
  -4  -6   2    6.12    0.30
  -4  -6   2    5.72    0.39
   3   6  -2   11.33    0.48
  -3  -6   2   13.28    0.48
  -3  -6   2   11.47    0.53
  -3  -6   2   11.88    0.47
   2   6  -2    0.25    0.11
   2   6  -2    0.32    0.10
  -2  -6   2    0.16    0.11
  -2  -6   2    0.19    0.13
  -2  -6   2    0.31    0.10
   1   6  -2   -0.02    0.12
   1   6  -2   -0.02    0.09
  -1  -6   2    0.08    0.08
  -1  -6   2   -0.08    0.09
   0   6  -2    1.24    0.15
   0   6  -2    1.17    0.11
   0  -6   2    1.05    0.10
   0  -6   2    1.14    0.15
  -1   6  -2   -0.05    0.06
  -1   6  -2    0.26    0.09
  -1   6  -2    0.07    0.09
   1  -6   2    0.15    0.07
   1  -6   2    0.06    0.09
  -2   6  -2    3.50    0.20
  -2   6  -2    4.12    0.28
  -2   6  -2    3.67    0.21
  -2   6  -2    3.76    0.22
  -3   6  -2   48.81    1.72
  -3   6  -2   46.59    1.69
  -4   6  -2    3.03    0.27
  -4   6  -2    2.57    0.37
   5   5  -2    3.59    0.31
  -5  -5   2    2.76    0.41
   4   5  -2    1.12    0.17
  -4  -5   2    0.84    0.14
  -4  -5   2    0.91    0.20
  -4  -5   2    0.75    0.11
   3   5  -2   12.89    0.51
  -3  -5   2   13.03    0.50
  -3  -5   2   13.29    0.56
  -3  -5   2   13.71    0.50
   2   5  -2    1.93    0.16
   2   5  -2    1.99    0.17
  -2  -5   2    1.81    0.16
  -2  -5   2    1.53    0.20
   1   5  -2   12.35    0.47
   1   5  -2   12.54    0.47
  -1  -5   2   12.79    0.48
  -1  -5   2   12.54    0.47
   0   5  -2   29.55    1.03
   0   5  -2   28.38    1.03
   0  -5   2   29.37    1.03
   0  -5   2   29.03    1.03
  -1   5  -2    4.91    0.22
  -1   5  -2    4.94    0.26
  -1   5  -2    5.16    0.22
   1  -5   2    4.80    0.21
  -2   5  -2   12.16    0.49
  -2   5  -2   12.16    0.45
  -2   5  -2   12.13    0.45
  -2   5  -2   12.08    0.46
  -3   5  -2   15.66    0.60
  -4   5  -2    2.02    0.32
  -4   5  -2    2.38    0.25
  -5  -4   2   -0.29    0.24
   4   4  -2    8.54    0.39
  -4  -4   2    8.09    0.44
   3   4  -2    0.71    0.12
  -3  -4   2    0.47    0.10
  -3  -4   2    0.53    0.15
  -3  -4   2    0.54    0.15
   2   4  -2    0.17    0.09
   2   4  -2    0.21    0.09
  -2  -4   2    0.10    0.11
  -2  -4   2    0.08    0.08
  -2  -4   2    0.19    0.08
   1   4  -2   10.74    0.40
   1   4  -2   10.66    0.40
  -1  -4   2   11.17    0.41
  -1  -4   2   10.73    0.40
  -1  -4   2   10.06    0.40
   0   4  -2   10.48    0.39
   0   4  -2   10.23    0.38
   0  -4   2   10.18    0.38
   0  -4   2   10.37    0.38
  -1   4  -2   27.60    0.99
  -1   4  -2   27.96    0.99
  -1   4  -2   28.15    1.00
   1  -4   2   28.15    0.99
  -2   4  -2   65.04    2.29
  -2   4  -2   65.62    2.28
  -2   4  -2   65.05    2.27
  -3   4  -2    0.04    0.15
  -3   4  -2    0.12    0.12
   3  -4   2   -0.04    0.11
  -4   4  -2    4.29    0.35
  -4   4  -2    4.80    0.29
   4  -4   2    5.50    0.31
   5   3  -2    0.49    0.18
  -5  -3   2   -0.19    0.25
   4   3  -2   17.34    0.65
  -4  -3   2   16.53    0.73
   3   3  -2    5.84    0.27
  -3  -3   2    5.78    0.32
   2   3  -2    0.89    0.10
  -2  -3   2    1.18    0.11
  -2  -3   2    0.86    0.12
  -2  -3   2    1.01    0.12
   1   3  -2    8.80    0.34
   1   3  -2    8.88    0.34
  -1  -3   2    8.78    0.34
  -1  -3   2    9.25    0.34
  -1  -3   2    9.17    0.35
   0   3  -2    2.25    0.13
   0   3  -2    1.90    0.13
   0   3  -2    1.88    0.12
   0  -3   2    2.06    0.12
   0  -3   2    2.16    0.13
  -1   3  -2   17.56    0.65
  -1   3  -2   18.08    0.63
  -1   3  -2   17.81    0.63
  -1   3  -2   17.66    0.63
  -2   3  -2  359.76   12.35
  -2   3  -2  353.66   12.34
  -3   3  -2   35.19    1.30
  -3   3  -2   37.11    1.28
   3  -3   2   35.54    1.29
  -4   3  -2    0.58    0.15
  -4   3  -2    0.60    0.19
   4  -3   2    0.60    0.17
   5   2  -2    5.21    0.34
  -5  -2   2    5.11    0.42
   4   2  -2    2.16    0.22
  -4  -2   2    2.33    0.39
   3   2  -2    2.64    0.18
  -3  -2   2    2.53    0.24
   2   2  -2   11.77    0.43
  -2  -2   2   11.42    0.46
  -2  -2   2   11.59    0.42
   1   2  -2    8.36    0.30
   1   2  -2    8.20    0.31
  -1  -2   2    8.01    0.30
  -1  -2   2    8.10    0.32
   0   2  -2   99.44    3.56
   0   2  -2  104.59    3.56
   0   2  -2  102.21    3.56
   0   2  -2  104.12    3.56
   0  -2   2  102.25    3.56
   0  -2   2  104.41    3.56
  -1   2  -2   10.61    0.41
  -1   2  -2   11.89    0.41
  -1   2  -2   11.57    0.43
  -1   2  -2   12.10    0.41
   1  -2   2   11.66    0.41
   1  -2   2   10.86    0.42
  -2   2  -2   11.92    0.47
  -2   2  -2   12.01    0.44
   2  -2   2   12.17    0.46
  -3   2  -2    0.70    0.14
  -3   2  -2    0.74    0.10
   3  -2   2    0.64    0.13
  -4   2  -2    0.39    0.15
   4  -2   2   -0.08    0.17
   5  -2   2    1.01    0.23
   5   1  -2    4.07    0.30
  -5  -1   2    4.33    0.40
   4   1  -2    9.66    0.42
  -4  -1   2   10.21    0.49
  -3  -1   2    0.36    0.11
  -3  -1   2    0.18    0.14
  -2  -1   2   14.39    0.54
  -2  -1   2   14.33    0.53
   1   1  -2   11.20    0.40
   1   1  -2   11.20    0.40
  -1  -1   2   11.20    0.41
  -1  -1   2   10.71    0.40
  -1  -1   2   10.93    0.39
   0   1  -2  213.20    7.19
   0  -1   2  213.83    7.20
   0  -1   2  214.07    7.19
   0  -1   2  189.79    7.19
  -1   1  -2   60.76    2.05
  -1   1  -2   60.65    2.08
  -1   1  -2   57.36    2.05
   1  -1   2   57.83    2.05
   1  -1   2   58.73    2.05
  -2   1  -2    9.40    0.38
  -2   1  -2    8.99    0.37
  -2   1  -2    9.51    0.35
  -3   1  -2   22.09    0.83
  -3   1  -2   22.98    0.81
  -3   1  -2   22.11    0.83
  -4   1  -2    0.15    0.13
  -4   1  -2    0.22    0.17
  -4   1  -2    0.16    0.21
  -5   1  -2    5.99    0.43
   5  -1   2    6.52    0.45
   5   0  -2   -0.04    0.17
  -5   0   2   -0.20    0.23
  -4   0   2    0.67    0.20
  -4   0   2    0.77    0.15
  -3   0   2    1.14    0.12
  -3   0   2    1.07    0.15
  -2   0   2    0.71    0.11
  -2   0   2    0.87    0.12
  -1   0   2   14.59    0.54
  -1   0   2   15.70    0.54
  -1   0  -2   55.68    1.88
  -1   0  -2   56.83    1.88
  -1   0  -2   51.83    1.88
  -1   0  -2   55.17    1.89
  -1   0  -2   56.60    1.89
   1   0   2   48.86    1.88
  -2   0  -2    5.57    0.26
  -2   0  -2    5.91    0.27
  -2   0  -2    5.56    0.24
  -3   0  -2   29.62    1.02
  -3   0  -2   28.14    1.03
  -3   0  -2   28.19    1.04
  -4   0  -2    1.28    0.22
  -4   0  -2    1.29    0.19
  -4   0  -2    1.40    0.19
  -5   0  -2    0.35    0.24
  -5   0  -2   -0.11    0.25
   5   0   2    0.37    0.19
  -5   1   2    0.06    0.24
  -5   1   2    0.05    0.17
  -4   1   2    0.22    0.20
  -4   1   2    0.22    0.15
  -4   1   2    0.20    0.18
  -3   1   2    7.92    0.37
  -3   1   2    7.99    0.36
  -3   1   2    8.41    0.34
  -2   1   2    0.50    0.10
  -2   1   2    0.57    0.10
  -2   1   2    0.54    0.08
  -1   1   2   51.81    1.83
  -1   1   2   53.29    1.83
   0  -1  -2   10.89    0.36
   0   1   2   10.41    0.36
   0   1   2    8.69    0.36
   0   1   2   10.82    0.36
  -1  -1  -2  559.16   19.15
  -1  -1  -2  554.68   19.14
  -1  -1  -2  554.90   19.16
  -1  -1  -2  554.57   19.17
   1   1   2  543.75   19.14
  -2  -1  -2    2.04    0.18
  -2  -1  -2    1.64    0.16
  -2  -1  -2    1.34    0.17
  -3  -1  -2    1.28    0.21
  -3  -1  -2    1.25    0.15
  -3  -1  -2    1.39    0.19
  -4  -1  -2    8.17    0.43
  -4  -1  -2    8.69    0.41
   4   1   2    7.73    0.35
  -5  -1  -2    3.20    0.35
  -5  -1  -2    2.29    0.29
   5   1   2    2.69    0.26
  -4   2   2    0.34    0.15
  -4   2   2    0.17    0.18
  -4   2   2    0.25    0.20
  -3   2   2    4.35    0.27
  -3   2   2    4.53    0.28
  -3   2   2    4.38    0.24
  -2   2   2    0.35    0.08
  -2   2   2    0.30    0.11
   1  -2  -2   34.84    1.26
  -1   2   2   36.54    1.26
  -1   2   2   36.89    1.25
   0  -2  -2   70.51    2.58
   0  -2  -2   75.87    2.57
   0   2   2   73.40    2.57
   0   2   2   77.36    2.57
  -1  -2  -2  146.93    5.21
  -1  -2  -2  149.61    5.21
  -1  -2  -2  151.85    5.22
   1   2   2  155.69    5.21
   1   2   2  148.91    5.21
  -2  -2  -2   52.00    1.83
  -2  -2  -2   51.98    1.84
  -2  -2  -2   51.36    1.85
   2   2   2   55.11    1.85
  -3  -2  -2    3.34    0.22
  -3  -2  -2    3.48    0.26
   3   2   2    3.30    0.17
  -4  -2  -2   16.12    0.63
  -4  -2  -2   15.96    0.66
   4   2   2   15.27    0.60
  -5  -2  -2    0.83    0.26
   5   2   2    0.57    0.16
  -4   3   2    2.74    0.32
  -3   3   2    0.20    0.11
  -3   3   2   -0.06    0.13
  -3   3   2    0.33    0.16
  -2   3   2    0.40    0.08
  -2   3   2    0.47    0.12
   1  -3  -2    0.06    0.05
   1  -3  -2    0.06    0.07
  -1   3   2    0.17    0.06
  -1   3   2    0.06    0.05
  -1   3   2    0.12    0.06
   0  -3  -2   61.00    2.11
   0  -3  -2   59.15    2.11
   0   3   2   63.82    2.11
   0   3   2   57.99    2.11
   0   3   2   61.20    2.11
  -1  -3  -2  149.15    5.02
  -1  -3  -2  139.31    5.03
  -1  -3  -2  142.27    5.05
  -1  -3  -2  146.33    5.03
   1   3   2  149.99    5.02
   1   3   2  143.36    5.02
  -2  -3  -2   10.70    0.39
  -2  -3  -2   10.91    0.39
  -2  -3  -2   10.36    0.42
   2   3   2   10.28    0.39
  -3  -3  -2   24.40    0.89
   3   3   2   23.47    0.85
   4   3   2   19.17    0.71
  -5  -3  -2    2.09    0.37
   5   3   2    2.29    0.28
  -4   4   2   -0.05    0.15
  -3   4   2    0.53    0.13
   2  -4  -2    8.53    0.36
  -2   4   2    9.07    0.35
   1  -4  -2   29.04    1.02
   1  -4  -2   28.98    1.04
  -1   4   2   28.08    1.02
  -1   4   2   30.05    1.02
  -1   4   2   29.61    1.03
   0  -4  -2   11.85    0.41
   0  -4  -2   11.83    0.42
   0   4   2   10.42    0.42
   0   4   2   11.86    0.42
   0   4   2   10.67    0.47
  -1  -4  -2   47.01    1.63
  -1  -4  -2   45.24    1.63
  -1  -4  -2   47.37    1.64
  -1  -4  -2   45.56    1.63
   1   4   2   48.84    1.63
   1   4   2   46.64    1.63
  -2  -4  -2  303.25   10.69
  -2  -4  -2  306.59   10.69
  -2  -4  -2  311.29   10.71
   2   4   2  317.60   10.69
   2   4   2  306.45   10.69
  -3  -4  -2    2.21    0.24
  -3  -4  -2    2.14    0.16
  -3  -4  -2    1.88    0.22
   3   4   2    1.97    0.16
  -4  -4  -2    0.72    0.23
   4   4   2    0.98    0.13
  -5  -4  -2    5.51    0.42
   5   4   2    5.10    0.33
   4  -5  -2    1.16    0.18
  -4   5   2    0.84    0.17
   3  -5  -2    2.38    0.25
  -3   5   2    2.82    0.22
   2  -5  -2    3.35    0.22
  -2   5   2    3.84    0.20
  -2   5   2    2.93    0.16
  -2   5   2    3.12    0.18
   1  -5  -2   38.18    1.31
   1  -5  -2   36.73    1.29
  -1   5   2   37.69    1.30
  -1   5   2   34.71    1.29
  -1   5   2   37.41    1.30
   0  -5  -2    2.87    0.15
   0  -5  -2    2.44    0.18
   0   5   2    2.71    0.17
   0   5   2    2.84    0.16
  -1  -5  -2   46.16    1.60
  -1  -5  -2   43.91    1.60
  -1  -5  -2   45.60    1.60
   1   5   2   47.12    1.60
   1   5   2   45.37    1.60
  -2  -5  -2  239.30    8.30
  -2  -5  -2  243.31    8.29
   2   5   2  237.34    8.29
   2   5   2  237.33    8.29
  -3  -5  -2    0.09    0.09
  -3  -5  -2   -0.10    0.10
  -3  -5  -2    0.02    0.15
   3   5   2    0.09    0.10
  -4  -5  -2   -0.12    0.18
   4   5   2   -0.10    0.13
  -5  -5  -2    0.66    0.24
   5   5   2    0.85    0.27
   4  -6  -2    0.31    0.18
  -4   6   2    0.12    0.16
   3  -6  -2    0.16    0.15
   2  -6  -2    6.85    0.32
  -2   6   2    6.86    0.28
  -2   6   2    6.64    0.30
  -2   6   2    6.30    0.30
   1  -6  -2   22.22    0.80
   1  -6  -2   21.36    0.78
  -1   6   2   22.04    0.79
  -1   6   2   21.92    0.79
   0  -6  -2   38.96    1.37
   0  -6  -2   38.18    1.36
   0   6   2   38.55    1.36
   0   6   2   38.68    1.36
  -1  -6  -2   53.36    1.91
  -1  -6  -2   54.59    1.91
  -1  -6  -2   56.08    1.91
   1   6   2   54.72    1.92
   1   6   2   54.76    1.91
  -2  -6  -2    2.90    0.21
  -2  -6  -2    2.80    0.20
  -2  -6  -2    3.00    0.18
   2   6   2    2.91    0.20
   2   6   2    3.01    0.19
  -3  -6  -2   26.87    0.98
  -3  -6  -2   27.31    1.02
  -3  -6  -2   27.91    0.98
   3   6   2   27.03    0.98
  -4  -6  -2    4.08    0.23
  -4  -6  -2    3.55    0.26
  -4  -6  -2    3.51    0.35
   4   6   2    3.51    0.26
  -5  -6  -2    0.04    0.31
   5   6   2    0.16    0.18
   3  -7  -2    4.45    0.31
  -3   7   2    4.36    0.28
   2  -7  -2    2.38    0.25
  -2   7   2    2.72    0.19
  -2   7   2    2.39    0.21
  -2   7   2    2.73    0.21
   1  -7  -2    0.99    0.13
   1  -7  -2    0.99    0.12
  -1   7   2    1.04    0.12
  -1   7   2    1.00    0.11
   0  -7  -2    0.77    0.12
   0  -7  -2    0.61    0.08
   0   7   2    0.56    0.10
   0   7   2    0.68    0.10
  -1  -7  -2   43.17    1.51
  -1  -7  -2   42.07    1.52
  -1  -7  -2   42.19    1.51
   1   7   2   43.87    1.52
   1   7   2   43.70    1.51
  -2  -7  -2    1.55    0.20
  -2  -7  -2    1.44    0.17
   2   7   2    1.74    0.18
   2   7   2    1.35    0.19
  -3  -7  -2   25.18    0.93
  -3  -7  -2   25.90    0.92
  -3  -7  -2   24.98    0.96
   3   7   2   24.15    0.94
   3   7   2   25.95    0.92
  -4  -7  -2    3.37    0.36
  -4  -7  -2    3.86    0.24
   4   7   2    3.58    0.28
   3  -8  -2    3.60    0.31
  -3   8   2    3.23    0.27
   2  -8  -2    3.41    0.30
  -2   8   2    3.78    0.25
  -2   8   2    3.12    0.20
   1  -8  -2   11.98    0.47
   1  -8  -2   12.74    0.50
  -1   8   2   11.82    0.48
  -1   8   2   11.88    0.48
   0  -8  -2   10.79    0.43
   0  -8  -2   11.03    0.46
   0   8   2   11.29    0.44
   0   8   2   10.74    0.44
  -1  -8  -2   19.36    0.71
  -1  -8  -2   19.20    0.72
  -1  -8  -2   19.76    0.72
   1   8   2   19.73    0.72
   1   8   2   19.47    0.72
  -2  -8  -2    3.10    0.22
  -2  -8  -2    2.99    0.25
   2   8   2    3.04    0.24
   2   8   2    3.02    0.23
  -3  -8  -2   19.83    0.78
  -3  -8  -2   20.19    0.74
   3   8   2   19.25    0.74
  -4  -8  -2    0.47    0.13
  -4  -8  -2    0.36    0.22
   4   8   2    0.72    0.19
   3  -9  -2    4.74    0.35
  -3   9   2    4.69    0.31
   2  -9  -2    5.83    0.35
  -2   9   2    6.52    0.30
  -2   9   2    6.35    0.33
   1  -9  -2    6.77    0.31
   1  -9  -2    6.56    0.35
  -1   9   2    6.71    0.33
  -1   9   2    6.66    0.32
   0  -9  -2    0.45    0.12
   0  -9  -2    0.27    0.15
   0   9   2    0.31    0.13
   0   9   2    0.45    0.13
  -1  -9  -2    1.35    0.19
  -1  -9  -2    1.31    0.16
   1   9   2    0.99    0.14
   1   9   2    0.92    0.14
  -2  -9  -2    3.69    0.28
  -2  -9  -2    3.98    0.25
   2   9   2    3.36    0.27
   2   9   2    3.73    0.26
  -3  -9  -2    0.21    0.16
   3   9   2    0.24    0.17
  -4  -9  -2    6.17    0.43
  -4  -9  -2    5.42    0.33
   4   9   2    6.24    0.36
   2 -10  -2    0.09    0.16
  -2  10   2    0.19    0.12
  -2  10   2    0.04    0.15
   1 -10  -2   -0.06    0.16
  -1  10   2    0.06    0.16
  -1  10   2   -0.06    0.13
   0 -10  -2    0.99    0.18
   0 -10  -2    0.99    0.13
   0  10   2    0.99    0.15
  -1 -10  -2    1.78    0.22
  -1 -10  -2    1.85    0.27
   1  10   2    1.82    0.23
   1  10   2    1.52    0.16
  -2 -10  -2    9.74    0.43
  -2 -10  -2    9.59    0.45
   2  10   2    9.25    0.44
   2  10   2    9.75    0.45
  -3 -10  -2    0.68    0.21
  -3 -10  -2    0.65    0.15
   3  10   2    0.75    0.17
  -4 -10  -2    4.82    0.37
  -4 -10  -2    5.94    0.46
   4  10   2    4.90    0.36
   2 -11  -2   -0.04    0.17
  -2  11   2    0.28    0.14
  -2  11   2    0.23    0.17
   1 -11  -2    5.45    0.37
  -1  11   2    5.34    0.31
  -1  11   2    5.26    0.31
   0 -11  -2   -0.14    0.13
   0 -11  -2   -0.23    0.19
   0  11   2   -0.13    0.15
   0  11   2   -0.15    0.15
  -1 -11  -2    0.06    0.19
  -1 -11  -2   -0.09    0.13
   1  11   2   -0.31    0.14
   1  11   2    0.03    0.15
  -2 -11  -2    0.46    0.18
  -2 -11  -2    0.27    0.19
  -2 -11  -2    0.63    0.16
   2  11   2    0.37    0.16
   2  11   2    0.48    0.17
  -3 -11  -2    0.78    0.21
  -3 -11  -2    0.74    0.17
   3  11   2    0.78    0.19
   1 -12  -2    1.28    0.23
  -1  12   2    1.17    0.17
  -1  12   2    1.23    0.18
   0 -12  -2    9.28    0.49
   0  12   2    9.79    0.45
   0  12   2    9.47    0.44
  -1 -12  -2    1.31    0.23
  -1 -12  -2    1.94    0.27
   1  12   2    1.73    0.20
   1  12   2    1.99    0.27
  -2 -12  -2    1.52    0.21
  -2 -12  -2    1.23    0.22
   2  12   2    1.29    0.19
   2  12   2    1.36    0.21
  -3 -12  -2    0.47    0.17
  -3 -12  -2    0.29    0.25
   3  12   2    0.26    0.20
   0 -13  -2    4.43    0.41
   0  13   2    4.87    0.34
   0  13   2    4.31    0.34
  -1 -13  -2    2.22    0.31
  -1 -13  -2    1.68    0.26
   1  13   2    1.41    0.19
   1  13   2    1.71    0.25
  -2 -13  -2    0.27    0.23
   2  12  -3    3.21    0.32
  -2 -12   3    3.04    0.33
  -2 -12   3    2.96    0.30
   1  12  -3    0.30    0.17
   1  12  -3    0.42    0.18
  -1 -12   3    0.24    0.18
   0  12  -3   -0.01    0.16
   0  12  -3    0.07    0.16
   0 -12   3   -0.28    0.21
   3  11  -3    2.03    0.29
  -3 -11   3    1.62    0.24
  -3 -11   3    2.21    0.29
   2  11  -3    0.42    0.18
   2  11  -3    0.20    0.18
  -2 -11   3   -0.01    0.28
   1  11  -3    1.18    0.17
   1  11  -3    1.06    0.18
  -1 -11   3    0.95    0.17
  -1 -11   3    0.93    0.16
   0  11  -3    0.17    0.15
   0 -11   3    0.14    0.19
   0 -11   3   -0.20    0.15
  -1  11  -3    1.40    0.17
  -1  11  -3    1.52    0.18
   1 -11   3    1.66    0.20
   3  10  -3    1.19    0.19
  -3 -10   3    1.46    0.18
  -3 -10   3    2.06    0.31
   2  10  -3    0.05    0.15
   2  10  -3   -0.07    0.17
  -2 -10   3    0.00    0.17
  -2 -10   3    0.00    0.15
   1  10  -3    1.94    0.27
   1  10  -3    2.83    0.25
  -1 -10   3    2.12    0.25
  -1 -10   3    2.27    0.24
   0  10  -3   -0.07    0.15
   0  10  -3    0.17    0.14
   0 -10   3    0.20    0.16
   0 -10   3   -0.05    0.13
  -1  10  -3    1.04    0.15
  -1  10  -3    0.86    0.16
   1 -10   3    0.99    0.17
  -2  10  -3    0.31    0.13
  -2  10  -3    0.02    0.15
   2 -10   3    0.45    0.17
   4   9  -3    2.63    0.31
  -4  -9   3    1.99    0.29
  -4  -9   3    2.58    0.27
   3   9  -3    2.67    0.27
  -3  -9   3    3.31    0.33
  -3  -9   3    3.78    0.28
   2   9  -3    4.47    0.29
   2   9  -3    4.80    0.31
  -2  -9   3    4.55    0.31
  -2  -9   3    4.08    0.29
   1   9  -3    1.51    0.17
   1   9  -3    1.71    0.23
  -1  -9   3    1.21    0.21
  -1  -9   3    1.61    0.21
   0   9  -3    0.02    0.13
   0   9  -3    0.01    0.14
   0  -9   3   -0.03    0.14
   0  -9   3    0.00    0.11
  -1   9  -3    5.12    0.38
  -1   9  -3    5.17    0.30
   1  -9   3    4.68    0.36
  -2   9  -3    0.02    0.12
  -2   9  -3    0.00    0.13
   2  -9   3    0.06    0.14
  -3   9  -3    0.72    0.17
   3  -9   3    0.55    0.19
   4   8  -3    0.04    0.16
  -4  -8   3   -0.06    0.14
  -4  -8   3   -0.09    0.21
   3   8  -3    1.38    0.17
  -3  -8   3    1.57    0.23
  -3  -8   3    1.43    0.21
   2   8  -3    0.12    0.14
   2   8  -3   -0.23    0.13
  -2  -8   3    0.12    0.15
  -2  -8   3   -0.10    0.13
   1   8  -3   17.20    0.65
   1   8  -3   17.40    0.65
  -1  -8   3   16.96    0.64
  -1  -8   3   16.62    0.64
   0   8  -3    7.82    0.34
   0   8  -3    7.40    0.35
   0  -8   3    7.02    0.32
   0  -8   3    7.11    0.34
  -1   8  -3    8.15    0.37
  -1   8  -3    8.48    0.37
   1  -8   3    8.19    0.38
   1  -8   3    8.39    0.36
  -2   8  -3    5.90    0.29
   2  -8   3    5.67    0.33
  -3   8  -3   -0.18    0.14
  -3   8  -3   -0.05    0.11
   3  -8   3   -0.04    0.15
   4   7  -3    1.71    0.19
  -4  -7   3    1.52    0.22
  -4  -7   3    1.61    0.23
   3   7  -3    4.31    0.28
  -3  -7   3    4.31    0.34
   2   7  -3   17.73    0.67
   2   7  -3   17.72    0.67
  -2  -7   3   18.22    0.67
  -2  -7   3   17.53    0.69
   1   7  -3   12.64    0.49
   1   7  -3   12.71    0.50
  -1  -7   3   12.83    0.49
  -1  -7   3   12.37    0.49
   0   7  -3    0.27    0.10
   0   7  -3    0.24    0.11
   0  -7   3    0.17    0.10
  -1   7  -3    0.14    0.11
  -1   7  -3   -0.03    0.09
  -1   7  -3    0.07    0.10
   1  -7   3   -0.15    0.09
   1  -7   3   -0.04    0.11
  -2   7  -3    5.87    0.27
  -2   7  -3    5.89    0.30
  -2   7  -3    6.19    0.31
  -3   7  -3    1.61    0.18
  -3   7  -3    1.92    0.22
   4   6  -3    0.57    0.16
  -4  -6   3    0.34    0.19
  -4  -6   3    0.23    0.12
  -4  -6   3    0.37    0.15
   3   6  -3    2.54    0.23
  -3  -6   3    2.60    0.30
  -3  -6   3    2.71    0.22
  -3  -6   3    2.31    0.21
   2   6  -3   47.62    1.61
   2   6  -3   46.68    1.61
  -2  -6   3   47.09    1.61
  -2  -6   3   40.62    1.60
  -2  -6   3   45.57    1.62
   1   6  -3    6.31    0.28
   1   6  -3    5.91    0.39
  -1  -6   3    5.90    0.27
  -1  -6   3    6.11    0.28
   0   6  -3    8.94    0.36
   0   6  -3    8.77    0.35
   0  -6   3    8.87    0.35
   0  -6   3    8.50    0.35
  -1   6  -3   78.12    2.63
  -1   6  -3   68.87    2.63
  -1   6  -3   77.61    2.64
   1  -6   3   77.38    2.63
  -2   6  -3   12.57    0.51
  -2   6  -3   11.97    0.46
  -2   6  -3   11.95    0.47
  -2   6  -3   12.19    0.48
  -3   6  -3   13.05    0.56
  -3   6  -3   13.10    0.52
  -4   6  -3    9.39    0.42
  -4   6  -3    8.69    0.50
  -4  -5   3    0.15    0.19
   3   5  -3    6.88    0.33
  -3  -5   3    7.32    0.39
  -3  -5   3    6.97    0.32
  -3  -5   3    7.31    0.31
   2   5  -3   43.02    1.45
   2   5  -3   43.24    1.45
  -2  -5   3   42.83    1.44
  -2  -5   3   35.00    1.44
  -2  -5   3   40.80    1.46
   1   5  -3    3.04    0.18
   1   5  -3    3.22    0.19
  -1  -5   3    3.23    0.20
  -1  -5   3    3.18    0.19
   0   5  -3   97.35    3.43
   0   5  -3   99.83    3.43
   0  -5   3   98.62    3.43
   0  -5   3   99.58    3.43
   0  -5   3   97.77    3.43
  -1   5  -3    0.19    0.11
  -1   5  -3    0.06    0.08
  -1   5  -3    0.06    0.08
  -1   5  -3   -0.01    0.05
   1  -5   3    0.09    0.08
  -2   5  -3    3.26    0.24
  -2   5  -3    2.97    0.18
  -2   5  -3    3.12    0.16
  -2   5  -3    3.14    0.19
  -3   5  -3   21.69    0.79
  -3   5  -3   20.93    0.91
  -4   5  -3    2.27    0.23
  -4   5  -3    2.04    0.31
   5   4  -3   -0.18    0.18
  -5  -4   3    0.13    0.25
   4   4  -3    9.91    0.44
  -4  -4   3    9.87    0.49
   3   4  -3   18.03    0.69
  -3  -4   3   18.31    0.72
  -3  -4   3   18.97    0.67
   2   4  -3    1.70    0.15
   2   4  -3    1.52    0.15
  -2  -4   3    1.58    0.14
  -2  -4   3    1.67    0.15
  -2  -4   3    1.58    0.18
   1   4  -3   74.50    2.58
   1   4  -3   75.74    2.58
  -1  -4   3   72.50    2.58
  -1  -4   3   74.03    2.59
   0   4  -3   59.61    2.08
   0   4  -3   59.19    2.07
   0  -4   3   60.46    2.08
   0  -4   3   58.84    2.07
  -1   4  -3   31.26    1.10
  -1   4  -3   31.65    1.10
  -1   4  -3   31.12    1.12
  -2   4  -3   63.01    2.20
  -2   4  -3   63.42    2.21
  -2   4  -3   63.07    2.22
  -2   4  -3   63.67    2.20
  -3   4  -3   40.16    1.44
  -3   4  -3   40.75    1.41
   3  -4   3   38.39    1.42
  -4   4  -3    0.94    0.20
  -4   4  -3    1.12    0.16
   5   3  -3    0.49    0.18
  -5  -3   3    0.03    0.25
   4   3  -3    5.43    0.31
  -4  -3   3    5.68    0.36
   3   3  -3    5.83    0.28
  -3  -3   3    6.32    0.33
  -3  -3   3    6.01    0.25
  -3  -3   3    5.67    0.25
   2   3  -3    0.72    0.09
   2   3  -3    0.97    0.14
  -2  -3   3    1.19    0.13
  -2  -3   3    0.94    0.17
  -2  -3   3    1.03    0.12
   1   3  -3   42.61    1.48
   1   3  -3   43.39    1.49
  -1  -3   3   41.14    1.48
  -1  -3   3   42.41    1.48
  -1  -3   3   42.72    1.49
   0   3  -3    0.93    0.11
   0   3  -3    0.86    0.10
   0  -3   3    1.10    0.12
   0  -3   3    0.95    0.11
  -1   3  -3    8.61    0.32
  -1   3  -3    8.68    0.32
  -1   3  -3    8.48    0.34
  -1   3  -3    7.55    0.31
   1  -3   3    8.48    0.32
  -2   3  -3    0.60    0.12
  -2   3  -3    0.47    0.08
  -3   3  -3    0.50    0.15
  -3   3  -3    0.66    0.11
   3  -3   3    0.64    0.13
  -4   3  -3    0.96    0.18
  -4   3  -3    1.20    0.15
   4  -3   3    1.12    0.18
   5   2  -3   10.08    0.45
  -5  -2   3    9.00    0.52
   4   2  -3    0.10    0.14
   3   2  -3    1.13    0.16
  -3  -2   3    1.56    0.23
   2   2  -3   22.95    0.79
  -2  -2   3   21.85    0.80
  -2  -2   3   20.29    0.78
  -2  -2   3   23.05    0.78
   1   2  -3   13.19    0.47
   1   2  -3   13.32    0.48
  -1  -2   3   13.25    0.49
  -1  -2   3   12.96    0.47
   0   2  -3   23.24    0.82
   0   2  -3   22.85    0.82
   0   2  -3   23.23    0.82
   0  -2   3   23.63    0.82
   0  -2   3   23.16    0.82
  -1   2  -3  253.31    8.44
  -1   2  -3  241.30    8.44
  -1   2  -3  232.15    8.44
  -1   2  -3  249.47    8.44
   1  -2   3  241.57    8.45
   1  -2   3  245.52    8.44
  -2   2  -3    0.61    0.07
  -2   2  -3    0.45    0.11
   2  -2   3    0.59    0.10
  -3   2  -3   -0.06    0.09
  -3   2  -3   -0.05    0.13
   3  -2   3   -0.04    0.12
  -4   2  -3    0.92    0.15
  -4   2  -3    0.46    0.17
   4  -2   3    0.60    0.18
   5   1  -3    6.33    0.35
  -5  -1   3    5.52    0.43
   4   1  -3    0.58    0.15
  -4  -1   3    0.28    0.19
  -3  -1   3   -0.07    0.14
  -2  -1   3    3.06    0.21
  -2  -1   3    3.22    0.18
   1   1  -3   19.88    0.72
   1   1  -3   20.81    0.72
  -1  -1   3   19.92    0.72
  -1  -1   3   20.93    0.73
   0   1  -3   15.66    0.56
   0   1  -3   14.86    0.56
   0   1  -3   15.96    0.56
   0  -1   3   16.25    0.57
   0  -1   3   15.88    0.56
   0  -1   3   16.51    0.57
  -1   1  -3    5.89    0.22
  -1   1  -3    5.95    0.22
  -1   1  -3    6.00    0.25
  -1   1  -3    6.31    0.23
   1  -1   3    5.88    0.25
   1  -1   3    5.81    0.23
  -2   1  -3   22.90    0.83
  -2   1  -3   23.06    0.81
   2  -1   3   22.71    0.83
  -3   1  -3   11.68    0.43
  -3   1  -3   10.99    0.47
   3  -1   3   11.51    0.47
  -4   1  -3    2.29    0.28
  -4   1  -3    2.22    0.21
   4  -1   3    1.54    0.22
  -5   1  -3    1.21    0.24
  -5   1  -3    0.87    0.20
   5  -1   3    1.11    0.24
   5   0  -3   -0.30    0.16
  -5   0   3   -0.43    0.24
  -4   0   3   13.04    0.57
  -4   0   3   12.08    0.51
  -3   0   3    0.15    0.11
  -3   0   3   -0.04    0.13
  -2   0   3    1.19    0.17
  -2   0   3    1.47    0.14
   1   0  -3    0.08    0.04
  -1   0   3    0.01    0.06
  -1   0   3   -0.04    0.04
  -1   0   3    0.11    0.07
  -1   0   3   -0.08    0.11
   0   0  -3    1.19    0.08
   0   0  -3    1.21    0.08
   0   0  -3    1.50    0.08
   0   0   3    1.43    0.11
   0   0   3    1.15    0.08
   0   0   3    1.27    0.09
  -1   0  -3   24.94    1.01
  -1   0  -3   29.08    1.01
  -1   0  -3   29.13    0.99
   1   0   3   29.01    1.00
   1   0   3   30.55    1.01
  -2   0  -3   36.16    1.19
  -2   0  -3   32.57    1.21
  -2   0  -3   33.26    1.20
  -3   0  -3   11.39    0.46
  -3   0  -3   11.19    0.47
  -3   0  -3   11.53    0.43
  -4   0  -3    3.43    0.23
  -4   0  -3    3.51    0.34
  -4   0  -3    3.46    0.30
  -5   0  -3    0.90    0.23
   5   0   3    1.23    0.17
   5   0   3    0.50    0.25
  -5   1   3   -0.03    0.19
  -5   1   3   -0.02    0.23
  -4   1   3   -0.06    0.19
  -4   1   3   -0.05    0.15
  -3   1   3   13.05    0.50
  -3   1   3   12.76    0.52
  -2   1   3   17.05    0.64
  -2   1   3   17.95    0.64
   1  -1  -3    1.30    0.09
  -1   1   3    1.55    0.09
  -1   1   3    1.39    0.10
  -1   1   3    1.52    0.12
   0  -1  -3    2.35    0.11
   0  -1  -3    2.25    0.10
   0   1   3    2.13    0.10
   0   1   3    2.33    0.11
   0   1   3    2.09    0.11
   0   1   3    2.40    0.10
  -1  -1  -3   64.70    2.23
  -1  -1  -3   66.30    2.23
  -1  -1  -3   62.06    2.23
   1   1   3   64.10    2.23
  -2  -1  -3   26.33    0.95
  -2  -1  -3   26.98    0.93
  -2  -1  -3   26.14    0.95
  -3  -1  -3    1.02    0.14
  -3  -1  -3    1.22    0.16
  -4  -1  -3    0.42    0.20
  -4  -1  -3    0.35    0.17
   4   1   3    0.51    0.12
  -5  -1  -3    0.50    0.27
  -5  -1  -3    1.20    0.23
   5   1   3    0.59    0.17
  -4   2   3    0.71    0.20
  -3   2   3    0.41    0.15
  -3   2   3    0.34    0.12
  -3   2   3    0.25    0.14
  -2   2   3    7.95    0.33
  -2   2   3    8.45    0.33
   1  -2  -3    1.12    0.08
  -1   2   3    1.08    0.10
  -1   2   3    1.05    0.09
  -1   2   3    1.32    0.09
   0  -2  -3    9.30    0.34
   0  -2  -3   10.37    0.35
   0   2   3    9.05    0.34
   0   2   3    8.56    0.34
   0   2   3    9.25    0.34
  -1  -2  -3   18.82    0.62
  -1  -2  -3   15.17    0.62
   1   2   3   17.96    0.61
  -2  -2  -3    5.73    0.25
  -2  -2  -3    5.50    0.22
  -2  -2  -3    5.18    0.26
  -2  -2  -3    5.78    0.22
   2   2   3    4.75    0.21
  -3  -2  -3   25.13    0.91
  -3  -2  -3   25.16    0.92
   3   2   3   24.48    0.88
  -4  -2  -3    1.17    0.22
  -4  -2  -3    1.18    0.19
   4   2   3    1.38    0.17
  -5  -2  -3    0.71    0.23
  -5  -2  -3    0.01    0.25
   5   2   3    0.14    0.15
   4  -3  -3    6.72    0.37
  -4   3   3    6.52    0.38
  -4   3   3    6.25    0.35
  -3   3   3    0.20    0.11
  -3   3   3    0.32    0.14
   2  -3  -3   -0.08    0.08
  -2   3   3    0.14    0.08
   1  -3  -3    5.74    0.22
   1  -3  -3    5.35    0.24
  -1   3   3    5.63    0.22
  -1   3   3    5.77    0.23
  -1   3   3    6.04    0.23
   0  -3  -3    1.65    0.11
   0  -3  -3    1.85    0.15
   0   3   3    1.52    0.11
   0   3   3    1.92    0.11
   0   3   3    1.68    0.13
  -1  -3  -3  193.28    6.62
  -1  -3  -3  192.62    6.62
  -1  -3  -3  193.59    6.63
  -1  -3  -3  191.65    6.62
   1   3   3  181.88    6.62
   1   3   3  194.82    6.62
  -2  -3  -3  124.20    4.49
  -2  -3  -3  132.13    4.48
  -2  -3  -3  132.08    4.48
  -2  -3  -3  128.38    4.50
   2   3   3  123.30    4.49
   2   3   3  136.16    4.50
  -3  -3  -3   -0.08    0.14
  -3  -3  -3    0.01    0.12
   3   3   3   -0.02    0.08
  -4  -3  -3   -0.08    0.17
   4   3   3    0.08    0.11
  -5  -3  -3    2.54    0.38
  -5  -3  -3    3.08    0.36
   5   3   3    2.10    0.26
   4  -4  -3    1.87    0.26
  -4   4   3    1.58    0.19
   3  -4  -3   -0.23    0.13
  -3   4   3   -0.05    0.12
   2  -4  -3   -0.03    0.09
  -2   4   3    0.08    0.10
   1  -4  -3    1.51    0.11
   0  -4  -3   33.31    1.13
   0  -4  -3   32.06    1.13
   0   4   3   33.09    1.13
   0   4   3   30.41    1.13
   0   4   3   32.46    1.14
  -1  -4  -3   50.30    1.73
  -1  -4  -3   50.55    1.74
  -1  -4  -3   48.62    1.73
  -1  -4  -3   51.14    1.73
   1   4   3   50.45    1.73
   1   4   3   46.67    1.73
  -2  -4  -3    7.77    0.30
  -2  -4  -3    7.58    0.31
  -2  -4  -3    6.91    0.30
  -2  -4  -3    7.83    0.33
   2   4   3    7.73    0.29
   2   4   3    6.89    0.30
  -3  -4  -3    4.85    0.22
  -3  -4  -3    4.76    0.29
  -3  -4  -3    4.35    0.26
   3   4   3    4.49    0.21
  -4  -4  -3    6.79    0.40
   4   4   3    5.73    0.29
  -5  -4  -3    0.82    0.25
   5   4   3    0.66    0.17
   4  -5  -3    1.78    0.28
  -4   5   3    1.67    0.25
   3  -5  -3    0.79    0.15
  -3   5   3    1.00    0.15
   2  -5  -3    1.18    0.18
  -2   5   3    1.00    0.14
  -2   5   3    1.14    0.16
   1  -5  -3    0.00    0.09
   1  -5  -3   -0.05    0.07
  -1   5   3    0.09    0.08
  -1   5   3   -0.05    0.07
  -1   5   3   -0.02    0.08
   0  -5  -3   49.81    1.79
   0  -5  -3   51.71    1.78
   0   5   3   51.10    1.78
   0   5   3   51.48    1.78
  -1  -5  -3   69.01    2.39
  -1  -5  -3   67.29    2.39
  -1  -5  -3   69.79    2.39
   1   5   3   69.38    2.39
   1   5   3   67.33    2.38
  -2  -5  -3   28.28    1.01
  -2  -5  -3   28.24    1.02
  -2  -5  -3   28.87    1.00
   2   5   3   28.76    1.00
   2   5   3   27.32    1.00
  -3  -5  -3    5.71    0.29
  -3  -5  -3    5.49    0.27
  -3  -5  -3    5.66    0.33
  -3  -5  -3    6.00    0.27
   3   5   3    5.84    0.26
  -4  -5  -3    0.01    0.10
  -4  -5  -3   -0.08    0.19
   4   5   3    0.05    0.13
  -5  -5  -3    0.61    0.25
   5   5   3    1.35    0.19
   4  -6  -3    0.02    0.18
  -4   6   3    0.03    0.16
   3  -6  -3    0.18    0.18
  -3   6   3    0.08    0.22
   2  -6  -3    3.56    0.25
  -2   6   3    3.81    0.23
  -2   6   3    3.73    0.21
  -2   6   3    3.59    0.20
   1  -6  -3    6.00    0.28
   1  -6  -3    5.68    0.25
  -1   6   3    6.15    0.26
  -1   6   3    5.70    0.26
   0  -6  -3   13.13    0.49
   0  -6  -3   13.58    0.51
   0   6   3   13.30    0.50
   0   6   3   13.59    0.50
  -1  -6  -3    6.72    0.28
  -1  -6  -3    6.96    0.29
  -1  -6  -3    7.12    0.30
   1   6   3    6.65    0.29
   1   6   3    6.79    0.28
  -2  -6  -3   16.96    0.64
  -2  -6  -3   17.10    0.64
  -2  -6  -3   17.07    0.63
  -2  -6  -3   16.99    0.65
   2   6   3   17.30    0.63
   2   6   3   17.72    0.64
  -3  -6  -3    0.05    0.10
  -3  -6  -3   -0.03    0.16
  -3  -6  -3   -0.22    0.12
   3   6   3    0.11    0.11
  -4  -6  -3    0.13    0.20
  -4  -6  -3    0.16    0.15
  -4  -6  -3    0.15    0.10
   4   6   3    0.44    0.14
  -5  -6  -3    0.42    0.29
   5   6   3    0.28    0.20
   3  -7  -3    1.79    0.27
  -3   7   3    1.56    0.18
   2  -7  -3    4.99    0.31
  -2   7   3    5.30    0.28
  -2   7   3    5.80    0.27
   1  -7  -3    2.71    0.22
   1  -7  -3    3.10    0.18
  -1   7   3    2.77    0.19
  -1   7   3    3.15    0.20
   0  -7  -3    5.62    0.28
   0  -7  -3    5.50    0.24
   0   7   3    5.79    0.26
   0   7   3    5.24    0.26
  -1  -7  -3   -0.07    0.08
  -1  -7  -3   -0.10    0.09
  -1  -7  -3    0.25    0.11
   1   7   3   -0.04    0.09
   1   7   3   -0.09    0.10
  -2  -7  -3    3.32    0.24
  -2  -7  -3    3.51    0.23
  -2  -7  -3    3.57    0.21
   2   7   3    3.38    0.22
   2   7   3    3.39    0.21
  -3  -7  -3    3.89    0.23
  -3  -7  -3    3.41    0.30
  -3  -7  -3    2.85    0.25
   3   7   3    2.88    0.26
   3   7   3    3.68    0.24
  -4  -7  -3    5.55    0.40
  -4  -7  -3    6.25    0.30
   4   7   3    5.45    0.32
   3  -8  -3    2.56    0.29
  -3   8   3    1.99    0.26
   2  -8  -3    0.88    0.16
  -2   8   3    0.70    0.12
   1  -8  -3    1.33    0.17
   1  -8  -3    1.21    0.15
  -1   8   3    1.05    0.12
  -1   8   3    1.59    0.19
   0  -8  -3    8.96    0.41
   0  -8  -3    9.18    0.38
   0   8   3    9.44    0.39
   0   8   3   10.00    0.39
  -1  -8  -3    0.67    0.13
  -1  -8  -3    0.39    0.10
   1   8   3    0.50    0.11
   1   8   3    0.51    0.11
  -2  -8  -3    0.09    0.14
  -2  -8  -3    0.13    0.13
  -2  -8  -3   -0.01    0.11
   2   8   3    0.21    0.13
   2   8   3    0.08    0.12
  -3  -8  -3    4.29    0.27
  -3  -8  -3    3.71    0.33
   3   8   3    4.34    0.27
  -4  -8  -3    5.23    0.31
  -4  -8  -3    5.38    0.41
   4   8   3    6.16    0.34
   3  -9  -3    2.27    0.29
  -3   9   3    2.14    0.26
   2  -9  -3    0.53    0.16
  -2   9   3    0.62    0.12
  -2   9   3    0.70    0.15
   1  -9  -3    3.27    0.30
   1  -9  -3    3.08    0.22
  -1   9   3    3.36    0.24
  -1   9   3    3.34    0.26
   0  -9  -3    5.29    0.32
   0   9   3    5.15    0.29
   0   9   3    5.43    0.29
  -1  -9  -3    0.48    0.15
  -1  -9  -3    0.42    0.12
   1   9   3    0.47    0.13
   1   9   3    0.50    0.13
  -2  -9  -3    0.16    0.12
  -2  -9  -3    0.07    0.15
  -2  -9  -3    0.01    0.15
   2   9   3   -0.01    0.14
   2   9   3    0.14    0.15
  -3  -9  -3    4.40    0.42
   3   9   3    5.84    0.31
  -4  -9  -3    3.07    0.27
  -4  -9  -3    3.19    0.39
   4   9   3    3.82    0.38
   2 -10  -3    0.24    0.16
  -2  10   3    0.37    0.13
  -2  10   3    0.17    0.15
   1 -10  -3    2.13    0.30
  -1  10   3    2.44    0.30
  -1  10   3    2.12    0.23
   0 -10  -3    4.90    0.27
   0 -10  -3    4.44    0.34
   0  10   3    5.07    0.30
  -1 -10  -3    0.17    0.17
  -1 -10  -3    0.08    0.12
   1  10   3   -0.24    0.14
   1  10   3   -0.02    0.13
  -2 -10  -3    1.36    0.19
  -2 -10  -3    1.26    0.18
  -2 -10  -3    1.16    0.15
   2  10   3    1.33    0.17
   2  10   3    1.39    0.17
  -3 -10  -3    0.12    0.19
  -3 -10  -3    0.04    0.15
  -4 -10  -3    1.15    0.25
  -4 -10  -3    0.96    0.18
   4  10   3    1.01    0.20
   2 -11  -3    0.34    0.20
  -2  11   3    0.61    0.15
  -2  11   3    0.46    0.16
   1 -11  -3    3.28    0.34
  -1  11   3    3.20    0.27
  -1  11   3    3.81    0.26
   0 -11  -3   -0.10    0.18
   0 -11  -3    0.24    0.14
   0  11   3    0.10    0.15
   0  11   3    0.20    0.15
  -1 -11  -3    0.32    0.14
  -1 -11  -3    0.09    0.19
   1  11   3   -0.04    0.15
   1  11   3    0.23    0.15
  -2 -11  -3    6.58    0.36
  -2 -11  -3    6.89    0.38
  -2 -11  -3    6.06    0.39
   2  11   3    6.49    0.36
   2  11   3    6.72    0.38
  -3 -11  -3    0.36    0.17
  -3 -11  -3    0.23    0.20
   3  11   3    0.40    0.17
   1 -12  -3    0.29    0.21
  -1  12   3    0.22    0.17
  -1  12   3    0.51    0.15
   0 -12  -3    3.02    0.35
   0  12   3    3.13    0.28
   0  12   3    3.16    0.28
  -1 -12  -3    0.72    0.21
  -1 -12  -3    0.98    0.17
   1  12   3    1.17    0.19
   1  12   3    0.92    0.17
  -2 -12  -3    0.92    0.18
  -2 -12  -3    1.18    0.20
  -2 -12  -3    0.80    0.22
   2  12   3    0.91    0.20
   2  12   3    0.45    0.18
  -3 -12  -3    2.55    0.30
  -3 -12  -3    2.23    0.36
   3  12   3    2.49    0.30
   0 -13  -3    0.35    0.23
   0  13   3    0.69    0.17
   0  13   3    0.49    0.18
  -1 -13  -3    1.09    0.24
  -1 -13  -3    1.23    0.19
   1  13   3    0.87    0.20
   1  13   3    1.43    0.24
  -2 -13  -3    0.03    0.17
  -2 -13  -3   -0.32    0.23
   2  13   3   -0.05    0.18
   2  13   3    0.23    0.24
   1  12  -4    3.56    0.31
   1  12  -4    3.01    0.35
  -1 -12   4    3.97    0.33
   0  12  -4   -0.14    0.17
   0  12  -4    0.17    0.16
   0 -12   4   -0.09    0.22
   2  11  -4    4.03    0.30
   2  11  -4    3.90    0.39
  -2 -11   4    3.56    0.32
  -2 -11   4    3.93    0.33
   1  11  -4    0.67    0.18
   1  11  -4    0.58    0.17
  -1 -11   4    0.72    0.17
  -1 -11   4    0.50    0.17
   0  11  -4    2.83    0.28
   0 -11   4    3.15    0.33
   0 -11   4    3.47    0.32
  -1  11  -4    0.84    0.17
  -1  11  -4    1.06    0.18
   1 -11   4    1.09    0.18
   3  10  -4    3.57    0.30
  -3 -10   4    4.09    0.31
  -3 -10   4    3.53    0.36
   2  10  -4    2.28    0.29
   2  10  -4    1.91    0.25
  -2 -10   4    2.00    0.28
   1  10  -4    1.28    0.17
   1  10  -4    1.26    0.18
  -1 -10   4    1.32    0.16
  -1 -10   4    1.24    0.16
   0  10  -4   -0.10    0.16
   0  10  -4   -0.03    0.14
   0 -10   4    0.07    0.17
   0 -10   4    0.04    0.13
  -1  10  -4    0.30    0.15
  -1  10  -4    0.41    0.15
   1 -10   4    0.53    0.16
  -2  10  -4    0.47    0.17
  -2  10  -4    0.73    0.15
   2 -10   4    0.96    0.18
   3   9  -4    4.93    0.32
  -3  -9   4    5.69    0.32
  -3  -9   4    5.32    0.38
   2   9  -4    1.81    0.23
   2   9  -4    1.65    0.18
  -2  -9   4    1.84    0.24
  -2  -9   4    1.75    0.28
   1   9  -4   14.60    0.59
  -1  -9   4   14.59    0.58
  -1  -9   4   14.64    0.57
   0   9  -4    7.04    0.36
   0  -9   4    6.84    0.35
   0  -9   4    7.09    0.33
  -1   9  -4    2.00    0.22
  -2   9  -4    0.33    0.14
  -2   9  -4    0.39    0.13
   2  -9   4    0.32    0.16
   4   8  -4   -0.11    0.16
  -4  -8   4    0.03    0.15
  -4  -8   4   -0.01    0.21
   3   8  -4    1.61    0.23
  -3  -8   4    1.96    0.24
  -3  -8   4    1.64    0.22
   2   8  -4    0.93    0.18
   2   8  -4    1.00    0.15
  -2  -8   4    1.27    0.18
  -2  -8   4    1.12    0.15
   1   8  -4    8.59    0.37
   1   8  -4    8.54    0.39
  -1  -8   4    8.81    0.39
  -1  -8   4    8.52    0.38
   0   8  -4    1.48    0.19
   0   8  -4    1.30    0.15
   0  -8   4    1.26    0.14
   0  -8   4    1.12    0.13
  -1   8  -4    0.36    0.13
  -1   8  -4    0.58    0.14
   1  -8   4    0.18    0.11
   1  -8   4    0.41    0.13
  -2   8  -4    6.09    0.31
   2  -8   4    5.86    0.33
  -3   8  -4    0.63    0.15
  -3   8  -4    0.32    0.11
   3  -8   4    0.46    0.17
   4   7  -4    0.23    0.16
  -4  -7   4   -0.01    0.13
  -4  -7   4   -0.03    0.20
  -3  -7   4    1.76    0.25
   2   7  -4   48.64    1.70
   2   7  -4   47.40    1.70
  -2  -7   4   46.86    1.71
  -2  -7   4   48.84    1.70
   1   7  -4    5.14    0.26
   1   7  -4    5.14    0.27
  -1  -7   4    5.29    0.28
  -1  -7   4    5.02    0.27
   0   7  -4    8.35    0.35
   0   7  -4    8.27    0.36
   0  -7   4    8.21    0.35
   0  -7   4    8.45    0.35
  -1   7  -4    0.12    0.10
  -1   7  -4   -0.05    0.11
  -1   7  -4   -0.10    0.09
   1  -7   4    0.00    0.09
   1  -7   4   -0.06    0.11
  -2   7  -4   -0.02    0.12
  -2   7  -4   -0.04    0.09
  -3   7  -4    6.54    0.30
  -3   7  -4    6.28    0.40
  -3   7  -4    6.55    0.29
  -3   7  -4    6.39    0.34
   4   6  -4    0.18    0.16
  -4  -6   4   -0.02    0.19
  -4  -6   4   -0.14    0.21
  -4  -6   4    0.10    0.12
   3   6  -4    8.45    0.38
  -3  -6   4    8.56    0.37
  -3  -6   4    8.59    0.43
  -3  -6   4    8.04    0.38
   2   6  -4    5.15    0.26
   2   6  -4    5.14    0.27
  -2  -6   4    5.01    0.26
  -2  -6   4    5.18    0.26
  -2  -6   4    4.92    0.28
   1   6  -4    0.91    0.11
   1   6  -4    0.98    0.11
  -1  -6   4    0.89    0.11
  -1  -6   4    0.93    0.12
   0   6  -4    6.11    0.28
   0   6  -4    6.20    0.27
   0  -6   4    5.73    0.30
   0  -6   4    5.79    0.27
   0  -6   4    6.19    0.26
  -1   6  -4    1.24    0.15
  -1   6  -4    1.09    0.15
  -1   6  -4    1.02    0.15
  -1   6  -4    1.10    0.11
   1  -6   4    1.18    0.11
  -2   6  -4    1.34    0.18
  -2   6  -4    1.24    0.15
  -2   6  -4    1.52    0.24
  -2   6  -4    1.60    0.18
  -3   6  -4    2.90    0.30
  -3   6  -4    3.20    0.24
  -3   6  -4    3.24    0.20
  -4   6  -4   15.02    0.67
  -4   6  -4   15.63    0.62
   4   5  -4    0.47    0.16
  -4  -5   4    0.22    0.19
   3   5  -4   22.19    0.85
  -3  -5   4   22.85    0.84
  -3  -5   4   23.07    0.88
  -3  -5   4   23.79    0.83
   2   5  -4    6.84    0.30
   2   5  -4    7.05    0.30
  -2  -5   4    7.16    0.30
  -2  -5   4    6.85    0.29
  -2  -5   4    6.76    0.33
   1   5  -4    7.75    0.32
   1   5  -4    8.07    0.33
  -1  -5   4    8.09    0.34
  -1  -5   4    7.82    0.33
   0   5  -4    5.75    0.25
   0   5  -4    5.67    0.24
   0  -5   4    4.85    0.24
   0  -5   4    5.72    0.25
  -1   5  -4    9.56    0.39
  -1   5  -4    8.35    0.36
  -1   5  -4    9.27    0.36
  -1   5  -4    9.64    0.37
   1  -5   4   10.27    0.37
  -2   5  -4    3.17    0.18
  -2   5  -4    3.41    0.20
  -2   5  -4    3.47    0.26
  -2   5  -4    3.29    0.19
  -3   5  -4    1.89    0.26
  -3   5  -4    2.27    0.20
  -4   5  -4    0.35    0.20
   4   4  -4    6.98    0.42
  -4  -4   4    6.98    0.41
   3   4  -4   10.09    0.42
  -3  -4   4    9.97    0.45
  -3  -4   4   10.25    0.39
  -3  -4   4    9.46    0.41
   2   4  -4    0.54    0.09
   2   4  -4    0.53    0.10
  -2  -4   4    0.46    0.08
  -2  -4   4    0.60    0.10
  -2  -4   4    0.53    0.12
   1   4  -4    1.32    0.14
   1   4  -4    1.41    0.15
  -1  -4   4    1.71    0.15
  -1  -4   4    1.55    0.17
   0   4  -4    5.53    0.24
   0   4  -4    5.20    0.23
   0  -4   4    5.40    0.24
   0  -4   4    5.58    0.25
  -1   4  -4    0.11    0.07
  -1   4  -4    0.07    0.08
  -1   4  -4   -0.04    0.09
  -1   4  -4    0.07    0.04
   1  -4   4    0.03    0.07
   1  -4   4   -0.01    0.09
  -2   4  -4    9.09    0.36
  -2   4  -4    9.47    0.36
  -2   4  -4    9.30    0.35
  -2   4  -4    9.20    0.40
  -3   4  -4    7.69    0.33
  -3   4  -4    7.48    0.39
   3  -4   4    7.84    0.36
  -4   4  -4    0.22    0.14
  -4   4  -4    0.57    0.20
   4  -4   4    0.60    0.16
   5   3  -4    1.15    0.20
  -5  -3   4    1.01    0.25
  -4  -3   4    5.20    0.36
   3   3  -4    5.02    0.26
  -3  -3   4    5.40    0.31
  -3  -3   4    5.22    0.24
  -3  -3   4    5.08    0.24
   2   3  -4    3.01    0.17
   2   3  -4    3.09    0.18
  -2  -3   4    3.11    0.21
  -2  -3   4    3.00    0.17
  -2  -3   4    3.12    0.17
   1   3  -4   14.21    0.51
   1   3  -4   13.98    0.51
  -1  -3   4   13.82    0.53
  -1  -3   4   14.12    0.51
  -1  -3   4   14.06    0.51
   0   3  -4    0.29    0.09
   0   3  -4    0.26    0.07
   0  -3   4    0.40    0.08
   0  -3   4    0.25    0.07
  -1   3  -4    0.06    0.07
  -1   3  -4    0.04    0.06
  -1   3  -4   -0.03    0.09
  -1   3  -4    0.04    0.03
   1  -3   4    0.06    0.07
   1  -3   4   -0.04    0.09
  -2   3  -4    2.97    0.14
  -2   3  -4    3.05    0.15
  -2   3  -4    2.71    0.16
  -2   3  -4    2.49    0.21
   2  -3   4    2.89    0.19
  -3   3  -4    0.65    0.15
  -3   3  -4    0.58    0.11
   3  -3   4    0.38    0.14
  -4   3  -4    0.15    0.17
  -4   3  -4    0.03    0.13
   4  -3   4    0.34    0.17
   5   2  -4   22.16    0.87
  -5  -2   4   22.91    0.92
   4   2  -4    6.72    0.35
  -4  -2   4    6.52    0.51
   3   2  -4    2.64    0.20
  -3  -2   4    2.70    0.26
   2   2  -4   12.85    0.48
  -2  -2   4   13.13    0.47
  -2  -2   4   12.35    0.49
  -2  -2   4   12.71    0.47
   1   2  -4   15.37    0.59
   1   2  -4   17.60    0.60
  -1  -2   4   17.26    0.61
  -1  -2   4   15.45    0.59
  -1  -2   4   17.44    0.59
   0   2  -4   63.62    2.20
   0  -2   4   63.01    2.20
  -1   2  -4   82.15    2.81
  -1   2  -4   82.70    2.81
  -1   2  -4   76.70    2.81
   1  -2   4   81.76    2.81
   1  -2   4   80.88    2.80
  -2   2  -4    9.25    0.33
  -2   2  -4    8.45    0.33
  -2   2  -4    8.83    0.37
   2  -2   4    9.18    0.37
  -3   2  -4   13.26    0.54
  -3   2  -4   13.74    0.50
   3  -2   4   13.26    0.54
  -4   2  -4    0.44    0.17
  -4   2  -4    0.52    0.14
   4  -2   4    0.26    0.19
   5   1  -4    0.11    0.18
  -5  -1   4   -0.13    0.24
   4   1  -4    0.51    0.15
  -4  -1   4    0.20    0.23
   3   1  -4    0.01    0.10
  -3  -1   4   -0.02    0.21
  -2  -1   4   58.88    2.06
  -2  -1   4   58.73    2.04
   1   1  -4    0.87    0.10
   1   1  -4    1.00    0.10
  -1  -1   4    1.03    0.10
  -1  -1   4    1.01    0.13
   0   1  -4   82.61    2.86
   0   1  -4   82.90    2.86
   0  -1   4   81.60    2.86
   0  -1   4   82.70    2.86
  -1   1  -4   21.45    0.73
  -1   1  -4   18.18    0.72
  -1   1  -4   21.33    0.74
  -1   1  -4   20.66    0.72
   1  -1   4   20.64    0.73
   1  -1   4   21.67    0.74
  -2   1  -4    6.68    0.29
   2  -1   4    6.40    0.29
  -3   1  -4    7.57    0.35
  -3   1  -4    7.31    0.30
   3  -1   4    6.98    0.36
  -4   1  -4    2.22    0.20
   4  -1   4    1.59    0.23
  -5   1  -4   -0.37    0.18
  -5   1  -4   -0.27    0.22
   5  -1   4    0.31    0.22
   5   0  -4    2.40    0.29
  -5   0   4    2.70    0.37
  -4   0   4    1.09    0.19
  -4   0   4    1.33    0.21
  -3   0   4    0.04    0.11
  -3   0   4   -0.12    0.14
  -2   0   4   19.43    0.73
  -2   0   4   20.88    0.73
   1   0  -4   56.63    2.03
  -1   0   4   58.06    2.03
  -1   0   4   64.79    2.04
  -1   0   4   57.95    2.03
  -1   0   4   55.37    2.04
   0   0  -4   65.64    2.29
   0   0  -4   66.06    2.29
   0   0   4   65.59    2.29
   0   0   4   67.02    2.30
   0   0   4   66.11    2.29
  -1   0  -4   73.62    2.38
  -1   0  -4   71.92    2.37
  -1   0  -4   58.13    2.37
   1   0   4   67.76    2.37
   1   0   4   70.10    2.38
  -2   0  -4   50.87    1.80
   2   0   4   51.70    1.80
  -3   0  -4    0.28    0.13
  -3   0  -4    0.42    0.09
  -4   0  -4    7.99    0.41
  -4   0  -4    8.41    0.35
   4   0   4    7.89    0.45
  -5   0  -4    0.38    0.22
   5   0   4    0.19    0.25
   5   0   4    0.11    0.15
  -4   1   4    2.69    0.32
  -3   1   4    7.53    0.33
  -3   1   4    7.77    0.36
  -2   1   4    6.79    0.30
  -2   1   4    7.43    0.30
   1  -1  -4    0.18    0.05
  -1   1   4    0.20    0.05
  -1   1   4    0.19    0.05
  -1   1   4    0.15    0.06
  -1   1   4    0.29    0.07
   0  -1  -4  126.77    4.26
   0  -1  -4  121.42    4.26
   0   1   4  113.54    4.26
   0   1   4  130.47    4.26
   0   1   4  122.79    4.26
   0   1   4  123.49    4.26
  -1  -1  -4    0.01    0.02
  -2  -1  -4   15.97    0.57
  -2  -1  -4   16.37    0.60
  -2  -1  -4   15.43    0.57
  -2  -1  -4   16.25    0.59
  -3  -1  -4   15.97    0.60
  -3  -1  -4   15.75    0.62
  -4  -1  -4    6.80    0.37
  -4  -1  -4    6.86    0.41
   4   1   4    6.75    0.30
  -5  -1  -4    0.68    0.22
   5   1   4    0.74    0.17
   5   1   4    0.07    0.26
   4  -2  -4    1.84    0.25
  -4   2   4    1.89    0.29
  -4   2   4    1.46    0.18
   3  -2  -4    5.15    0.27
  -3   2   4    5.99    0.30
  -3   2   4    5.61    0.28
  -2   2   4    4.19    0.22
  -2   2   4    4.12    0.20
   1  -2  -4   25.61    0.95
   1  -2  -4   26.59    0.94
  -1   2   4   27.98    0.94
  -1   2   4   26.94    0.94
  -1   2   4   27.15    0.95
   0  -2  -4  107.54    3.83
   0  -2  -4  113.21    3.83
   0   2   4  114.47    3.83
   0   2   4  109.14    3.83
   0   2   4  109.25    3.83
   0   2   4  110.17    3.83
  -1  -2  -4   70.88    2.39
  -1  -2  -4   66.04    2.39
  -1  -2  -4   65.78    2.38
   1   2   4   70.29    2.39
   1   2   4   70.59    2.39
  -2  -2  -4   22.38    0.78
  -2  -2  -4   21.81    0.81
  -2  -2  -4   22.38    0.78
  -2  -2  -4   21.79    0.79
  -3  -2  -4   34.77    1.24
  -3  -2  -4   35.15    1.25
   3   2   4   33.77    1.21
  -4  -2  -4    1.84    0.28
  -4  -2  -4    1.90    0.28
   4   2   4    2.02    0.17
  -5  -2  -4    2.76    0.36
  -5  -2  -4    1.92    0.30
   5   2   4    2.35    0.25
   4  -3  -4    1.21    0.18
  -4   3   4    1.04    0.18
  -4   3   4    1.19    0.21
   3  -3  -4    0.38    0.13
  -3   3   4    0.45    0.12
  -3   3   4    0.63    0.15
   2  -3  -4    0.35    0.09
  -2   3   4    0.50    0.09
   1  -3  -4   22.15    0.82
   1  -3  -4   23.31    0.82
  -1   3   4   22.99    0.82
  -1   3   4   23.73    0.82
  -1   3   4   23.68    0.82
   0  -3  -4   35.01    1.25
   0  -3  -4   37.22    1.24
   0   3   4   34.20    1.24
   0   3   4   35.21    1.25
   0   3   4   36.17    1.24
  -1  -3  -4   59.59    2.14
  -1  -3  -4   62.66    2.14
  -1  -3  -4   62.61    2.15
  -1  -3  -4   62.11    2.15
   1   3   4   62.00    2.14
   1   3   4   60.72    2.14
  -2  -3  -4   17.03    0.60
  -2  -3  -4   16.47    0.62
  -2  -3  -4   17.06    0.60
  -2  -3  -4   16.58    0.61
   2   3   4   15.88    0.60
   2   3   4   16.35    0.59
  -3  -3  -4    0.21    0.14
  -3  -3  -4    0.24    0.08
  -3  -3  -4    0.07    0.12
   3   3   4    0.21    0.07
  -4  -3  -4    1.07    0.18
   4   3   4    1.38    0.17
  -5  -3  -4    1.26    0.23
  -5  -3  -4    0.53    0.25
   5   3   4    0.58    0.16
   4  -4  -4    0.81    0.17
  -4   4   4    0.92    0.18
   3  -4  -4    1.77    0.23
  -3   4   4    1.99    0.20
   2  -4  -4   21.10    0.79
  -2   4   4   22.06    0.78
   1  -4  -4    9.30    0.38
   1  -4  -4    9.79    0.36
  -1   4   4    9.35    0.36
  -1   4   4   10.06    0.37
  -1   4   4   10.08    0.37
   0  -4  -4   21.55    0.79
   0  -4  -4   23.15    0.78
   0   4   4   22.36    0.78
   0   4   4   23.13    0.79
   0   4   4   20.42    0.79
  -1  -4  -4   40.80    1.44
  -1  -4  -4   41.70    1.43
  -1  -4  -4   40.90    1.44
  -1  -4  -4   39.08    1.43
   1   4   4   41.71    1.43
  -2  -4  -4    8.51    0.33
  -2  -4  -4    8.10    0.32
  -2  -4  -4    8.12    0.35
  -2  -4  -4    8.15    0.32
   2   4   4    8.03    0.31
   2   4   4    8.37    0.33
  -3  -4  -4    0.52    0.12
  -3  -4  -4    0.59    0.09
  -3  -4  -4    0.51    0.15
  -3  -4  -4    0.48    0.13
   3   4   4    0.56    0.09
  -4  -4  -4    2.18    0.28
  -4  -4  -4    2.95    0.31
   4   4   4    2.54    0.20
  -5  -4  -4    0.08    0.24
  -5  -4  -4    0.35    0.22
   5   4   4    0.24    0.16
   4  -5  -4    0.45    0.18
  -4   5   4    0.10    0.17
   3  -5  -4    0.11    0.14
  -3   5   4    0.21    0.14
   2  -5  -4    2.23    0.20
  -2   5   4    2.12    0.16
  -2   5   4    1.97    0.14
  -2   5   4    2.35    0.18
   1  -5  -4    9.27    0.38
   1  -5  -4    9.56    0.36
  -1   5   4    9.74    0.37
  -1   5   4    9.28    0.36
  -1   5   4    9.53    0.37
   0  -5  -4   35.35    1.21
   0  -5  -4   32.87    1.21
   0   5   4   34.71    1.21
   0   5   4   34.49    1.21
  -1  -5  -4    9.09    0.35
  -1  -5  -4    9.07    0.36
  -1  -5  -4    9.17    0.36
   1   5   4    8.91    0.36
   1   5   4    9.21    0.35
  -2  -5  -4    0.00    0.11
  -2  -5  -4   -0.17    0.08
  -2  -5  -4   -0.17    0.08
  -2  -5  -4    0.16    0.10
   2   5   4    0.13    0.08
  -3  -5  -4    3.64    0.24
  -3  -5  -4    3.35    0.20
  -3  -5  -4    3.16    0.21
  -3  -5  -4    3.26    0.27
   3   5   4    3.63    0.19
  -4  -5  -4    0.07    0.18
  -4  -5  -4   -0.04    0.17
   4   5   4   -0.01    0.12
  -5  -5  -4    3.49    0.42
   5   5   4    3.46    0.29
   4  -6  -4    2.29    0.31
  -4   6   4    1.54    0.19
   3  -6  -4    2.04    0.29
  -3   6   4    2.46    0.22
   2  -6  -4    0.27    0.12
  -2   6   4    0.10    0.09
  -2   6   4    0.24    0.09
  -2   6   4    0.26    0.11
   1  -6  -4   60.63    2.12
   1  -6  -4   59.73    2.13
  -1   6   4   60.45    2.12
  -1   6   4   62.33    2.13
   0  -6  -4    2.17    0.18
   0  -6  -4    1.89    0.15
   0   6   4    1.53    0.17
   0   6   4    2.35    0.15
  -1  -6  -4    3.19    0.19
  -1  -6  -4    2.58    0.18
  -1  -6  -4    2.48    0.17
   1   6   4    2.87    0.16
   1   6   4    2.28    0.21
  -2  -6  -4    2.77    0.18
  -2  -6  -4    2.50    0.22
  -2  -6  -4    2.69    0.19
  -2  -6  -4    2.75    0.20
   2   6   4    2.78    0.17
   2   6   4    2.59    0.19
  -3  -6  -4    2.61    0.23
  -3  -6  -4    2.67    0.21
  -3  -6  -4    2.42    0.22
  -3  -6  -4    2.54    0.28
   3   6   4    2.98    0.20
  -4  -6  -4   -0.28    0.15
  -4  -6  -4    0.03    0.18
  -4  -6  -4   -0.12    0.11
   4   6   4   -0.02    0.13
  -5  -6  -4    0.07    0.26
   5   6   4    0.33    0.18
   3  -7  -4    0.36    0.16
  -3   7   4    0.22    0.15
   2  -7  -4    0.13    0.14
  -2   7   4    0.29    0.11
  -2   7   4    0.15    0.15
  -2   7   4    0.22    0.13
   1  -7  -4    5.60    0.25
   1  -7  -4    5.52    0.29
  -1   7   4    5.54    0.27
  -1   7   4    5.63    0.27
   0  -7  -4    9.13    0.38
   0  -7  -4    8.70    0.35
   0   7   4    9.07    0.36
   0   7   4    8.83    0.36
  -1  -7  -4    4.61    0.24
  -1  -7  -4    4.09    0.22
  -1  -7  -4    4.05    0.22
   1   7   4    4.17    0.23
   1   7   4    4.62    0.22
  -2  -7  -4    0.32    0.13
  -2  -7  -4    0.29    0.10
  -2  -7  -4    0.17    0.12
   2   7   4    0.23    0.10
   2   7   4    0.16    0.11
  -3  -7  -4    7.33    0.32
  -3  -7  -4    6.54    0.38
  -3  -7  -4    6.76    0.34
   3   7   4    7.07    0.31
   3   7   4    5.70    0.35
  -4  -7  -4    5.71    0.30
  -4  -7  -4    6.20    0.40
   4   7   4    6.71    0.33
   3  -8  -4    3.89    0.31
  -3   8   4    3.64    0.29
   2  -8  -4    8.65    0.41
  -2   8   4    9.08    0.37
  -2   8   4    8.07    0.41
  -2   8   4    8.44    0.38
   1  -8  -4    0.35    0.10
   1  -8  -4    0.29    0.15
  -1   8   4    0.36    0.11
  -1   8   4    0.37    0.12
   0  -8  -4    1.31    0.16
   0  -8  -4    1.27    0.15
   0   8   4    1.00    0.12
   0   8   4    0.97    0.12
  -1  -8  -4   22.85    0.83
  -1  -8  -4   22.55    0.84
   1   8   4   23.30    0.83
   1   8   4   22.97    0.84
  -2  -8  -4    8.98    0.38
  -2  -8  -4    9.06    0.39
  -2  -8  -4    8.62    0.40
   2   8   4    8.48    0.37
   2   8   4    8.68    0.38
  -3  -8  -4   -0.04    0.13
  -3  -8  -4   -0.04    0.18
   3   8   4    0.13    0.14
  -4  -8  -4    0.69    0.21
  -4  -8  -4    0.79    0.14
   4   8   4    0.76    0.17
   3  -9  -4    1.18    0.20
  -3   9   4    0.91    0.18
   2  -9  -4    0.18    0.16
  -2   9   4    0.10    0.12
  -2   9   4    0.09    0.14
   1  -9  -4    2.14    0.20
   1  -9  -4    1.77    0.28
  -1   9   4    1.75    0.25
  -1   9   4    2.10    0.22
   0  -9  -4   11.11    0.48
   0   9   4   11.07    0.45
   0   9   4   10.98    0.46
  -1  -9  -4   12.84    0.53
  -1  -9  -4   13.00    0.51
   1   9   4   13.09    0.52
   1   9   4   13.26    0.51
  -2  -9  -4    1.83    0.26
  -2  -9  -4    2.16    0.23
  -2  -9  -4    2.06    0.26
   2   9   4    1.82    0.23
   2   9   4    1.90    0.24
  -3  -9  -4    0.23    0.26
   3   9   4    0.18    0.16
  -4  -9  -4    6.23    0.33
  -4  -9  -4    6.18    0.42
   4   9   4    5.34    0.36
   2 -10  -4    0.16    0.16
  -2  10   4    0.23    0.13
  -2  10   4    0.46    0.16
   1 -10  -4    0.02    0.17
  -1  10   4    0.27    0.16
  -1  10   4    0.12    0.13
   0 -10  -4    3.44    0.24
   0 -10  -4    3.24    0.31
   0  10   4    3.19    0.27
  -1 -10  -4    1.81    0.22
  -1 -10  -4    1.47    0.19
   1  10   4    1.57    0.23
   1  10   4    2.08    0.25
  -2 -10  -4    1.76    0.26
  -2 -10  -4    1.78    0.28
  -2 -10  -4    1.39    0.16
   2  10   4    1.42    0.17
   2  10   4    1.86    0.26
  -3 -10  -4    0.03    0.14
  -3 -10  -4   -0.13    0.19
   3  10   4   -0.16    0.17
  -4 -10  -4    2.67    0.37
  -4 -10  -4    2.36    0.30
   4  10   4    2.87    0.27
   2 -11  -4   -0.02    0.20
  -2  11   4    0.09    0.17
  -2  11   4   -0.05    0.15
   1 -11  -4    3.29    0.35
  -1  11   4    4.27    0.28
  -1  11   4    4.00    0.29
   0 -11  -4    1.47    0.21
   0 -11  -4    1.50    0.17
   0  11   4    1.38    0.17
   0  11   4    2.07    0.24
  -1 -11  -4    9.14    0.41
   1  11   4    8.49    0.40
   1  11   4    8.61    0.42
  -2 -11  -4    9.40    0.48
  -2 -11  -4   10.07    0.46
  -2 -11  -4   10.07    0.45
   2  11   4    9.20    0.43
   2  11   4    9.28    0.46
  -3 -11  -4    1.33    0.18
  -3 -11  -4    1.55    0.22
   3  11   4    1.45    0.18
   1 -12  -4    4.37    0.39
  -1  12   4    4.71    0.31
  -1  12   4    4.10    0.31
   0 -12  -4    6.86    0.43
   0  12   4    7.12    0.37
   0  12   4    7.17    0.37
  -1 -12  -4    0.03    0.20
  -1 -12  -4    0.02    0.16
   1  12   4   -0.37    0.16
   1  12   4    0.09    0.17
  -2 -12  -4    0.06    0.17
  -2 -12  -4    0.05    0.18
  -2 -12  -4   -0.17    0.20
   2  12   4   -0.01    0.19
   2  12   4    0.00    0.16
  -3 -12  -4    0.88    0.18
  -3 -12  -4    0.99    0.24
   3  12   4    0.81    0.19
   0 -13  -4    0.14    0.24
   0  13   4    0.05    0.16
  -1 -13  -4   -0.05    0.19
  -1 -13  -4   -0.17    0.22
   1  13   4    0.08    0.18
   1  13   4    0.21    0.22
  -2 -13  -4   -0.24    0.23
  -2 -13  -4   -0.10    0.18
   2  13   4    0.20    0.23
   2  13   4    0.12    0.19
   1  12  -5    0.23    0.20
   1  12  -5    0.20    0.17
  -1 -12   5    0.27    0.19
  -1 -12   5    0.06    0.22
   2  11  -5    5.11    0.34
  -2 -11   5    5.74    0.38
  -2 -11   5    5.06    0.34
   1  11  -5   11.60    0.53
   1  11  -5   12.36    0.52
  -1 -11   5   11.53    0.52
   0  11  -5    0.47    0.17
   0  11  -5    0.57    0.18
   0 -11   5    0.81    0.20
  -1  11  -5    2.57    0.30
  -1  11  -5    3.04    0.30
   1 -11   5    2.99    0.30
   3  10  -5    2.01    0.29
  -3 -10   5    2.79    0.29
  -3 -10   5    1.95    0.35
   2  10  -5    0.03    0.15
   2  10  -5    0.24    0.17
  -2 -10   5    0.50    0.18
  -2 -10   5    0.21    0.20
   1  10  -5   10.39    0.47
   1  10  -5   10.36    0.46
  -1 -10   5   10.16    0.46
  -1 -10   5    9.93    0.45
   0  10  -5   14.02    0.59
   0  10  -5   14.82    0.60
   0 -10   5   14.73    0.60
   0 -10   5   14.76    0.59
  -1  10  -5    1.38    0.17
  -1  10  -5    1.27    0.17
   1 -10   5    1.53    0.19
  -2  10  -5   -0.02    0.20
  -2  10  -5    0.11    0.16
   2 -10   5    0.12    0.16
   3   9  -5    7.80    0.40
  -3  -9   5    7.87    0.46
  -3  -9   5    8.34    0.40
   2   9  -5    0.10    0.14
   2   9  -5    0.33    0.17
  -2  -9   5    0.28    0.18
  -2  -9   5    0.15    0.15
   1   9  -5   16.32    0.66
   1   9  -5   16.65    0.65
  -1  -9   5   17.14    0.65
  -1  -9   5   16.72    0.65
   0   9  -5   11.25    0.56
   0   9  -5   12.66    0.51
   0  -9   5   12.34    0.50
   0  -9   5   11.99    0.49
   0  -9   5   12.00    0.50
  -1   9  -5    4.04    0.28
  -2   9  -5    1.17    0.15
  -2   9  -5    1.39    0.17
   2  -9   5    1.25    0.18
   4   8  -5    0.81    0.18
  -4  -8   5    0.87    0.16
  -4  -8   5    0.64    0.23
   3   8  -5    7.88    0.38
  -3  -8   5    8.23    0.39
  -3  -8   5    7.99    0.44
   2   8  -5    2.89    0.34
  -2  -8   5    3.19    0.26
  -2  -8   5    3.17    0.27
   1   8  -5    9.93    0.43
   1   8  -5   10.06    0.42
  -1  -8   5    9.64    0.42
  -1  -8   5   10.49    0.44
   0   8  -5   18.88    0.71
   0   8  -5   18.76    0.71
   0  -8   5   18.68    0.70
   0  -8   5   18.43    0.70
   0  -8   5   19.10    0.71
  -1   8  -5    7.86    0.36
  -1   8  -5    7.66    0.36
   1  -8   5    7.84    0.37
   1  -8   5    7.94    0.35
  -2   8  -5   -0.01    0.12
  -3   8  -5    0.09    0.12
  -3   8  -5    0.34    0.15
   4   7  -5    0.21    0.16
  -4  -7   5    0.13    0.21
  -4  -7   5    0.27    0.14
   3   7  -5    0.18    0.14
  -3  -7   5    0.43    0.18
  -3  -7   5    0.16    0.13
   2   7  -5   51.98    1.84
   2   7  -5   52.68    1.84
  -2  -7   5   50.88    1.86
  -2  -7   5   52.97    1.84
   1   7  -5    1.48    0.19
   1   7  -5    1.52    0.20
  -1  -7   5    1.71    0.20
  -1  -7   5    1.66    0.21
   0   7  -5    6.00    0.29
   0   7  -5    5.69    0.28
   0  -7   5    5.64    0.29
   0  -7   5    5.77    0.27
   0  -7   5    5.93    0.29
  -1   7  -5    0.08    0.10
  -1   7  -5    0.23    0.11
  -1   7  -5   -0.04    0.11
   1  -7   5    0.04    0.11
  -2   7  -5    0.62    0.13
  -2   7  -5    0.52    0.11
  -2   7  -5    0.47    0.26
  -2   7  -5    0.50    0.13
  -3   7  -5    6.40    0.39
  -3   7  -5    6.60    0.30
  -3   7  -5    6.40    0.30
  -3   7  -5    5.83    0.34
   4   6  -5    0.15    0.16
  -4  -6   5    0.04    0.13
  -4  -6   5    0.09    0.20
   3   6  -5   13.87    0.56
  -3  -6   5   14.01    0.55
  -3  -6   5   14.00    0.62
   2   6  -5    0.52    0.12
   2   6  -5    0.42    0.12
  -2  -6   5    0.65    0.14
  -2  -6   5    0.43    0.13
  -2  -6   5    0.63    0.14
   1   6  -5    3.56    0.23
   1   6  -5    3.59    0.21
  -1  -6   5    3.86    0.23
  -1  -6   5    3.44    0.23
   0   6  -5   -0.01    0.10
   0   6  -5    0.11    0.09
   0  -6   5    0.03    0.10
   0  -6   5   -0.02    0.08
   0  -6   5    0.04    0.10
  -1   6  -5    2.31    0.18
  -1   6  -5    2.25    0.19
  -1   6  -5    2.48    0.22
  -1   6  -5    2.09    0.17
   1  -6   5    2.04    0.19
  -2   6  -5    1.48    0.16
  -2   6  -5    1.54    0.19
  -2   6  -5    1.82    0.19
  -2   6  -5    1.56    0.25
  -3   6  -5    0.66    0.11
  -3   6  -5    0.73    0.14
  -3   6  -5    0.71    0.18
   4   5  -5    3.54    0.26
  -4  -5   5    3.13    0.34
   3   5  -5    8.63    0.38
  -3  -5   5    8.51    0.37
  -3  -5   5    8.33    0.43
   2   5  -5    0.62    0.11
   2   5  -5    0.55    0.11
  -2  -5   5    0.63    0.11
  -2  -5   5    0.45    0.13
  -2  -5   5    0.72    0.11
   1   5  -5    3.19    0.19
   1   5  -5    2.97    0.20
  -1  -5   5    3.26    0.20
  -1  -5   5    3.56    0.21
   0   5  -5    5.93    0.26
   0   5  -5    6.09    0.27
   0  -5   5    5.76    0.28
   0  -5   5    5.93    0.27
  -1   5  -5    0.01    0.07
  -1   5  -5   -0.02    0.08
  -1   5  -5   -0.13    0.11
  -1   5  -5    0.00    0.09
   1  -5   5   -0.01    0.09
   1  -5   5   -0.09    0.09
  -2   5  -5    5.64    0.25
  -2   5  -5    5.81    0.31
  -2   5  -5    5.78    0.26
  -2   5  -5    5.34    0.26
   2  -5   5    5.82    0.29
  -3   5  -5   11.12    0.49
  -3   5  -5   10.93    0.44
  -4   5  -5    0.02    0.19
   4  -5   5    0.68    0.17
   4   4  -5   32.84    1.21
  -4  -4   5   33.68    1.25
   3   4  -5   10.35    0.45
  -3  -4   5   11.00    0.43
  -3  -4   5   11.05    0.43
  -3  -4   5   10.82    0.48
   2   4  -5    0.47    0.10
   2   4  -5    0.50    0.10
  -2  -4   5    0.64    0.14
  -2  -4   5    0.71    0.13
   1   4  -5    7.07    0.30
   1   4  -5    7.47    0.30
  -1  -4   5    7.31    0.32
  -1  -4   5    7.11    0.30
   0   4  -5    0.38    0.08
   0   4  -5    0.31    0.09
   0  -4   5    0.35    0.08
  -1   4  -5    7.09    0.30
  -1   4  -5    6.90    0.28
  -1   4  -5    7.19    0.29
  -1   4  -5    6.55    0.28
   1  -4   5    7.17    0.29
   1  -4   5    6.99    0.30
  -2   4  -5    5.71    0.29
  -2   4  -5    5.67    0.25
  -2   4  -5    5.74    0.24
  -2   4  -5    5.57    0.25
   2  -4   5    5.44    0.28
  -3   4  -5    1.57    0.18
   3  -4   5    1.64    0.23
  -4   4  -5    4.15    0.27
  -4   4  -5    3.78    0.33
   4  -4   5    4.42    0.32
   4   3  -5    4.59    0.29
  -4  -3   5    4.61    0.34
   3   3  -5   10.97    0.45
  -3  -3   5   11.06    0.43
  -3  -3   5   11.32    0.42
  -3  -3   5   10.91    0.48
   2   3  -5   11.74    0.45
   2   3  -5   11.95    0.46
  -2  -3   5   12.48    0.45
  -2  -3   5   11.74    0.48
  -2  -3   5   12.07    0.45
   1   3  -5    3.43    0.18
   1   3  -5    3.40    0.19
  -1  -3   5    3.90    0.21
  -1  -3   5    3.40    0.19
  -1  -3   5    3.09    0.18
   0   3  -5   13.39    0.46
   0   3  -5   10.63    0.46
   0  -3   5   13.54    0.48
   0  -3   5   12.76    0.46
  -1   3  -5    2.95    0.19
  -1   3  -5    3.13    0.15
   1  -3   5    3.17    0.20
   1  -3   5    3.20    0.17
  -2   3  -5   16.29    0.62
  -2   3  -5   17.02    0.59
  -2   3  -5   16.29    0.59
  -2   3  -5   15.85    0.59
   2  -3   5   16.22    0.61
  -3   3  -5   23.19    0.80
  -3   3  -5   22.01    0.83
   3  -3   5   21.09    0.83
  -4   3  -5   13.34    0.59
  -4   3  -5   15.07    0.55
   4  -3   5   13.34    0.59
   5   2  -5    6.35    0.36
  -5  -2   5    5.39    0.45
   4   2  -5    0.99    0.20
  -4  -2   5    0.73    0.20
   3   2  -5    6.83    0.31
  -3  -2   5    6.99    0.36
   2   2  -5    0.05    0.08
  -2  -2   5   -0.05    0.07
  -2  -2   5   -0.13    0.08
  -2  -2   5   -0.07    0.11
   1   2  -5    0.54    0.07
   1   2  -5    0.77    0.08
  -1  -2   5    0.88    0.16
  -1  -2   5    0.47    0.08
  -1  -2   5    0.52    0.08
   0   2  -5   26.77    0.93
   0   2  -5   26.57    0.94
   0  -2   5   26.47    0.94
   0  -2   5   26.66    0.95
  -1   2  -5    2.43    0.17
  -1   2  -5    2.61    0.15
   1  -2   5    2.47    0.18
   1  -2   5    2.60    0.15
  -2   2  -5    0.17    0.11
  -2   2  -5    0.26    0.06
  -2   2  -5    0.30    0.06
  -2   2  -5    0.23    0.06
   2  -2   5    0.25    0.11
  -3   2  -5    0.09    0.09
  -3   2  -5    0.10    0.13
   3  -2   5   -0.06    0.14
  -4   2  -5    0.14    0.17
  -4   2  -5    0.12    0.13
   4  -2   5    0.12    0.19
   5   1  -5    0.50    0.19
  -5  -1   5    0.39    0.26
   3   1  -5    0.43    0.11
  -3  -1   5    0.39    0.15
   2   1  -5   53.00    1.86
  -2  -1   5   52.94    1.86
  -2  -1   5   53.33    1.85
  -2  -1   5   53.93    1.88
   1   1  -5   16.04    0.58
   1   1  -5   16.46    0.59
  -1  -1   5   16.39    0.60
  -1  -1   5   16.59    0.59
   0   1  -5  310.92   10.56
   0   1  -5  306.75   10.59
   0  -1   5  296.73   10.58
   0  -1   5  307.43   10.56
  -1   1  -5    5.39    0.21
  -1   1  -5    5.11    0.23
  -1   1  -5    5.11    0.20
   1  -1   5    5.04    0.24
   1  -1   5    5.23    0.21
  -2   1  -5    0.23    0.06
  -2   1  -5    0.16    0.10
  -2   1  -5    0.18    0.06
   2  -1   5    0.15    0.11
  -3   1  -5   25.98    0.98
  -3   1  -5   28.20    0.95
   3  -1   5   26.49    0.99
  -4   1  -5   15.47    0.55
  -4   1  -5   13.55    0.60
   4  -1   5   14.12    0.62
  -5   1  -5    0.02    0.21
  -5   1  -5   -0.15    0.17
   5  -1   5    0.55    0.24
  -4   0   5    2.87    0.31
  -4   0   5    2.25    0.30
  -3   0   5    7.45    0.34
  -3   0   5    7.75    0.37
  -2   0   5    5.85    0.24
  -2   0   5    6.01    0.27
  -2   0   5    6.00    0.26
   1   0  -5   42.38    1.53
  -1   0   5   47.36    1.54
  -1   0   5   43.63    1.54
  -1   0   5   42.79    1.53
   0   0  -5   13.51    0.48
   0   0  -5   13.33    0.47
   0   0   5   13.18    0.48
  -1   0  -5   29.20    1.02
  -1   0  -5   29.86    1.03
   1   0   5   29.25    1.03
   1   0   5   28.20    1.02
  -2   0  -5   27.25    0.96
  -2   0  -5   26.09    0.94
  -2   0  -5   26.91    0.94
   2   0   5   27.05    0.97
  -3   0  -5    0.86    0.12
  -3   0  -5    0.54    0.14
   3   0   5    0.57    0.15
  -4   0  -5   22.24    0.79
   4   0   5   21.09    0.86
  -5   0  -5    1.01    0.23
   5   0   5    1.08    0.17
   5   0   5    0.82    0.25
   4  -1  -5    8.97    0.41
  -4   1   5    9.41    0.46
  -4   1   5    8.59    0.41
  -3   1   5    3.69    0.23
  -3   1   5    4.04    0.27
  -2   1   5    1.10    0.15
  -2   1   5    1.12    0.15
   1  -1  -5    6.42    0.26
  -1   1   5    6.69    0.26
  -1   1   5    7.30    0.27
  -1   1   5    6.80    0.28
  -1   1   5    6.54    0.26
   0  -1  -5   39.81    1.42
   0  -1  -5   41.10    1.42
   0   1   5   44.56    1.42
   0   1   5   40.29    1.43
   0   1   5   37.68    1.42
   0   1   5   40.73    1.42
  -1  -1  -5    4.09    0.18
  -1  -1  -5    3.92    0.17
   1   1   5    3.55    0.20
   1   1   5    3.50    0.17
  -2  -1  -5   35.14    1.20
  -2  -1  -5   35.93    1.22
  -2  -1  -5   33.76    1.20
   2   1   5   32.79    1.23
  -3  -1  -5    0.83    0.13
   3   1   5    1.39    0.23
  -4  -1  -5    0.50    0.18
   4   1   5    0.16    0.23
   4   1   5    0.62    0.11
  -5  -1  -5    0.62    0.22
   5   1   5    0.83    0.27
   5   1   5    0.92    0.16
   4  -2  -5    4.11    0.30
  -4   2   5    4.45    0.29
  -4   2   5    4.62    0.35
  -3   2   5   13.95    0.55
  -3   2   5   13.61    0.54
   2  -2  -5    3.12    0.18
  -2   2   5    3.69    0.19
  -2   2   5    3.40    0.20
   1  -2  -5    4.37    0.21
   1  -2  -5    4.70    0.20
  -1   2   5    4.79    0.21
  -1   2   5    4.92    0.20
  -1   2   5    4.80    0.21
  -1   2   5    5.08    0.21
   0  -2  -5   25.98    0.90
   0   2   5   24.94    0.90
   0   2   5   26.12    0.90
   0   2   5   25.30    0.90
   0   2   5   25.61    0.90
  -1  -2  -5   90.42    3.11
  -1  -2  -5   91.94    3.11
  -1  -2  -5   85.98    3.11
   1   2   5   89.13    3.11
   1   2   5   90.63    3.12
  -2  -2  -5    1.43    0.12
  -2  -2  -5    1.32    0.12
  -2  -2  -5    1.56    0.16
  -3  -2  -5   20.61    0.77
  -3  -2  -5   21.11    0.79
  -4  -2  -5    2.32    0.29
   4   2   5    2.16    0.17
  -5  -2  -5    0.67    0.22
   5   2   5    0.90    0.16
   4  -3  -5    5.36    0.35
  -4   3   5    5.29    0.33
  -4   3   5    6.20    0.37
   3  -3  -5    1.63    0.21
  -3   3   5    1.98    0.21
   2  -3  -5    2.76    0.19
  -2   3   5    3.25    0.18
   1  -3  -5   14.20    0.50
   1  -3  -5   13.51    0.51
  -1   3   5   14.13    0.50
  -1   3   5   13.51    0.50
  -1   3   5   14.03    0.51
   0  -3  -5    1.76    0.12
   0  -3  -5    1.87    0.13
   0   3   5    1.61    0.13
   0   3   5    1.55    0.12
   0   3   5    1.49    0.14
   0   3   5    1.59    0.12
  -1  -3  -5   59.28    2.02
  -1  -3  -5   55.26    2.02
  -1  -3  -5   58.15    2.03
   1   3   5   58.13    2.03
   1   3   5   58.75    2.02
   1   3   5   58.85    2.01
  -2  -3  -5    1.32    0.19
  -2  -3  -5    1.76    0.14
  -2  -3  -5    1.90    0.16
  -2  -3  -5    1.51    0.13
   2   3   5    1.41    0.14
  -3  -3  -5    0.19    0.08
  -3  -3  -5    0.31    0.15
  -3  -3  -5    0.12    0.12
  -4  -3  -5    0.43    0.25
  -4  -3  -5    0.28    0.17
   4   3   5    0.44    0.10
  -5  -3  -5    0.01    0.21
  -5  -3  -5   -0.08    0.26
   5   3   5    0.00    0.15
   4  -4  -5    0.75    0.17
  -4   4   5    0.46    0.18
   3  -4  -5    0.20    0.14
  -3   4   5    0.31    0.13
   2  -4  -5   19.64    0.74
  -2   4   5   20.83    0.72
  -2   4   5   20.47    0.74
   1  -4  -5    2.34    0.18
   1  -4  -5    2.53    0.15
  -1   4   5    3.12    0.16
  -1   4   5    2.27    0.15
  -1   4   5    2.85    0.16
   0  -4  -5   83.71    3.05
   0  -4  -5   90.22    3.05
   0   4   5   88.98    3.05
   0   4   5   87.98    3.05
  -1  -4  -5    0.79    0.08
  -1  -4  -5    1.08    0.15
   1   4   5    0.79    0.09
   1   4   5    0.71    0.10
   1   4   5    0.89    0.11
  -2  -4  -5    1.52    0.20
  -2  -4  -5    1.90    0.14
   2   4   5    2.04    0.15
   2   4   5    1.72    0.17
  -3  -4  -5    2.82    0.19
  -3  -4  -5    2.61    0.26
  -3  -4  -5    2.84    0.18
  -3  -4  -5    2.94    0.23
   3   4   5    2.88    0.16
  -4  -4  -5    1.46    0.22
  -4  -4  -5    1.06    0.19
   4   4   5    1.36    0.17
  -5  -4  -5    0.39    0.22
  -5  -4  -5    0.17    0.25
   5   4   5    0.37    0.16
   4  -5  -5    0.39    0.18
  -4   5   5   -0.05    0.17
   3  -5  -5    6.55    0.35
  -3   5   5    5.72    0.39
   2  -5  -5   11.84    0.47
  -2   5   5   12.49    0.44
  -2   5   5   12.33    0.46
  -2   5   5   10.39    0.44
   1  -5  -5    0.14    0.07
   1  -5  -5    0.11    0.10
  -1   5   5    0.20    0.09
  -1   5   5    0.23    0.08
  -1   5   5    0.15    0.08
   0  -5  -5   16.00    0.59
   0  -5  -5   16.43    0.60
   0   5   5   16.62    0.60
   0   5   5   16.43    0.59
  -1  -5  -5    9.14    0.36
  -1  -5  -5    9.43    0.37
   1   5   5    9.04    0.35
   1   5   5    9.10    0.36
  -2  -5  -5    4.86    0.24
  -2  -5  -5    4.64    0.23
  -2  -5  -5    4.31    0.27
  -2  -5  -5    4.94    0.23
   2   5   5    4.92    0.21
   2   5   5    4.89    0.23
  -3  -5  -5    0.20    0.13
  -3  -5  -5    0.07    0.09
  -3  -5  -5   -0.10    0.11
  -3  -5  -5    0.02    0.15
   3   5   5    0.24    0.09
  -4  -5  -5    0.05    0.13
  -4  -5  -5   -0.01    0.17
  -4  -5  -5    0.11    0.10
  -4  -5  -5    0.16    0.19
   4   5   5    0.13    0.12
  -5  -5  -5    2.29    0.38
  -5  -5  -5    1.81    0.26
   4  -6  -5    1.57    0.22
  -4   6   5    1.57    0.20
  -3   6   5    0.29    0.13
   2  -6  -5    0.16    0.13
  -2   6   5    0.12    0.13
  -2   6   5    0.43    0.12
  -2   6   5    0.36    0.10
   1  -6  -5   35.87    1.27
   1  -6  -5   34.97    1.25
  -1   6   5   35.50    1.26
  -1   6   5   36.00    1.26
   0  -6  -5   12.27    0.48
   0  -6  -5   12.14    0.46
   0   6   5   12.72    0.46
   0   6   5   12.18    0.47
  -1  -6  -5    5.85    0.27
  -1  -6  -5    5.28    0.24
  -1  -6  -5    5.38    0.26
   1   6   5    5.65    0.24
  -2  -6  -5   36.84    1.30
  -2  -6  -5   36.34    1.31
  -2  -6  -5   36.95    1.30
  -2  -6  -5   36.46    1.30
   2   6   5   35.63    1.29
   2   6   5   37.63    1.30
  -3  -6  -5    0.53    0.14
  -3  -6  -5    0.36    0.16
  -3  -6  -5    0.39    0.11
  -3  -6  -5    0.40    0.12
   3   6   5    0.32    0.11
   3   6   5    0.09    0.13
  -4  -6  -5    0.47    0.16
  -4  -6  -5    0.58    0.20
  -4  -6  -5    0.45    0.19
  -4  -6  -5    0.45    0.12
   4   6   5    0.83    0.14
  -5  -6  -5    0.18    0.31
   5   6   5    0.65    0.18
   3  -7  -5    2.13    0.26
  -3   7   5    1.93    0.24
   2  -7  -5   14.47    0.59
  -2   7   5   14.26    0.57
  -2   7   5   15.11    0.56
   1  -7  -5    2.69    0.23
   1  -7  -5    2.48    0.18
  -1   7   5    2.83    0.20
  -1   7   5    2.66    0.20
   0  -7  -5    2.22    0.21
   0  -7  -5    2.00    0.16
   0   7   5    2.23    0.18
   0   7   5    2.33    0.17
  -1  -7  -5   11.66    0.48
  -1  -7  -5   12.73    0.48
  -1  -7  -5   12.72    0.47
   1   7   5   12.39    0.47
   1   7   5   12.23    0.48
  -2  -7  -5    6.98    0.33
  -2  -7  -5    6.60    0.32
  -2  -7  -5    7.11    0.30
   2   7   5    6.32    0.28
   2   7   5    6.60    0.31
  -3  -7  -5    2.56    0.23
  -3  -7  -5    2.59    0.28
  -3  -7  -5    2.36    0.24
  -3  -7  -5    2.72    0.26
   3   7   5    2.30    0.21
  -4  -7  -5    0.40    0.19
  -4  -7  -5    0.25    0.20
  -4  -7  -5    0.14    0.12
   4   7   5    0.22    0.15
   3  -8  -5    4.26    0.33
  -3   8   5    3.91    0.29
   2  -8  -5    1.85    0.26
  -2   8   5    1.97    0.27
  -2   8   5    1.63    0.22
  -2   8   5    2.54    0.20
   1  -8  -5   -0.01    0.15
   1  -8  -5   -0.05    0.10
  -1   8   5    0.06    0.12
  -1   8   5    0.20    0.12
  -1   8   5   -0.02    0.09
   0  -8  -5    3.00    0.24
   0  -8  -5    2.73    0.19
   0   8   5    2.62    0.22
   0   8   5    2.86    0.20
  -1  -8  -5    5.29    0.32
  -1  -8  -5    4.51    0.25
   1   8   5    4.55    0.26
   1   8   5    4.90    0.25
  -2  -8  -5    0.14    0.14
  -2  -8  -5    0.09    0.14
  -2  -8  -5    0.16    0.11
   2   8   5    0.04    0.11
   2   8   5    0.03    0.12
  -3  -8  -5    1.08    0.17
  -3  -8  -5    1.01    0.19
  -3  -8  -5    1.24    0.15
   3   8   5    1.45    0.20
  -4  -8  -5    0.04    0.13
  -4  -8  -5    0.07    0.21
   4   8   5    0.38    0.16
   3  -9  -5    1.08    0.20
  -3   9   5    1.03    0.18
   2  -9  -5    0.33    0.16
  -2   9   5    0.47    0.15
  -2   9   5    0.44    0.13
   1  -9  -5    2.59    0.32
   1  -9  -5    2.72    0.24
  -1   9   5    3.10    0.24
  -1   9   5    2.92    0.30
   0  -9  -5   17.26    0.68
   0   9   5   17.82    0.66
   0   9   5   17.28    0.66
  -1  -9  -5    5.25    0.31
  -1  -9  -5    5.49    0.29
   1   9   5    5.45    0.30
   1   9   5    5.57    0.29
  -2  -9  -5    2.58    0.26
  -2  -9  -5    3.22    0.24
  -2  -9  -5    2.24    0.27
   2   9   5    2.48    0.25
   2   9   5    2.20    0.23
  -3  -9  -5    5.66    0.46
  -3  -9  -5    5.25    0.43
  -3  -9  -5    5.79    0.35
   3   9   5    5.67    0.30
  -4  -9  -5    1.56    0.26
  -4  -9  -5    1.75    0.23
   4   9   5    2.10    0.24
   2 -10  -5    0.51    0.19
  -2  10   5    0.36    0.13
  -2  10   5    0.57    0.16
   1 -10  -5    0.17    0.18
  -1  10   5    0.31    0.14
  -1  10   5    0.74    0.14
   0 -10  -5    5.14    0.29
   0 -10  -5    4.84    0.39
   0  10   5    5.01    0.31
   0  10   5    5.05    0.38
  -1 -10  -5    0.59    0.14
  -1 -10  -5    0.60    0.17
   1  10   5    0.30    0.15
   1  10   5    0.47    0.15
  -2 -10  -5    2.31    0.29
  -2 -10  -5    2.55    0.25
  -2 -10  -5    2.53    0.29
   2  10   5    2.20    0.24
   2  10   5    2.03    0.27
  -3 -10  -5    1.35    0.17
  -3 -10  -5    1.24    0.20
  -3 -10  -5    1.39    0.21
   3  10   5    1.21    0.17
  -4 -10  -5    0.92    0.18
  -4 -10  -5    0.74    0.24
   4  10   5    1.13    0.17
   2 -11  -5    0.06    0.20
  -2  11   5    0.08    0.15
  -2  11   5   -0.18    0.16
   1 -11  -5    2.28    0.33
  -1  11   5    1.89    0.25
  -1  11   5    2.51    0.25
   0 -11  -5    1.02    0.15
   0 -11  -5    0.84    0.20
   0  11   5    0.94    0.17
   0  11   5    0.80    0.15
  -1 -11  -5    2.28    0.26
  -1 -11  -5    1.55    0.27
   1  11   5    2.01    0.24
   1  11   5    2.46    0.27
  -2 -11  -5    0.11    0.18
  -2 -11  -5    0.16    0.16
   2  11   5    0.04    0.17
   2  11   5    0.17    0.16
  -3 -11  -5    0.18    0.15
  -3 -11  -5   -0.11    0.29
  -3 -11  -5    0.04    0.19
   3  11   5   -0.14    0.16
   1 -12  -5   11.84    0.57
  -1  12   5   10.86    0.51
  -1  12   5   12.60    0.51
   0 -12  -5   -0.11    0.20
   0  12   5    0.07    0.15
   0  12   5   -0.23    0.16
  -1 -12  -5    0.50    0.19
  -1 -12  -5    0.67    0.17
   1  12   5    0.58    0.18
   1  12   5    0.29    0.17
  -2 -12  -5    0.60    0.21
  -2 -12  -5    0.88    0.18
  -2 -12  -5    0.93    0.20
   2  12   5    0.73    0.18
   2  12   5    0.70    0.20
  -3 -12  -5    0.11    0.16
  -3 -12  -5    0.20    0.23
   3  12   5   -0.30    0.18
   0 -13  -5    1.45    0.25
   0  13   5    2.26    0.28
   0  13   5    1.95    0.28
  -1 -13  -5   -0.08    0.18
  -1 -13  -5   -0.33    0.22
   1  13   5    0.06    0.17
   1  13   5    0.08    0.23
  -2 -13  -5    0.01    0.23
  -2 -13  -5   -0.23    0.17
   2  13   5   -0.06    0.18
   2  13   5    0.22    0.21
   2  11  -6    0.89    0.19
  -2 -11   6    1.11    0.21
  -2 -11   6    1.28    0.18
   1  11  -6    0.81    0.20
   1  11  -6    0.87    0.18
  -1 -11   6    0.70    0.18
  -1 -11   6    0.67    0.17
   0  11  -6    0.34    0.18
   0  11  -6    0.41    0.17
   0 -11   6    1.01    0.21
  -1  11  -6    1.34    0.19
  -1  11  -6    1.40    0.20
   1 -11   6    1.79    0.28
   3  10  -6    0.37    0.18
  -3 -10   6    0.36    0.22
  -3 -10   6    0.36    0.18
   2  10  -6    0.00    0.24
   2  10  -6   -0.14    0.15
  -2 -10   6    0.21    0.18
   1  10  -6   -0.02    0.17
   1  10  -6   -0.07    0.15
  -1 -10   6    0.04    0.15
  -1 -10   6    0.05    0.14
   0  10  -6   48.16    1.74
   0  10  -6   49.78    1.75
   0 -10   6   48.21    1.74
   0 -10   6   48.57    1.74
  -1  10  -6    0.03    0.16
  -1  10  -6    0.05    0.15
   1 -10   6    0.12    0.15
   3   9  -6   -0.08    0.17
  -3  -9   6    0.00    0.20
  -3  -9   6   -0.02    0.15
   2   9  -6    5.19    0.35
   2   9  -6    5.79    0.32
  -2  -9   6    5.81    0.33
  -2  -9   6    5.52    0.41
   1   9  -6   26.25    0.98
   1   9  -6   25.81    0.97
  -1  -9   6   26.62    0.98
  -1  -9   6   26.16    0.97
   0   9  -6    7.98    0.40
   0   9  -6    8.29    0.38
   0  -9   6    8.31    0.38
   0  -9   6    8.22    0.38
   0  -9   6    7.97    0.38
  -1   9  -6    1.39    0.16
  -1   9  -6    1.56    0.16
   1  -9   6    1.54    0.24
  -2   9  -6    1.37    0.16
  -2   9  -6    1.50    0.17
   2  -9   6    1.48    0.18
   4   8  -6   -0.02    0.18
  -4  -8   6   -0.06    0.23
   3   8  -6    1.70    0.23
  -3  -8   6    1.51    0.22
  -3  -8   6    1.67    0.24
   2   8  -6   17.78    0.72
   2   8  -6   18.23    0.70
  -2  -8   6   18.43    0.73
  -2  -8   6   19.42    0.71
   1   8  -6   22.64    0.86
   1   8  -6   23.53    0.86
  -1  -8   6   23.36    0.87
  -1  -8   6   23.33    0.86
   0   8  -6    0.59    0.14
   0   8  -6    0.42    0.14
   0  -8   6    0.65    0.14
   0  -8   6    0.57    0.13
  -1   8  -6   19.06    0.71
  -1   8  -6   18.55    0.71
   1  -8   6   18.42    0.70
   1  -8   6   18.54    0.71
  -2   8  -6    1.70    0.19
  -2   8  -6    1.79    0.22
  -3   8  -6   -0.05    0.12
  -3   8  -6   -0.21    0.22
  -3   8  -6    0.17    0.14
   4   7  -6   -0.01    0.16
  -4  -7   6   -0.12    0.22
  -4  -7   6   -0.02    0.14
   3   7  -6    4.09    0.28
  -3  -7   6    4.42    0.34
  -3  -7   6    4.15    0.26
   2   7  -6    6.72    0.32
   2   7  -6    6.16    0.33
  -2  -7   6    6.38    0.33
  -2  -7   6    6.84    0.36
   1   7  -6   12.34    0.48
   1   7  -6   11.72    0.48
  -1  -7   6   11.61    0.49
  -1  -7   6   12.02    0.49
   0   7  -6    3.08    0.24
   0   7  -6    3.22    0.22
   0  -7   6    2.99    0.24
   0  -7   6    2.80    0.23
  -1   7  -6   35.66    1.28
  -1   7  -6   35.90    1.30
  -1   7  -6   36.22    1.28
   1  -7   6   35.78    1.28
  -2   7  -6    0.04    0.12
  -2   7  -6   -0.12    0.16
  -2   7  -6    0.06    0.11
  -3   7  -6    3.35    0.25
  -3   7  -6    2.97    0.32
  -3   7  -6    3.05    0.23
   4   6  -6    0.44    0.17
  -4  -6   6    0.26    0.22
  -4  -6   6    0.30    0.13
   3   6  -6   13.35    0.58
  -3  -6   6   14.34    0.60
  -3  -6   6   13.77    0.60
   2   6  -6    4.74    0.27
   2   6  -6    4.53    0.26
  -2  -6   6    4.70    0.28
  -2  -6   6    4.23    0.30
   1   6  -6   33.93    1.18
   1   6  -6   34.22    1.18
  -1  -6   6   30.49    1.18
  -1  -6   6   33.61    1.19
   0   6  -6    8.70    0.37
   0   6  -6    8.68    0.35
   0  -6   6    8.41    0.36
   0  -6   6    8.45    0.37
  -1   6  -6    6.78    0.31
  -1   6  -6    6.85    0.33
  -1   6  -6    6.13    0.29
  -1   6  -6    6.50    0.30
   1  -6   6    7.01    0.30
   1  -6   6    6.55    0.31
  -2   6  -6    1.22    0.13
  -2   6  -6    0.98    0.11
  -2   6  -6    1.09    0.17
  -2   6  -6    0.84    0.12
  -3   6  -6    6.10    0.28
  -3   6  -6    6.13    0.30
  -3   6  -6    5.63    0.26
  -3   6  -6    5.75    0.36
   4   5  -6    8.20    0.39
  -4  -5   6    7.59    0.46
  -4  -5   6    8.60    0.37
   3   5  -6   33.24    1.22
  -3  -5   6   32.49    1.21
  -3  -5   6   36.67    1.21
  -3  -5   6   32.73    1.30
   2   5  -6    0.71    0.12
   2   5  -6    0.86    0.12
  -2  -5   6    1.06    0.15
  -2  -5   6    0.68    0.12
  -2  -5   6    0.82    0.12
   1   5  -6   11.40    0.45
   1   5  -6   11.54    0.44
  -1  -5   6   11.45    0.46
  -1  -5   6   11.64    0.45
   0   5  -6    1.60    0.17
   0   5  -6    1.82    0.15
   0  -5   6    1.43    0.20
   0  -5   6    2.11    0.19
  -1   5  -6    6.81    0.29
  -1   5  -6    6.90    0.32
  -1   5  -6    7.15    0.30
  -1   5  -6    6.95    0.29
   1  -5   6    6.92    0.30
   1  -5   6    6.69    0.31
  -2   5  -6   32.02    1.14
  -2   5  -6   32.13    1.16
  -2   5  -6   32.76    1.14
  -2   5  -6   31.72    1.14
   2  -5   6   31.71    1.15
  -3   5  -6    6.43    0.31
  -3   5  -6    6.59    0.36
  -3   5  -6    5.97    0.28
   3  -5   6    6.94    0.34
  -4   5  -6    1.67    0.23
  -4   5  -6    2.23    0.25
   4  -5   6    2.53    0.29
   4   4  -6    0.84    0.17
  -4  -4   6    0.94    0.22
   3   4  -6    1.94    0.22
  -3  -4   6    1.83    0.20
  -3  -4   6    1.67    0.27
  -3  -4   6    1.56    0.20
   2   4  -6   18.34    0.68
   2   4  -6   18.53    0.68
  -2  -4   6   19.05    0.68
  -2  -4   6   17.98    0.70
   1   4  -6   16.61    0.59
   1   4  -6   16.25    0.60
  -1  -4   6   15.89    0.61
  -1  -4   6   16.03    0.60
   0   4  -6    0.04    0.09
   0   4  -6    0.22    0.08
   0  -4   6    0.24    0.11
   0  -4   6    0.09    0.09
  -1   4  -6    2.77    0.19
  -1   4  -6    2.87    0.16
  -1   4  -6    2.83    0.16
  -1   4  -6    2.73    0.18
   1  -4   6    2.90    0.20
   1  -4   6    2.69    0.18
  -2   4  -6   12.86    0.49
  -2   4  -6   12.79    0.48
  -2   4  -6   13.38    0.49
  -2   4  -6   13.20    0.52
   2  -4   6   12.99    0.51
  -3   4  -6    1.21    0.17
  -3   4  -6    1.28    0.20
  -3   4  -6    1.19    0.16
   3  -4   6    1.47    0.25
  -4   4  -6    0.54    0.19
  -4   4  -6    0.51    0.15
   4  -4   6    0.68    0.18
   4   3  -6    2.23    0.25
  -4  -3   6    2.60    0.32
   3   3  -6    5.40    0.28
  -3  -3   6    5.35    0.34
  -3  -3   6    5.41    0.26
  -3  -3   6    5.64    0.26
   2   3  -6    0.10    0.09
   2   3  -6    0.10    0.10
  -2  -3   6    0.08    0.09
  -2  -3   6    0.08    0.09
  -2  -3   6    0.09    0.12
   1   3  -6    2.65    0.17
   1   3  -6    2.80    0.17
  -1  -3   6    3.01    0.21
  -1  -3   6    3.23    0.21
  -1  -3   6    2.71    0.18
   0   3  -6   95.34    3.28
   0   3  -6   94.88    3.27
   0  -3   6   93.21    3.28
   0  -3   6   93.63    3.28
  -1   3  -6    1.07    0.11
  -1   3  -6    1.10    0.11
  -1   3  -6    1.08    0.12
  -1   3  -6    1.00    0.13
   1  -3   6    0.98    0.13
   1  -3   6    1.03    0.18
  -2   3  -6    1.61    0.13
  -2   3  -6    1.80    0.14
  -2   3  -6    1.52    0.12
  -2   3  -6    1.52    0.19
   2  -3   6    1.61    0.20
  -3   3  -6   16.75    0.60
  -3   3  -6   15.94    0.64
   3  -3   6   15.66    0.64
  -4   3  -6    8.81    0.38
  -4   3  -6    7.96    0.44
   4  -3   6    8.45    0.43
   4   2  -6   29.37    1.07
  -4  -2   6   28.97    1.10
   3   2  -6   11.37    0.45
  -3  -2   6   10.57    0.48
   2   2  -6    0.42    0.10
   2   2  -6    0.30    0.09
  -2  -2   6    0.27    0.08
  -2  -2   6    0.34    0.08
  -2  -2   6    0.33    0.12
   1   2  -6   73.66    2.56
   1   2  -6   74.03    2.56
  -1  -2   6   75.53    2.58
  -1  -2   6   72.29    2.56
  -1  -2   6   72.83    2.56
   0   2  -6  114.32    3.91
   0   2  -6  113.60    3.91
   0  -2   6  111.84    3.92
   0  -2   6  110.88    3.91
  -1   2  -6    0.29    0.06
  -1   2  -6    0.28    0.09
  -1   2  -6    0.16    0.10
  -1   2  -6    0.29    0.06
   1  -2   6    0.14    0.07
   1  -2   6    0.06    0.11
  -2   2  -6    3.41    0.22
  -2   2  -6    3.52    0.16
  -2   2  -6    3.60    0.17
  -2   2  -6    3.54    0.17
   2  -2   6    3.44    0.23
  -3   2  -6    1.03    0.14
  -3   2  -6    0.67    0.15
   3  -2   6    0.61    0.16
  -4   2  -6   -0.03    0.13
  -4   2  -6    0.07    0.17
   4  -2   6    0.07    0.18
   4   1  -6    1.32    0.17
  -4  -1   6    1.42    0.23
   3   1  -6    1.30    0.19
  -3  -1   6    1.90    0.24
   2   1  -6    1.12    0.14
  -2  -1   6    1.04    0.12
  -2  -1   6    0.95    0.12
  -2  -1   6    0.99    0.13
   1   1  -6  134.73    4.69
   1   1  -6  133.94    4.68
  -1  -1   6  134.82    4.69
  -1  -1   6  137.11    4.68
   0   1  -6   37.47    1.30
   0  -1   6   37.35    1.30
   0  -1   6   36.65    1.31
  -1   1  -6   15.68    0.56
  -1   1  -6   16.78    0.58
  -1   1  -6   14.76    0.57
  -1   1  -6   16.51    0.59
   1  -1   6   16.19    0.58
   1  -1   6   16.35    0.60
  -2   1  -6   18.32    0.65
  -2   1  -6   18.02    0.65
  -2   1  -6   18.20    0.67
   2  -1   6   17.93    0.68
  -3   1  -6    9.28    0.41
   3  -1   6    9.26    0.43
  -4   1  -6    0.16    0.12
  -4   1  -6    0.20    0.17
   4  -1   6   -0.06    0.21
  -4   0   6    5.54    0.33
  -3   0   6    3.21    0.22
  -3   0   6    3.25    0.26
  -2   0   6    0.98    0.11
  -2   0   6    1.23    0.12
  -2   0   6    1.00    0.13
  -2   0   6    0.98    0.11
   1   0  -6    8.83    0.34
  -1   0   6    9.70    0.37
  -1   0   6    8.85    0.35
  -1   0   6    9.62    0.35
   0   0  -6   41.05    1.41
   0   0  -6   40.92    1.41
   0   0   6   39.82    1.42
   0   0   6   39.90    1.41
  -1   0  -6   27.25    0.94
  -1   0  -6   25.78    0.94
  -1   0  -6   27.63    0.95
   1   0   6   26.04    0.94
   1   0   6   26.83    0.95
  -2   0  -6    5.62    0.23
  -2   0  -6    5.86    0.27
  -2   0  -6    5.92    0.23
   2   0   6    4.87    0.28
  -3   0  -6    1.99    0.23
   3   0   6    2.00    0.25
  -4   0  -6    0.87    0.18
   4   0   6    0.56    0.29
  -5   0  -6    2.67    0.36
   5   0   6    3.06    0.40
   4  -1  -6    3.04    0.24
  -4   1   6    2.52    0.32
  -4   1   6    2.00    0.25
  -3   1   6    6.52    0.33
  -3   1   6    6.15    0.31
  -2   1   6    2.27    0.15
  -2   1   6    2.17    0.17
  -2   1   6    2.13    0.13
  -2   1   6    2.35    0.18
   1  -1  -6   57.42    2.06
  -1   1   6   58.98    2.07
  -1   1   6   57.11    2.07
  -1   1   6   64.07    2.07
   0  -1  -6   20.34    0.72
   0  -1  -6   20.40    0.72
   0   1   6   20.04    0.72
   0   1   6   21.56    0.72
   0   1   6   19.75    0.73
  -1  -1  -6   11.10    0.41
  -1  -1  -6   11.77    0.42
  -1  -1  -6   11.45    0.42
   1   1   6   11.48    0.44
   1   1   6   11.23    0.42
   2   1   6    0.15    0.12
  -3  -1  -6    5.41    0.29
   3   1   6    4.92    0.32
  -4  -1  -6    0.97    0.28
  -5  -1  -6    1.28    0.23
   5   1   6    1.31    0.28
   4  -2  -6    0.77    0.16
  -4   2   6    0.71    0.21
  -4   2   6    0.37    0.16
  -3   2   6    7.93    0.37
  -3   2   6    7.20    0.35
  -2   2   6   10.77    0.43
  -2   2   6   11.62    0.43
  -2   2   6   11.18    0.41
   1  -2  -6   13.03    0.48
   1  -2  -6   12.70    0.49
  -1   2   6   14.04    0.50
  -1   2   6   13.66    0.49
  -1   2   6   13.38    0.48
  -1   2   6   13.79    0.49
   0  -2  -6    0.38    0.06
   0  -2  -6    0.42    0.07
   0   2   6    0.27    0.07
   0   2   6    0.40    0.06
  -1  -2  -6   57.57    1.95
  -1  -2  -6   57.19    1.96
  -1  -2  -6   53.31    1.95
   1   2   6   57.17    1.96
   1   2   6   55.47    1.95
  -2  -2  -6   24.87    0.90
  -2  -2  -6   26.20    0.90
  -2  -2  -6   25.80    0.92
   2   2   6   24.90    0.91
   2   2   6   26.03    0.93
  -3  -2  -6   16.14    0.64
  -3  -2  -6   16.94    0.61
   3   2   6   17.29    0.66
  -4  -2  -6    4.37    0.32
  -5  -2  -6    0.43    0.22
   5   2   6    0.15    0.26
   4  -3  -6   11.34    0.50
  -4   3   6   12.06    0.53
  -4   3   6   10.63    0.49
   3  -3  -6   30.17    1.10
  -3   3   6   31.47    1.11
  -3   3   6   29.66    1.10
   2  -3  -6    9.06    0.36
  -2   3   6    9.40    0.36
  -2   3   6    8.06    0.34
   1  -3  -6    5.53    0.22
   1  -3  -6    5.10    0.25
  -1   3   6    5.41    0.23
  -1   3   6    5.33    0.23
  -1   3   6    5.22    0.22
   0  -3  -6   16.48    0.56
   0  -3  -6   15.50    0.57
   0   3   6   15.77    0.56
   0   3   6   15.21    0.57
   0   3   6   15.50    0.57
  -1  -3  -6   55.59    1.90
  -1  -3  -6   52.16    1.90
  -1  -3  -6   54.91    1.91
   1   3   6   55.47    1.90
   1   3   6   54.63    1.91
  -2  -3  -6    0.86    0.09
  -2  -3  -6    0.94    0.15
  -2  -3  -6    0.90    0.09
   2   3   6    0.62    0.13
   2   3   6    0.76    0.09
  -3  -3  -6   15.14    0.60
  -3  -3  -6   15.22    0.55
  -3  -3  -6   14.22    0.57
  -3  -3  -6   14.93    0.58
  -4  -3  -6    3.72    0.30
  -5  -3  -6    0.22    0.22
   5   3   6   -0.25    0.25
   4  -4  -6    2.44    0.28
  -4   4   6    2.00    0.22
   3  -4  -6    2.78    0.25
  -3   4   6    2.80    0.24
   2  -4  -6    6.09    0.29
  -2   4   6    5.37    0.26
  -2   4   6    6.16    0.25
  -2   4   6    6.11    0.27
   1  -4  -6   17.18    0.61
   1  -4  -6   16.71    0.62
  -1   4   6   17.36    0.61
  -1   4   6   15.49    0.60
  -1   4   6   17.29    0.61
   0  -4  -6   12.87    0.46
   0  -4  -6   12.27    0.47
   0   4   6   12.60    0.47
   0   4   6   12.48    0.46
  -1  -4  -6    8.99    0.36
  -1  -4  -6    9.14    0.34
   1   4   6    9.03    0.35
   1   4   6    8.38    0.36
   1   4   6    8.85    0.33
  -2  -4  -6    4.08    0.22
  -2  -4  -6    3.58    0.19
   2   4   6    3.37    0.19
  -3  -4  -6    4.88    0.31
  -3  -4  -6    5.01    0.24
  -3  -4  -6    4.80    0.28
  -3  -4  -6    4.91    0.25
  -4  -4  -6    0.36    0.20
  -4  -4  -6    0.09    0.18
  -5  -4  -6    0.35    0.23
   4  -5  -6    0.23    0.17
  -4   5   6    0.18    0.18
   3  -5  -6    6.47    0.34
  -3   5   6    5.95    0.40
   2  -5  -6   47.95    1.65
  -2   5   6   47.25    1.64
  -2   5   6   50.28    1.63
  -2   5   6   40.55    1.63
   1  -5  -6   39.42    1.35
   1  -5  -6   39.81    1.37
  -1   5   6   39.22    1.36
  -1   5   6   40.68    1.36
  -1   5   6   33.70    1.35
   0  -5  -6   22.88    0.84
   0  -5  -6   23.25    0.83
   0   5   6   22.99    0.83
   0   5   6   23.66    0.83
  -1  -5  -6   14.66    0.54
  -1  -5  -6   14.58    0.53
   1   5   6   13.97    0.54
   1   5   6   14.61    0.54
   1   5   6   14.60    0.53
  -2  -5  -6    3.03    0.21
  -2  -5  -6    3.62    0.20
  -2  -5  -6    3.17    0.19
  -2  -5  -6    2.97    0.23
   2   5   6    3.16    0.16
   2   5   6    3.23    0.19
  -3  -5  -6   35.93    1.30
  -3  -5  -6   36.12    1.32
  -3  -5  -6   36.29    1.29
  -3  -5  -6   37.06    1.29
   3   5   6   36.32    1.28
  -4  -5  -6   11.04    0.51
  -4  -5  -6   12.53    0.54
  -4  -5  -6   10.73    0.46
  -4  -5  -6   11.18    0.45
  -5  -5  -6    1.42    0.24
  -5  -5  -6    1.38    0.29
   4  -6  -6    2.38    0.31
  -4   6   6    2.08    0.28
  -3   6   6    0.52    0.14
   2  -6  -6   12.39    0.52
  -2   6   6   12.07    0.51
  -2   6   6   13.54    0.53
  -2   6   6   13.58    0.49
   1  -6  -6    4.02    0.20
   1  -6  -6    3.74    0.25
  -1   6   6    3.95    0.23
  -1   6   6    4.07    0.22
   0  -6  -6    8.86    0.35
   0  -6  -6    9.06    0.37
   0   6   6    9.14    0.35
   0   6   6    8.97    0.36
  -1  -6  -6    2.75    0.18
  -1  -6  -6    3.30    0.20
   1   6   6    2.55    0.19
   1   6   6    2.85    0.20
   1   6   6    3.18    0.17
  -2  -6  -6   22.86    0.80
  -2  -6  -6   22.49    0.81
  -2  -6  -6   21.80    0.81
  -2  -6  -6   22.06    0.82
   2   6   6   22.40    0.81
   2   6   6   21.64    0.79
  -3  -6  -6    4.39    0.29
  -3  -6  -6    4.96    0.26
  -3  -6  -6    4.84    0.27
  -3  -6  -6    4.79    0.32
   3   6   6    4.96    0.23
   3   6   6    4.13    0.27
  -4  -6  -6    1.76    0.19
  -4  -6  -6    2.19    0.32
  -4  -6  -6    2.16    0.20
  -4  -6  -6    2.15    0.30
   4   6   6    2.32    0.21
  -5  -6  -6    0.30    0.34
   3  -7  -6    2.15    0.27
  -3   7   6    1.30    0.17
   2  -7  -6    9.54    0.47
  -2   7   6   12.55    0.50
  -2   7   6   10.60    0.43
  -2   7   6   10.19    0.45
   1  -7  -6   24.77    0.90
   1  -7  -6   24.16    0.87
  -1   7   6   24.17    0.88
  -1   7   6   24.15    0.88
   0  -7  -6    0.18    0.12
   0  -7  -6    0.00    0.08
   0   7   6   -0.04    0.10
   0   7   6    0.00    0.09
  -1  -7  -6    3.02    0.19
  -1  -7  -6    3.03    0.22
   1   7   6    2.81    0.21
   1   7   6    3.04    0.20
   1   7   6    3.04    0.19
  -2  -7  -6    3.91    0.24
  -2  -7  -6    4.20    0.27
  -2  -7  -6    4.27    0.26
   2   7   6    3.89    0.25
   2   7   6    4.02    0.21
  -3  -7  -6    1.87    0.28
  -3  -7  -6    1.73    0.20
  -3  -7  -6    1.59    0.25
  -3  -7  -6    1.53    0.22
   3   7   6    1.60    0.17
   3   7   6    0.89    0.23
  -4  -7  -6    5.92    0.31
  -4  -7  -6    6.17    0.38
  -4  -7  -6    6.66    0.42
   4   7   6    6.36    0.31
   3  -8  -6    1.83    0.29
  -3   8   6    1.99    0.25
   2  -8  -6    4.47    0.33
  -2   8   6    4.14    0.27
  -2   8   6    4.75    0.26
   1  -8  -6    3.31    0.28
   1  -8  -6    2.85    0.21
  -1   8   6    2.94    0.23
  -1   8   6    3.26    0.23
   0  -8  -6    0.71    0.11
   0  -8  -6    0.91    0.14
   0   8   6    0.78    0.13
   0   8   6    0.85    0.12
  -1  -8  -6   17.18    0.65
  -1  -8  -6   17.10    0.66
   1   8   6   17.25    0.65
   1   8   6   18.01    0.64
  -2  -8  -6    4.62    0.29
  -2  -8  -6    4.21    0.29
  -2  -8  -6    4.56    0.26
   2   8   6    4.09    0.27
   2   8   6    4.53    0.24
  -3  -8  -6    6.24    0.31
  -3  -8  -6    5.39    0.37
  -3  -8  -6    5.52    0.34
   3   8   6    5.55    0.28
  -4  -8  -6    1.40    0.30
  -4  -8  -6    1.12    0.15
  -4  -8  -6    1.49    0.24
   4   8   6    1.49    0.16
   3  -9  -6   -0.03    0.21
  -3   9   6   -0.07    0.17
   2  -9  -6    0.23    0.17
  -2   9   6    0.31    0.13
  -2   9   6    0.19    0.14
  -1   9   6    0.25    0.14
   0  -9  -6    0.44    0.16
   0  -9  -6    0.45    0.19
   0   9   6    0.29    0.13
   0   9   6    0.24    0.13
  -1  -9  -6    3.43    0.24
  -1  -9  -6    3.38    0.27
   1   9   6    3.20    0.25
   1   9   6    3.29    0.23
  -2  -9  -6    3.77    0.26
  -2  -9  -6    3.89    0.29
  -2  -9  -6    3.71    0.29
   2   9   6    3.72    0.28
   2   9   6    3.67    0.24
  -3  -9  -6    0.66    0.19
  -3  -9  -6    0.34    0.18
   3   9   6    0.26    0.14
  -4  -9  -6    0.43    0.20
  -4  -9  -6    0.20    0.23
  -4  -9  -6    0.04    0.14
   4   9   6    0.31    0.15
   2 -10  -6    0.09    0.20
  -2  10   6    0.20    0.16
  -2  10   6    0.18    0.14
   1 -10  -6    0.07    0.18
  -1  10   6   -0.10    0.13
  -1  10   6   -0.05    0.14
   0 -10  -6    3.78    0.26
   0  10   6    4.20    0.28
   0  10   6    4.08    0.36
  -1 -10  -6    3.90    0.31
  -1 -10  -6    3.64    0.26
   1  10   6    3.56    0.27
   1  10   6    3.63    0.28
  -2 -10  -6    0.29    0.17
  -2 -10  -6    0.31    0.14
  -2 -10  -6    0.13    0.18
   2  10   6    0.14    0.16
   2  10   6    0.19    0.14
  -3 -10  -6    0.44    0.15
  -3 -10  -6    0.27    0.22
  -3 -10  -6    0.53    0.20
   3  10   6    0.29    0.16
  -4 -10  -6    0.14    0.15
  -4 -10  -6    0.35    0.24
   2 -11  -6    0.10    0.21
  -2  11   6    0.06    0.19
  -2  11   6    0.18    0.15
   1 -11  -6    0.13    0.20
  -1  11   6    0.13    0.15
  -1  11   6   -0.07    0.15
   0 -11  -6   10.43    0.50
   0 -11  -6   10.98    0.46
   0  11   6   10.68    0.47
   0  11   6   10.67    0.46
  -1 -11  -6    7.72    0.42
  -1 -11  -6    8.19    0.39
   1  11   6    7.95    0.40
   1  11   6    7.99    0.38
  -2 -11  -6    0.62    0.16
  -2 -11  -6    0.35    0.21
  -2 -11  -6    0.80    0.19
   2  11   6    0.76    0.19
  -3 -11  -6   -0.17    0.20
  -3 -11  -6    0.10    0.16
  -3 -11  -6    0.03    0.21
   3  11   6   -0.31    0.16
   1 -12  -6   13.58    0.63
  -1  12   6   13.60    0.57
  -1  12   6   13.38    0.57
   0 -12  -6    0.59    0.21
   0  12   6    0.76    0.16
   0  12   6    1.09    0.17
  -1 -12  -6    1.49    0.18
  -1 -12  -6    1.26    0.22
   1  12   6    1.37    0.18
   1  12   6    1.44    0.20
  -2 -12  -6    2.46    0.34
  -2 -12  -6    3.65    0.30
   2  12   6    3.06    0.28
   2  12   6    2.85    0.33
  -3 -12  -6    0.34    0.18
  -3 -12  -6    0.09    0.21
  -3 -12  -6    0.19    0.23
   3  12   6   -0.11    0.18
   0 -13  -6    0.35    0.23
   0  13   6    0.94    0.18
   0  13   6    1.22    0.19
  -1 -13  -6    0.19    0.18
  -1 -13  -6    0.37    0.23
   1  13   6    0.24    0.25
   1  13   6    0.39    0.17
  -2 -13  -6    0.28    0.17
  -2 -13  -6   -0.38    0.22
   2  13   6   -0.04    0.18
   2  13   6    0.06    0.22
  -2 -11   7    0.27    0.19
   1  11  -7   26.68    1.01
   1  11  -7   27.58    1.01
  -1 -11   7   27.09    1.01
  -1 -11   7   25.35    1.00
   0  11  -7    5.70    0.36
   0  11  -7    6.11    0.38
   0 -11   7    7.04    0.40
   2  10  -7   -0.07    0.16
  -2 -10   7    0.04    0.16
  -2 -10   7   -0.06    0.15
   1  10  -7    8.95    0.45
   1  10  -7    9.63    0.43
  -1 -10   7    8.97    0.45
  -1 -10   7    8.43    0.44
   0  10  -7   40.10    1.40
   0  10  -7   37.11    1.37
   0 -10   7   36.81    1.37
   0 -10   7   37.37    1.37
   0 -10   7   38.40    1.38
  -1  10  -7    1.47    0.19
  -1  10  -7    1.59    0.18
   1 -10   7    1.80    0.26
   3   9  -7    0.90    0.18
  -3  -9   7    1.50    0.24
  -3  -9   7    1.28    0.18
   2   9  -7   10.46    0.47
   2   9  -7   10.28    0.49
  -2  -9   7   11.86    0.59
  -2  -9   7   10.17    0.48
   1   9  -7    8.99    0.42
   1   9  -7    9.42    0.43
  -1  -9   7    9.12    0.43
  -1  -9   7    9.59    0.44
   0   9  -7   21.10    0.78
   0   9  -7   20.39    0.77
   0  -9   7   20.76    0.78
   0  -9   7   19.61    0.78
  -1   9  -7    0.20    0.13
  -1   9  -7    0.09    0.13
   1  -9   7    0.01    0.14
  -2   9  -7    1.95    0.25
  -2   9  -7    2.30    0.25
   2  -9   7    2.26    0.27
   3   8  -7    0.04    0.14
  -3  -8   7    0.35    0.20
  -3  -8   7   -0.10    0.14
   2   8  -7    5.29    0.33
   2   8  -7    5.26    0.31
  -2  -8   7    5.66    0.32
   1   8  -7   29.06    1.07
  -1  -8   7   29.50    1.07
  -1  -8   7   28.88    1.08
   0   8  -7   18.20    0.69
   0   8  -7   18.38    0.69
   0  -8   7   17.71    0.68
   0  -8   7   17.26    0.69
   0  -8   7   18.40    0.70
  -1   8  -7    2.31    0.24
  -1   8  -7    1.98    0.23
   1  -8   7    1.71    0.23
  -2   8  -7    2.22    0.23
  -2   8  -7    2.32    0.23
  -2   8  -7    1.98    0.23
   4   7  -7    0.10    0.17
  -4  -7   7    0.06    0.23
  -4  -7   7    0.18    0.15
   3   7  -7    0.42    0.15
  -3  -7   7    0.35    0.14
  -3  -7   7    0.50    0.19
   2   7  -7    4.17    0.29
  -2  -7   7    4.48    0.32
  -2  -7   7    4.29    0.30
   1   7  -7    1.96    0.21
   1   7  -7    2.13    0.23
  -1  -7   7    1.74    0.25
  -1  -7   7    2.29    0.25
   0   7  -7   -0.02    0.12
   0   7  -7    0.06    0.12
   0  -7   7    0.08    0.14
   0  -7   7   -0.02    0.10
  -1   7  -7   30.33    1.07
  -1   7  -7   29.24    1.06
  -1   7  -7   29.68    1.08
   1  -7   7   30.29    1.07
   1  -7   7   27.63    1.07
  -2   7  -7    0.08    0.10
  -2   7  -7    0.04    0.16
  -2   7  -7    0.03    0.13
  -3   7  -7    2.67    0.23
  -3   7  -7    3.06    0.32
  -3   7  -7    3.15    0.24
   4   6  -7    0.77    0.18
  -4  -6   7    0.55    0.23
  -4  -6   7    0.68    0.14
   3   6  -7    0.26    0.14
  -3  -6   7    0.14    0.17
  -3  -6   7    0.21    0.13
   2   6  -7   52.85    1.87
   2   6  -7   52.19    1.87
  -2  -6   7   52.29    1.89
  -2  -6   7   54.23    1.87
   1   6  -7    0.34    0.11
   1   6  -7    0.27    0.12
  -1  -6   7    0.37    0.14
  -1  -6   7    0.28    0.13
   0   6  -7   20.82    0.76
   0   6  -7   20.83    0.75
   0  -6   7   19.52    0.77
   0  -6   7   20.99    0.76
  -1   6  -7   12.42    0.50
  -1   6  -7   12.54    0.48
  -1   6  -7   12.35    0.49
   1  -6   7   12.47    0.49
   1  -6   7   11.84    0.50
  -2   6  -7    8.21    0.42
  -2   6  -7    8.05    0.35
  -2   6  -7    7.90    0.34
   2  -6   7    7.95    0.38
  -3   6  -7    1.32    0.19
  -3   6  -7    1.49    0.15
  -3   6  -7    1.20    0.18
   3  -6   7    1.28    0.17
   4   5  -7    1.15    0.18
  -4  -5   7    1.15    0.24
  -4  -5   7    1.48    0.20
  -3  -5   7    0.18    0.18
  -3  -5   7    0.06    0.13
   2   5  -7    1.43    0.15
   2   5  -7    1.55    0.19
  -2  -5   7    1.68    0.20
  -2  -5   7    2.17    0.25
  -2  -5   7    1.98    0.21
   1   5  -7    4.30    0.23
   1   5  -7    4.33    0.27
  -1  -5   7    4.30    0.27
  -1  -5   7    4.59    0.24
   0   5  -7   36.46    1.27
   0   5  -7   36.07    1.27
   0  -5   7   34.70    1.28
   0  -5   7   36.43    1.27
  -1   5  -7   13.60    0.52
  -1   5  -7   14.29    0.52
  -1   5  -7   13.48    0.53
  -1   5  -7   13.53    0.52
   1  -5   7   13.79    0.54
   1  -5   7   13.88    0.52
  -2   5  -7    5.19    0.27
  -2   5  -7    5.31    0.26
  -2   5  -7    4.86    0.25
  -2   5  -7    5.49    0.31
   2  -5   7    5.25    0.31
  -3   5  -7    3.87    0.22
  -3   5  -7    4.28    0.31
  -3   5  -7    4.07    0.24
  -3   5  -7    3.72    0.21
   3  -5   7    4.40    0.29
  -4   5  -7    1.21    0.21
  -4   5  -7    1.54    0.18
   4   4  -7   -0.19    0.16
  -4  -4   7    0.22    0.14
  -4  -4   7   -0.01    0.20
   3   4  -7   13.02    0.54
  -3  -4   7   14.23    0.53
  -3  -4   7   12.55    0.53
  -3  -4   7   14.09    0.58
   2   4  -7    6.00    0.29
   2   4  -7    6.10    0.28
  -2  -4   7    6.02    0.33
  -2  -4   7    6.54    0.29
   1   4  -7   58.21    2.01
   1   4  -7   57.77    2.01
  -1  -4   7   56.50    2.03
  -1  -4   7   57.42    2.01
   0   4  -7   25.43    0.88
   0   4  -7   24.48    0.87
   0  -4   7   24.40    0.89
   0  -4   7   23.75    0.88
  -1   4  -7    1.39    0.14
  -1   4  -7    1.45    0.17
  -1   4  -7    1.46    0.13
  -1   4  -7    1.39    0.16
   1  -4   7    1.59    0.16
   1  -4   7    1.22    0.19
  -2   4  -7   26.57    0.96
  -2   4  -7   26.91    0.96
  -2   4  -7   27.80    0.99
  -2   4  -7   27.83    0.96
   2  -4   7   25.35    0.98
  -3   4  -7    9.76    0.40
  -3   4  -7    9.95    0.39
  -3   4  -7    9.93    0.45
   3  -4   7    9.81    0.45
  -4   4  -7    0.63    0.20
  -4   4  -7    1.04    0.15
   4   3  -7    4.47    0.29
  -4  -3   7    4.11    0.37
   3   3  -7   35.50    1.23
  -3  -3   7   30.91    1.24
  -3  -3   7   34.33    1.25
  -3  -3   7   35.71    1.21
   2   3  -7    0.45    0.10
   2   3  -7    0.61    0.11
  -2  -3   7    0.85    0.11
  -2  -3   7    0.60    0.10
  -2  -3   7    0.82    0.14
   1   3  -7   30.84    1.09
   1   3  -7   31.03    1.09
  -1  -3   7   31.15    1.11
  -1  -3   7   29.89    1.09
   0   3  -7   49.31    1.69
   0   3  -7   49.01    1.70
   0  -3   7   46.28    1.71
   0  -3   7   49.19    1.71
  -1   3  -7    0.28    0.07
  -1   3  -7    0.23    0.07
  -1   3  -7    0.32    0.10
  -1   3  -7    0.39    0.08
   1  -3   7    0.30    0.12
   1  -3   7    0.13    0.08
  -2   3  -7    1.75    0.13
  -2   3  -7    1.50    0.20
  -2   3  -7    1.41    0.13
  -2   3  -7    1.45    0.15
   2  -3   7    1.55    0.22
  -3   3  -7    0.06    0.19
  -3   3  -7   -0.07    0.09
  -3   3  -7   -0.01    0.09
   3  -3   7   -0.09    0.16
  -4   3  -7    0.80    0.19
  -4   3  -7    1.20    0.14
   4   2  -7    0.14    0.15
  -4  -2   7    0.04    0.20
   3   2  -7    8.45    0.38
  -3  -2   7    8.75    0.41
  -3  -2   7    9.07    0.35
  -3  -2   7    8.60    0.35
   2   2  -7    3.31    0.19
  -2  -2   7    3.33    0.24
  -2  -2   7    3.26    0.19
  -2  -2   7    3.07    0.18
   1   2  -7    5.89    0.25
   1   2  -7    6.02    0.26
  -1  -2   7    6.16    0.26
  -1  -2   7    5.63    0.25
  -1  -2   7    5.88    0.29
   0   2  -7    4.06    0.19
   0   2  -7    3.99    0.22
   0  -2   7    4.12    0.21
   0  -2   7    4.52    0.24
  -1   2  -7    5.51    0.25
  -1   2  -7    5.46    0.23
  -1   2  -7    4.95    0.22
  -1   2  -7    5.24    0.21
   1  -2   7    5.05    0.23
   1  -2   7    5.52    0.28
  -2   2  -7    2.11    0.13
  -2   2  -7    2.07    0.20
  -2   2  -7    2.08    0.12
  -2   2  -7    2.15    0.15
   2  -2   7    2.02    0.22
  -3   2  -7    0.67    0.09
  -3   2  -7    0.41    0.08
  -3   2  -7    0.50    0.16
   3  -2   7    0.40    0.17
  -4   2  -7    1.08    0.14
  -4   2  -7    0.83    0.18
   4   1  -7   10.72    0.46
  -4  -1   7   10.51    0.51
   3   1  -7    1.04    0.13
  -3  -1   7    1.16    0.17
   2   1  -7    2.18    0.16
  -2  -1   7    2.24    0.21
  -2  -1   7    1.83    0.15
  -2  -1   7    1.89    0.15
   1   1  -7   29.63    1.04
   1   1  -7   29.50    1.04
  -1  -1   7   28.54    1.03
  -1  -1   7   29.68    1.04
  -1  -1   7   29.37    1.05
   0   1  -7   17.34    0.62
   0   1  -7   17.08    0.63
   0  -1   7   17.33    0.63
   0  -1   7   17.83    0.64
  -1   1  -7    0.26    0.07
  -1   1  -7    0.27    0.07
  -1   1  -7    0.25    0.12
  -1   1  -7    0.18    0.05
   1  -1   7    0.04    0.12
   1  -1   7    0.13    0.08
  -2   1  -7    0.24    0.07
  -2   1  -7    0.13    0.10
  -2   1  -7    0.14    0.07
   2  -1   7    0.00    0.12
  -3   1  -7    4.02    0.27
   3  -1   7    3.40    0.29
  -4   1  -7    7.22    0.40
  -4   0   7    0.37    0.25
  -3   0   7   -0.05    0.15
  -3   0   7   -0.05    0.12
  -2   0   7   64.80    2.30
  -2   0   7   65.91    2.33
  -2   0   7   65.28    2.32
  -2   0   7   69.05    2.31
   1   0  -7   57.96    2.08
  -1   0   7   59.90    2.08
  -1   0   7   61.40    2.09
  -1   0   7   59.96    2.10
   0   0  -7    5.02    0.21
   0   0  -7    4.43    0.23
   0   0   7    5.42    0.25
   0   0   7    4.98    0.22
  -1   0  -7    5.15    0.22
  -1   0  -7    5.06    0.23
  -1   0  -7    4.75    0.21
   1   0   7    4.31    0.26
   1   0   7    4.68    0.21
  -2   0  -7   42.15    1.47
  -2   0  -7   39.18    1.45
  -2   0  -7   41.65    1.45
   2   0   7   42.84    1.48
  -3   0  -7    0.55    0.14
   3   0   7    0.52    0.17
  -4   0  -7   10.45    0.48
   5   0   7    1.19    0.27
   4  -1  -7    8.41    0.39
  -4   1   7    9.68    0.52
  -4   1   7    7.85    0.40
  -3   1   7   -0.20    0.13
  -3   1   7    0.10    0.15
  -2   1   7   34.56    1.23
  -2   1   7   36.24    1.23
  -2   1   7   35.04    1.25
  -2   1   7   34.93    1.25
   1  -1  -7    2.44    0.15
  -1   1   7    2.34    0.16
  -1   1   7    2.77    0.16
  -1   1   7    3.27    0.20
   0  -1  -7    3.33    0.16
   0  -1  -7    3.32    0.17
   0   1   7    3.32    0.17
   0   1   7    3.31    0.16
   0   1   7    3.50    0.20
  -1  -1  -7   20.14    0.69
  -1  -1  -7   19.21    0.70
  -1  -1  -7   18.25    0.69
   1   1   7   19.90    0.70
   1   1   7   19.68    0.71
   2   1   7    0.24    0.08
   2   1   7    0.12    0.12
  -3  -1  -7    4.94    0.28
   3   1   7    4.72    0.31
  -4  -1  -7    0.53    0.17
   4   1   7    0.39    0.22
  -5  -1  -7    0.69    0.22
   5   1   7    0.78    0.27
   4  -2  -7    3.55    0.28
  -4   2   7    3.45    0.28
  -4   2   7    3.28    0.34
  -3   2   7   45.07    1.55
  -3   2   7   41.65    1.55
  -2   2   7    2.22    0.16
  -2   2   7    1.97    0.18
  -2   2   7    2.19    0.19
  -2   2   7    2.34    0.14
   1  -2  -7  196.40    7.07
   1  -2  -7  200.41    7.06
  -1   2   7  203.60    7.07
  -1   2   7  214.46    7.07
  -1   2   7  205.59    7.07
   0  -2  -7    1.72    0.13
   0  -2  -7    1.46    0.12
   0   2   7    1.44    0.17
   0   2   7    1.41    0.16
   0   2   7    1.57    0.16
  -1  -2  -7   44.36    1.51
  -1  -2  -7   43.99    1.51
  -1  -2  -7   39.75    1.50
   1   2   7   43.86    1.51
   1   2   7   43.25    1.52
  -2  -2  -7    9.90    0.37
  -2  -2  -7   10.04    0.37
  -2  -2  -7   10.75    0.39
   2   2   7    8.77    0.41
   2   2   7    9.42    0.38
  -3  -2  -7    0.89    0.09
  -3  -2  -7    0.74    0.10
  -3  -2  -7    0.81    0.14
   3   2   7    0.69    0.16
   4   2   7    6.38    0.42
  -5  -2  -7    6.31    0.41
   5   2   7    6.09    0.49
   4  -3  -7    1.95    0.26
  -4   3   7    1.41    0.23
  -4   3   7    1.27    0.19
   3  -3  -7    9.11    0.40
  -3   3   7    8.69    0.41
  -3   3   7    9.82    0.42
   2  -3  -7    0.28    0.10
  -2   3   7    0.33    0.10
  -2   3   7    0.34    0.08
   1  -3  -7   59.14    2.03
   1  -3  -7   55.82    2.04
  -1   3   7   60.16    2.04
  -1   3   7   59.78    2.04
  -1   3   7   56.88    2.03
   0  -3  -7    0.43    0.08
   0  -3  -7    0.19    0.07
   0   3   7    0.25    0.10
   0   3   7    0.19    0.07
   0   3   7    0.18    0.08
  -1  -3  -7   14.64    0.54
  -1  -3  -7   15.36    0.55
   1   3   7   15.16    0.54
   1   3   7   14.41    0.56
  -2  -3  -7   33.63    1.20
  -2  -3  -7   34.61    1.22
  -2  -3  -7   34.67    1.20
   2   3   7   33.52    1.23
   2   3   7   34.60    1.21
  -3  -3  -7   15.18    0.60
  -3  -3  -7   15.86    0.61
  -3  -3  -7   15.74    0.58
   3   3   7   16.28    0.63
  -4  -3  -7    2.49    0.32
   4   3   7    2.86    0.32
  -5  -3  -7    2.21    0.35
   5   3   7    1.83    0.38
   4  -4  -7    4.16    0.34
  -4   4   7    3.36    0.31
   3  -4  -7   34.74    1.25
   2  -4  -7   21.53    0.81
  -2   4   7   24.12    0.81
  -2   4   7   20.46    0.80
  -2   4   7   22.07    0.79
   1  -4  -7    0.01    0.10
   1  -4  -7   -0.01    0.07
  -1   4   7   -0.04    0.08
  -1   4   7   -0.04    0.07
  -1   4   7    0.13    0.08
   0  -4  -7  264.53    8.87
   0  -4  -7  242.73    8.87
   0   4   7  268.16    8.87
   0   4   7  259.06    8.87
   0   4   7  246.96    8.87
  -1  -4  -7    0.91    0.11
  -1  -4  -7    0.73    0.09
   1   4   7    0.74    0.10
   1   4   7    0.88    0.10
  -2  -4  -7   18.40    0.65
  -2  -4  -7   17.94    0.67
   2   4   7   17.87    0.65
   2   4   7   17.87    0.68
  -3  -4  -7    0.35    0.13
  -3  -4  -7    0.09    0.11
  -3  -4  -7    0.12    0.09
  -4  -4  -7    7.10    0.39
  -5  -4  -7    1.90    0.26
   5   4   7    2.63    0.41
   4  -5  -7    0.33    0.19
  -4   5   7   -0.02    0.18
   3  -5  -7    9.22    0.41
  -3   5   7    7.98    0.39
   2  -5  -7   30.14    1.11
  -2   5   7   30.31    1.08
  -2   5   7   27.72    1.09
  -2   5   7   33.95    1.11
   1  -5  -7    2.50    0.17
   1  -5  -7    2.89    0.21
  -1   5   7    2.81    0.18
  -1   5   7    2.73    0.18
   0  -5  -7   59.01    2.11
   0  -5  -7   60.84    2.11
   0   5   7   61.35    2.11
   0   5   7   60.45    2.11
  -1  -5  -7   17.49    0.65
  -1  -5  -7   17.94    0.64
   1   5   7   17.17    0.65
   1   5   7   17.75    0.64
   1   5   7   17.52    0.63
  -2  -5  -7   36.92    1.30
  -2  -5  -7   37.02    1.31
  -2  -5  -7   37.17    1.30
   2   5   7   36.49    1.29
   2   5   7   37.28    1.30
   2   5   7   36.34    1.32
  -3  -5  -7    1.77    0.21
  -3  -5  -7    2.16    0.24
  -3  -5  -7    1.87    0.28
  -3  -5  -7    2.13    0.19
  -4  -5  -7    0.34    0.18
  -4  -5  -7   -0.08    0.15
  -4  -5  -7    0.28    0.11
  -5  -5  -7    1.05    0.22
   5   5   7    0.52    0.27
   4  -6  -7    2.95    0.33
  -4   6   7    2.69    0.31
   3  -6  -7   -0.01    0.26
  -3   6   7   -0.10    0.14
   2  -6  -7   39.83    1.42
  -2   6   7   37.94    1.40
  -2   6   7   40.22    1.39
   1  -6  -7   33.85    1.24
   1  -6  -7   34.90    1.22
  -1   6   7   34.88    1.23
  -1   6   7   34.80    1.23
   0  -6  -7    4.28    0.21
   0  -6  -7    4.55    0.24
   0   6   7    4.54    0.22
   0   6   7    4.22    0.23
  -1  -6  -7   12.44    0.47
  -1  -6  -7   12.66    0.48
   1   6   7   12.43    0.47
   1   6   7   12.36    0.48
   1   6   7   11.97    0.46
  -2  -6  -7    7.66    0.34
  -2  -6  -7    7.37    0.35
  -2  -6  -7    7.90    0.32
   2   6   7    7.02    0.29
   2   6   7    7.34    0.33
  -3  -6  -7    0.41    0.17
  -3  -6  -7   -0.07    0.12
  -3  -6  -7   -0.08    0.15
  -3  -6  -7    0.04    0.11
   3   6   7    0.08    0.09
   3   6   7   -0.25    0.13
  -4  -6  -7    0.20    0.21
  -4  -6  -7   -0.18    0.15
  -4  -6  -7    0.03    0.22
  -4  -6  -7    0.26    0.12
   3  -7  -7    0.59    0.18
  -3   7   7    0.50    0.16
   2  -7  -7    4.67    0.33
  -2   7   7    5.52    0.33
  -2   7   7    5.05    0.32
  -2   7   7    4.20    0.37
   1  -7  -7    0.35    0.10
   1  -7  -7    0.51    0.14
  -1   7   7    0.43    0.11
  -1   7   7    0.47    0.11
  -1   7   7    0.15    0.09
   0  -7  -7    0.40    0.09
   0  -7  -7    0.53    0.12
   0   7   7    0.32    0.11
   0   7   7    0.28    0.10
  -1  -7  -7    3.28    0.22
  -1  -7  -7    3.19    0.20
   1   7   7    3.44    0.22
   1   7   7    3.33    0.19
   1   7   7    3.04    0.22
  -2  -7  -7    1.96    0.19
  -2  -7  -7    1.95    0.22
   2   7   7    1.76    0.20
   2   7   7    1.88    0.16
  -3  -7  -7    2.41    0.22
  -3  -7  -7    2.64    0.27
  -3  -7  -7    2.72    0.30
   3   7   7    2.73    0.19
  -4  -7  -7   -0.11    0.21
  -4  -7  -7   -0.07    0.12
   4   7   7    0.08    0.12
   3  -8  -7    3.98    0.35
  -3   8   7    3.31    0.28
   2  -8  -7    4.62    0.33
  -2   8   7    3.73    0.29
  -2   8   7    4.49    0.25
  -2   8   7    3.70    0.26
   1  -8  -7    7.88    0.34
   1  -8  -7    7.85    0.40
  -1   8   7    7.71    0.35
  -1   8   7    7.59    0.35
   0  -8  -7    0.51    0.15
   0  -8  -7    0.25    0.10
   0   8   7    0.35    0.11
   0   8   7    0.11    0.12
  -1  -8  -7    5.62    0.30
  -1  -8  -7    5.29    0.27
   1   8   7    5.06    0.29
   1   8   7    5.39    0.26
  -2  -8  -7    5.46    0.32
  -2  -8  -7    5.86    0.30
   2   8   7    5.37    0.27
   2   8   7    5.83    0.35
  -3  -8  -7    0.32    0.17
  -3  -8  -7    0.26    0.14
  -3  -8  -7    0.31    0.20
   3   8   7    0.29    0.12
  -4  -8  -7    0.29    0.19
  -4  -8  -7    0.37    0.23
  -4  -8  -7    0.27    0.13
   4   8   7    0.45    0.13
   3  -9  -7    0.31    0.20
  -3   9   7    0.29    0.17
   2  -9  -7    0.05    0.18
  -2   9   7    0.22    0.13
  -2   9   7    0.20    0.14
   1  -9  -7    7.86    0.57
  -1   9   7    9.20    0.39
   0  -9  -7    0.73    0.16
   0  -9  -7    0.55    0.14
   0   9   7    0.58    0.13
   0   9   7    0.58    0.15
  -1  -9  -7   22.31    0.81
  -1  -9  -7   20.84    0.81
   1   9   7   21.96    0.80
   1   9   7   21.49    0.81
  -2  -9  -7    5.28    0.30
  -2  -9  -7    5.26    0.32
   2   9   7    4.97    0.31
   2   9   7    5.13    0.27
  -3  -9  -7    3.63    0.33
  -3  -9  -7    4.04    0.29
   3   9   7    4.15    0.25
  -4  -9  -7    0.54    0.20
  -4  -9  -7   -0.06    0.14
  -4  -9  -7   -0.25    0.23
   4   9   7    0.18    0.14
   2 -10  -7    0.05    0.19
  -2  10   7    0.24    0.15
  -2  10   7    0.06    0.14
   1 -10  -7    4.27    0.35
  -1  10   7    4.54    0.29
  -1  10   7    4.35    0.28
   0 -10  -7    6.00    0.42
   0 -10  -7    5.79    0.32
   0  10   7    6.04    0.34
  -1 -10  -7    9.90    0.46
  -1 -10  -7   10.07    0.44
   1  10   7    9.59    0.45
   1  10   7   10.02    0.43
  -2 -10  -7    0.85    0.16
  -2 -10  -7    0.79    0.19
   2  10   7    0.80    0.18
   2  10   7    0.92    0.15
  -3 -10  -7    0.21    0.20
  -3 -10  -7    0.11    0.21
  -3 -10  -7    0.17    0.15
   3  10   7    0.10    0.15
  -4 -10  -7    0.52    0.16
  -4 -10  -7    0.29    0.26
   4  10   7    0.32    0.16
   2 -11  -7    1.03    0.24
  -2  11   7    1.80    0.26
  -2  11   7    1.12    0.19
   1 -11  -7    2.82    0.35
  -1  11   7    3.13    0.27
  -1  11   7    2.94    0.27
   0 -11  -7   24.76    0.96
   0 -11  -7   26.01    0.94
   0  11   7   25.43    0.94
   0  11   7   24.23    0.93
  -1 -11  -7    5.73    0.33
  -1 -11  -7    5.55    0.35
   1  11   7    5.73    0.35
   1  11   7    5.51    0.33
  -2 -11  -7    0.65    0.17
  -2 -11  -7    0.36    0.20
   2  11   7    0.38    0.18
  -3 -11  -7    1.20    0.18
  -3 -11  -7    1.00    0.22
  -3 -11  -7    0.69    0.22
   1 -12  -7   16.13    0.70
  -1  12   7   15.28    0.64
  -1  12   7   16.09    0.64
   0 -12  -7   -0.06    0.20
   0  12   7    0.03    0.16
   0  12   7    0.20    0.16
  -1 -12  -7    0.14    0.20
  -1 -12  -7    0.26    0.17
   1  12   7    0.17    0.16
   1  12   7    0.15    0.19
  -2 -12  -7    0.11    0.18
  -2 -12  -7   -0.21    0.20
   2  12   7   -0.23    0.16
   2  12   7   -0.14    0.20
  -3 -12  -7    1.57    0.25
  -3 -12  -7    1.08    0.24
   3  12   7    1.48    0.19
   0 -13  -7   -0.40    0.23
   0  13   7    0.11    0.18
   0  13   7    0.00    0.18
  -1 -13  -7    0.18    0.19
  -1 -13  -7    0.17    0.22
   1  13   7    0.23    0.32
   1  13   7    0.04    0.17
  -2 -13  -7   -0.34    0.22
  -2 -13  -7    0.03    0.18
   2  13   7    0.10    0.22
   2  13   7   -0.09    0.17
   1  11  -8    5.89    0.40
   1  11  -8    6.22    0.37
  -1 -11   8    5.89    0.38
  -1 -11   8    5.29    0.34
   0  11  -8    8.97    0.45
   0 -11   8    8.84    0.45
   2  10  -8    0.31    0.16
  -2 -10   8    0.59    0.18
  -2 -10   8    0.33    0.17
   1  10  -8    1.30    0.17
   1  10  -8    1.23    0.20
  -1 -10   8    1.34    0.20
  -1 -10   8    1.40    0.19
   0  10  -8    8.78    0.42
   0 -10   8    8.87    0.43
   0 -10   8    8.73    0.43
  -1  10  -8   -0.13    0.16
  -1  10  -8   -0.11    0.16
   1 -10   8    0.28    0.15
   3   9  -8   -0.17    0.16
  -3  -9   8   -0.08    0.16
  -3  -9   8    0.14    0.22
   2   9  -8    2.79    0.28
  -2  -9   8    2.65    0.29
  -2  -9   8    3.63    0.35
   1   9  -8    5.71    0.33
   1   9  -8    6.02    0.35
  -1  -9   8    6.20    0.37
  -1  -9   8    6.54    0.36
   0   9  -8    0.01    0.15
   0   9  -8    0.15    0.14
   0  -9   8   -0.16    0.15
   0  -9   8   -0.24    0.15
  -1   9  -8    0.97    0.16
  -1   9  -8    0.98    0.15
   1  -9   8    0.74    0.15
   1  -9   8    0.53    0.15
  -2   9  -8    0.53    0.16
  -2   9  -8    0.31    0.15
   2  -9   8    0.59    0.16
   3   8  -8    0.15    0.14
  -3  -8   8    0.45    0.20
   2   8  -8   -0.21    0.14
   2   8  -8   -0.16    0.14
  -2  -8   8    0.07    0.17
  -2  -8   8   -0.04    0.16
   1   8  -8   18.14    0.71
   1   8  -8   17.88    0.70
  -1  -8   8   18.75    0.72
  -1  -8   8   18.61    0.73
   0   8  -8    4.41    0.30
   0  -8   8    4.02    0.30
   0  -8   8    4.87    0.32
   1  -8   8    1.35    0.24
  -2   8  -8    0.88    0.15
  -2   8  -8    0.52    0.20
  -2   8  -8    0.77    0.14
   3   7  -8    1.01    0.17
  -3  -7   8    1.39    0.20
  -3  -7   8    1.73    0.24
   2   7  -8   -0.11    0.15
   2   7  -8   -0.19    0.12
  -2  -7   8    0.09    0.15
   1   7  -8    0.81    0.15
   1   7  -8    0.98    0.15
  -1  -7   8    1.16    0.14
  -1  -7   8    1.02    0.17
   0   7  -8   -0.01    0.13
   0   7  -8    0.04    0.11
   0  -7   8   -0.06    0.13
   0  -7   8    0.12    0.14
  -1   7  -8    2.21    0.23
  -1   7  -8    2.67    0.26
  -1   7  -8    2.58    0.22
   1  -7   8    2.50    0.25
  -2   7  -8    1.91    0.22
  -2   7  -8    1.72    0.21
  -2   7  -8    1.69    0.26
   2  -7   8    1.52    0.17
  -3   7  -8    0.72    0.15
  -3   7  -8    0.40    0.13
  -3   7  -8    0.32    0.20
   4   6  -8    0.18    0.18
  -4  -6   8    0.07    0.14
  -4  -6   8    0.30    0.22
   3   6  -8    0.18    0.14
  -3  -6   8    0.10    0.14
  -3  -6   8    0.27    0.16
   2   6  -8   15.24    0.62
   2   6  -8   16.18    0.62
  -2  -6   8   15.39    0.62
  -2  -6   8   16.65    0.65
   1   6  -8    3.60    0.26
   1   6  -8    3.67    0.24
  -1  -6   8    4.03    0.26
  -1  -6   8    3.86    0.28
   0   6  -8    0.05    0.11
   0   6  -8   -0.03    0.12
   0  -6   8   -0.12    0.12
   0  -6   8    0.05    0.14
  -1   6  -8    0.96    0.15
  -1   6  -8    0.94    0.13
  -1   6  -8    0.78    0.12
   1  -6   8    0.88    0.15
   1  -6   8    0.92    0.14
  -2   6  -8   13.41    0.53
  -2   6  -8   13.88    0.54
   2  -6   8   13.74    0.56
  -3   6  -8    0.05    0.18
  -3   6  -8    0.13    0.10
  -3   6  -8   -0.18    0.12
   3  -6   8   -0.09    0.16
   4   5  -8    0.73    0.17
  -4  -5   8    0.45    0.13
  -4  -5   8    0.62    0.22
   3   5  -8    3.71    0.27
  -3  -5   8    4.23    0.26
  -3  -5   8    3.99    0.31
   2   5  -8   13.86    0.56
   2   5  -8   14.21    0.56
  -2  -5   8   14.21    0.56
  -2  -5   8   14.09    0.56
  -2  -5   8   14.53    0.59
   1   5  -8    6.99    0.32
   1   5  -8    6.71    0.31
  -1  -5   8    6.97    0.35
  -1  -5   8    7.09    0.32
   0   5  -8    1.78    0.20
   0   5  -8    1.93    0.17
   0  -5   8    1.94    0.22
   0  -5   8    1.69    0.19
  -1   5  -8   19.06    0.69
  -1   5  -8   18.60    0.70
  -1   5  -8   18.60    0.68
   1  -5   8   18.71    0.71
   1  -5   8   18.66    0.69
  -2   5  -8   35.36    1.25
  -2   5  -8   33.71    1.22
  -2   5  -8   33.94    1.22
  -2   5  -8   35.15    1.23
   2  -5   8   34.03    1.25
  -3   5  -8    0.04    0.09
  -3   5  -8    0.33    0.17
  -3   5  -8    0.26    0.12
  -3   5  -8    0.21    0.10
   3  -5   8    0.23    0.15
   4   4  -8    0.00    0.17
  -4  -4   8    0.14    0.20
  -4  -4   8    0.40    0.12
  -3  -4   8    1.93    0.22
  -3  -4   8    1.72    0.29
   2   4  -8    1.79    0.19
   2   4  -8    1.71    0.19
  -2  -4   8    1.41    0.19
  -2  -4   8    1.95    0.20
  -2  -4   8    1.59    0.23
   1   4  -8    2.13    0.17
   1   4  -8    1.86    0.19
  -1  -4   8    1.85    0.18
  -1  -4   8    1.99    0.22
   0   4  -8   27.78    0.96
   0   4  -8   24.03    0.96
   0  -4   8   28.23    0.98
   0  -4   8   27.77    0.97
  -1   4  -8   24.08    0.86
  -1   4  -8   24.02    0.85
  -1   4  -8   23.31    0.84
  -1   4  -8   21.99    0.85
   1  -4   8   24.23    0.85
   1  -4   8   24.46    0.87
  -2   4  -8    6.20    0.27
  -2   4  -8    6.55    0.29
  -2   4  -8    6.08    0.27
  -2   4  -8    6.14    0.33
   2  -4   8    6.08    0.34
   2  -4   8    6.08    0.30
  -3   4  -8   10.56    0.43
  -3   4  -8   10.73    0.42
  -3   4  -8   10.68    0.42
  -3   4  -8   11.15    0.48
   3  -4   8   10.91    0.49
  -4   4  -8    6.30    0.41
  -4   4  -8    6.78    0.33
   4  -4   8    6.62    0.40
   4   3  -8    0.30    0.16
  -4  -3   8   -0.02    0.20
   3   3  -8    9.27    0.41
  -3  -3   8   10.09    0.40
  -3  -3   8    8.85    0.45
  -3  -3   8    9.51    0.45
   2   3  -8    1.34    0.18
   2   3  -8    1.41    0.18
  -2  -3   8    1.31    0.18
  -2  -3   8    1.66    0.22
   1   3  -8    0.62    0.10
   1   3  -8    0.61    0.10
  -1  -3   8    0.51    0.10
  -1  -3   8    0.71    0.13
   0   3  -8   35.85    1.27
   0   3  -8   36.06    1.26
   0  -3   8   36.08    1.28
   0  -3   8   35.44    1.27
  -1   3  -8    8.90    0.34
  -1   3  -8    8.81    0.35
  -1   3  -8    9.14    0.37
  -1   3  -8    9.03    0.36
   1  -3   8    8.86    0.35
   1  -3   8    8.99    0.39
  -2   3  -8    0.09    0.08
  -2   3  -8    0.14    0.08
  -2   3  -8    0.17    0.13
  -2   3  -8    0.24    0.08
   2  -3   8    0.10    0.14
   2  -3   8    0.13    0.10
  -3   3  -8   14.29    0.58
  -3   3  -8   15.82    0.56
  -3   3  -8   15.21    0.57
  -3   3  -8   15.41    0.64
   3  -3   8   15.32    0.63
  -4   3  -8    0.50    0.18
  -4   3  -8    0.34    0.13
   4  -3   8    0.81    0.20
   4   2  -8    0.26    0.16
  -4  -2   8    0.05    0.20
   3   2  -8    1.82    0.22
  -3  -2   8    2.07    0.19
  -3  -2   8    2.51    0.19
   2   2  -8    0.27    0.10
   2   2  -8    0.14    0.09
  -2  -2   8    0.23    0.09
  -2  -2   8    0.37    0.10
  -2  -2   8    0.25    0.13
   1   2  -8  109.64    3.89
   1   2  -8  114.08    3.89
  -1  -2   8  115.07    3.91
  -1  -2   8  109.62    3.91
  -1  -2   8  111.79    3.89
   0   2  -8    0.42    0.09
   0   2  -8    0.50    0.07
   0  -2   8    0.66    0.12
   0  -2   8    0.46    0.10
  -1   2  -8   32.16    1.10
  -1   2  -8   29.46    1.10
  -1   2  -8   30.88    1.09
  -1   2  -8   31.89    1.11
   1  -2   8   31.25    1.10
   1  -2   8   31.36    1.12
  -2   2  -8   10.40    0.40
  -2   2  -8   10.82    0.41
  -2   2  -8   10.65    0.43
   2  -2   8   10.40    0.45
  -3   2  -8   33.14    1.16
  -3   2  -8   32.47    1.17
  -3   2  -8   33.78    1.20
   3  -2   8   32.28    1.21
  -4   2  -8    0.89    0.18
   4  -2   8    1.39    0.21
   4   1  -8    1.05    0.16
  -4  -1   8    1.04    0.22
   3   1  -8    1.97    0.22
  -3  -1   8    2.21    0.18
  -3  -1   8    2.71    0.25
   2   1  -8    1.49    0.16
   2   1  -8    1.67    0.24
  -2  -1   8    1.58    0.16
  -2  -1   8    1.46    0.15
  -2  -1   8    1.64    0.21
   1   1  -8    2.32    0.15
   1   1  -8    2.35    0.16
  -1  -1   8    2.38    0.17
  -1  -1   8    2.70    0.21
  -1  -1   8    2.21    0.16
   0   1  -8   99.58    3.34
   0   1  -8   94.84    3.36
   0  -1   8   89.89    3.35
   0  -1   8  100.27    3.35
  -1   1  -8   99.76    3.40
  -1   1  -8   98.81    3.39
  -1   1  -8   93.22    3.40
  -1   1  -8  100.25    3.40
   1  -1   8   98.45    3.40
   1  -1   8   96.38    3.41
  -2   1  -8    0.74    0.09
  -2   1  -8    0.71    0.09
  -2   1  -8    0.72    0.11
   2  -1   8    0.53    0.09
   2  -1   8    0.51    0.14
  -3   1  -8    0.56    0.15
  -3   1  -8    0.57    0.09
  -3   1  -8    0.65    0.10
   3  -1   8    0.45    0.17
  -4   1  -8    8.13    0.44
   4  -1   8    8.81    0.46
   4   0  -8    7.82    0.36
  -4   0   8    6.56    0.41
  -3   0   8    1.20    0.16
  -2   0   8   92.37    3.16
  -2   0   8   86.82    3.14
  -2   0   8   88.67    3.15
  -2   0   8   93.24    3.14
   1   0  -8   73.82    2.53
  -1   0   8   68.83    2.53
  -1   0   8   74.06    2.54
  -1   0   8   73.89    2.53
   0   0  -8  284.44    9.66
   0   0  -8  292.53    9.67
   0   0   8  257.90    9.67
   0   0   8  282.02    9.67
  -1   0  -8   18.33    0.65
  -1   0  -8   17.26    0.65
  -1   0  -8   18.61    0.66
   1   0   8   17.76    0.68
   1   0   8   18.16    0.65
  -2   0  -8   19.71    0.71
  -2   0  -8   19.85    0.73
  -2   0  -8   19.13    0.71
   2   0   8   20.33    0.74
  -3   0  -8    4.10    0.20
  -3   0  -8    4.07    0.21
  -3   0  -8    4.04    0.27
   3   0   8    3.96    0.31
  -4   0  -8    4.56    0.33
   4   0   8    4.82    0.38
  -4   1   8    4.45    0.29
  -3   1   8    1.45    0.16
  -3   1   8    1.87    0.24
  -2   1   8    0.08    0.10
  -2   1   8    0.09    0.08
  -2   1   8    0.04    0.12
  -2   1   8    0.08    0.08
   1  -1  -8   10.22    0.40
  -1   1   8   10.35    0.40
  -1   1   8   10.99    0.41
  -1   1   8   10.88    0.43
   0  -1  -8  121.46    4.23
   0  -1  -8  120.60    4.23
   0   1   8  129.90    4.22
   0   1   8  118.20    4.23
   0   1   8  119.11    4.24
  -1  -1  -8    0.75    0.07
  -1  -1  -8    0.78    0.10
   1   1   8    0.64    0.13
   1   1   8    0.76    0.09
  -2  -1  -8   37.15    1.35
  -2  -1  -8   39.22    1.36
  -2  -1  -8   40.05    1.35
   2   1   8   36.27    1.35
   2   1   8   39.34    1.38
  -3  -1  -8    2.94    0.25
  -3  -1  -8    2.89    0.18
  -3  -1  -8    3.06    0.18
   3   1   8    2.63    0.29
  -4  -1  -8   10.76    0.50
   4   1   8   11.17    0.54
   5   1   8    0.58    0.28
   4  -2  -8    0.88    0.17
  -4   2   8    0.84    0.18
  -4   2   8    0.76    0.23
  -3   2   8    0.34    0.16
  -3   2   8    0.17    0.14
  -2   2   8    3.88    0.24
  -2   2   8    3.92    0.20
  -2   2   8    4.26    0.20
  -2   2   8    3.98    0.23
   1  -2  -8   81.75    2.92
  -1   2   8   84.82    2.92
  -1   2   8   86.61    2.92
  -1   2   8   82.68    2.93
   0  -2  -8   33.80    1.24
   0  -2  -8   35.29    1.25
   0   2   8   35.12    1.26
   0   2   8   38.10    1.24
   0   2   8   34.81    1.25
  -1  -2  -8   59.76    2.08
  -1  -2  -8   58.46    2.07
   1   2   8   60.08    2.07
   1   2   8   59.12    2.08
  -2  -2  -8   45.35    1.60
  -2  -2  -8   45.96    1.62
  -2  -2  -8   47.05    1.60
   2   2   8   46.77    1.63
   2   2   8   43.87    1.60
  -3  -2  -8    3.48    0.20
  -3  -2  -8    3.37    0.26
   3   2   8    3.17    0.29
  -4  -2  -8    0.33    0.15
   4   2   8    0.52    0.21
  -5  -2  -8    8.47    0.50
   5   2   8   10.50    0.57
   4  -3  -8    5.28    0.35
  -4   3   8    6.11    0.39
  -4   3   8    5.28    0.34
   3  -3  -8    0.14    0.14
  -3   3   8   -0.06    0.17
  -3   3   8    0.10    0.16
  -2   3   8    0.82    0.10
  -2   3   8    0.79    0.09
  -2   3   8    0.88    0.13
  -2   3   8    0.82    0.12
   1  -3  -8   35.53    1.28
   1  -3  -8   35.97    1.29
  -1   3   8   36.68    1.29
  -1   3   8   36.95    1.29
  -1   3   8   37.24    1.28
   0  -3  -8   27.53    0.98
   0  -3  -8   27.00    0.99
   0   3   8   28.93    0.97
   0   3   8   27.03    0.98
   0   3   8   27.40    0.99
  -1  -3  -8    1.18    0.16
  -1  -3  -8    1.08    0.13
   1   3   8    0.81    0.13
   1   3   8    0.97    0.14
  -2  -3  -8    0.05    0.05
   2   3   8    0.11    0.13
   2   3   8    0.14    0.09
  -3  -3  -8   32.75    1.17
  -3  -3  -8   32.81    1.17
  -3  -3  -8   33.74    1.20
   3   3   8   33.07    1.21
  -4  -3  -8    0.16    0.18
   4   3   8   -0.03    0.21
  -5  -3  -8    0.48    0.22
   5   3   8    0.33    0.27
   4  -4  -8    0.56    0.23
  -4   4   8    0.54    0.21
  -4   4   8    0.25    0.18
   3  -4  -8   15.13    0.59
  -3   4   8   13.98    0.60
   2  -4  -8    3.01    0.23
  -2   4   8    3.28    0.19
  -2   4   8    2.82    0.22
  -2   4   8    2.86    0.20
   1  -4  -8    0.83    0.09
   1  -4  -8    1.16    0.17
  -1   4   8    0.75    0.10
  -1   4   8    0.80    0.10
   0  -4  -8   25.71    0.91
   0  -4  -8   24.90    0.92
   0   4   8   25.17    0.91
   0   4   8   25.89    0.91
   0   4   8   26.55    0.92
  -1  -4  -8    2.53    0.16
  -1  -4  -8    2.36    0.18
   1   4   8    2.27    0.12
   1   4   8    2.31    0.17
   1   4   8    2.30    0.20
  -2  -4  -8    5.10    0.26
  -2  -4  -8    5.19    0.24
  -2  -4  -8    5.02    0.24
   2   4   8    5.22    0.25
   2   4   8    5.34    0.29
  -3  -4  -8    0.46    0.11
  -3  -4  -8    0.53    0.10
  -3  -4  -8    0.35    0.14
   3   4   8    0.34    0.17
  -4  -4  -8   -0.09    0.26
   4   4   8    0.22    0.21
  -5  -4  -8    0.24    0.22
   5   4   8    0.00    0.28
   4  -5  -8    0.16    0.20
  -4   5   8    0.29    0.19
   3  -5  -8    6.55    0.37
  -3   5   8    5.92    0.32
   2  -5  -8    1.03    0.15
  -2   5   8    0.93    0.13
  -2   5   8    0.91    0.11
  -2   5   8    0.63    0.14
   1  -5  -8   23.32    0.85
   1  -5  -8   23.09    0.84
  -1   5   8   23.02    0.85
  -1   5   8   24.05    0.85
   0  -5  -8    7.56    0.31
   0  -5  -8    7.77    0.33
   0   5   8    7.46    0.32
   0   5   8    7.80    0.30
  -1  -5  -8    2.65    0.19
  -1  -5  -8    2.72    0.17
   1   5   8    2.24    0.20
   1   5   8    2.78    0.24
   1   5   8    2.80    0.15
  -2  -5  -8    0.22    0.11
  -2  -5  -8    0.27    0.10
  -2  -5  -8    0.26    0.09
   2   5   8    0.14    0.10
   2   5   8    0.01    0.13
  -3  -5  -8   11.35    0.48
  -3  -5  -8   11.50    0.47
  -3  -5  -8   11.58    0.45
   3   5   8   11.32    0.51
  -4  -5  -8    0.41    0.15
  -4  -5  -8    0.15    0.11
  -4  -5  -8    0.10    0.23
   4   5   8    0.00    0.20
   5   5   8    0.18    0.26
   3  -6  -8    0.02    0.20
  -3   6   8    0.08    0.14
   2  -6  -8    1.01    0.17
  -2   6   8    1.05    0.14
  -2   6   8    0.93    0.16
  -2   6   8    0.97    0.12
   1  -6  -8    0.26    0.13
   1  -6  -8    0.03    0.09
  -1   6   8    0.19    0.11
  -1   6   8    0.09    0.07
  -1   6   8    0.10    0.10
   0  -6  -8    0.13    0.11
   0  -6  -8    0.07    0.08
   0   6   8    0.07    0.10
   0   6   8    0.08    0.09
  -1  -6  -8    2.39    0.19
  -1  -6  -8    2.28    0.17
   1   6   8    1.91    0.19
   1   6   8    2.10    0.15
   1   6   8    2.26    0.19
  -2  -6  -8   14.24    0.54
  -2  -6  -8   14.06    0.53
   2   6   8   13.49    0.53
   2   6   8   13.70    0.55
   2   6   8   13.57    0.50
  -3  -6  -8   10.98    0.48
  -3  -6  -8   11.60    0.50
  -3  -6  -8   12.12    0.47
   3   6   8   11.71    0.52
  -4  -6  -8    3.00    0.31
  -4  -6  -8    3.15    0.23
   4   6   8    2.97    0.36
   3  -7  -8    0.80    0.19
  -3   7   8    0.50    0.16
   2  -7  -8    0.19    0.17
  -2   7   8    0.15    0.15
   1  -7  -8    9.60    0.43
   1  -7  -8    9.73    0.39
  -1   7   8    9.56    0.40
  -1   7   8    9.38    0.40
   0  -7  -8    0.05    0.09
   0  -7  -8    0.29    0.12
   0   7   8    0.16    0.10
   0   7   8    0.09    0.11
  -1  -7  -8    1.15    0.17
  -1  -7  -8    1.49    0.19
   1   7   8    1.12    0.15
   1   7   8    1.06    0.13
   1   7   8    1.06    0.13
  -2  -7  -8    1.10    0.15
  -2  -7  -8    1.05    0.13
   2   7   8    0.91    0.14
   2   7   8    1.11    0.11
   2   7   8    0.89    0.17
  -3  -7  -8   -0.08    0.12
  -3  -7  -8    0.02    0.16
   3   7   8   -0.09    0.10
  -4  -7  -8   -0.09    0.18
  -4  -7  -8    0.22    0.13
   3  -8  -8    0.09    0.20
  -3   8   8   -0.02    0.15
   2  -8  -8    2.03    0.29
  -2   8   8    1.81    0.21
  -2   8   8    1.96    0.23
  -2   8   8    1.58    0.22
   1  -8  -8   18.97    0.72
   1  -8  -8   19.87    0.76
  -1   8   8   19.79    0.73
  -1   8   8   18.96    0.73
   0  -8  -8    0.33    0.14
   0  -8  -8    0.07    0.12
   0   8   8    0.13    0.13
   0   8   8    0.10    0.11
  -1  -8  -8   24.56    0.94
  -1  -8  -8   26.24    0.94
   1   8   8   25.51    0.94
   1   8   8   26.41    0.93
   1   8   8   25.94    0.94
  -2  -8  -8   28.38    1.09
  -2  -8  -8   29.66    1.08
   2   8   8   33.81    1.14
   2   8   8   28.79    1.09
   2   8   8   28.45    1.06
  -3  -8  -8    7.37    0.39
   3   8   8    7.33    0.32
  -4  -8  -8   -0.05    0.14
  -4  -8  -8   -0.19    0.19
   4   8   8   -0.24    0.12
   3  -9  -8    1.23    0.24
  -3   9   8    0.94    0.20
   2  -9  -8    0.03    0.19
  -2   9   8    0.09    0.15
  -2   9   8    0.20    0.13
   1  -9  -8    0.88    0.19
  -1   9   8    0.80    0.20
  -1   9   8    0.65    0.16
   0  -9  -8   14.87    0.61
   0  -9  -8   16.56    0.64
   0   9   8   16.27    0.61
   0   9   8   15.81    0.62
  -1  -9  -8    5.81    0.33
  -1  -9  -8    6.27    0.31
   1   9   8    5.59    0.32
   1   9   8    5.90    0.29
  -2  -9  -8    0.38    0.14
  -2  -9  -8    0.78    0.17
   2   9   8    0.63    0.17
   2   9   8    0.67    0.16
   2   9   8    0.47    0.13
  -3  -9  -8    7.52    0.37
   3   9   8    7.45    0.34
  -4  -9  -8    0.46    0.20
  -4  -9  -8    0.03    0.15
  -4  -9  -8   -0.18    0.23
   4   9   8   -0.18    0.14
   2 -10  -8    4.95    0.38
  -2  10   8    4.59    0.31
  -2  10   8    5.14    0.30
   1 -10  -8    4.34    0.35
  -1  10   8    4.41    0.29
  -1  10   8    4.25    0.28
   0 -10  -8   84.50    2.98
   0 -10  -8   85.09    3.00
   0  10   8   85.84    2.99
  -1 -10  -8    2.83    0.25
   1  10   8    2.99    0.24
   1  10   8    2.56    0.28
  -2 -10  -8    0.38    0.15
   2  10   8    0.28    0.14
   2  10   8    0.62    0.18
   2  10   8    0.46    0.17
  -3 -10  -8    1.58    0.21
  -3 -10  -8    1.92    0.25
   3  10   8    1.94    0.22
  -4 -10  -8    0.64    0.22
  -4 -10  -8    0.06    0.16
  -4 -10  -8   -0.02    0.26
   4  10   8    0.18    0.17
   2 -11  -8    4.77    0.40
  -2  11   8    4.55    0.31
   1 -11  -8    0.30    0.21
  -1  11   8    0.42    0.15
  -1  11   8    0.32    0.16
   0 -11  -8    2.05    0.32
   0 -11  -8    2.01    0.25
   0  11   8    2.54    0.32
   0  11   8    2.42    0.24
  -1 -11  -8    5.84    0.32
  -1 -11  -8    5.82    0.36
   1  11   8    5.18    0.35
   1  11   8    4.62    0.36
  -2 -11  -8    4.12    0.31
  -2 -11  -8    4.00    0.34
   2  11   8    4.05    0.29
   2  11   8    5.24    0.35
   2  11   8    4.15    0.34
  -3 -11  -8   -0.22    0.20
  -3 -11  -8    0.02    0.16
   3  11   8   -0.12    0.17
   1 -12  -8   18.46    0.82
  -1  12   8   19.26    0.76
  -1  12   8   20.69    0.76
   0 -12  -8   -0.05    0.21
   0  12   8    0.23    0.16
   0  12   8    0.25    0.17
  -1 -12  -8   19.05    0.79
  -1 -12  -8   19.92    0.77
   1  12   8   20.35    0.78
   1  12   8   19.14    0.75
  -2 -12  -8    0.66    0.18
  -2 -12  -8    0.39    0.21
   2  12   8    0.43    0.22
   2  12   8    0.20    0.16
  -3 -12  -8    0.81    0.19
   3  12   8    1.11    0.27
   0 -13  -8   -0.01    0.23
   0  13   8   -0.33    0.17
   0  13   8    0.06    0.18
  -1 -13  -8    3.96    0.33
  -1 -13  -8    3.84    0.38
   1  13   8    3.81    0.31
   2  10  -9   -0.03    0.17
  -2 -10   9   -0.05    0.17
  -2 -10   9    0.24    0.17
   1  10  -9    0.21    0.15
   1  10  -9    0.45    0.18
  -1 -10   9    0.26    0.18
  -1 -10   9    0.34    0.18
   0  10  -9    5.18    0.34
   0  10  -9    6.29    0.35
  -1  10  -9   -0.02    0.16
  -1  10  -9    0.15    0.16
   1 -10   9    0.22    0.15
   2   9  -9    4.14    0.31
  -2  -9   9    3.90    0.34
  -2  -9   9    4.77    0.31
   1   9  -9    0.21    0.16
   1   9  -9    0.13    0.14
  -1  -9   9    0.12    0.17
  -1  -9   9    0.22    0.17
   0   9  -9   10.03    0.45
   0   9  -9   10.34    0.47
   0  -9   9    9.51    0.46
   0  -9   9   10.52    0.50
  -1   9  -9    0.08    0.15
  -1   9  -9    0.15    0.14
   1  -9   9   -0.28    0.15
   1  -9   9    0.30    0.14
  -3  -8   9    3.90    0.30
  -3  -8   9    3.70    0.35
   2   8  -9    0.14    0.14
  -2  -8   9    0.15    0.19
   1   8  -9    0.34    0.13
   1   8  -9    0.50    0.16
  -1  -8   9    0.41    0.17
  -1  -8   9    0.42    0.18
   0   8  -9    0.59    0.16
   0   8  -9    0.71    0.15
   0  -8   9    0.59    0.17
   0  -8   9    0.74    0.17
  -1   8  -9    1.26    0.16
  -1   8  -9    1.15    0.15
  -2   8  -9    3.50    0.26
  -2   8  -9    2.42    0.31
  -2   8  -9    3.06    0.25
   3   7  -9    0.19    0.15
  -3  -7   9    0.33    0.15
  -3  -7   9    0.35    0.17
   2   7  -9    0.33    0.13
  -2  -7   9    0.46    0.17
  -2  -7   9    0.55    0.18
   1   7  -9   19.29    0.72
   1   7  -9   17.57    0.74
  -1  -7   9   19.45    0.72
  -1  -7   9   18.23    0.73
   0   7  -9    5.96    0.31
   0   7  -9    6.04    0.33
   0  -7   9    6.23    0.35
   0  -7   9    5.86    0.33
  -1   7  -9   15.91    0.61
  -1   7  -9   15.91    0.60
  -1   7  -9   15.42    0.62
   1  -7   9   15.89    0.62
   1  -7   9   14.65    0.62
  -2   7  -9    2.15    0.23
  -2   7  -9    2.03    0.21
  -2   7  -9    1.93    0.28
   2  -7   9    1.63    0.27
  -3   7  -9    0.13    0.13
  -3   7  -9   -0.06    0.19
  -3   7  -9   -0.11    0.14
   3  -7   9   -0.08    0.17
   4   6  -9    2.53    0.29
  -4  -6   9    1.72    0.28
  -4  -6   9    1.79    0.24
   3   6  -9    0.32    0.15
  -3  -6   9    0.33    0.17
  -3  -6   9   -0.02    0.15
   2   6  -9    2.73    0.27
  -2  -6   9    3.65    0.26
   1   6  -9   20.56    0.77
   1   6  -9   21.02    0.77
  -1  -6   9   19.87    0.79
  -1  -6   9   21.09    0.78
   0   6  -9    1.86    0.22
   0   6  -9    1.94    0.20
   0  -6   9    1.90    0.26
   0  -6   9    1.53    0.22
  -1   6  -9   35.47    1.28
  -1   6  -9   36.12    1.28
  -1   6  -9   35.70    1.27
   1  -6   9   35.61    1.28
   1  -6   9   35.15    1.29
  -2   6  -9    6.29    0.30
  -2   6  -9    5.93    0.30
  -2   6  -9    6.00    0.34
   2  -6   9    6.03    0.35
  -3   6  -9    0.63    0.18
  -3   6  -9    0.43    0.14
  -3   6  -9    0.57    0.12
   3  -6   9    0.54    0.18
   4   5  -9    0.32    0.17
  -4  -5   9    0.56    0.22
   3   5  -9   -0.15    0.14
  -3  -5   9    0.09    0.17
  -3  -5   9    0.09    0.13
   2   5  -9    9.11    0.40
   2   5  -9    8.77    0.40
  -2  -5   9    9.38    0.40
  -2  -5   9    8.68    0.43
   1   5  -9    0.45    0.12
   1   5  -9    0.41    0.12
  -1  -5   9    0.48    0.13
  -1  -5   9    0.41    0.15
   0   5  -9    1.98    0.18
   0   5  -9    2.01    0.21
   0  -5   9    1.82    0.21
   0  -5   9    2.11    0.24
  -1   5  -9    1.31    0.14
  -1   5  -9    1.23    0.16
  -1   5  -9    1.37    0.15
   1  -5   9    1.30    0.17
   1  -5   9    1.08    0.14
  -2   5  -9    4.97    0.32
  -2   5  -9    4.62    0.31
  -2   5  -9    4.71    0.25
  -2   5  -9    4.89    0.29
   2  -5   9    4.57    0.32
  -3   5  -9    0.64    0.12
  -3   5  -9    0.51    0.18
  -3   5  -9    0.61    0.11
   3  -5   9    0.52    0.17
   4   4  -9    1.14    0.20
  -4  -4   9    2.10    0.21
  -4  -4   9    1.59    0.24
   3   4  -9    2.07    0.24
  -3  -4   9    1.97    0.21
  -3  -4   9    2.23    0.28
  -3  -4   9    2.33    0.26
   2   4  -9    7.18    0.34
   2   4  -9    7.13    0.34
  -2  -4   9    7.56    0.34
  -2  -4   9    7.42    0.38
  -2  -4   9    7.63    0.34
   1   4  -9    6.41    0.43
   1   4  -9    6.77    0.30
  -1  -4   9    6.63    0.31
  -1  -4   9    6.65    0.34
   0   4  -9   29.21    1.07
   0   4  -9   31.54    1.08
   0  -4   9   29.57    1.07
   0  -4   9   29.58    1.09
  -1   4  -9    1.01    0.14
  -1   4  -9    1.12    0.13
  -1   4  -9    1.27    0.12
   1  -4   9    1.08    0.16
   1  -4   9    0.95    0.12
  -2   4  -9   32.45    1.19
  -2   4  -9   34.02    1.22
  -2   4  -9   34.98    1.20
  -2   4  -9   32.87    1.19
   2  -4   9   32.82    1.20
   2  -4   9   33.91    1.22
  -3   4  -9   -0.07    0.10
  -3   4  -9    0.23    0.15
  -3   4  -9    0.11    0.11
  -3   4  -9   -0.05    0.09
   3  -4   9    0.19    0.17
  -4   4  -9    3.19    0.34
  -4   4  -9    3.46    0.26
   4  -4   9    3.61    0.34
   4   3  -9    0.05    0.16
  -4  -3   9    0.24    0.21
   3   3  -9   10.81    0.53
  -3  -3   9   11.63    0.46
  -3  -3   9   11.53    0.51
   2   3  -9   15.13    0.58
   2   3  -9   15.60    0.57
  -2  -3   9   15.36    0.57
  -2  -3   9   14.20    0.60
   1   3  -9   16.00    0.60
   1   3  -9   16.33    0.60
  -1  -3   9   16.40    0.60
  -1  -3   9   16.06    0.63
   0   3  -9    0.58    0.10
   0   3  -9    0.57    0.09
   0  -3   9    0.48    0.13
   0  -3   9    0.57    0.10
  -1   3  -9    0.78    0.10
  -1   3  -9    0.68    0.08
  -1   3  -9    0.89    0.11
   1  -3   9    0.70    0.10
   1  -3   9    0.87    0.15
  -2   3  -9    9.35    0.41
  -2   3  -9    9.85    0.37
  -2   3  -9    9.18    0.36
  -2   3  -9    9.78    0.38
   2  -3   9    9.10    0.38
   2  -3   9    9.25    0.44
  -3   3  -9    1.58    0.17
  -3   3  -9    1.40    0.19
  -3   3  -9    1.19    0.15
  -3   3  -9    1.73    0.24
   3  -3   9    1.86    0.30
  -4   3  -9    0.16    0.18
   4  -3   9    0.24    0.20
   4   2  -9    4.48    0.30
  -4  -2   9    4.34    0.36
  -3  -2   9   26.52    0.98
  -3  -2   9   25.91    0.95
   2   2  -9    7.60    0.34
   2   2  -9    8.46    0.35
  -2  -2   9    8.66    0.34
  -2  -2   9    8.25    0.39
  -2  -2   9    7.92    0.34
   1   2  -9    4.06    0.22
   1   2  -9    4.35    0.21
  -1  -2   9    4.14    0.22
  -1  -2   9    4.22    0.26
   0   2  -9    8.30    0.32
   0   2  -9    8.51    0.34
   0  -2   9    8.32    0.37
   0  -2   9    8.40    0.34
  -1   2  -9   66.01    2.29
  -1   2  -9   64.33    2.28
  -1   2  -9   68.56    2.30
  -1   2  -9   65.95    2.30
   1  -2   9   63.82    2.31
   1  -2   9   65.13    2.29
  -2   2  -9    0.07    0.06
  -2   2  -9    0.00    0.08
  -2   2  -9    0.17    0.09
  -2   2  -9    0.10    0.12
   2  -2   9    0.14    0.15
   2  -2   9    0.24    0.10
  -3   2  -9   41.49    1.47
   3  -2   9   41.77    1.51
  -4   2  -9    0.08    0.17
   4  -2   9    0.53    0.21
   4   1  -9    0.16    0.15
  -4  -1   9   -0.04    0.20
   3   1  -9   -0.08    0.12
  -3  -1   9    0.04    0.11
  -3  -1   9    0.06    0.11
  -3  -1   9    0.28    0.16
   2   1  -9    7.03    0.31
   2   1  -9    7.05    0.31
  -2  -1   9    6.84    0.35
  -2  -1   9    7.57    0.31
  -2  -1   9    7.03    0.30
   1   1  -9    5.98    0.26
   1   1  -9    6.13    0.26
  -1  -1   9    5.50    0.26
  -1  -1   9    6.08    0.27
  -1  -1   9    6.13    0.30
   0   1  -9   53.14    1.86
   0   1  -9   53.64    1.87
   0  -1   9   54.21    1.87
   0  -1   9   52.73    1.88
  -1   1  -9   -0.17    0.09
  -1   1  -9   -0.05    0.08
  -1   1  -9    0.05    0.08
   1  -1   9    0.20    0.09
   1  -1   9    0.09    0.13
  -2   1  -9   10.72    0.40
  -2   1  -9   10.36    0.42
  -2   1  -9   10.42    0.41
   2  -1   9    9.92    0.40
   2  -1   9   10.49    0.46
  -3   1  -9    2.63    0.19
  -3   1  -9    2.63    0.26
  -3   1  -9    2.85    0.18
   3  -1   9    1.98    0.30
  -4   1  -9    2.69    0.31
   4  -1   9    2.97    0.35
   4   0  -9   10.19    0.45
  -4   0   9    9.46    0.50
  -3   0   9   12.44    0.49
  -3   0   9   13.66    0.54
  -2   0   9    0.69    0.12
  -2   0   9    0.60    0.14
  -2   0   9    0.63    0.09
  -2   0   9    0.65    0.10
   1   0  -9    2.61    0.16
   1   0  -9    2.48    0.16
  -1   0   9    2.06    0.17
  -1   0   9    2.84    0.22
  -1   0   9    2.59    0.17
   0   0  -9    4.82    0.23
   0   0  -9    4.48    0.20
   0   0   9    4.78    0.23
   0   0   9    4.92    0.27
  -1   0  -9    8.31    0.34
  -1   0  -9    8.62    0.34
   1   0   9    8.29    0.37
   1   0   9    8.73    0.34
  -2   0  -9   38.93    1.33
  -2   0  -9   38.82    1.35
  -2   0  -9   35.84    1.33
   2   0   9   36.61    1.33
   2   0   9   38.96    1.36
  -3   0  -9    0.38    0.13
  -3   0  -9    0.67    0.10
  -3   0  -9    0.59    0.09
   3   0   9    0.50    0.19
  -4   0  -9   18.89    0.76
   4   0   9   19.36    0.79
  -4   1   9    5.41    0.34
  -4   1   9    4.79    0.37
  -3   1   9    1.72    0.23
  -3   1   9    2.46    0.25
  -2   1   9    0.08    0.10
  -2   1   9    0.21    0.09
  -2   1   9    0.10    0.13
  -2   1   9    0.12    0.08
   1  -1  -9   82.99    2.86
  -1   1   9   83.92    2.86
  -1   1   9   80.94    2.88
  -1   1   9   87.61    2.87
  -1   1   9   76.08    2.86
   0  -1  -9    7.77    0.31
   0   1   9    7.88    0.35
   0   1   9    7.54    0.32
   0   1   9    7.80    0.30
  -1  -1  -9   13.21    0.48
  -1  -1  -9   12.58    0.49
   1   1   9   12.81    0.51
   1   1   9   13.12    0.48
  -2  -1  -9   16.24    0.62
  -2  -1  -9   17.87    0.63
  -2  -1  -9   17.31    0.64
   2   1   9   17.79    0.66
   2   1   9   16.59    0.63
  -3  -1  -9   -0.02    0.13
  -3  -1  -9   -0.03    0.09
  -3  -1  -9    0.06    0.12
   3   1   9   -0.08    0.17
  -4  -1  -9   14.18    0.61
   4   1   9   15.28    0.65
   4  -2  -9    0.18    0.16
  -4   2   9   -0.04    0.16
  -3   2   9   -0.06    0.16
  -2   2   9    0.81    0.14
  -2   2   9    0.72    0.12
  -2   2   9    0.64    0.10
  -2   2   9    0.69    0.10
   1  -2  -9   14.93    0.56
  -1   2   9   15.16    0.58
  -1   2   9   15.50    0.56
  -1   2   9   15.67    0.57
   0  -2  -9    0.52    0.08
   0  -2  -9    0.76    0.09
   0   2   9    0.52    0.08
   0   2   9    0.41    0.09
   0   2   9    0.77    0.13
  -1  -2  -9   15.02    0.56
  -1  -2  -9   14.74    0.55
   1   2   9   15.15    0.55
   1   2   9   14.95    0.58
  -2  -2  -9    0.19    0.09
  -2  -2  -9    0.12    0.05
  -2  -2  -9    0.19    0.11
   2   2   9    0.13    0.09
   2   2   9    0.09    0.14
  -3  -2  -9    1.30    0.17
  -3  -2  -9    1.12    0.16
  -3  -2  -9    1.08    0.16
   3   2   9    1.39    0.19
   4   2   9   13.38    0.62
   4  -3  -9    8.77    0.44
  -4   3   9    8.97    0.44
  -4   3   9    9.90    0.49
  -3   3   9    7.45    0.37
  -3   3   9    6.65    0.38
  -2   3   9    8.47    0.37
  -2   3   9    8.04    0.36
  -2   3   9    8.24    0.34
  -2   3   9    8.75    0.34
   1  -3  -9    0.07    0.07
   1  -3  -9    0.15    0.09
  -1   3   9   -0.02    0.09
  -1   3   9    0.04    0.11
  -1   3   9   -0.02    0.09
  -1   3   9    0.07    0.07
   0  -3  -9   79.12    2.83
   0  -3  -9   80.64    2.83
   0   3   9   82.27    2.84
   0   3   9   83.66    2.83
   0   3   9   80.82    2.83
  -1  -3  -9   17.01    0.64
  -1  -3  -9   17.65    0.63
   1   3   9   17.63    0.64
   1   3   9   17.27    0.63
   1   3   9   16.66    0.65
  -2  -3  -9   10.38    0.41
  -2  -3  -9   10.58    0.40
   2   3   9   10.38    0.44
   2   3   9    9.75    0.40
  -3  -3  -9    1.19    0.13
  -3  -3  -9    1.14    0.16
  -3  -3  -9    1.50    0.23
   3   3   9    1.06    0.19
  -4  -3  -9    1.57    0.18
  -4  -3  -9    0.96    0.18
   4   3   9    1.37    0.24
   4  -4  -9   -0.19    0.26
  -4   4   9   -0.05    0.17
  -4   4   9    0.09    0.21
   3  -4  -9    0.05    0.16
  -3   4   9   -0.08    0.17
  -3   4   9    0.10    0.15
   2  -4  -9    3.87    0.25
  -2   4   9    3.71    0.21
  -2   4   9    3.66    0.21
  -2   4   9    3.30    0.22
   1  -4  -9    9.23    0.36
   1  -4  -9    8.93    0.38
  -1   4   9    9.25    0.36
  -1   4   9    9.25    0.37
  -1   4   9    9.36    0.37
   0  -4  -9    1.61    0.16
   0  -4  -9    1.40    0.14
   0   4   9    1.22    0.16
   0   4   9    1.62    0.13
   0   4   9    1.84    0.19
  -1  -4  -9    2.68    0.17
  -1  -4  -9    2.85    0.19
   1   4   9    2.71    0.15
   1   4   9    2.67    0.18
   1   4   9    2.17    0.22
  -2  -4  -9    0.16    0.09
  -2  -4  -9    0.23    0.11
  -2  -4  -9    0.28    0.10
   2   4   9    0.26    0.10
   2   4   9    0.11    0.14
  -3  -4  -9    4.08    0.24
  -3  -4  -9    3.75    0.23
  -3  -4  -9    3.76    0.27
   3   4   9    3.43    0.31
  -4  -4  -9    5.24    0.35
  -4  -4  -9    5.08    0.26
  -4  -4  -9    5.35    0.30
   4   4   9    5.71    0.40
   4  -5  -9    0.39    0.21
  -4   5   9    0.56    0.20
   3  -5  -9    2.12    0.29
  -3   5   9    1.22    0.17
   2  -5  -9    7.54    0.36
  -2   5   9    7.29    0.33
  -2   5   9    6.18    0.32
  -2   5   9    7.77    0.32
   1  -5  -9    9.39    0.39
   1  -5  -9    9.20    0.36
  -1   5   9    8.85    0.37
  -1   5   9    9.32    0.37
   0  -5  -9   10.30    0.40
   0  -5  -9    9.95    0.41
   0   5   9    9.86    0.40
   0   5   9   10.40    0.41
   0   5   9   10.48    0.39
  -1  -5  -9   12.88    0.47
  -1  -5  -9   12.19    0.49
   1   5   9   12.39    0.49
   1   5   9   12.36    0.48
   1   5   9   12.63    0.46
  -2  -5  -9    1.25    0.16
  -2  -5  -9    1.20    0.19
  -2  -5  -9    1.01    0.12
   2   5   9    1.12    0.16
   2   5   9    1.22    0.17
  -3  -5  -9   13.21    0.54
  -3  -5  -9   13.96    0.56
  -3  -5  -9   13.95    0.53
   3   5   9   14.11    0.59
  -4  -5  -9    0.00    0.17
  -4  -5  -9    0.03    0.11
  -4  -5  -9    0.18    0.15
   4   5   9    0.06    0.22
   3  -6  -9    1.75    0.21
  -3   6   9    1.73    0.23
   2  -6  -9   10.37    0.45
  -2   6   9    8.76    0.41
  -2   6   9    9.39    0.41
  -2   6   9   10.45    0.40
   1  -6  -9    2.56    0.24
   1  -6  -9    2.02    0.18
  -1   6   9    2.19    0.19
  -1   6   9    2.22    0.19
   0  -6  -9   44.46    1.55
   0  -6  -9   42.45    1.55
   0   6   9   44.42    1.55
   0   6   9   44.31    1.54
  -1  -6  -9   20.10    0.75
  -1  -6  -9   20.11    0.74
   1   6   9   20.36    0.74
   1   6   9   20.04    0.75
   1   6   9   20.23    0.72
  -2  -6  -9    5.29    0.27
  -2  -6  -9    4.65    0.25
   2   6   9    3.79    0.29
   2   6   9    4.36    0.25
  -3  -6  -9    5.93    0.33
  -3  -6  -9    6.32    0.31
  -3  -6  -9    6.47    0.35
   3   6   9    6.47    0.39
  -4  -6  -9    0.19    0.18
  -4  -6  -9    0.02    0.12
   4   6   9    0.30    0.22
   3  -7  -9    0.74    0.20
  -3   7   9    0.59    0.16
   2  -7  -9   12.42    0.53
  -2   7   9   11.07    0.50
  -2   7   9   11.19    0.50
  -2   7   9   13.77    0.48
   1  -7  -9   23.85    0.89
   1  -7  -9   24.01    0.87
  -1   7   9   22.94    0.87
  -1   7   9   24.26    0.87
   0  -7  -9   15.41    0.61
   0  -7  -9   16.01    0.60
   0   7   9   16.20    0.59
   0   7   9   15.88    0.60
  -1  -7  -9   34.21    1.21
  -1  -7  -9   33.73    1.22
   1   7   9   34.12    1.21
   1   7   9   33.44    1.21
   1   7   9   33.88    1.20
  -2  -7  -9   10.91    0.43
  -2  -7  -9   10.88    0.45
   2   7   9   10.17    0.40
   2   7   9   10.21    0.44
   2   7   9    9.99    0.47
  -3  -7  -9    0.93    0.14
  -3  -7  -9    0.76    0.18
   3   7   9    1.08    0.21
  -4  -7  -9    3.56    0.25
  -4  -7  -9    3.11    0.33
   4   7   9    4.13    0.37
   3  -8  -9    0.24    0.21
  -3   8   9    0.37    0.17
   2  -8  -9    0.09    0.18
  -2   8   9    0.04    0.15
  -2   8   9    0.23    0.12
   1  -8  -9   56.38    1.95
   1  -8  -9   55.68    1.97
  -1   8   9   54.56    1.96
  -1   8   9   54.91    1.95
   0  -8  -9    0.47    0.14
   0  -8  -9    0.23    0.19
   0   8   9    0.28    0.12
   0   8   9    0.21    0.13
  -1  -8  -9   37.41    1.38
  -1  -8  -9   39.44    1.37
   1   8   9   38.79    1.37
   1   8   9   38.40    1.37
   1   8   9   37.77    1.36
  -2  -8  -9   30.02    1.09
  -2  -8  -9   31.02    1.08
   2   8   9   29.69    1.06
   2   8   9   29.86    1.10
   2   8   9   28.15    1.08
   3   8   9    1.78    0.18
  -4  -8  -9    1.00    0.21
  -4  -8  -9    1.35    0.17
   4   8   9    2.09    0.35
   2  -9  -9    0.90    0.20
  -2   9   9    0.94    0.17
  -2   9   9    0.77    0.14
   1  -9  -9   21.43    0.82
  -1   9   9   20.83    0.79
   0  -9  -9   12.54    0.49
   0  -9  -9   12.33    0.53
   0   9   9   11.52    0.50
   0   9   9   11.91    0.49
  -1  -9  -9    8.58    0.41
  -1  -9  -9    9.01    0.39
   1   9   9    8.76    0.37
   1   9   9    8.55    0.40
  -2  -9  -9   12.25    0.51
  -2  -9  -9   12.22    0.52
   2   9   9   12.06    0.53
   2   9   9   11.75    0.51
   2   9   9   11.96    0.47
  -3  -9  -9    0.14    0.18
  -3  -9  -9    0.11    0.14
   3   9   9    0.25    0.21
   3   9   9   -0.02    0.12
  -4  -9  -9    0.48    0.20
  -4  -9  -9    0.08    0.16
   4   9   9    0.13    0.14
   4   9   9    0.59    0.24
   2 -10  -9    4.39    0.37
  -2  10   9    3.36    0.31
  -2  10   9    4.39    0.28
   1 -10  -9    0.13    0.19
  -1  10   9    0.09    0.14
  -1  10   9   -0.01    0.14
   0 -10  -9   72.97    2.53
   0 -10  -9   71.29    2.55
   0  10   9   71.50    2.53
  -1 -10  -9    4.74    0.30
  -1 -10  -9    4.56    0.29
   1  10   9    4.27    0.31
   1  10   9    4.48    0.27
  -2 -10  -9    8.04    0.39
  -2 -10  -9    7.74    0.41
   2  10   9    7.51    0.40
   2  10   9    7.56    0.36
   2  10   9    8.56    0.43
  -3 -10  -9    2.69    0.27
  -3 -10  -9    2.31    0.32
   3  10   9    2.42    0.23
   1 -11  -9    0.08    0.21
  -1  11   9    0.06    0.15
  -1  11   9    0.00    0.16
   0 -11  -9    3.01    0.30
   0 -11  -9    3.19    0.33
   0  11   9    2.60    0.25
  -1 -11  -9    0.64    0.16
  -1 -11  -9    0.33    0.17
   1  11   9    0.47    0.22
   1  11   9    0.75    0.18
  -2 -11  -9    0.11    0.18
  -2 -11  -9    0.26    0.16
   2  11   9    0.54    0.19
   2  11   9    0.11    0.15
  -3 -11  -9    1.63    0.24
  -3 -11  -9    2.52    0.29
   3  11   9    2.65    0.25
   1 -12  -9   15.02    0.67
  -1  12   9   15.30    0.62
  -1  12   9   14.53    0.62
   0 -12  -9    3.48    0.37
   0  12   9    4.00    0.30
   0  12   9    3.25    0.28
  -1 -12  -9   14.65    0.59
  -1 -12  -9   12.61    0.60
   1  12   9   13.50    0.56
   1  12   9   14.19    0.59
  -2 -12  -9    1.65    0.23
  -2 -12  -9    1.88    0.32
   2  12   9    2.04    0.25
   2  12   9    2.47    0.33
  -1 -13  -9    3.33    0.33
  -1 -13  -9    2.36    0.35
   1  13   9    2.32    0.28
   1  13   9    3.80    0.43
   1  10 -10    0.82    0.18
   1  10 -10    0.72    0.19
  -1 -10  10    0.84    0.19
  -1 -10  10    0.65    0.20
   0  10 -10    4.05    0.30
   0 -10  10    3.59    0.32
   2   9 -10    1.37    0.18
  -2  -9  10    1.82    0.31
  -2  -9  10    2.00    0.29
   1   9 -10    2.32    0.25
   1   9 -10    2.53    0.30
  -1  -9  10    2.38    0.30
  -1  -9  10    2.44    0.23
   0   9 -10    1.23    0.19
   0   9 -10    1.92    0.25
   0  -9  10    1.25    0.21
  -1   9 -10    0.04    0.15
  -1   9 -10    0.17    0.15
   1  -9  10    0.19    0.14
   3   8 -10    0.24    0.15
  -3  -8  10    0.11    0.19
  -3  -8  10    0.12    0.17
   2   8 -10    0.02    0.15
  -2  -8  10   -0.09    0.17
  -2  -8  10   -0.18    0.19
   1   8 -10    0.02    0.16
   1   8 -10    0.03    0.13
  -1  -8  10   -0.06    0.16
  -1  -8  10    0.20    0.17
   0   8 -10    3.02    0.29
   0   8 -10    3.12    0.25
   0  -8  10    2.63    0.30
  -1   8 -10   -0.25    0.13
  -1   8 -10    0.11    0.14
   1  -8  10   -0.29    0.16
  -2   8 -10    1.14    0.21
  -2   8 -10    1.35    0.16
  -2   8 -10    1.27    0.16
   2  -8  10    0.81    0.18
   3   7 -10    0.12    0.16
  -3  -7  10    0.24    0.17
  -3  -7  10    0.22    0.19
   2   7 -10    0.30    0.13
  -2  -7  10    0.39    0.19
   1   7 -10    9.91    0.44
   1   7 -10    9.75    0.43
  -1  -7  10    9.39    0.45
  -1  -7  10    9.44    0.47
   0   7 -10    4.69    0.31
   0   7 -10    5.14    0.29
   0  -7  10    5.01    0.34
   0  -7  10    5.06    0.32
  -1   7 -10    0.31    0.17
  -1   7 -10   -0.07    0.13
  -1   7 -10   -0.26    0.14
   1  -7  10   -0.20    0.22
   1  -7  10   -0.03    0.16
  -2   7 -10    1.81    0.28
  -2   7 -10    1.91    0.22
  -2   7 -10    1.80    0.22
   2  -7  10    1.39    0.19
   3   6 -10    0.08    0.15
  -3  -6  10   -0.34    0.15
  -3  -6  10    0.04    0.18
   2   6 -10    0.21    0.14
   2   6 -10   -0.13    0.15
  -2  -6  10    0.13    0.15
  -2  -6  10    0.02    0.16
   1   6 -10    2.58    0.24
   1   6 -10    2.71    0.25
  -1  -6  10    3.16    0.31
  -1  -6  10    2.79    0.26
   0   6 -10    1.03    0.13
   0   6 -10    0.92    0.14
   0  -6  10    0.91    0.15
   0  -6  10    0.84    0.18
  -1   6 -10    7.75    0.36
  -1   6 -10    7.34    0.37
  -1   6 -10    7.82    0.34
   1  -6  10    7.67    0.37
   1  -6  10    7.98    0.40
  -2   6 -10    0.23    0.15
  -2   6 -10    0.18    0.12
  -2   6 -10   -0.04    0.11
   2  -6  10   -0.01    0.16
  -3   6 -10    0.86    0.13
  -3   6 -10    1.21    0.19
  -3   6 -10    0.77    0.15
   4   5 -10    0.75    0.18
  -4  -5  10    0.57    0.15
  -4  -5  10    0.49    0.23
   3   5 -10    0.45    0.15
  -3  -5  10    0.47    0.18
  -3  -5  10    0.63    0.15
   2   5 -10    0.38    0.14
  -2  -5  10    0.47    0.15
   1   5 -10   25.29    0.93
   1   5 -10   25.07    0.92
  -1  -5  10   25.04    0.93
  -1  -5  10   25.48    0.95
   0   5 -10    1.20    0.15
   0   5 -10    1.07    0.13
   0  -5  10    0.98    0.17
   0  -5  10    1.11    0.14
  -1   5 -10    0.47    0.11
  -1   5 -10    0.80    0.13
  -1   5 -10    0.47    0.14
   1  -5  10    0.67    0.13
   1  -5  10    0.50    0.16
  -2   5 -10    0.66    0.16
  -2   5 -10    0.93    0.12
   2  -5  10    0.83    0.18
  -3   5 -10    0.07    0.11
  -3   5 -10    0.12    0.16
  -3   5 -10   -0.02    0.12
   3  -5  10    0.34    0.19
   4   4 -10    0.58    0.19
  -4  -4  10    0.87    0.15
  -4  -4  10    1.09    0.23
   3   4 -10    0.51    0.15
  -3  -4  10    0.50    0.18
  -3  -4  10    0.29    0.14
   2   4 -10   18.59    0.72
   2   4 -10   19.13    0.72
  -2  -4  10   19.38    0.75
  -2  -4  10   19.47    0.72
   1   4 -10    4.37    0.23
   1   4 -10    3.49    0.22
  -1  -4  10    3.52    0.24
  -1  -4  10    3.67    0.28
   0   4 -10   12.21    0.47
   0   4 -10   12.26    0.49
   0  -4  10   12.70    0.52
   0  -4  10   12.09    0.48
  -1   4 -10    0.05    0.12
  -1   4 -10    0.10    0.09
  -1   4 -10    0.11    0.11
   1  -4  10    0.14    0.15
   1  -4  10   -0.03    0.11
  -2   4 -10   28.83    1.10
  -2   4 -10   30.12    1.09
  -2   4 -10   31.21    1.13
  -2   4 -10   32.93    1.11
   2  -4  10   30.79    1.14
  -3   4 -10    1.17    0.17
  -3   4 -10    1.99    0.27
  -3   4 -10    1.28    0.18
   3  -4  10    1.31    0.21
   4   3 -10    0.60    0.17
  -4  -3  10    0.65    0.22
   3   3 -10    5.28    0.29
  -3  -3  10    4.86    0.29
  -3  -3  10    4.58    0.34
  -3  -3  10    4.92    0.28
   2   3 -10    6.17    0.30
  -2  -3  10    6.15    0.30
  -2  -3  10    5.90    0.35
  -2  -3  10    5.36    0.29
   1   3 -10   18.90    0.69
   1   3 -10   18.63    0.69
  -1  -3  10   18.64    0.69
  -1  -3  10   18.71    0.72
   0   3 -10    1.63    0.15
   0   3 -10    1.66    0.18
   0  -3  10    1.81    0.23
   0  -3  10    1.50    0.18
  -1   3 -10   20.50    0.74
  -1   3 -10   20.18    0.75
  -1   3 -10   19.92    0.72
   1  -3  10   20.38    0.77
   1  -3  10   19.94    0.74
  -2   3 -10    0.43    0.09
  -2   3 -10    0.56    0.11
  -2   3 -10    0.42    0.09
  -2   3 -10    0.27    0.15
   2  -3  10    0.55    0.11
   2  -3  10    0.36    0.17
  -3   3 -10    0.64    0.11
  -3   3 -10    0.81    0.17
  -3   3 -10    1.10    0.14
   3  -3  10    0.96    0.20
  -4   3 -10    0.63    0.19
   4  -3  10    0.77    0.22
   4   2 -10    2.23    0.26
  -4  -2  10    2.31    0.34
   3   2 -10    5.72    0.31
  -3  -2  10    6.05    0.29
   2   2 -10    0.36    0.12
   2   2 -10    0.16    0.12
  -2  -2  10    0.31    0.15
  -2  -2  10    0.43    0.11
  -2  -2  10    0.20    0.09
   1   2 -10    0.52    0.11
   1   2 -10    0.52    0.10
  -1  -2  10    0.62    0.14
  -1  -2  10    0.47    0.11
   0   2 -10    5.44    0.26
   0   2 -10    5.59    0.24
   0  -2  10    5.89    0.31
   0  -2  10    5.45    0.26
  -1   2 -10    9.11    0.35
  -1   2 -10    9.21    0.37
  -1   2 -10    9.00    0.38
   1  -2  10    9.39    0.42
   1  -2  10    9.38    0.37
  -2   2 -10    1.68    0.17
  -2   2 -10    1.45    0.21
  -2   2 -10    1.46    0.16
   2  -2  10    1.65    0.18
   2  -2  10    1.55    0.19
  -3   2 -10    9.31    0.40
  -3   2 -10    9.37    0.38
  -3   2 -10    9.76    0.44
   3  -2  10    9.97    0.49
  -4   2 -10    0.39    0.18
   4  -2  10    0.68    0.21
   4   1 -10    0.20    0.16
  -4  -1  10    0.15    0.21
   3   1 -10    7.13    0.39
  -3  -1  10    7.66    0.38
  -3  -1  10    6.67    0.34
  -3  -1  10    6.38    0.31
   2   1 -10   11.49    0.47
   2   1 -10   12.06    0.47
  -2  -1  10   12.10    0.51
  -2  -1  10   12.68    0.47
  -2  -1  10   11.89    0.46
   1   1 -10    7.36    0.31
   1   1 -10    7.22    0.31
  -1  -1  10    7.49    0.32
  -1  -1  10    7.44    0.35
   0   1 -10    0.72    0.10
   0   1 -10    0.74    0.08
   0  -1  10    0.76    0.10
   0  -1  10    0.81    0.14
  -1   1 -10    5.50    0.26
  -1   1 -10    5.54    0.22
  -1   1 -10    5.82    0.26
   1  -1  10    5.69    0.31
   1  -1  10    5.74    0.26
  -2   1 -10   -0.10    0.11
  -2   1 -10   -0.06    0.09
  -2   1 -10    0.16    0.10
   2  -1  10   -0.26    0.10
  -3   1 -10    0.09    0.11
   3  -1  10   -0.09    0.19
  -4   1 -10    6.97    0.40
   4  -1  10    6.63    0.44
   4   0 -10   11.17    0.48
  -4   0  10   10.49    0.52
  -3   0  10    3.01    0.28
  -3   0  10    3.25    0.20
  -3   0  10    3.43    0.29
   2   0 -10   -0.03    0.10
   2   0 -10    0.19    0.11
  -2   0  10    0.11    0.14
  -2   0  10    0.11    0.09
  -2   0  10    0.18    0.10
   1   0 -10   29.77    1.05
   1   0 -10   30.75    1.05
  -1   0  10   30.10    1.05
  -1   0  10   28.94    1.07
  -1   0  10   28.49    1.05
   0   0 -10   28.94    1.00
   0   0 -10   28.28    1.01
   0   0  10   27.67    1.03
   0   0  10   28.84    1.01
  -1   0 -10    3.36    0.20
  -1   0 -10    3.30    0.19
   1   0  10    3.60    0.26
   1   0  10    3.69    0.20
  -2   0 -10    7.95    0.32
  -2   0 -10    7.92    0.34
   2   0  10    7.64    0.38
   2   0  10    7.72    0.33
  -3   0 -10    0.12    0.16
  -3   0 -10    0.13    0.13
  -3   0 -10    0.21    0.09
   3   0  10    0.06    0.19
  -4   0 -10    0.79    0.18
   4   0  10    0.95    0.23
  -4   1  10    2.47    0.29
  -4   1  10    2.60    0.33
  -3   1  10    1.93    0.26
  -3   1  10    2.81    0.27
  -2   1  10    3.79    0.24
  -2   1  10    4.39    0.28
  -2   1  10    4.10    0.21
  -2   1  10    4.37    0.22
   1  -1 -10    1.04    0.14
  -1   1  10    0.91    0.14
  -1   1  10    0.80    0.10
  -1   1  10    1.17    0.15
  -1   1  10    1.20    0.15
   0  -1 -10   22.14    0.84
   0  -1 -10   23.35    0.83
   0  -1 -10   22.65    0.82
   0   1  10   23.36    0.83
   0   1  10   23.87    0.85
  -1  -1 -10    2.02    0.16
  -1  -1 -10    2.17    0.17
   1   1  10    1.96    0.22
   1   1  10    2.26    0.17
  -2  -1 -10    6.81    0.29
  -2  -1 -10    6.59    0.31
   2   1  10    6.21    0.29
   2   1  10    6.70    0.35
  -3  -1 -10    0.72    0.11
  -3  -1 -10    0.43    0.15
  -3  -1 -10    0.59    0.10
   3   1  10    0.60    0.20
  -4  -1 -10    0.02    0.17
   4   1  10    0.41    0.21
  -4   2  10    0.06    0.17
  -4   2  10    0.05    0.21
  -3   2  10    0.15    0.14
  -3   2  10    0.14    0.15
  -2   2  10    1.53    0.18
  -2   2  10    1.71    0.16
  -2   2  10    1.54    0.17
  -2   2  10    1.61    0.23
   1  -2 -10    0.56    0.09
  -1   2  10    0.65    0.13
  -1   2  10    0.41    0.09
  -1   2  10    0.55    0.10
  -1   2  10    0.54    0.09
   0  -2 -10    0.35    0.09
   0  -2 -10    0.40    0.09
   0   2  10    0.36    0.08
   0   2  10    0.25    0.09
   0   2  10    0.39    0.13
  -1  -2 -10   22.82    0.83
  -1  -2 -10   23.09    0.83
   1   2  10   22.76    0.85
   1   2  10   23.42    0.83
  -2  -2 -10    1.60    0.16
  -2  -2 -10    0.99    0.12
  -2  -2 -10    1.47    0.18
   2   2  10    1.44    0.16
   2   2  10    1.27    0.17
  -3  -2 -10   -0.07    0.10
  -3  -2 -10   -0.08    0.10
  -3  -2 -10    0.07    0.14
   3   2  10   -0.24    0.17
  -4  -2 -10    0.47    0.16
  -4  -2 -10    0.20    0.09
   4   2  10    0.40    0.22
   4  -3 -10    0.48    0.19
  -4   3  10    0.50    0.18
  -3   3  10    0.34    0.15
  -3   3  10    0.03    0.16
  -2   3  10    0.94    0.14
  -2   3  10    0.81    0.11
  -2   3  10    0.96    0.15
  -2   3  10    1.17    0.16
   1  -3 -10   11.46    0.44
  -1   3  10   11.90    0.45
  -1   3  10   11.85    0.45
  -1   3  10   11.46    0.47
   0  -3 -10    0.07    0.08
   0  -3 -10    0.15    0.09
   0   3  10    0.11    0.13
   0   3  10    0.18    0.08
   0   3  10    0.12    0.10
  -1  -3 -10    6.85    0.30
  -1  -3 -10    6.61    0.28
   1   3  10    6.62    0.33
   1   3  10    6.83    0.30
  -2  -3 -10    1.09    0.15
  -2  -3 -10    1.03    0.13
  -2  -3 -10    0.95    0.14
   2   3  10    0.99    0.16
   2   3  10    1.06    0.12
  -3  -3 -10    7.38    0.37
  -3  -3 -10    7.24    0.33
  -3  -3 -10    7.28    0.32
   3   3  10    7.18    0.40
  -4  -3 -10    1.79    0.18
  -4  -3 -10    1.15    0.19
   4   3  10    2.26    0.34
  -4   4  10    0.44    0.23
  -4   4  10    0.28    0.18
   3  -4 -10    1.29    0.18
  -3   4  10    1.30    0.17
   2  -4 -10    3.49    0.26
  -2   4  10    3.35    0.22
  -2   4  10    3.50    0.21
  -2   4  10    3.19    0.24
  -2   4  10    3.20    0.25
   1  -4 -10    2.60    0.20
   1  -4 -10    2.17    0.17
  -1   4  10    2.55    0.21
  -1   4  10    2.40    0.17
  -1   4  10    2.35    0.20
   0  -4 -10    1.12    0.16
   0  -4 -10    1.24    0.15
   0   4  10    1.48    0.13
   0   4  10    1.24    0.16
   0   4  10    1.09    0.14
  -1  -4 -10    0.69    0.09
  -1  -4 -10    0.69    0.11
   1   4  10    0.58    0.13
   1   4  10    0.50    0.15
  -2  -4 -10    0.16    0.10
  -2  -4 -10   -0.01    0.10
  -2  -4 -10    0.10    0.12
   2   4  10    0.01    0.10
   2   4  10   -0.22    0.15
  -3  -4 -10   13.81    0.56
  -3  -4 -10   13.97    0.53
  -3  -4 -10   14.11    0.54
   3   4  10   13.83    0.59
  -4  -4 -10   12.00    0.51
  -4  -4 -10   12.17    0.49
   4   4  10   13.97    0.60
   3  -5 -10    0.63    0.19
  -3   5  10    0.67    0.11
  -3   5  10    0.62    0.16
   2  -5 -10    0.62    0.16
  -2   5  10    0.70    0.13
  -2   5  10    0.44    0.12
  -2   5  10    0.65    0.13
   1  -5 -10   18.38    0.66
   1  -5 -10   17.92    0.68
  -1   5  10   17.56    0.67
  -1   5  10   18.38    0.67
   0  -5 -10    4.81    0.27
   0  -5 -10    4.85    0.23
   0   5  10    5.16    0.27
   0   5  10    4.86    0.23
   0   5  10    4.60    0.24
  -1  -5 -10    7.35    0.31
  -1  -5 -10    7.21    0.33
   1   5  10    7.31    0.28
   1   5  10    7.54    0.32
   1   5  10    7.14    0.34
  -2  -5 -10   19.18    0.72
  -2  -5 -10   19.36    0.70
   2   5  10   18.58    0.73
   2   5  10   19.31    0.71
  -3  -5 -10    7.43    0.33
  -3  -5 -10    6.97    0.34
  -3  -5 -10    7.39    0.37
   3   5  10    7.12    0.41
  -4  -5 -10    0.12    0.12
  -4  -5 -10   -0.15    0.17
   4   5  10    0.16    0.22
   3  -6 -10   -0.02    0.19
  -3   6  10    0.16    0.15
   2  -6 -10    0.57    0.17
  -2   6  10    0.40    0.13
   1  -6 -10    6.25    0.29
   1  -6 -10    6.70    0.33
  -1   6  10    6.01    0.30
  -1   6  10    5.98    0.29
   0  -6 -10    0.29    0.12
   0  -6 -10    0.09    0.10
   0   6  10    0.22    0.11
   0   6  10    0.18    0.10
  -1  -6 -10    1.19    0.12
  -1  -6 -10    1.23    0.19
   1   6  10    1.35    0.18
   1   6  10    1.24    0.15
   1   6  10    1.11    0.13
  -2  -6 -10    6.35    0.30
  -2  -6 -10    6.54    0.32
   2   6  10    5.91    0.35
   2   6  10    6.46    0.31
  -3  -6 -10   12.40    0.49
  -3  -6 -10   12.06    0.52
   3   6  10   11.89    0.55
  -4  -6 -10   10.86    0.52
  -4  -6 -10   11.65    0.47
   4   6  10   11.95    0.57
   3  -7 -10    1.35    0.22
  -3   7  10    1.23    0.15
  -3   7  10    1.11    0.18
   2  -7 -10    3.48    0.47
  -2   7  10    3.52    0.23
  -2   7  10    2.79    0.24
  -2   7  10    2.92    0.24
   1  -7 -10    2.03    0.21
   1  -7 -10    3.00    0.27
  -1   7  10    2.46    0.22
  -1   7  10    2.61    0.22
   0  -7 -10    1.95    0.22
   0  -7 -10    1.59    0.21
   0   7  10    1.54    0.20
   0   7  10    1.54    0.17
  -1  -7 -10   15.24    0.58
  -1  -7 -10   14.97    0.59
   1   7  10   15.41    0.56
   1   7  10   15.33    0.59
   1   7  10   15.02    0.58
  -2  -7 -10   52.91    1.77
  -2  -7 -10   49.86    1.78
   2   7  10   50.67    1.79
   2   7  10   51.04    1.75
   2   7  10   45.52    1.77
  -4  -7 -10    0.66    0.14
  -4  -7 -10    0.35    0.19
   4   7  10    0.92    0.24
   3  -8 -10   -0.16    0.21
  -3   8  10    0.12    0.18
   2  -8 -10   -0.05    0.18
  -2   8  10    0.08    0.14
  -2   8  10    0.26    0.13
   1  -8 -10    6.21    0.35
   1  -8 -10    5.27    0.36
  -1   8  10    5.09    0.30
  -1   8  10    5.32    0.30
   0  -8 -10    6.41    0.33
   0  -8 -10    7.20    0.35
   0   8  10    7.24    0.34
   0   8  10    6.94    0.32
  -1  -8 -10   17.45    0.66
  -1  -8 -10   17.47    0.67
   1   8  10   17.22    0.67
   1   8  10   17.85    0.65
   1   8  10   16.96    0.67
  -2  -8 -10    0.42    0.13
  -2  -8 -10    0.31    0.16
   2   8  10    0.31    0.18
   2   8  10    0.28    0.11
   2   8  10   -0.02    0.15
  -3  -8 -10    0.14    0.17
  -3  -8 -10   -0.08    0.14
   3   8  10    0.10    0.22
  -4  -8 -10    2.80    0.34
  -4  -8 -10    2.94    0.26
   4   8  10    3.30    0.41
   2  -9 -10   -0.07    0.20
  -2   9  10    0.09    0.14
  -2   9  10   -0.12    0.16
   1  -9 -10    4.68    0.34
  -1   9  10    4.27    0.27
  -1   9  10    3.81    0.34
   0  -9 -10    1.63    0.22
   0   9  10    1.62    0.18
   0   9  10    1.79    0.21
  -1  -9 -10   22.39    0.81
  -1  -9 -10   20.88    0.83
   1   9  10   21.53    0.80
   1   9  10   22.13    0.82
  -2  -9 -10    0.04    0.14
   2   9  10   -0.29    0.15
   2   9  10    0.11    0.19
   2   9  10   -0.02    0.12
  -3  -9 -10    5.81    0.38
  -3  -9 -10    6.64    0.34
   3   9  10    6.25    0.30
   3   9  10    6.90    0.42
  -4  -9 -10    2.66    0.34
  -4  -9 -10    2.11    0.31
   4   9  10    3.05    0.41
   2 -10 -10   -0.14    0.22
  -2  10  10    0.23    0.15
  -2  10  10    0.00    0.17
   1 -10 -10    0.24    0.19
  -1  10  10    0.09    0.15
  -1  10  10    0.19    0.14
   0 -10 -10    5.96    0.35
   0 -10 -10    4.44    0.31
   0  10  10    5.03    0.33
  -1 -10 -10    2.29    0.25
  -1 -10 -10    2.50    0.27
   1  10  10    2.25    0.23
   1  10  10    2.30    0.27
  -2 -10 -10    2.41    0.27
  -2 -10 -10    2.53    0.29
   2  10  10    2.65    0.29
   2  10  10    3.06    0.34
   2  10  10    2.16    0.22
  -3 -10 -10    2.55    0.32
  -3 -10 -10    2.34    0.27
   3  10  10    2.65    0.23
   3  10  10    3.52    0.36
   1 -11 -10    1.60    0.24
  -1  11  10    1.76    0.25
  -1  11  10    2.18    0.27
   0 -11 -10    2.11    0.31
   0  11  10    2.13    0.24
  -1 -11 -10    4.93    0.32
  -1 -11 -10    4.25    0.33
   1  11  10    4.30    0.33
   1  11  10    3.74    0.33
  -2 -11 -10    4.11    0.32
  -2 -11 -10    3.29    0.33
   2  11  10    3.62    0.33
   2  11  10    3.44    0.26
  -3 -11 -10    0.09    0.17
  -3 -11 -10    0.12    0.21
   3  11  10    0.16    0.15
   1 -12 -10    1.37    0.25
   0 -12 -10    0.26    0.20
   0  12  10    0.31    0.17
   0  12  10    0.23    0.17
  -1 -12 -10    1.17    0.19
  -1 -12 -10    0.47    0.19
   1  12  10    1.02    0.17
   1  12  10    0.85    0.21
  -2 -12 -10    0.83    0.22
   2  12  10    0.73    0.16
   2  12  10    0.89    0.22
  -1 -13 -10    5.58    0.40
   2   9 -11   -0.15    0.16
  -2  -9  11   -0.16    0.21
  -2  -9  11   -0.17    0.18
   1   9 -11   -0.24    0.15
   1   9 -11   -0.13    0.18
  -1  -9  11    0.12    0.19
  -1  -9  11    0.13    0.18
   0   9 -11    1.66    0.18
   0  -9  11    1.91    0.22
   0  -9  11    1.20    0.20
  -1   9 -11    8.81    0.41
  -1   9 -11    8.65    0.42
   1  -9  11    9.23    0.41
   1  -9  11    7.52    0.43
   2   8 -11    0.16    0.16
  -2  -8  11   -0.13    0.17
  -2  -8  11    0.25    0.21
   1   8 -11   -0.13    0.17
   1   8 -11    0.06    0.14
  -1  -8  11   -0.12    0.17
   0   8 -11   12.19    0.54
   0   8 -11   11.98    0.52
   0  -8  11   14.23    0.55
  -1   8 -11    0.09    0.18
  -1   8 -11    0.16    0.14
  -1   8 -11    0.29    0.15
  -2   8 -11    0.34    0.14
  -2   8 -11   -0.02    0.20
  -2   8 -11   -0.08    0.14
   2  -8  11   -0.27    0.23
   3   7 -11    0.21    0.16
  -3  -7  11    0.47    0.21
  -3  -7  11    0.16    0.18
   2   7 -11    0.34    0.14
  -2  -7  11    0.55    0.20
  -2  -7  11    0.79    0.16
   1   7 -11    3.85    0.30
   1   7 -11    3.18    0.26
  -1  -7  11    4.00    0.31
  -1  -7  11    3.32    0.31
   0   7 -11    1.73    0.18
   0  -7  11    1.69    0.21
   0  -7  11    1.78    0.19
  -1   7 -11    0.64    0.17
  -1   7 -11    0.41    0.15
   1  -7  11    0.53    0.18
  -2   7 -11   -0.03    0.18
  -2   7 -11    0.34    0.14
   2  -7  11   -0.12    0.21
   3   6 -11    2.88    0.27
  -3  -6  11    2.51    0.32
  -3  -6  11    2.63    0.28
   2   6 -11    0.42    0.14
  -2  -6  11    0.41    0.22
  -2  -6  11    0.44    0.18
   1   6 -11   14.80    0.60
   1   6 -11   15.03    0.64
  -1  -6  11   15.81    0.67
  -1  -6  11   14.93    0.61
   0   6 -11   23.13    0.86
   0   6 -11   23.70    0.87
   0  -6  11   22.64    0.89
   0  -6  11   23.59    0.87
  -1   6 -11   27.41    0.99
  -1   6 -11   27.60    0.98
  -1   6 -11   27.36    0.97
   1  -6  11   24.98    1.01
   1  -6  11   26.12    1.01
  -2   6 -11    2.49    0.22
  -2   6 -11    2.19    0.22
  -2   6 -11    2.80    0.27
   2  -6  11    1.88    0.30
  -3   6 -11    0.71    0.19
  -3   6 -11    0.41    0.13
  -3   6 -11    0.29    0.14
   3  -6  11    0.04    0.19
   3   5 -11    6.81    0.35
  -3  -5  11    6.71    0.41
  -3  -5  11    5.87    0.33
   2   5 -11   14.33    0.57
   2   5 -11   14.23    0.57
  -2  -5  11   14.55    0.57
  -2  -5  11   13.80    0.61
   1   5 -11   37.83    1.36
   1   5 -11   37.40    1.35
  -1  -5  11   37.77    1.38
  -1  -5  11   37.98    1.36
   0   5 -11   21.34    0.78
   0   5 -11   20.81    0.76
   0  -5  11   21.15    0.78
   0  -5  11   19.51    0.80
  -1   5 -11    0.69    0.15
  -1   5 -11    0.93    0.14
  -1   5 -11    0.66    0.12
   1  -5  11    0.66    0.15
   1  -5  11    0.84    0.18
  -2   5 -11    0.24    0.12
  -2   5 -11    0.01    0.15
  -2   5 -11   -0.04    0.11
   2  -5  11    0.02    0.18
  -3   5 -11    2.46    0.29
  -3   5 -11    1.81    0.21
  -3   5 -11    2.04    0.21
   3  -5  11    1.91    0.32
   4   4 -11    2.76    0.30
  -4  -4  11    3.21    0.26
  -4  -4  11    3.06    0.38
   3   4 -11    0.38    0.15
  -3  -4  11    0.37    0.19
  -3  -4  11    0.21    0.14
   2   4 -11    0.20    0.16
   2   4 -11   -0.05    0.14
  -2  -4  11    0.12    0.14
   1   4 -11    4.13    0.25
   1   4 -11    4.84    0.26
  -1  -4  11    4.59    0.28
  -1  -4  11    4.32    0.32
   0   4 -11   28.41    1.02
   0   4 -11   28.09    1.01
   0  -4  11   27.48    1.04
   0  -4  11   28.01    1.02
  -1   4 -11   -0.05    0.13
  -1   4 -11    0.13    0.09
  -1   4 -11    0.18    0.11
   1  -4  11    0.21    0.16
   1  -4  11    0.08    0.12
  -2   4 -11    0.03    0.12
  -2   4 -11   -0.09    0.10
  -2   4 -11    0.07    0.15
   2  -4  11   -0.12    0.18
  -3   4 -11    0.55    0.11
  -3   4 -11    0.40    0.11
  -3   4 -11    0.82    0.18
   4   3 -11    0.10    0.17
  -4  -3  11    0.21    0.22
   3   3 -11    2.56    0.24
  -3  -3  11    2.61    0.23
  -3  -3  11    1.86    0.30
   2   3 -11   30.59    1.11
  -2  -3  11   30.31    1.10
  -2  -3  11   29.31    1.13
  -2  -3  11   31.87    1.12
   1   3 -11   30.22    1.07
  -1  -3  11   29.47    1.07
  -1  -3  11   29.64    1.10
   0   3 -11    2.31    0.21
   0   3 -11    2.17    0.17
   0  -3  11    2.29    0.20
   0  -3  11    2.47    0.28
  -1   3 -11    3.41    0.24
  -1   3 -11    3.46    0.19
  -1   3 -11    3.56    0.23
   1  -3  11    3.65    0.23
   1  -3  11    3.29    0.30
  -2   3 -11    5.16    0.26
  -2   3 -11    4.43    0.30
  -2   3 -11    4.73    0.22
   2  -3  11    4.83    0.35
  -3   3 -11    0.02    0.16
  -3   3 -11    0.13    0.09
  -4   3 -11    2.27    0.33
   4  -3  11    2.12    0.35
   4   2 -11    1.98    0.26
  -4  -2  11    1.32    0.24
   3   2 -11   11.70    0.50
  -3  -2  11   12.59    0.48
  -3  -2  11   12.19    0.52
  -3  -2  11   11.50    0.54
   2   2 -11    7.84    0.35
   2   2 -11    7.84    0.36
  -2  -2  11    7.99    0.41
  -2  -2  11    8.50    0.35
   1   2 -11    8.08    0.34
   1   2 -11    7.99    0.34
  -1  -2  11    7.68    0.39
  -1  -2  11    7.91    0.35
   0   2 -11    3.88    0.19
   0   2 -11    3.96    0.22
   0  -2  11    3.92    0.28
   0  -2  11    3.63    0.22
  -1   2 -11   13.62    0.51
  -1   2 -11   13.01    0.48
  -1   2 -11   13.25    0.51
   1  -2  11   12.72    0.54
   1  -2  11   12.98    0.50
  -2   2 -11    2.08    0.24
  -2   2 -11    2.39    0.19
   2  -2  11    2.21    0.20
   2  -2  11    2.08    0.31
  -3   2 -11    0.93    0.16
  -3   2 -11    0.83    0.11
  -3   2 -11    1.66    0.23
   3  -2  11    1.11    0.29
  -4   2 -11    0.12    0.18
   4  -2  11    0.17    0.23
   4   1 -11    0.95    0.18
  -4  -1  11    0.53    0.22
   3   1 -11    4.63    0.28
  -3  -1  11    4.83    0.25
  -3  -1  11    4.11    0.25
   2   1 -11   11.10    0.46
   2   1 -11   11.81    0.47
  -2  -1  11   11.44    0.46
  -2  -1  11   12.35    0.46
  -2  -1  11   11.53    0.51
   1   1 -11   16.50    0.61
   1   1 -11   16.27    0.61
  -1  -1  11   16.68    0.64
  -1  -1  11   16.31    0.61
   0   1 -11    1.06    0.12
   0   1 -11    0.96    0.12
   0  -1  11    1.51    0.23
   0  -1  11    1.13    0.12
  -1   1 -11   29.69    1.06
  -1   1 -11   30.48    1.08
  -1   1 -11   31.07    1.08
   1  -1  11   30.36    1.08
   1  -1  11   29.72    1.11
  -2   1 -11    0.20    0.08
  -2   1 -11    0.02    0.12
  -2   1 -11    0.10    0.09
   2  -1  11    0.09    0.17
   2  -1  11    0.14    0.11
  -3   1 -11    2.50    0.26
  -3   1 -11    2.73    0.19
  -3   1 -11    2.40    0.29
   3  -1  11    2.81    0.34
  -4   1 -11    1.04    0.20
   4  -1  11    1.30    0.24
   4   0 -11    0.99    0.17
  -4   0  11    1.21    0.23
   3   0 -11    0.78    0.14
  -3   0  11    1.04    0.13
  -3   0  11    0.70    0.12
  -3   0  11    0.98    0.20
   2   0 -11    0.19    0.11
   2   0 -11    0.21    0.11
  -2   0  11    0.15    0.16
  -2   0  11    0.32    0.11
  -2   0  11    0.29    0.11
   1   0 -11    4.28    0.22
   1   0 -11    3.91    0.21
  -1   0  11    4.04    0.27
  -1   0  11    4.15    0.28
  -1   0  11    4.30    0.23
   0   0 -11    8.20    0.33
   0   0 -11    8.54    0.32
   0   0  11    7.91    0.34
   0   0  11    8.09    0.38
  -1   0 -11    5.44    0.25
  -1   0 -11    5.29    0.26
   1   0  11    5.22    0.31
   1   0  11    5.20    0.25
  -2   0 -11    6.63    0.29
  -2   0 -11    6.62    0.31
   2   0  11    6.52    0.37
   2   0  11    6.35    0.30
  -3   0 -11    2.36    0.20
   3   0  11    1.90    0.32
  -4   0 -11    3.27    0.31
   4   0  11    3.42    0.39
  -4   1  11    1.79    0.24
  -3   1  11    1.11    0.16
  -3   1  11    1.33    0.19
  -3   1  11    1.00    0.12
  -3   1  11    0.93    0.12
  -2   1  11    0.27    0.12
  -2   1  11    0.31    0.11
  -2   1  11    0.56    0.16
  -2   1  11    0.28    0.10
   1  -1 -11    4.03    0.21
  -1   1  11    3.72    0.22
  -1   1  11    3.94    0.21
  -1   1  11    4.28    0.22
  -1   1  11    3.92    0.27
   0  -1 -11    1.87    0.12
   0  -1 -11    1.59    0.16
   0   1  11    1.99    0.23
   0   1  11    1.67    0.17
  -1  -1 -11    0.11    0.10
  -1  -1 -11   -0.06    0.09
   1   1  11    0.08    0.14
   1   1  11   -0.13    0.09
  -2  -1 -11    9.38    0.39
  -2  -1 -11    8.09    0.36
  -2  -1 -11    9.85    0.38
   2   1  11    8.85    0.38
   2   1  11    9.78    0.43
  -3  -1 -11    0.78    0.11
  -3  -1 -11    0.62    0.11
  -3  -1 -11    0.53    0.18
   3   1  11    0.53    0.21
  -4  -1 -11    4.29    0.32
  -4  -1 -11    4.18    0.28
   4   1  11    4.98    0.41
  -4   2  11    1.40    0.24
  -4   2  11    1.34    0.19
  -3   2  11    1.07    0.18
  -3   2  11    1.16    0.16
  -3   2  11    0.78    0.12
  -2   2  11    2.61    0.20
  -2   2  11    2.52    0.26
  -2   2  11    2.13    0.21
  -2   2  11    2.23    0.18
   1  -2 -11    0.03    0.09
  -1   2  11    0.10    0.13
  -1   2  11    0.05    0.09
  -1   2  11   -0.10    0.10
  -1   2  11   -0.02    0.10
   0  -2 -11    0.64    0.10
   0  -2 -11    0.65    0.18
   0   2  11    0.60    0.14
   0   2  11    0.61    0.09
   0   2  11    0.54    0.10
  -1  -2 -11   27.85    1.00
  -1  -2 -11   28.46    0.99
   1   2  11   26.77    1.01
   1   2  11   28.23    1.00
  -2  -2 -11   14.61    0.56
  -2  -2 -11   16.46    0.58
  -2  -2 -11   15.55    0.59
   2   2  11   14.33    0.57
   2   2  11   15.42    0.62
  -3  -2 -11    2.38    0.25
  -3  -2 -11    2.26    0.20
  -3  -2 -11    2.18    0.20
   3   2  11    1.80    0.32
  -4  -2 -11    2.02    0.28
  -4  -2 -11    1.75    0.17
  -4  -2 -11    1.66    0.24
   4   2  11    2.06    0.35
   4  -3 -11   -0.40    0.18
  -4   3  11    0.08    0.22
  -4   3  11    0.13    0.18
  -3   3  11    0.01    0.12
  -3   3  11    0.27    0.15
  -3   3  11    0.17    0.16
  -2   3  11    4.19    0.28
  -2   3  11    3.66    0.22
  -2   3  11    4.18    0.23
  -2   3  11    3.57    0.26
   1  -3 -11    0.79    0.10
  -1   3  11    0.74    0.11
  -1   3  11    0.64    0.11
  -1   3  11    1.00    0.15
  -1   3  11    0.87    0.12
   0  -3 -11    0.39    0.10
   0  -3 -11    0.41    0.10
   0   3  11    0.49    0.09
   0   3  11    0.44    0.14
   0   3  11    0.49    0.10
  -1  -3 -11    4.35    0.22
  -1  -3 -11    4.37    0.23
   1   3  11    5.00    0.31
   1   3  11    3.95    0.28
  -2  -3 -11    0.41    0.12
  -2  -3 -11    0.52    0.11
  -2  -3 -11    0.44    0.10
   2   3  11    0.64    0.11
   2   3  11    0.25    0.17
  -3  -3 -11    0.85    0.13
  -3  -3 -11    0.88    0.13
  -3  -3 -11    0.58    0.16
   3   3  11    0.77    0.20
  -4  -3 -11    1.39    0.19
  -4  -3 -11    1.71    0.23
  -4  -3 -11    1.09    0.19
   4   3  11    2.11    0.34
   3  -4 -11    2.41    0.28
  -3   4  11    2.64    0.27
  -3   4  11    3.16    0.28
   2  -4 -11    3.48    0.26
  -2   4  11    3.22    0.26
  -2   4  11    2.81    0.22
  -2   4  11    3.07    0.24
  -2   4  11    3.44    0.21
   1  -4 -11    5.26    0.24
   1  -4 -11    5.03    0.26
  -1   4  11    4.75    0.28
  -1   4  11    5.37    0.27
  -1   4  11    4.87    0.25
  -1   4  11    4.59    0.25
   0  -4 -11   30.06    1.11
   0  -4 -11   31.00    1.11
   0   4  11   32.00    1.10
   0   4  11   30.51    1.12
   0   4  11   31.45    1.11
  -1  -4 -11   23.18    0.84
  -1  -4 -11   22.81    0.83
   1   4  11   22.08    0.85
   1   4  11   23.38    0.84
  -2  -4 -11    7.41    0.35
  -2  -4 -11    9.32    0.36
  -2  -4 -11    8.81    0.38
   2   4  11    8.15    0.37
   2   4  11    8.65    0.41
  -3  -4 -11    7.52    0.37
  -3  -4 -11    7.72    0.34
  -3  -4 -11    7.11    0.35
   3   4  11    6.95    0.42
  -4  -4 -11   13.97    0.56
   4   4  11   15.19    0.67
   3  -5 -11   13.68    0.57
  -3   5  11   12.35    0.56
  -3   5  11   14.00    0.51
   2  -5 -11    0.36    0.16
  -2   5  11    0.13    0.13
  -2   5  11   -0.11    0.14
  -2   5  11   -0.04    0.12
   1  -5 -11    3.00    0.23
   1  -5 -11    2.36    0.20
  -1   5  11    2.46    0.19
  -1   5  11    2.64    0.23
  -1   5  11    2.04    0.21
   0  -5 -11    1.52    0.19
   0  -5 -11    1.41    0.19
   0   5  11    1.59    0.18
   0   5  11    1.81    0.15
   0   5  11    1.49    0.22
  -1  -5 -11   18.70    0.69
  -1  -5 -11   18.78    0.70
   1   5  11   19.24    0.70
   1   5  11   19.44    0.67
   1   5  11   18.06    0.71
  -2  -5 -11    1.83    0.22
  -2  -5 -11    2.00    0.19
   2   5  11    1.71    0.27
   2   5  11    1.81    0.20
  -3  -5 -11    0.76    0.18
  -3  -5 -11    0.94    0.14
  -3  -5 -11    1.15    0.21
   3   5  11    0.75    0.32
  -4  -5 -11    0.69    0.13
  -4  -5 -11    0.38    0.18
   4   5  11    1.01    0.23
   3  -6 -11    6.03    0.37
  -3   6  11    5.23    0.35
  -3   6  11    5.76    0.28
   2  -6 -11   -0.01    0.17
  -2   6  11   -0.04    0.13
  -2   6  11   -0.29    0.14
  -2   6  11    0.12    0.13
   1  -6 -11    0.89    0.12
  -1   6  11    0.77    0.13
  -1   6  11    1.04    0.14
   0  -6 -11    7.68    0.35
   0   6  11    7.79    0.37
   0   6  11    8.09    0.35
   0   6  11    7.95    0.33
  -1  -6 -11   22.76    0.84
  -1  -6 -11   23.41    0.85
   1   6  11   22.02    0.85
   1   6  11   23.05    0.84
   1   6  11   23.47    0.82
  -2  -6 -11    9.80    0.42
  -2  -6 -11    9.56    0.40
   2   6  11    9.38    0.41
   2   6  11    9.23    0.45
  -4  -6 -11    0.65    0.19
  -4  -6 -11    0.73    0.14
   4   6  11    1.04    0.24
   3  -7 -11    2.61    0.32
  -3   7  11    1.95    0.21
  -3   7  11    1.97    0.26
  -2   7  11    0.07    0.12
  -2   7  11   -0.06    0.14
   1  -7 -11    0.37    0.12
   1  -7 -11    0.70    0.16
  -1   7  11    0.31    0.14
  -1   7  11    0.39    0.13
   0  -7 -11    2.59    0.24
   0  -7 -11    2.02    0.21
   0   7  11    2.45    0.19
   0   7  11    2.61    0.22
  -1  -7 -11    2.07    0.21
  -1  -7 -11    2.33    0.23
   1   7  11    2.42    0.25
   1   7  11    2.19    0.17
   1   7  11    2.07    0.22
  -2  -7 -11   22.29    0.88
  -2  -7 -11   23.21    0.87
   2   7  11   22.85    0.89
   2   7  11   22.53    0.83
   2   7  11   26.50    0.93
  -3  -7 -11    0.22    0.17
   3   7  11   -0.05    0.21
  -4  -7 -11   -0.08    0.13
  -4  -7 -11   -0.14    0.19
   4   7  11   -0.11    0.23
   3  -8 -11    0.78    0.23
  -3   8  11    0.59    0.18
   2  -8 -11    5.01    0.37
  -2   8  11    4.95    0.29
  -1   8  11    1.74    0.24
  -1   8  11    1.86    0.24
   0  -8 -11    4.68    0.30
   0  -8 -11    4.14    0.26
   0   8  11    3.96    0.28
   0   8  11    4.41    0.25
  -1  -8 -11    5.87    0.32
  -1  -8 -11    6.27    0.33
   1   8  11    5.92    0.33
   1   8  11    6.22    0.29
   1   8  11    6.07    0.32
  -2  -8 -11   -0.01    0.14
  -2  -8 -11   -0.02    0.20
   2   8  11   -0.01    0.11
   2   8  11   -0.14    0.18
   2   8  11   -0.04    0.15
  -3  -8 -11    2.60    0.25
  -3  -8 -11    2.13    0.28
   3   8  11    2.74    0.35
  -4  -8 -11    1.82    0.24
  -4  -8 -11    1.31    0.23
   4   8  11    2.36    0.38
   2  -9 -11   -0.16    0.21
  -2   9  11    0.29    0.14
  -2   9  11    0.16    0.15
   1  -9 -11    1.09    0.20
  -1   9  11    0.76    0.15
  -1   9  11    0.92    0.15
   0  -9 -11    2.95    0.26
   0  -9 -11    3.56    0.29
   0   9  11    2.84    0.26
   0   9  11    3.21    0.23
  -1  -9 -11   10.39    0.61
  -1  -9 -11   12.03    0.48
   1   9  11   11.34    0.49
   1   9  11   11.75    0.46
  -2  -9 -11    0.18    0.16
  -2  -9 -11    0.14    0.15
   2   9  11   -0.04    0.19
   2   9  11    0.11    0.16
   2   9  11    0.04    0.12
  -3  -9 -11    4.52    0.35
  -3  -9 -11    4.73    0.31
   3   9  11    5.99    0.41
  -4  -9 -11    1.22    0.18
  -4  -9 -11    1.11    0.23
   4   9  11    1.31    0.27
   2 -10 -11   -0.02    0.22
  -2  10  11   -0.10    0.17
  -2  10  11    0.20    0.15
   1 -10 -11    0.37    0.20
  -1  10  11    0.76    0.16
  -1  10  11    0.77    0.16
   0 -10 -11    0.26    0.15
   0 -10 -11    0.36    0.18
   0  10  11    0.41    0.17
   0  10  11   -0.12    0.16
  -1 -10 -11    0.81    0.18
  -1 -10 -11    0.91    0.16
   1  10  11    0.82    0.17
   1  10  11    0.79    0.15
  -2 -10 -11    0.00    0.15
  -2 -10 -11    0.27    0.18
   2  10  11   -0.01    0.13
   2  10  11    0.26    0.20
   2  10  11   -0.26    0.18
  -3 -10 -11    0.46    0.17
  -3 -10 -11    0.57    0.20
   3  10  11    0.28    0.14
   3  10  11    0.68    0.24
   1 -11 -11    0.66    0.22
  -1  11  11    1.01    0.17
  -1  11  11    0.92    0.18
   0 -11 -11    5.96    0.40
   0  11  11    6.07    0.33
   0  11  11    6.56    0.36
  -1 -11 -11    0.80    0.19
  -1 -11 -11    0.92    0.18
   1  11  11    0.89    0.19
   1  11  11    1.00    0.19
  -2 -11 -11    6.39    0.40
  -2 -11 -11    6.68    0.37
   2  11  11    6.61    0.33
   2  11  11    6.22    0.39
  -3 -11 -11    0.54    0.18
  -3 -11 -11    0.11    0.21
   3  11  11    0.39    0.15
   0 -12 -11    0.96    0.24
   0  12  11    1.49    0.20
   0  12  11    1.80    0.25
  -1 -12 -11    3.47    0.34
  -1 -12 -11    3.39    0.32
   1  12  11    3.88    0.34
   1  12  11    3.61    0.27
  -2 -12 -11    0.10    0.22
   2  12  11    0.02    0.21
   2  12  11   -0.10    0.15
   1   9 -12    0.03    0.20
   1   9 -12    0.32    0.16
  -1  -9  12    0.33    0.20
  -1  -9  12    0.46    0.23
   0   9 -12   -0.11    0.16
   0   9 -12    0.08    0.16
   0  -9  12   -0.29    0.18
   2   8 -12   -0.05    0.16
  -2  -8  12   -0.10    0.19
  -2  -8  12   -0.15    0.21
   1   8 -12    0.74    0.16
   1   8 -12    0.48    0.18
  -1  -8  12    0.57    0.19
   0   8 -12    2.72    0.31
   0   8 -12    2.89    0.26
   0  -8  12    2.72    0.32
   0  -8  12    2.58    0.32
  -1   8 -12   -0.17    0.15
  -1   8 -12    0.08    0.15
   1  -8  12   -0.13    0.18
  -3  -7  12    0.29    0.21
   2   7 -12    3.80    0.27
  -2  -7  12    3.72    0.34
  -2  -7  12    4.18    0.31
   1   7 -12   -0.15    0.17
   1   7 -12    0.05    0.14
  -1  -7  12    0.07    0.18
  -1  -7  12    0.10    0.17
   0   7 -12    4.11    0.30
   0   7 -12    4.08    0.27
   0  -7  12    3.95    0.32
   0  -7  12    4.23    0.35
  -1   7 -12   12.87    0.53
  -2   7 -12    8.76    0.44
  -2   7 -12    8.04    0.41
  -2   7 -12    8.95    0.40
   2  -7  12    7.37    0.45
  -3  -6  12    2.83    0.35
  -3  -6  12    3.11    0.29
   2   6 -12    0.35    0.15
  -2  -6  12    0.34    0.19
  -2  -6  12    0.23    0.17
   1   6 -12    0.96    0.16
   1   6 -12    0.86    0.15
  -1  -6  12    0.97    0.20
  -1  -6  12    1.20    0.17
   0   6 -12   22.80    0.83
   0   6 -12   22.68    0.85
   0  -6  12   21.45    0.88
   0  -6  12   22.77    0.85
  -1   6 -12    1.48    0.17
  -1   6 -12    1.36    0.17
  -1   6 -12    1.40    0.20
   1  -6  12    0.80    0.20
   1  -6  12    1.13    0.17
  -2   6 -12    1.48    0.15
  -2   6 -12    2.02    0.26
  -2   6 -12    1.45    0.16
   2  -6  12    1.44    0.29
  -3  -5  12    8.86    0.48
  -3  -5  12    9.18    0.42
   2   5 -12    5.17    0.30
  -2  -5  12    4.78    0.35
   1   5 -12    1.46    0.17
   1   5 -12    1.24    0.15
  -1  -5  12    1.61    0.18
  -1  -5  12    1.37    0.31
   0   5 -12    0.17    0.14
   0   5 -12   -0.01    0.12
   0  -5  12    0.11    0.14
   0  -5  12    0.21    0.18
  -1   5 -12    0.45    0.15
  -1   5 -12    0.58    0.12
  -1   5 -12    0.60    0.14
   1  -5  12    0.57    0.19
   1  -5  12    0.36    0.21
  -2   5 -12    2.17    0.25
  -2   5 -12    2.36    0.22
  -2   5 -12    2.08    0.20
   2  -5  12    2.01    0.27
  -3   5 -12   -0.05    0.12
  -3   5 -12    0.13    0.12
  -3   5 -12    0.15    0.18
   3  -5  12    0.31    0.20
   3   4 -12   12.38    0.51
  -3  -4  12   11.76    0.51
  -3  -4  12   11.71    0.56
   2   4 -12    8.33    0.37
   2   4 -12    7.41    0.46
  -2  -4  12    8.01    0.38
  -2  -4  12    7.80    0.42
   1   4 -12    6.59    0.33
   1   4 -12    6.36    0.31
  -1  -4  12    6.56    0.38
  -1  -4  12    6.19    0.33
   0   4 -12    4.88    0.28
   0   4 -12    4.55    0.25
   0  -4  12    4.85    0.35
   0  -4  12    4.68    0.28
  -1   4 -12    6.44    0.31
  -1   4 -12    6.02    0.28
  -1   4 -12    6.04    0.32
   1  -4  12    6.16    0.38
   1  -4  12    5.67    0.35
  -2   4 -12    1.53    0.20
  -2   4 -12    1.32    0.17
   2  -4  12    1.10    0.22
  -3   4 -12    0.10    0.17
  -3   4 -12    0.07    0.11
   3  -4  12    0.10    0.19
   3   3 -12   -0.27    0.16
  -3  -3  12   -0.01    0.20
   2   3 -12   15.11    0.59
   2   3 -12   13.44    0.57
  -2  -3  12   14.84    0.57
   1   3 -12    2.19    0.22
   1   3 -12    2.09    0.20
  -1  -3  12    2.67    0.28
  -1  -3  12    1.98    0.22
   0   3 -12    5.09    0.25
   0   3 -12    5.28    0.28
   0  -3  12    5.24    0.28
   0  -3  12    5.14    0.35
  -1   3 -12    0.07    0.09
  -1   3 -12   -0.21    0.13
  -1   3 -12    0.07    0.12
   1  -3  12    0.31    0.12
   1  -3  12   -0.08    0.18
  -2   3 -12   -0.10    0.08
  -2   3 -12    0.03    0.14
  -2   3 -12    0.00    0.11
   2  -3  12    0.02    0.19
  -3   3 -12   -0.02    0.11
  -3   3 -12   -0.06    0.16
   3  -3  12    0.06    0.20
   4   2 -12    0.55    0.18
  -4  -2  12    0.72    0.24
   3   2 -12   -0.02    0.15
  -3  -2  12   -0.13    0.19
  -3  -2  12    0.21    0.13
   2   2 -12    0.61    0.13
   2   2 -12    0.40    0.13
  -2  -2  12    0.45    0.13
  -2  -2  12    0.17    0.20
  -2  -2  12    0.36    0.18
   1   2 -12    0.69    0.11
   1   2 -12    0.43    0.13
  -1  -2  12    0.58    0.17
  -1  -2  12    0.38    0.13
   0   2 -12    9.31    0.39
   0   2 -12    9.09    0.36
   0  -2  12    9.43    0.44
   0  -2  12    9.12    0.39
  -1   2 -12    3.31    0.23
  -1   2 -12    3.72    0.23
  -1   2 -12    3.62    0.19
   1  -2  12    3.60    0.31
   1  -2  12    3.66    0.23
  -2   2 -12    4.40    0.29
  -2   2 -12    4.53    0.25
  -2   2 -12    4.25    0.27
   2  -2  12    4.40    0.26
   2  -2  12    4.70    0.36
  -3   2 -12    1.26    0.17
  -3   2 -12    0.91    0.12
   3  -2  12    1.23    0.22
  -4   2 -12    0.07    0.19
   4  -2  12    0.29    0.23
   4   1 -12    0.07    0.17
  -4  -1  12    0.16    0.22
   3   1 -12    2.26    0.23
  -3  -1  12    1.92    0.30
  -3  -1  12    2.19    0.21
  -3  -1  12    1.58    0.23
   2   1 -12    0.36    0.13
   2   1 -12    0.39    0.13
  -2  -1  12    0.16    0.11
  -2  -1  12    0.39    0.17
  -2  -1  12    0.38    0.13
   1   1 -12    5.94    0.29
   1   1 -12    5.92    0.28
  -1  -1  12    6.16    0.30
  -1  -1  12    6.60    0.35
   0   1 -12    2.86    0.20
   0   1 -12    2.70    0.16
   0  -1  12    2.83    0.27
   0  -1  12    2.78    0.21
  -1   1 -12    1.21    0.18
  -1   1 -12    1.28    0.18
  -1   1 -12    1.38    0.12
   1  -1  12    1.38    0.13
   1  -1  12    1.73    0.26
  -2   1 -12    0.07    0.13
  -2   1 -12    0.09    0.12
  -2   1 -12    0.14    0.10
   2  -1  12    0.07    0.18
   2  -1  12    0.05    0.12
  -3   1 -12    6.98    0.31
  -3   1 -12    6.83    0.35
  -3   1 -12    6.80    0.37
   3  -1  12    6.86    0.48
  -4   1 -12    0.02    0.10
  -4   1 -12    0.15    0.16
   4  -1  12    0.15    0.24
   4   0 -12    0.71    0.16
  -4   0  12    0.54    0.23
   3   0 -12    6.82    0.34
  -3   0  12    5.88    0.50
  -3   0  12    6.40    0.31
  -3   0  12    7.09    0.31
   2   0 -12    1.51    0.20
   2   0 -12    1.47    0.20
  -2   0  12    1.79    0.20
  -2   0  12    1.99    0.27
  -2   0  12    1.59    0.20
   1   0 -12   -0.05    0.10
   1   0 -12    0.02    0.09
  -1   0  12    0.04    0.11
  -1   0  12    0.19    0.16
   0   0 -12    7.42    0.30
   0   0 -12    7.13    0.32
   0   0  12    7.30    0.32
   0   0  12    7.52    0.37
  -1   0 -12   16.57    0.62
  -1   0 -12   16.51    0.61
   1   0  12   15.82    0.61
   1   0  12   16.72    0.65
  -2   0 -12    1.58    0.21
  -2   0 -12    1.56    0.17
  -2   0 -12    1.53    0.18
   2   0  12    1.54    0.21
   2   0  12    1.36    0.20
  -3   0 -12    2.40    0.22
  -3   0 -12    2.43    0.19
  -3   0 -12    2.44    0.25
   3   0  12    2.14    0.37
  -4   0 -12    0.37    0.10
  -4   0 -12    0.60    0.18
   4   0  12    0.91    0.25
   4  -1 -12    0.97    0.18
  -4   1  12    0.82    0.23
  -3   1  12    0.37    0.21
  -3   1  12    0.23    0.16
  -3   1  12    0.37    0.12
  -3   1  12    0.16    0.12
   2  -1 -12    1.02    0.14
  -2   1  12    1.22    0.16
  -2   1  12    1.21    0.14
  -2   1  12    1.28    0.18
  -2   1  12    1.53    0.27
   1  -1 -12    1.65    0.17
  -1   1  12    1.64    0.19
  -1   1  12    1.81    0.26
   0  -1 -12    4.31    0.20
   0  -1 -12    4.32    0.24
   0   1  12    4.12    0.24
   0   1  12    4.67    0.29
  -1  -1 -12    9.97    0.40
  -1  -1 -12   10.19    0.40
   1   1  12    9.27    0.40
   1   1  12    9.86    0.44
  -2  -1 -12    0.84    0.14
  -2  -1 -12    0.67    0.11
  -2  -1 -12    0.95    0.12
   2   1  12    0.78    0.19
   2   1  12    0.86    0.13
  -3  -1 -12    0.97    0.12
  -3  -1 -12    0.65    0.14
  -3  -1 -12    0.57    0.17
  -4  -1 -12    1.80    0.19
  -4  -1 -12    2.73    0.29
  -4  -1 -12    2.20    0.26
   4   1  12    2.63    0.39
  -4   2  12    0.30    0.20
  -4   2  12    0.52    0.22
  -3   2  12   -0.13    0.15
  -3   2  12   -0.12    0.11
  -3   2  12    0.23    0.18
  -3   2  12   -0.11    0.12
  -2   2  12    1.64    0.21
  -2   2  12    1.85    0.27
  -2   2  12    1.52    0.18
  -2   2  12    1.46    0.20
   1  -2 -12   19.38    0.70
  -1   2  12   19.08    0.70
  -1   2  12   19.75    0.70
  -1   2  12   17.57    0.70
  -1   2  12   19.66    0.73
   0  -2 -12   31.81    1.15
   0  -2 -12   31.93    1.15
   0   2  12   33.90    1.14
   0   2  12   32.34    1.15
   0   2  12   31.00    1.17
  -1  -2 -12    5.29    0.27
  -1  -2 -12    5.44    0.27
   1   2  12    5.40    0.32
   1   2  12    5.74    0.34
  -2  -2 -12    2.83    0.20
  -2  -2 -12    3.54    0.22
  -2  -2 -12    3.40    0.24
   2   2  12    3.19    0.30
   2   2  12    2.96    0.22
  -3  -2 -12   -0.01    0.12
  -4  -2 -12    0.71    0.11
  -4  -2 -12    1.05    0.18
   4   2  12    1.28    0.25
  -3   3  12    7.15    0.38
  -3   3  12    7.45    0.33
  -3   3  12    8.63    0.39
  -3   3  12    6.82    0.34
  -2   3  12   34.35    1.14
  -2   3  12   29.54    1.15
  -2   3  12   29.54    1.14
  -2   3  12   34.01    1.17
   1  -3 -12    3.98    0.23
   1  -3 -12    3.94    0.23
  -1   3  12    3.83    0.24
  -1   3  12    4.06    0.28
  -1   3  12    3.89    0.23
  -1   3  12    4.27    0.23
   0  -3 -12   18.87    0.71
   0  -3 -12   18.36    0.71
   0   3  12   20.91    0.70
   0   3  12   19.09    0.74
   0   3  12   19.74    0.72
  -1  -3 -12    0.02    0.11
  -1  -3 -12   -0.15    0.10
   1   3  12   -0.06    0.10
   1   3  12   -0.05    0.15
  -2  -3 -12    0.51    0.11
  -2  -3 -12    0.57    0.14
  -2  -3 -12    0.65    0.12
   2   3  12    0.52    0.12
   2   3  12    0.33    0.18
  -3  -3 -12    9.85    0.41
  -4  -3 -12    2.71    0.22
  -4  -3 -12    2.81    0.31
   4   3  12    3.22    0.37
  -3   4  12    2.13    0.21
  -3   4  12    2.34    0.27
  -3   4  12    1.75    0.20
  -2   4  12   38.59    1.52
  -2   4  12   45.05    1.54
  -2   4  12   40.61    1.54
  -2   4  12   48.18    1.53
   1  -4 -12    6.46    0.30
   1  -4 -12    6.41    0.29
  -1   4  12    6.00    0.33
  -1   4  12    6.79    0.30
  -1   4  12    5.47    0.29
  -1   4  12    5.92    0.29
   0  -4 -12    2.24    0.20
   0  -4 -12    1.95    0.18
   0   4  12    2.31    0.24
   0   4  12    2.12    0.21
   0   4  12    2.30    0.16
  -1  -4 -12   10.49    0.43
  -1  -4 -12   10.31    0.42
   1   4  12   10.47    0.46
   1   4  12   10.67    0.43
  -2  -4 -12    5.22    0.26
  -2  -4 -12    5.27    0.29
   2   4  12    4.75    0.28
   2   4  12    4.59    0.35
   3   4  12    0.47    0.31
  -4  -4 -12    7.78    0.36
   4   4  12    7.97    0.47
   3  -5 -12   16.75    0.67
  -3   5  12   15.17    0.67
  -3   5  12   17.53    0.63
   2  -5 -12   16.36    0.61
  -2   5  12   14.77    0.58
  -2   5  12   14.22    0.65
   1  -5 -12    0.00    0.11
   1  -5 -12    0.13    0.13
  -1   5  12   -0.16    0.12
  -1   5  12   -0.22    0.11
  -1   5  12   -0.07    0.13
  -1   5  12   -0.12    0.15
   0  -5 -12    9.36    0.43
   0  -5 -12   10.26    0.43
   0   5  12   10.97    0.44
   0   5  12   11.06    0.45
   0   5  12   10.15    0.42
   0   5  12   10.37    0.40
  -1  -5 -12    6.63    0.32
  -1  -5 -12    6.89    0.31
   1   5  12    6.15    0.35
   1   5  12    7.19    0.27
   1   5  12    6.80    0.32
  -2  -5 -12   12.48    0.48
  -2  -5 -12   11.76    0.49
   2   5  12   11.65    0.48
   2   5  12   11.19    0.49
   2   5  12   11.66    0.53
  -3  -5 -12    6.45    0.36
   3   5  12    5.90    0.41
  -4  -5 -12   -0.09    0.18
  -4  -5 -12   -0.14    0.12
   4   5  12    0.02    0.23
   3  -6 -12   28.71    1.02
  -3   6  12   24.87    1.01
   2  -6 -12    4.59    0.33
  -2   6  12    4.85    0.27
  -2   6  12    3.40    0.36
  -2   6  12    3.99    0.27
   1  -6 -12    4.23    0.28
   1  -6 -12    4.25    0.26
  -1   6  12    4.37    0.26
  -1   6  12    3.67    0.25
  -1   6  12    3.70    0.27
   0  -6 -12    4.17    0.26
   0  -6 -12    3.86    0.24
   0   6  12    4.64    0.29
   0   6  12    3.93    0.26
   0   6  12    3.81    0.22
  -1  -6 -12    0.01    0.13
  -1  -6 -12   -0.01    0.11
   1   6  12    0.04    0.09
   1   6  12   -0.22    0.13
   1   6  12   -0.02    0.16
  -2  -6 -12    6.40    0.32
  -2  -6 -12    5.97    0.31
   2   6  12    5.48    0.33
   2   6  12    5.70    0.37
  -3  -6 -12   14.77    0.69
  -3  -6 -12   15.46    0.62
   3   6  12   15.94    0.66
  -4  -6 -12    0.12    0.18
  -4  -6 -12    0.07    0.13
   4   6  12   -0.07    0.23
   3  -7 -12   -0.02    0.22
  -3   7  12   -0.01    0.17
  -3   7  12    0.14    0.13
   2  -7 -12    1.26    0.21
  -2   7  12    1.70    0.24
  -2   7  12    1.25    0.16
   1  -7 -12    2.73    0.25
   1  -7 -12    3.42    0.28
  -1   7  12    2.48    0.25
  -1   7  12    2.35    0.23
   0  -7 -12    2.55    0.22
   0  -7 -12    2.54    0.24
   0   7  12    2.30    0.20
   0   7  12    2.59    0.24
  -1  -7 -12    3.18    0.24
  -1  -7 -12    3.55    0.27
   1   7  12    3.30    0.26
   1   7  12    3.58    0.20
   1   7  12    3.48    0.29
  -2  -7 -12    3.89    0.26
  -2  -7 -12    3.95    0.28
   2   7  12    3.81    0.34
   2   7  12    3.91    0.29
  -3  -7 -12    0.16    0.14
  -3  -7 -12    0.42    0.17
   3   7  12    0.08    0.21
  -4  -7 -12    0.97    0.21
  -4  -7 -12    0.94    0.16
   4   7  12    1.22    0.25
   2  -8 -12    1.95    0.31
  -2   8  12    2.07    0.23
  -2   8  12    1.68    0.24
   1  -8 -12    2.58    0.30
   0  -8 -12    1.00    0.14
   0  -8 -12    1.12    0.18
   0   8  12    0.99    0.14
   0   8  12    0.97    0.16
  -1  -8 -12   27.69    1.04
  -1  -8 -12   28.20    1.02
   1   8  12   27.56    1.03
   1   8  12   27.77    1.00
   1   8  12   28.43    1.02
  -2  -8 -12   -0.08    0.14
  -2  -8 -12    0.06    0.16
   2   8  12    0.20    0.20
   2   8  12   -0.06    0.10
   2   8  12   -0.01    0.15
  -3  -8 -12    0.39    0.18
  -3  -8 -12    0.21    0.14
   3   8  12    0.22    0.22
  -4  -8 -12    1.14    0.23
  -4  -8 -12    1.38    0.22
   2  -9 -12    0.47    0.22
  -2   9  12    0.66    0.15
  -2   9  12    0.60    0.17
   1  -9 -12    0.45    0.20
  -1   9  12    0.64    0.15
  -1   9  12    0.31    0.15
   0  -9 -12    2.19    0.25
   0   9  12    2.52    0.27
   0   9  12    2.61    0.22
  -1  -9 -12    3.28    0.28
  -1  -9 -12    3.73    0.28
   1   9  12    3.31    0.28
   1   9  12    4.00    0.30
   1   9  12    3.37    0.23
  -2  -9 -12    0.94    0.16
  -2  -9 -12    0.87    0.17
   2   9  12    0.89    0.13
   2   9  12    0.67    0.18
   2   9  12    0.98    0.21
  -3  -9 -12    0.29    0.16
  -3  -9 -12   -0.15    0.18
   3   9  12    0.37    0.23
   2 -10 -12   -0.15    0.22
  -2  10  12    0.24    0.16
   1 -10 -12   -0.05    0.20
  -1  10  12   -0.31    0.15
  -1  10  12    0.05    0.15
   0 -10 -12    8.28    0.42
   0 -10 -12    8.76    0.44
   0  10  12    9.36    0.44
   0  10  12    8.67    0.39
  -1 -10 -12    0.84    0.17
  -1 -10 -12    0.81    0.18
   1  10  12    0.71    0.18
   1  10  12    0.98    0.15
  -2 -10 -12    2.10    0.28
  -2 -10 -12    2.00    0.28
   2  10  12    1.82    0.21
   2  10  12    2.32    0.22
  -3 -10 -12    1.47    0.19
  -3 -10 -12    1.22    0.21
   3  10  12    1.33    0.15
   1 -11 -12    0.18    0.22
  -1  11  12   -0.03    0.16
  -1  11  12   -0.06    0.16
   0 -11 -12    3.24    0.33
   0  11  12    3.24    0.26
   0  11  12    3.35    0.28
  -1 -11 -12    5.02    0.36
  -1 -11 -12    5.84    0.35
   1  11  12    5.27    0.33
   1  11  12    5.29    0.35
  -2 -11 -12    0.37    0.18
  -2 -11 -12    0.31    0.20
   2  11  12    0.33    0.21
   2  11  12    0.22    0.15
  -3 -11 -12    0.03    0.17
  -3 -11 -12   -0.07    0.21
   3  11  12   -0.21    0.14
   3  11  12    0.69    0.27
   0 -12 -12    0.66    0.24
   0  12  12    0.43    0.18
   0  12  12    0.79    0.17
  -1 -12 -12    0.71    0.21
  -1 -12 -12    0.85    0.19
   1  12  12    0.57    0.17
   1  12  12    0.45    0.24
  -2 -12 -12    0.88    0.22
  -2 -12 -12    1.15    0.19
   2  12  12    0.71    0.23
   2  12  12    0.55    0.16
   1   8 -13    5.89    0.34
   1   8 -13    5.38    0.38
  -1  -8  13    5.90    0.38
  -1  -8  13    5.39    0.41
   0   8 -13    0.26    0.15
   0  -8  13    0.09    0.19
   0  -8  13   -0.10    0.19
  -1   8 -13    4.07    0.34
  -1   8 -13    4.61    0.30
   1  -8  13    4.13    0.36
   2   7 -13    0.65    0.15
  -2  -7  13    0.83    0.21
  -2  -7  13    0.71    0.18
   1   7 -13    6.24    0.34
   1   7 -13    6.31    0.38
  -1  -7  13    6.31    0.38
  -1  -7  13    6.14    0.41
   0   7 -13    2.61    0.29
   0   7 -13    2.65    0.24
   0  -7  13    2.77    0.33
   0  -7  13    2.63    0.30
  -1   7 -13    0.35    0.18
  -1   7 -13    0.51    0.14
  -1   7 -13    0.32    0.15
   1  -7  13    0.31    0.19
  -2   7 -13    1.57    0.21
  -2   7 -13    1.31    0.18
   2  -7  13    0.93    0.22
  -3  -6  13   11.08    0.56
  -3  -6  13   11.46    0.50
   2   6 -13   -0.01    0.15
  -2  -6  13   -0.07    0.16
  -2  -6  13   -0.04    0.19
   1   6 -13    0.06    0.16
   1   6 -13    0.13    0.14
  -1  -6  13    0.08    0.18
  -1  -6  13   -0.07    0.16
   0   6 -13   17.61    0.70
   0  -6  13   17.88    0.73
   0  -6  13   17.46    0.70
  -1   6 -13    0.53    0.17
  -1   6 -13    0.56    0.13
   1  -6  13    0.89    0.20
  -2   6 -13    0.15    0.13
  -2   6 -13    0.62    0.18
  -2   6 -13    0.22    0.14
   2  -6  13    0.40    0.20
   3   5 -13    0.81    0.18
  -3  -5  13    0.66    0.18
  -3  -5  13    0.64    0.22
   2   5 -13   12.32    0.51
  -2  -5  13   12.37    0.51
  -2  -5  13   11.59    0.56
   1   5 -13    4.38    0.32
  -1  -5  13    4.36    0.31
  -1  -5  13    4.70    0.36
   0   5 -13    2.21    0.25
   0   5 -13    1.44    0.21
   0  -5  13    1.38    0.17
  -1   5 -13    0.22    0.15
  -1   5 -13    0.15    0.15
  -1   5 -13    0.11    0.11
   1  -5  13    0.18    0.15
  -2   5 -13    0.39    0.15
  -2   5 -13    0.10    0.11
  -2   5 -13   -0.02    0.13
   2  -5  13   -0.14    0.19
  -3   5 -13    0.88    0.16
  -3   5 -13    0.86    0.14
   3  -5  13    0.76    0.23
   3   4 -13    0.27    0.16
  -3  -4  13    0.24    0.22
  -3  -4  13    0.54    0.16
  -2  -4  13   27.70    1.06
   1   4 -13    8.21    0.37
   1   4 -13    8.38    0.39
  -1  -4  13    8.28    0.39
   0   4 -13    0.53    0.14
   0   4 -13    0.49    0.12
   0  -4  13    0.59    0.21
   0  -4  13    0.34    0.15
  -1   4 -13    0.20    0.14
  -1   4 -13    0.44    0.13
  -1   4 -13    0.33    0.11
   1  -4  13    0.51    0.20
   1  -4  13    0.21    0.14
  -2   4 -13    0.43    0.10
  -2   4 -13    0.64    0.16
  -2   4 -13    0.66    0.13
   2  -4  13    0.50    0.31
  -3   4 -13    8.12    0.37
  -3   4 -13    8.72    0.43
   3  -4  13    7.72    0.47
   3   3 -13    1.96    0.27
  -3  -3  13    2.00    0.34
  -3  -3  13    2.46    0.25
   2   3 -13    2.61    0.24
  -2  -3  13    3.09    0.32
  -2  -3  13    2.58    0.31
   1   3 -13    0.20    0.12
   1   3 -13    0.49    0.14
  -1  -3  13    0.17    0.14
  -1  -3  13    0.38    0.18
   0   3 -13    2.76    0.20
   0   3 -13    2.44    0.24
   0  -3  13    2.64    0.24
   0  -3  13    3.02    0.32
  -1   3 -13    4.29    0.27
  -1   3 -13    4.11    0.27
  -1   3 -13    4.59    0.23
   1  -3  13    4.30    0.35
   1  -3  13    4.21    0.29
  -2   3 -13    1.55    0.15
   2  -3  13    1.56    0.36
  -3   3 -13    1.28    0.19
  -3   3 -13    1.80    0.20
   3  -3  13    1.20    0.23
   3   2 -13    9.63    0.43
  -3  -2  13    9.22    0.41
  -3  -2  13    8.74    0.49
  -2  -2  13   11.21    0.47
   1   2 -13   27.85    1.01
   1   2 -13   28.62    1.11
  -1  -2  13   27.76    1.02
  -1  -2  13   27.63    1.05
   0   2 -13    2.26    0.22
   0   2 -13    2.09    0.17
   0  -2  13    1.94    0.22
   0  -2  13    2.34    0.30
  -1   2 -13    3.82    0.20
  -1   2 -13    4.02    0.25
  -1   2 -13    3.83    0.25
   1  -2  13    3.21    0.31
   1  -2  13    3.93    0.34
  -2   2 -13    0.57    0.12
  -2   2 -13    0.70    0.16
   2  -2  13    0.61    0.21
  -3   2 -13    0.33    0.11
  -3   2 -13    0.51    0.17
   3  -2  13    0.46    0.22
   3   1 -13    0.46    0.15
  -3  -1  13    0.43    0.13
  -3  -1  13    0.09    0.21
   2   1 -13    0.15    0.13
  -2  -1  13    0.09    0.14
  -2  -1  13    0.32    0.19
   1   1 -13   54.54    1.90
   1   1 -13   53.66    1.90
  -1  -1  13   53.47    1.90
  -1  -1  13   53.74    1.93
   0   1 -13    0.50    0.12
   0   1 -13    0.37    0.09
   0  -1  13    0.48    0.17
   0  -1  13    0.44    0.12
  -1   1 -13    6.93    0.33
  -1   1 -13    6.94    0.32
  -1   1 -13    7.00    0.28
   1  -1  13    6.61    0.37
   1  -1  13    7.01    0.39
  -2   1 -13    1.28    0.16
  -2   1 -13    1.39    0.19
   2  -1  13    1.07    0.14
   2  -1  13    1.26    0.22
  -3   1 -13    8.35    0.36
  -3   1 -13    8.20    0.42
   3  -1  13    8.37    0.47
  -4   1 -13    0.32    0.22
  -4   1 -13    0.43    0.18
   4  -1  13    0.79    0.26
   3   0 -13   -0.01    0.14
  -3   0  13   -0.38    0.20
  -3   0  13   -0.13    0.13
   2   0 -13    2.23    0.22
  -2   0  13    2.61    0.31
  -2   0  13    2.79    0.23
   1   0 -13    0.05    0.12
   1   0 -13    0.08    0.10
  -1   0  13    0.38    0.18
  -1   0  13   -0.12    0.12
   0   0 -13   23.02    0.82
   0   0 -13   23.14    0.84
   0   0  13   22.46    0.87
   0   0  13   22.87    0.84
  -1   0 -13    0.42    0.12
  -1   0 -13    0.41    0.11
   1   0  13    0.30    0.13
   1   0  13    0.59    0.18
  -2   0 -13   -0.06    0.12
  -2   0 -13   -0.05    0.11
  -2   0 -13   -0.07    0.11
   2   0  13   -0.04    0.12
   2   0  13   -0.15    0.19
  -3   0 -13    0.32    0.14
  -3   0 -13    0.42    0.11
   3   0  13    0.40    0.22
  -4   0 -13    0.08    0.10
  -4   0 -13    0.00    0.18
   4   0  13    0.12    0.25
   3  -1 -13   13.26    0.52
  -3   1  13   12.81    0.58
  -3   1  13   13.30    0.50
  -3   1  13   10.99    0.51
  -2   1  13    2.22    0.29
  -2   1  13    1.83    0.22
  -2   1  13    1.48    0.20
   1  -1 -13   13.22    0.51
   1  -1 -13   13.05    0.52
  -1   1  13   13.83    0.57
  -1   1  13   13.62    0.53
   0  -1 -13   26.17    0.95
   0  -1 -13   25.71    0.94
   0  -1 -13   26.20    0.93
   0   1  13   26.20    0.98
   0   1  13   26.96    0.95
  -1  -1 -13    6.06    0.29
  -1  -1 -13    5.83    0.29
   1   1  13    5.97    0.35
   1   1  13    5.64    0.29
  -2  -1 -13   15.39    0.61
  -2  -1 -13   16.83    0.61
  -2  -1 -13   16.21    0.62
   2   1  13   16.32    0.67
   2   1  13   15.13    0.61
  -3  -1 -13    0.31    0.16
  -3  -1 -13    0.35    0.11
   3   1  13    0.15    0.22
  -4  -1 -13    6.55    0.39
   4   1  13    6.46    0.47
  -3   2  13    3.10    0.23
  -3   2  13    2.29    0.23
  -3   2  13    2.61    0.26
  -3   2  13    3.83    0.49
  -2   2  13    1.07    0.19
  -2   2  13    0.92    0.16
  -2   2  13    0.72    0.14
  -2   2  13    0.55    0.12
   1  -2 -13   45.40    1.59
  -1   2  13   43.54    1.59
  -1   2  13   44.31    1.61
  -1   2  13   46.11    1.59
   0  -2 -13   25.72    0.93
   0  -2 -13   26.26    0.93
   0   2  13   26.10    0.93
   0   2  13   24.51    0.95
  -1  -2 -13    2.01    0.20
  -1  -2 -13    1.85    0.20
   1   2  13    2.21    0.20
   1   2  13    1.82    0.28
  -2  -2 -13    4.39    0.27
  -2  -2 -13    5.54    0.28
  -2  -2 -13    5.55    0.29
   2   2  13    4.97    0.37
   2   2  13    5.38    0.28
  -3  -2 -13    1.38    0.15
  -3  -2 -13    1.60    0.24
   3   2  13    1.49    0.23
  -4  -2 -13    0.45    0.17
  -4  -2 -13    0.39    0.11
   4   2  13    0.50    0.25
  -3   3  13    9.02    0.41
  -3   3  13    9.44    0.40
  -3   3  13    8.81    0.44
  -3   3  13   10.77    0.46
  -2   3  13   28.03    1.12
  -2   3  13   33.67    1.16
  -2   3  13   29.79    1.14
  -2   3  13   33.39    1.15
   1  -3 -13    0.17    0.11
  -1   3  13   -0.08    0.12
  -1   3  13   -0.13    0.11
  -1   3  13    0.07    0.17
  -1   3  13    0.00    0.13
   0  -3 -13    1.25    0.18
   0  -3 -13    1.08    0.13
   0   3  13    1.14    0.16
   0   3  13    1.15    0.13
   0   3  13    1.09    0.18
  -1  -3 -13    6.01    0.30
  -1  -3 -13    5.92    0.28
   1   3  13    5.82    0.29
   1   3  13    5.49    0.35
  -2  -3 -13    0.10    0.12
  -2  -3 -13    0.12    0.14
   2   3  13   -0.01    0.12
   2   3  13   -0.08    0.19
  -3  -3 -13    4.57    0.31
   3   3  13    4.65    0.38
  -4  -3 -13    3.78    0.25
  -4  -3 -13    4.05    0.34
   4   3  13    4.52    0.41
  -3   4  13    0.39    0.18
  -3   4  13   -0.20    0.13
  -3   4  13   -0.10    0.15
  -3   4  13   -0.14    0.13
  -2   4  13   17.85    0.65
  -2   4  13   15.47    0.66
  -2   4  13   15.19    0.62
   1  -4 -13   25.32    0.90
   1  -4 -13   25.73    0.91
  -1   4  13   25.53    0.93
  -1   4  13   23.50    0.91
  -1   4  13   26.46    0.91
  -1   4  13   22.59    0.90
   0  -4 -13   10.22    0.42
   0  -4 -13    9.56    0.41
   0   4  13   10.33    0.40
   0   4  13   10.15    0.45
   0   4  13   10.16    0.42
  -1  -4 -13    0.57    0.13
  -1  -4 -13    0.43    0.12
   1   4  13    0.23    0.17
   1   4  13    0.49    0.13
  -2  -4 -13    0.24    0.14
  -2  -4 -13    0.18    0.12
   2   4  13   -0.20    0.19
   2   4  13    0.33    0.13
  -3  -4 -13    0.60    0.16
  -3  -4 -13    0.71    0.14
   3   4  13    0.65    0.21
  -4  -4 -13    5.27    0.30
   4   4  13    5.60    0.44
   3  -5 -13    3.90    0.36
  -3   5  13    4.25    0.32
   2  -5 -13    9.39    0.43
  -2   5  13    8.43    0.42
  -2   5  13    9.40    0.39
   1  -5 -13    1.83    0.20
   1  -5 -13    2.04    0.23
  -1   5  13    1.20    0.20
  -1   5  13    1.81    0.26
  -1   5  13    1.35    0.20
  -1   5  13    1.79    0.23
   0  -5 -13    0.23    0.11
   0  -5 -13    0.08    0.13
   0   5  13    0.25    0.17
   0   5  13    0.08    0.14
   0   5  13    0.10    0.10
  -1  -5 -13    2.06    0.22
  -1  -5 -13    1.69    0.20
   1   5  13    2.01    0.14
   1   5  13    1.83    0.24
   1   5  13    1.54    0.20
  -2  -5 -13    3.99    0.27
  -2  -5 -13    3.85    0.25
   2   5  13    3.27    0.27
   2   5  13    3.34    0.34
  -3  -5 -13    5.57    0.34
  -3  -5 -13    5.94    0.31
   3   5  13    5.86    0.41
  -4  -5 -13   -0.23    0.18
  -4  -5 -13   -0.12    0.13
   4   5  13    0.09    0.23
   3  -6 -13    5.41    0.38
  -3   6  13    6.42    0.30
  -3   6  13    5.40    0.37
   2  -6 -13    6.16    0.37
  -2   6  13    5.47    0.32
  -2   6  13    6.28    0.32
   1  -6 -13    0.11    0.12
   1  -6 -13    0.04    0.15
  -1   6  13    0.06    0.12
  -1   6  13    0.29    0.15
   0  -6 -13    5.32    0.29
   0  -6 -13    5.13    0.30
   0   6  13    5.33    0.34
   0   6  13    5.48    0.30
   0   6  13    5.14    0.26
  -1  -6 -13    3.40    0.24
  -1  -6 -13    3.34    0.26
   1   6  13    3.37    0.26
   1   6  13    3.53    0.19
   1   6  13    3.15    0.30
  -2  -6 -13    3.60    0.26
  -2  -6 -13    3.58    0.27
   2   6  13    3.41    0.37
   2   6  13    3.09    0.34
  -3  -6 -13    2.27    0.24
  -3  -6 -13    2.42    0.27
   3   6  13    2.51    0.34
  -4  -6 -13    0.24    0.19
  -4  -6 -13    0.16    0.15
   4   6  13    0.23    0.24
   3  -7 -13   -0.20    0.22
  -3   7  13   -0.03    0.19
  -3   7  13   -0.03    0.14
   2  -7 -13   -0.33    0.19
  -2   7  13    0.03    0.14
  -2   7  13    0.00    0.15
   1  -7 -13    0.32    0.17
  -1   7  13    0.25    0.14
  -1   7  13    0.23    0.15
   0  -7 -13    0.18    0.14
   0  -7 -13    0.38    0.13
   0   7  13    0.15    0.12
   0   7  13    0.21    0.15
   0   7  13    0.15    0.17
  -1  -7 -13    2.50    0.26
  -1  -7 -13    2.65    0.23
   1   7  13    2.27    0.25
   1   7  13    2.41    0.18
   1   7  13    2.64    0.29
  -2  -7 -13    9.32    0.51
  -2  -7 -13   10.27    0.44
   2   7  13   10.65    0.50
   2   7  13   10.26    0.46
  -3  -7 -13    7.81    0.37
  -3  -7 -13    7.79    0.40
   3   7  13    7.09    0.46
  -4  -7 -13    1.26    0.22
  -4  -7 -13    1.39    0.17
   4   7  13    2.29    0.38
   2  -8 -13    0.44    0.21
  -2   8  13    0.62    0.18
  -2   8  13    0.69    0.17
   1  -8 -13    0.16    0.17
  -1   8  13    0.14    0.14
  -1   8  13    0.27    0.15
   0  -8 -13    8.18    0.38
   0   8  13    8.28    0.39
   0   8  13    7.44    0.36
  -1  -8 -13    5.95    0.47
  -1  -8 -13    6.62    0.33
   1   8  13    6.37    0.29
   1   8  13    6.72    0.37
   1   8  13    6.51    0.35
  -2  -8 -13    0.12    0.17
  -2  -8 -13    0.29    0.15
   2   8  13    0.27    0.21
   2   8  13    0.04    0.10
   2   8  13    0.41    0.17
  -3  -8 -13    0.00    0.17
  -3  -8 -13   -0.01    0.14
   3   8  13    0.25    0.22
  -4  -8 -13    0.50    0.17
  -4  -8 -13    0.70    0.22
   4   8  13    0.74    0.29
   2  -9 -13    6.57    0.43
  -2   9  13    6.10    0.37
  -2   9  13    7.73    0.36
   1  -9 -13    0.04    0.18
  -1   9  13    0.03    0.15
  -1   9  13    0.04    0.15
   0  -9 -13    0.50    0.15
   0  -9 -13    0.54    0.17
   0   9  13    0.35    0.17
   0   9  13    0.55    0.15
  -1  -9 -13    1.16    0.16
  -1  -9 -13    0.88    0.18
   1   9  13    1.12    0.14
   1   9  13    1.56    0.28
   1   9  13    1.39    0.18
  -2  -9 -13    2.99    0.28
  -2  -9 -13    2.91    0.29
   2   9  13    2.65    0.30
   2   9  13    2.48    0.20
  -3  -9 -13    4.04    0.34
  -3  -9 -13    4.68    0.32
   3   9  13    5.72    0.42
   1 -10 -13    0.22    0.20
  -1  10  13    0.44    0.16
  -1  10  13   -0.12    0.16
   0 -10 -13   -0.11    0.21
   0 -10 -13    0.15    0.19
   0  10  13    0.23    0.14
  -1 -10 -13    0.38    0.16
  -1 -10 -13    0.51    0.18
   1  10  13    0.75    0.18
   1  10  13    0.46    0.14
  -2 -10 -13    0.55    0.18
  -2 -10 -13    0.82    0.17
   2  10  13    0.96    0.20
   2  10  13    0.62    0.13
   2  10  13    1.18    0.23
  -3 -10 -13    0.63    0.21
  -3 -10 -13    1.18    0.19
   3  10  13    0.76    0.19
   1 -11 -13    0.11    0.22
  -1  11  13    0.15    0.18
  -1  11  13    0.17    0.17
   0 -11 -13    0.04    0.20
   0  11  13    0.00    0.17
   0  11  13   -0.07    0.14
  -1 -11 -13    0.02    0.18
  -1 -11 -13    0.11    0.18
   1  11  13   -0.21    0.19
   1  11  13   -0.01    0.14
  -2 -11 -13    0.59    0.20
   2  11  13    0.08    0.21
   2  11  13    0.53    0.15
   0 -12 -13    1.22    0.24
   0  12  13    1.63    0.21
  -1 -12 -13    0.22    0.20
  -1 -12 -13    0.01    0.19
   1  12  13    0.30    0.16
   1   8 -14    1.28    0.22
  -1  -8  14    0.83    0.23
   0   8 -14    0.50    0.16
   0   8 -14    0.13    0.17
   0  -8  14    0.18    0.21
   0  -8  14    0.22    0.21
   2   7 -14    0.22    0.15
  -2  -7  14    0.07    0.21
  -2  -7  14   -0.03    0.18
   1   7 -14   19.47    0.77
   1   7 -14   19.05    0.75
  -1  -7  14   18.81    0.81
  -1  -7  14   20.25    0.78
   0   7 -14    2.69    0.26
   0   7 -14    3.40    0.31
   0  -7  14    3.12    0.32
   0  -7  14    3.44    0.36
  -1   7 -14    1.41    0.20
  -1   7 -14    1.53    0.17
  -1   7 -14    1.51    0.18
   1  -7  14    1.25    0.22
   2   6 -14    0.48    0.16
  -2  -6  14    0.22    0.21
  -2  -6  14    0.35    0.17
   1   6 -14   15.18    0.61
   1   6 -14   15.78    0.63
  -1  -6  14   14.50    0.66
  -1  -6  14   15.92    0.63
   0   6 -14    6.78    0.39
   0   6 -14    6.53    0.33
   0  -6  14    6.73    0.37
   0  -6  14    6.02    0.42
  -1   6 -14    2.14    0.22
  -1   6 -14    2.12    0.26
   1  -6  14    2.48    0.35
  -2   6 -14    3.74    0.27
  -2   6 -14    3.65    0.28
  -2   6 -14    4.59    0.33
   2  -6  14    4.00    0.38
  -3  -5  14    6.41    0.54
  -3  -5  14    6.56    0.38
  -2  -5  14    7.38    0.44
  -2  -5  14    7.65    0.39
   1   5 -14    0.38    0.17
   1   5 -14    0.12    0.13
  -1  -5  14    0.37    0.17
  -1  -5  14    0.18    0.19
   0   5 -14    1.76    0.22
   0  -5  14    1.84    0.26
   0  -5  14    1.42    0.22
  -1   5 -14    0.03    0.12
  -1   5 -14    0.24    0.17
  -1   5 -14    0.27    0.15
   1  -5  14    0.16    0.17
   1  -5  14   -0.07    0.20
  -2   5 -14    1.01    0.13
  -2   5 -14    1.24    0.16
   2  -5  14    1.10    0.22
   3   4 -14    3.71    0.30
  -3  -4  14    4.36    0.31
  -3  -4  14    3.23    0.39
   2   4 -14    9.24    0.41
  -2  -4  14    8.95    0.48
  -2  -4  14    8.96    0.43
   1   4 -14    7.17    0.38
   1   4 -14    7.61    0.38
  -1  -4  14    7.07    0.38
  -1  -4  14    7.33    0.42
   0   4 -14    4.12    0.26
   0   4 -14    4.29    0.29
   0  -4  14    4.18    0.30
  -1   4 -14    0.27    0.11
  -1   4 -14    0.14    0.14
  -1   4 -14    0.19    0.15
   1  -4  14    0.23    0.25
   1  -4  14    0.18    0.15
  -2   4 -14    0.13    0.15
  -2   4 -14    0.19    0.13
  -2   4 -14   -0.11    0.10
   2  -4  14    0.16    0.22
  -3   4 -14    1.10    0.15
   3  -4  14    1.08    0.24
   3   3 -14    0.99    0.19
  -3  -3  14    1.03    0.24
  -3  -3  14    1.29    0.17
   2   3 -14    7.14    0.35
  -2  -3  14    7.27    0.37
  -2  -3  14    6.63    0.42
   1   3 -14   -0.01    0.13
   1   3 -14    0.06    0.15
  -1  -3  14   -0.36    0.15
  -1  -3  14   -0.02    0.30
   0   3 -14    2.51    0.21
   0   3 -14    2.52    0.25
   0  -3  14    2.51    0.25
   0  -3  14    2.58    0.33
  -1   3 -14    7.09    0.35
  -1   3 -14    6.88    0.35
  -1   3 -14    7.22    0.31
   1  -3  14    6.80    0.46
   1  -3  14    6.99    0.36
  -2   3 -14   -0.05    0.14
  -2   3 -14   -0.24    0.12
   2  -3  14   -0.17    0.21
  -3   3 -14   -0.03    0.12
  -3   3 -14    0.25    0.18
   3  -3  14    0.27    0.22
   3   2 -14    0.92    0.17
  -3  -2  14    0.57    0.23
  -3  -2  14    1.02    0.16
   2   2 -14   15.18    0.59
  -2  -2  14   15.00    0.65
   1   2 -14    0.83    0.16
   1   2 -14    0.86    0.13
  -1  -2  14    0.99    0.16
  -1  -2  14    0.86    0.21
   0   2 -14    0.23    0.10
   0   2 -14    0.01    0.14
   0  -2  14    0.01    0.14
   0  -2  14    0.26    0.18
  -1   2 -14    5.00    0.29
  -1   2 -14    5.23    0.25
  -1   2 -14    5.09    0.30
   1  -2  14    5.78    0.38
   1  -2  14    5.13    0.30
   2  -2  14   10.54    0.55
  -3   2 -14    0.56    0.17
  -3   2 -14    0.63    0.13
   3  -2  14    0.94    0.24
   3   1 -14   -0.15    0.15
  -3  -1  14   -0.25    0.22
  -3  -1  14   -0.01    0.14
   2   1 -14   15.98    0.69
  -2  -1  14   16.84    0.71
   1   1 -14    0.33    0.16
   1   1 -14    0.17    0.12
  -1  -1  14    0.35    0.19
  -1  -1  14    0.20    0.14
   0   1 -14    9.44    0.37
   0   1 -14    8.88    0.40
   0  -1  14    9.36    0.46
   0  -1  14    8.96    0.41
  -1   1 -14    0.05    0.13
  -1   1 -14    0.05    0.13
  -1   1 -14    0.23    0.08
   1  -1  14    0.16    0.13
   1  -1  14    0.07    0.20
  -2   1 -14   -0.11    0.14
  -2   1 -14   -0.08    0.12
   2  -1  14    0.19    0.22
  -3   1 -14    5.55    0.29
  -3   1 -14    5.50    0.35
   3  -1  14    6.03    0.43
   3   0 -14    2.53    0.25
  -3   0  14    2.23    0.23
  -3   0  14    1.98    0.26
  -2   0  14    1.54    0.28
   1   0 -14   67.30    2.40
   1   0 -14   68.50    2.39
  -1   0  14   70.04    2.40
  -1   0  14   67.16    2.42
   0   0 -14   58.95    2.08
   0   0 -14   59.07    2.06
   0   0  14   59.22    2.08
   0   0  14   58.86    2.10
  -1   0 -14    0.60    0.13
  -1   0 -14    0.69    0.13
   1   0  14    0.64    0.14
   1   0  14    0.64    0.19
  -2   0 -14    0.71    0.13
  -2   0 -14    0.28    0.13
   2   0  14    0.46    0.14
   2   0  14    0.43    0.23
  -3   0 -14    8.20    0.37
  -3   0 -14    8.45    0.41
   3   0  14    8.33    0.49
  -4   0 -14    0.27    0.19
  -4   0 -14    0.21    0.11
   4   0  14    0.44    0.28
   3  -1 -14    5.32    0.32
  -3   1  14    5.50    0.30
  -3   1  14    4.82    0.39
  -2   1  14   14.41    0.62
   1  -1 -14   35.90    1.30
   1  -1 -14   35.33    1.30
  -1   1  14   36.34    1.33
  -1   1  14   38.22    1.31
   0  -1 -14    9.70    0.38
   0  -1 -14    9.26    0.40
   0  -1 -14    9.52    0.40
   0   1  14    9.58    0.41
   0   1  14    9.91    0.47
  -1  -1 -14    0.61    0.13
  -1  -1 -14    0.57    0.13
   1   1  14    0.48    0.13
   1   1  14    0.71    0.20
  -2  -1 -14    3.37    0.26
  -2  -1 -14    3.31    0.23
   2   1  14    3.44    0.34
   2   1  14    3.07    0.26
  -3  -1 -14    0.86    0.13
  -3  -1 -14    0.66    0.17
   3   1  14    0.70    0.23
  -4  -1 -14    0.45    0.20
  -4  -1 -14    0.07    0.11
   4   1  14    0.43    0.37
  -3   2  14   -0.27    0.21
  -3   2  14   -0.19    0.17
  -3   2  14    0.15    0.13
  -2   2  14    1.65    0.22
   1  -2 -14   34.55    1.22
  -1   2  14   35.41    1.22
  -1   2  14   31.53    1.22
  -1   2  14   34.71    1.25
   0  -2 -14   15.53    0.59
   0  -2 -14   15.25    0.57
   0  -2 -14   15.12    0.59
   0   2  14   15.30    0.60
   0   2  14   15.89    0.63
  -1  -2 -14   31.67    1.13
  -1  -2 -14   30.68    1.13
   1   2  14   31.85    1.17
   1   2  14   31.85    1.14
  -2  -2 -14    0.16    0.14
  -2  -2 -14    0.07    0.13
   2   2  14    0.06    0.14
   2   2  14   -0.31    0.20
  -3  -2 -14    0.32    0.12
  -3  -2 -14    0.13    0.15
   3   2  14   -0.01    0.22
  -4  -2 -14    0.34    0.12
  -4  -2 -14    0.52    0.18
   4   2  14    0.25    0.26
  -3   3  14    1.52    0.19
  -3   3  14    1.13    0.15
  -2   3  14   10.42    0.49
  -2   3  14   10.28    0.44
   1  -3 -14   20.35    0.77
  -1   3  14   20.73    0.77
  -1   3  14   18.75    0.77
  -1   3  14   22.80    0.80
   0  -3 -14    7.52    0.35
   0  -3 -14    7.59    0.35
   0   3  14    7.58    0.35
   0   3  14    7.78    0.41
   0   3  14    7.92    0.33
  -1  -3 -14    0.23    0.13
  -1  -3 -14    0.21    0.13
   1   3  14    0.28    0.12
   1   3  14    0.11    0.19
  -2  -3 -14   -0.21    0.14
  -2  -3 -14   -0.04    0.14
   2   3  14   -0.21    0.20
   2   3  14   -0.05    0.13
  -3  -3 -14    7.79    0.41
  -3  -3 -14    8.93    0.38
   3   3  14    8.62    0.47
  -4  -3 -14    0.78    0.13
  -4  -3 -14    0.71    0.20
   4   3  14    0.70    0.26
  -3   4  14    0.95    0.15
  -3   4  14    1.00    0.18
  -3   4  14    1.66    0.29
  -2   4  14    4.29    0.33
  -2   4  14    4.64    0.27
  -2   4  14    3.97    0.28
   1  -4 -14   34.17    1.20
   1  -4 -14   34.25    1.20
  -1   4  14   31.62    1.20
  -1   4  14   33.66    1.20
  -1   4  14   32.93    1.22
   0  -4 -14    2.51    0.22
   0  -4 -14    2.41    0.23
   0   4  14    2.47    0.30
   0   4  14    2.70    0.19
   0   4  14    2.28    0.23
  -1  -4 -14    0.05    0.13
  -1  -4 -14    0.10    0.13
   1   4  14   -0.03    0.19
   1   4  14    0.09    0.12
  -2  -4 -14    3.93    0.26
  -2  -4 -14    3.75    0.27
   2   4  14    3.23    0.27
   2   4  14    3.19    0.35
  -3  -4 -14    0.29    0.16
  -3  -4 -14    0.20    0.14
   3   4  14    0.20    0.23
  -4  -4 -14    2.03    0.31
  -4  -4 -14    2.68    0.24
   4   4  14    2.90    0.42
  -3   5  14    4.58    0.32
  -3   5  14    3.92    0.32
  -3   5  14    4.01    0.27
  -2   5  14   -0.11    0.18
  -2   5  14    0.04    0.13
  -2   5  14   -0.04    0.16
   1  -5 -14    0.53    0.14
   1  -5 -14    0.49    0.15
  -1   5  14    0.37    0.14
  -1   5  14    0.27    0.14
  -1   5  14    0.36    0.18
   0  -5 -14    1.12    0.16
   0  -5 -14    1.56    0.20
   0   5  14    1.33    0.17
   0   5  14    1.13    0.13
   0   5  14    1.25    0.20
  -1  -5 -14    0.07    0.14
  -1  -5 -14   -0.09    0.12
   1   5  14   -0.17    0.14
   1   5  14   -0.03    0.19
   1   5  14    0.02    0.09
  -2  -5 -14   27.05    0.96
  -2  -5 -14   25.51    1.02
   2   5  14   24.51    0.98
   2   5  14   27.36    1.00
  -3  -5 -14   13.64    0.55
  -3  -5 -14   13.13    0.58
   3   5  14   14.46    0.64
  -4  -5 -14    2.07    0.26
   4   5  14    2.31    0.40
  -3   6  14    2.41    0.31
  -3   6  14    2.44    0.25
   2  -6 -14    1.64    0.25
  -2   6  14    2.21    0.23
  -2   6  14    1.98    0.25
   1  -6 -14    6.50    0.38
   1  -6 -14    6.54    0.34
  -1   6  14    5.69    0.32
  -1   6  14    5.86    0.36
  -1   6  14    6.76    0.35
   0  -6 -14    0.71    0.16
   0  -6 -14    0.67    0.14
   0   6  14    0.30    0.17
   0   6  14    0.62    0.19
   0   6  14    0.47    0.12
  -1  -6 -14    4.34    0.27
  -1  -6 -14    4.41    0.29
   1   6  14    4.17    0.32
   1   6  14    4.35    0.21
   1   6  14    3.92    0.33
   1   6  14    3.82    0.28
  -2  -6 -14    1.34    0.20
  -2  -6 -14    1.84    0.24
   2   6  14    1.59    0.20
   2   6  14    1.22    0.24
  -3  -6 -14    2.58    0.27
  -3  -6 -14    2.17    0.24
   3   6  14    2.95    0.37
  -4  -6 -14    0.46    0.20
  -4  -6 -14    0.37    0.15
   4   6  14    0.44    0.25
   2  -7 -14    7.61    0.41
  -2   7  14    7.96    0.38
  -2   7  14    7.18    0.38
   0  -7 -14    1.12    0.16
   0  -7 -14    1.27    0.16
   0   7  14    1.15    0.17
   0   7  14    0.89    0.14
   0   7  14    1.35    0.20
  -1  -7 -14   -0.07    0.13
   1   7  14   -0.06    0.10
   1   7  14   -0.03    0.16
   1   7  14   -0.22    0.19
  -2  -7 -14   16.24    0.63
  -2  -7 -14   14.95    0.64
   2   7  14   16.36    0.68
   2   7  14   16.31    0.64
  -3  -7 -14    8.37    0.44
  -3  -7 -14    8.94    0.41
   3   7  14    8.65    0.50
  -4  -7 -14    2.81    0.34
  -4  -7 -14    3.60    0.28
   4   7  14    3.68    0.43
   2  -8 -14    2.78    0.33
  -2   8  14    2.58    0.28
  -2   8  14    2.31    0.27
   1  -8 -14    9.53    0.45
  -1   8  14    7.87    0.41
  -1   8  14   10.23    0.42
   0  -8 -14    0.00    0.16
   0  -8 -14    0.12    0.14
   0   8  14   -0.05    0.17
   0   8  14   -0.24    0.13
  -1  -8 -14    0.10    0.14
  -1  -8 -14    0.11    0.16
   1   8  14    0.16    0.19
   1   8  14   -0.03    0.11
   1   8  14   -0.12    0.16
  -2  -8 -14    2.25    0.25
   2   8  14    2.16    0.29
   2   8  14    1.97    0.34
  -3  -8 -14    0.14    0.17
  -3  -8 -14    0.13    0.15
   3   8  14    0.46    0.25
   2  -9 -14    0.00    0.23
  -2   9  14    0.07    0.20
  -2   9  14    0.32    0.17
   1  -9 -14    1.53    0.22
  -1   9  14    2.36    0.26
  -1   9  14    1.44    0.18
   0  -9 -14    5.17    0.32
   0  -9 -14    4.62    0.34
   0   9  14    4.75    0.33
   0   9  14    5.60    0.34
  -1  -9 -14    0.07    0.15
  -1  -9 -14   -0.10    0.16
   1   9  14    0.32    0.19
   1   9  14    0.12    0.17
   1   9  14    0.02    0.12
  -2  -9 -14    0.58    0.17
  -2  -9 -14    0.14    0.18
   2   9  14    0.26    0.11
   2   9  14    0.49    0.20
   2   9  14    0.60    0.24
  -3  -9 -14    0.31    0.19
  -3  -9 -14    0.41    0.17
   3   9  14    0.97    0.26
   1 -10 -14   -0.12    0.22
  -1  10  14    0.07    0.17
  -1  10  14    0.19    0.16
   0 -10 -14    0.29    0.18
   0  10  14    0.34    0.15
   0  10  14    0.60    0.18
  -1 -10 -14    0.49    0.19
  -1 -10 -14    0.43    0.17
   1  10  14    0.34    0.13
   1  10  14    0.45    0.19
  -2 -10 -14    0.79    0.18
  -2 -10 -14    0.69    0.19
   2  10  14    0.62    0.13
   2  10  14    0.60    0.21
  -3 -10 -14    0.13    0.17
  -3 -10 -14   -0.17    0.19
   0 -11 -14   -0.22    0.19
   0  11  14   -0.31    0.14
   0  11  14    0.07    0.17
  -1 -11 -14    0.02    0.18
  -1 -11 -14   -0.24    0.19
   1  11  14   -0.03    0.13
   1  11  14    0.13    0.19
  -2 -11 -14    0.23    0.20
  -2 -11 -14   -0.03    0.19
   2  11  14    0.11    0.14
   2  11  14    0.38    0.21
   1   7 -15    1.47    0.20
   1   7 -15    1.18    0.18
  -1  -7  15    1.10    0.25
  -1  -7  15    1.06    0.29
   0   7 -15    5.95    0.33
   0  -7  15    5.57    0.43
   0  -7  15    5.98    0.39
   1  -7  15   -0.05    0.21
   2   6 -15    0.53    0.18
  -2  -6  15    0.75    0.18
  -2  -6  15    0.64    0.23
   1   6 -15    0.79    0.19
   1   6 -15    0.52    0.16
  -1  -6  15    0.83    0.22
  -1  -6  15    0.70    0.20
   0   6 -15    0.43    0.14
   0   6 -15    0.31    0.19
   0  -6  15    0.12    0.22
   0  -6  15    0.18    0.18
  -1   6 -15    1.73    0.19
   1  -6  15    1.37    0.24
   2   5 -15    0.21    0.15
  -2  -5  15    0.34    0.17
  -2  -5  15    0.28    0.21
   1   5 -15    2.75    0.25
   1   5 -15    3.08    0.32
  -1  -5  15    2.53    0.35
  -1  -5  15    3.27    0.30
   0  -5  15    0.07    0.21
   0  -5  15   -0.09    0.16
  -1   5 -15    1.47    0.20
  -1   5 -15    1.67    0.21
  -1   5 -15    1.81    0.24
   1  -5  15    1.24    0.22
  -2   5 -15    0.11    0.15
  -2   5 -15    0.59    0.17
   2  -5  15    0.55    0.22
  -3  -4  15    1.03    0.26
  -2  -4  15    2.39    0.35
  -2  -4  15    2.90    0.28
   1   4 -15    0.44    0.14
   1   4 -15    0.31    0.17
  -1  -4  15    0.51    0.20
  -1  -4  15    0.73    0.17
   0   4 -15    0.16    0.15
   0   4 -15    0.02    0.13
   0  -4  15    0.00    0.21
   0  -4  15    0.06    0.16
  -1   4 -15    8.88    0.42
  -1   4 -15    8.79    0.38
  -1   4 -15    8.79    0.42
   1  -4  15    8.99    0.43
   1  -4  15    8.78    0.49
  -2   4 -15    1.47    0.19
  -2   4 -15    2.13    0.24
  -2   4 -15    2.27    0.27
   2  -4  15    1.67    0.26
   3   3 -15   -0.24    0.17
  -3  -3  15    0.13    0.20
  -3  -3  15    0.02    0.24
   2   3 -15    7.32    0.36
  -2  -3  15    7.17    0.44
  -2  -3  15    7.38    0.38
   1   3 -15   -0.10    0.14
   1   3 -15    0.24    0.16
  -1  -3  15    0.28    0.20
  -1  -3  15    0.07    0.16
   0   3 -15   13.33    0.52
   0   3 -15   13.40    0.55
   0  -3  15   13.31    0.55
   0  -3  15   12.96    0.60
  -1   3 -15    0.23    0.11
  -1   3 -15    0.19    0.15
  -1   3 -15   -0.12    0.15
   1  -3  15    0.31    0.21
   1  -3  15   -0.07    0.16
  -2   3 -15   10.21    0.46
  -2   3 -15    9.80    0.43
   2  -3  15   10.12    0.53
  -3   3 -15    0.13    0.19
  -3   3 -15   -0.18    0.13
   3  -3  15   -0.20    0.24
   3   2 -15    0.09    0.17
  -3  -2  15    0.12    0.15
  -3  -2  15   -0.14    0.23
   2   2 -15    2.65    0.26
  -2  -2  15    2.44    0.35
  -2  -2  15    2.90    0.26
   1   2 -15   19.15    0.74
   1   2 -15   19.04    0.72
  -1  -2  15   19.58    0.79
  -1  -2  15   19.11    0.74
   0   2 -15    0.46    0.11
   0   2 -15    0.55    0.15
   0  -2  15    0.41    0.15
  -1   2 -15   16.56    0.65
  -1   2 -15   16.57    0.62
  -1   2 -15   16.89    0.65
   1  -2  15   16.60    0.65
  -2   2 -15    6.30    0.32
  -2   2 -15    6.19    0.35
   2  -2  15    6.21    0.43
  -3   2 -15    0.53    0.13
  -3   2 -15    0.50    0.18
   3  -2  15    0.48    0.25
   3   1 -15    3.33    0.29
  -3  -1  15    3.33    0.27
  -3  -1  15    2.83    0.38
   2   1 -15    0.73    0.15
  -2  -1  15    0.90    0.21
  -2  -1  15    0.81    0.16
   1   1 -15   66.66    2.35
   1   1 -15   66.67    2.34
  -1  -1  15   66.68    2.35
   0   1 -15    0.34    0.10
   0   1 -15    0.04    0.13
   0  -1  15    0.03    0.14
   0  -1  15    0.36    0.20
  -1   1 -15   19.03    0.68
  -1   1 -15   18.94    0.72
  -1   1 -15   18.99    0.72
   1  -1  15   19.00    0.72
   1  -1  15   18.29    0.81
  -2   1 -15   18.91    0.76
   2  -1  15   18.65    0.78
  -3   1 -15    0.14    0.17
  -3   1 -15    0.20    0.12
   3  -1  15    0.15    0.23
   3   0 -15    1.21    0.18
  -3   0  15    1.03    0.16
  -3   0  15    0.78    0.25
   2   0 -15   16.98    0.66
  -2   0  15   17.06    0.72
  -2   0  15   17.47    0.66
   1   0 -15    0.33    0.17
   1   0 -15    0.46    0.13
  -1   0  15    0.66    0.21
  -1   0  15    0.51    0.15
   0   0 -15  143.45    4.93
   0   0 -15  140.64    4.94
   0   0  15  143.93    4.94
   0   0  15  139.65    4.96
  -1   0 -15   14.51    0.57
  -1   0 -15   14.93    0.58
   1   0  15   14.18    0.63
   1   0  15   14.58    0.58
  -2   0 -15    5.01    0.29
   2   0  15    4.44    0.40
  -3   0 -15    0.55    0.16
  -3   0 -15    0.14    0.12
   3   0  15    0.37    0.24
   3  -1 -15    0.02    0.15
  -3   1  15    0.35    0.14
  -3   1  15    0.00    0.23
   2  -1 -15    6.14    0.32
  -2   1  15    6.60    0.33
   1  -1 -15    0.57    0.12
   1  -1 -15    0.21    0.14
  -1   1  15    0.40    0.15
  -1   1  15    0.76    0.21
   0  -1 -15    8.25    0.37
   0  -1 -15    8.30    0.34
   0   1  15    8.16    0.45
   0   1  15    8.29    0.39
  -1  -1 -15   24.21    0.89
  -1  -1 -15   23.94    0.89
   1   1  15   24.76    0.94
   1   1  15   23.73    0.89
  -2  -1 -15    0.02    0.18
  -2  -1 -15    0.05    0.12
   2   1  15    0.18    0.14
   2   1  15    0.18    0.23
  -3  -1 -15    6.28    0.37
  -3  -1 -15    6.95    0.33
   3   1  15    6.77    0.45
   4   1  15    2.65    0.44
  -3   2  15   -0.41    0.22
  -3   2  15    0.17    0.18
  -3   2  15    0.16    0.15
  -2   2  15    1.32    0.16
  -2   2  15    1.14    0.17
  -2   2  15    1.64    0.23
   1  -2 -15   50.81    1.83
  -1   2  15   53.56    1.83
  -1   2  15   50.69    1.85
   0  -2 -15   57.61    2.04
   0  -2 -15   57.39    2.02
   0  -2 -15   57.24    2.03
   0   2  15   59.14    2.04
   0   2  15   57.30    2.06
  -1  -2 -15    0.23    0.13
  -1  -2 -15    0.10    0.13
   1   2  15   -0.02    0.14
   1   2  15    0.31    0.21
  -2  -2 -15    8.19    0.43
  -2  -2 -15    9.24    0.39
   2   2  15    8.00    0.39
  -3  -2 -15    0.85    0.17
  -3  -2 -15    1.15    0.14
   3   2  15    0.91    0.24
  -4  -2 -15    0.36    0.13
  -4  -2 -15    0.65    0.21
   4   2  15    0.88    0.29
  -3   3  15    0.52    0.22
  -3   3  15    0.62    0.15
  -3   3  15    0.90    0.19
  -2   3  15    0.62    0.21
  -2   3  15    0.79    0.15
  -2   3  15    0.78    0.16
   1  -3 -15    7.94    0.36
  -1   3  15    8.20    0.42
  -1   3  15    7.99    0.37
  -1   3  15    6.77    0.36
   0  -3 -15    4.27    0.27
   0  -3 -15    4.21    0.27
   0   3  15    4.40    0.24
   0   3  15    4.28    0.28
   0   3  15    4.64    0.35
  -1  -3 -15   74.96    2.57
  -1  -3 -15   73.06    2.57
   1   3  15   70.18    2.59
   1   3  15   74.45    2.57
  -2  -3 -15    0.02    0.14
  -2  -3 -15    0.07    0.24
   2   3  15    0.03    0.15
  -3  -3 -15    3.42    0.30
  -3  -3 -15    3.86    0.26
   3   3  15    3.77    0.38
  -4  -3 -15    4.06    0.26
  -4  -3 -15    3.95    0.35
   4   3  15    3.79    0.44
  -3   4  15    0.42    0.18
  -3   4  15    0.48    0.14
  -2   4  15   13.98    0.54
  -2   4  15   13.87    0.58
  -2   4  15   11.86    0.54
   1  -4 -15    0.78    0.15
   1  -4 -15    1.19    0.15
  -1   4  15    0.95    0.15
  -1   4  15    1.36    0.21
  -1   4  15    0.94    0.16
   0  -4 -15    8.04    0.37
   0  -4 -15    8.12    0.38
   0   4  15    8.61    0.39
   0   4  15    8.20    0.44
   0   4  15    8.32    0.36
  -1  -4 -15   39.63    1.43
  -1  -4 -15   40.39    1.42
   1   4  15   40.09    1.43
   1   4  15   39.40    1.46
  -2  -4 -15    3.03    0.25
   2   4  15    2.59    0.29
  -3  -4 -15    0.12    0.16
  -3  -4 -15    0.37    0.14
   3   4  15    0.14    0.23
  -4  -4 -15    2.91    0.33
  -4  -4 -15    3.12    0.26
   4   4  15    3.58    0.44
   3  -5 -15   -0.01    0.26
  -3   5  15    1.02    0.19
  -3   5  15    0.70    0.16
  -2   5  15    0.26    0.17
  -2   5  15    0.33    0.20
  -2   5  15    0.69    0.15
   1  -5 -15   -0.17    0.15
   1  -5 -15   -0.06    0.15
  -1   5  15   -0.16    0.14
  -1   5  15   -0.16    0.14
  -1   5  15   -0.23    0.19
   0  -5 -15   39.29    1.42
   0  -5 -15   38.79    1.41
   0   5  15   39.56    1.43
   0   5  15   40.86    1.42
   0   5  15   38.62    1.40
  -1  -5 -15    0.13    0.15
  -1  -5 -15    0.41    0.14
   1   5  15    0.00    0.09
   1   5  15   -0.21    0.20
   1   5  15    0.13    0.15
  -2  -5 -15   19.10    0.71
  -2  -5 -15   19.55    0.70
   2   5  15   15.86    0.71
  -3  -5 -15    8.59    0.44
  -3  -5 -15    9.18    0.41
   3   5  15    9.05    0.51
  -4  -5 -15    1.78    0.26
   4   5  15    1.53    0.36
  -2   6  15    0.68    0.14
  -2   6  15    0.65    0.17
   1  -6 -15   55.05    1.92
  -1   6  15   50.81    1.92
  -1   6  15   55.79    1.92
   0  -6 -15    2.18    0.26
   0  -6 -15    2.54    0.23
   0   6  15    2.77    0.32
   0   6  15    2.17    0.21
   0   6  15    2.60    0.28
  -1  -6 -15    0.18    0.19
  -1  -6 -15    0.22    0.14
   1   6  15   -0.06    0.10
   1   6  15    0.02    0.20
   1   6  15   -0.01    0.16
  -2  -6 -15   18.31    0.71
  -2  -6 -15   19.47    0.70
   2   6  15   16.29    0.71
  -3  -6 -15    0.73    0.19
  -3  -6 -15    0.75    0.16
   3   6  15    0.19    0.24
   4   6  15    2.50    0.41
   2  -7 -15    0.05    0.20
  -2   7  15    0.19    0.17
  -2   7  15    0.15    0.15
   1  -7 -15    0.07    0.16
  -1   7  15    0.09    0.16
  -1   7  15   -0.10    0.14
   0  -7 -15   20.35    0.77
   0   7  15   18.49    0.75
   0   7  15   21.36    0.79
   0   7  15   20.71    0.79
  -1  -7 -15   -0.06    0.15
  -1  -7 -15    0.16    0.15
   1   7  15    0.06    0.21
   1   7  15    0.00    0.11
   1   7  15   -0.03    0.17
  -2  -7 -15    4.06    0.30
  -2  -7 -15    3.50    0.28
   2   7  15    2.91    0.34
   2   7  15    3.29    0.31
  -3  -7 -15    3.36    0.29
  -3  -7 -15    3.85    0.32
   3   7  15    3.81    0.41
   2  -8 -15   -0.08    0.20
  -2   8  15    0.35    0.17
  -2   8  15    0.49    0.17
   1  -8 -15    2.99    0.31
  -1   8  15    3.06    0.25
  -1   8  15    2.83    0.30
   0  -8 -15    2.25    0.27
   0  -8 -15    2.05    0.27
   0   8  15    2.09    0.22
   0   8  15    1.82    0.20
   0   8  15    1.78    0.22
  -1  -8 -15    2.02    0.27
  -1  -8 -15    2.39    0.26
   1   8  15    2.00    0.28
   1   8  15    2.04    0.32
   1   8  15    1.83    0.19
  -2  -8 -15    0.11    0.16
  -2  -8 -15    0.00    0.16
   2   8  15   -0.10    0.19
  -3  -8 -15    0.08    0.17
  -3  -8 -15    0.60    0.20
   3   8  15    0.45    0.25
   1  -9 -15    5.42    0.37
  -1   9  15    5.99    0.35
  -1   9  15    4.82    0.32
   0  -9 -15   -0.13    0.17
   0  -9 -15   -0.04    0.18
  -1  -9 -15    2.53    0.26
  -1  -9 -15    2.49    0.30
   1   9  15    2.87    0.33
   1   9  15    1.98    0.21
   1   9  15    2.22    0.30
  -2  -9 -15    0.05    0.18
  -2  -9 -15    0.23    0.16
   2   9  15    0.38    0.20
   2   9  15    0.38    0.23
   2   9  15    0.07    0.12
  -3  -9 -15    0.54    0.20
  -3  -9 -15    0.60    0.18
   3   9  15    0.66    0.26
   1 -10 -15    1.39    0.23
  -1  10  15    1.47    0.19
  -1  10  15    1.05    0.19
   0 -10 -15   -0.05    0.18
   0  10  15   -0.27    0.14
   0  10  15    0.08    0.18
  -1 -10 -15    0.54    0.17
  -1 -10 -15    0.37    0.19
   1  10  15    0.61    0.15
   1  10  15    0.76    0.20
   1  10  15    0.94    0.22
  -2 -10 -15    1.96    0.31
   2  10  15    2.91    0.34
   2  10  15    2.25    0.21
   0 -11 -15   -0.06    0.20
   0  11  15    0.54    0.19
   0  11  15   -0.39    0.15
  -1 -11 -15    2.23    0.32
  -1 -11 -15    2.38    0.30
   1  11  15    2.12    0.23
   1  11  15    3.46    0.38
  -2 -11 -15    0.48    0.18
  -2 -11 -15    0.24    0.21
   2  11  15    0.02    0.30
   2  11  15    0.64    0.25
   2  11  15   -0.23    0.14
   1   6 -16    0.45    0.17
   1   6 -16    0.47    0.21
  -1  -6  16    0.70    0.34
  -1  -6  16    0.45    0.20
   0   6 -16    0.07    0.14
   0   6 -16   -0.06    0.19
   0  -6  16    0.15    0.19
   0  -6  16   -0.28    0.23
  -1   6 -16   -0.13    0.17
  -1   6 -16   -0.07    0.13
   1  -6  16   -0.34    0.22
   2   5 -16    0.09    0.16
  -2  -5  16    0.06    0.22
  -2  -5  16    0.19    0.18
   1   5 -16    4.00    0.28
   1   5 -16    4.55    0.36
  -1  -5  16    3.73    0.39
  -1  -5  16    4.70    0.51
   0   5 -16    2.69    0.24
   0  -5  16    2.87    0.30
   0  -5  16    2.28    0.37
  -1   5 -16    0.04    0.13
   1  -5  16   -0.05    0.23
   2  -5  16    0.94    0.24
   2   4 -16    0.82    0.17
  -2  -4  16    0.54    0.23
  -2  -4  16    0.83    0.18
   1   4 -16    0.00    0.18
   1   4 -16   -0.06    0.14
  -1  -4  16    0.09    0.18
  -1  -4  16   -0.14    0.20
   0   4 -16    9.39    0.44
   0   4 -16    9.33    0.41
   0  -4  16    9.33    0.45
   0  -4  16    8.79    0.50
  -1   4 -16    5.48    0.34
  -1   4 -16    5.53    0.29
   1  -4  16    5.66    0.43
   1  -4  16    5.99    0.43
  -2   4 -16   11.46    0.49
  -2   4 -16   13.19    0.54
  -2   4 -16   13.34    0.55
   2  -4  16   12.62    0.62
   2   3 -16    8.96    0.42
  -2  -3  16    8.87    0.43
  -2  -3  16    8.52    0.49
   1   3 -16    0.17    0.14
   1   3 -16    0.39    0.17
  -1  -3  16    0.39    0.17
  -1  -3  16    0.20    0.21
   0   3 -16    2.12    0.22
   0   3 -16    2.32    0.28
   0  -3  16    2.39    0.28
   0  -3  16    2.26    0.36
  -1   3 -16    3.82    0.31
  -1   3 -16    4.32    0.24
  -1   3 -16    4.46    0.30
   1  -3  16    4.02    0.32
   1  -3  16    3.94    0.39
  -2   3 -16   10.37    0.46
  -2   3 -16   10.91    0.48
   2  -3  16   10.77    0.56
   3   2 -16   -0.01    0.18
  -3  -2  16   -0.14    0.24
  -3  -2  16   -0.03    0.17
   2   2 -16    4.10    0.30
  -2  -2  16    4.10    0.39
  -2  -2  16    5.17    0.31
   1   2 -16   28.02    1.02
   1   2 -16   28.32    1.03
  -1  -2  16   26.71    1.07
  -1  -2  16   27.87    1.03
   0   2 -16    7.23    0.34
   0   2 -16    7.60    0.38
   0  -2  16    7.48    0.38
   0  -2  16    7.57    0.45
  -1   2 -16   71.81    2.50
  -1   2 -16   72.93    2.52
  -1   2 -16   72.75    2.52
   1  -2  16   71.86    2.52
   1  -2  16   68.22    2.55
  -2   2 -16    5.34    0.30
  -2   2 -16    5.35    0.33
   2  -2  16    5.18    0.42
  -3   2 -16    0.16    0.18
  -3   2 -16   -0.08    0.22
   3  -2  16   -0.07    0.25
   3   1 -16    0.19    0.17
  -3  -1  16   -0.40    0.24
  -3  -1  16    0.16    0.16
   2   1 -16   -0.02    0.14
  -2  -1  16   -0.15    0.21
  -2  -1  16    0.00    0.16
   1   1 -16   10.76    0.44
   1   1 -16   10.14    0.46
  -1  -1  16   10.44    0.46
  -1  -1  16   10.07    0.52
   0   1 -16    1.35    0.16
   0   1 -16    1.28    0.18
   0  -1  16    1.34    0.17
   0  -1  16    1.18    0.22
  -1   1 -16    1.12    0.16
  -1   1 -16    0.91    0.16
  -1   1 -16    1.41    0.15
   1  -1  16    1.10    0.23
   1  -1  16    0.98    0.17
  -2   1 -16    1.49    0.24
  -2   1 -16    1.10    0.15
   2  -1  16    0.87    0.25
  -3   1 -16    0.00    0.12
  -3   1 -16   -0.09    0.17
   3  -1  16    0.03    0.26
   3   0 -16    0.56    0.17
  -3   0  16   -0.35    0.24
  -3   0  16    0.14    0.15
   2   0 -16    0.22    0.13
  -2   0  16   -0.02    0.22
  -2   0  16    0.29    0.15
   1   0 -16    1.86    0.26
   1   0 -16    1.47    0.22
  -1   0  16    2.19    0.38
  -1   0  16    2.29    0.26
   0   0 -16   32.46    1.18
   0   0 -16   31.66    1.15
   0   0  16   33.17    1.18
  -1   0 -16    6.24    0.33
  -1   0 -16    5.70    0.32
   1   0  16    5.69    0.47
   1   0  16    5.94    0.33
  -2   0 -16    0.21    0.16
   2   0  16    0.14    0.23
  -3   0 -16    1.54    0.22
  -3   0 -16    2.26    0.27
   3   0  16    1.65    0.27
   3  -1 -16    0.25    0.16
  -3   1  16    0.02    0.15
  -3   1  16   -0.43    0.24
   2  -1 -16   11.26    0.48
  -2   1  16   11.54    0.49
  -2   1  16   11.46    0.56
   1  -1 -16    1.00    0.19
   1  -1 -16    1.18    0.14
  -1   1  16    1.52    0.17
  -1   1  16    1.52    0.35
   0  -1 -16    5.58    0.27
   0  -1 -16    5.54    0.31
   0   1  16    5.76    0.40
   0   1  16    5.66    0.33
  -1  -1 -16   16.34    0.63
  -1  -1 -16   15.93    0.63
   1   1  16   15.90    0.63
  -2  -1 -16   13.79    0.54
  -2  -1 -16   13.60    0.55
   2   1  16   11.61    0.64
   2   1  16   13.71    0.62
  -3  -1 -16    1.80    0.27
  -3  -1 -16    1.79    0.23
   3   1  16    1.15    0.26
   3  -2 -16    0.91    0.17
  -3   2  16   -0.23    0.24
  -3   2  16    0.44    0.15
  -2   2  16    0.93    0.24
  -2   2  16    1.06    0.16
   1  -2 -16   11.03    0.46
   1  -2 -16   11.06    0.48
  -1   2  16   11.85    0.54
  -1   2  16   11.71    0.49
   0  -2 -16   20.42    0.77
   0  -2 -16   19.72    0.76
   0  -2 -16   20.20    0.74
   0   2  16   20.63    0.82
   0   2  16   20.66    0.77
  -1  -2 -16    4.93    0.30
  -1  -2 -16    4.69    0.29
   1   2  16    4.23    0.30
   1   2  16    4.57    0.38
  -2  -2 -16    0.52    0.16
  -2  -2 -16    0.63    0.15
   2   2  16    0.90    0.17
   2   2  16    0.90    0.23
  -3  -2 -16    0.13    0.16
  -3  -2 -16    0.58    0.13
   3   2  16    0.51    0.24
  -3   3  16    1.59    0.21
  -3   3  16    1.16    0.17
  -3   3  16    1.13    0.25
  -2   3  16    1.39    0.18
  -2   3  16    1.76    0.25
   1  -3 -16    1.37    0.17
  -1   3  16    1.50    0.22
  -1   3  16    1.48    0.17
  -1   3  16    1.49    0.16
   0  -3 -16    0.73    0.15
   0  -3 -16    0.48    0.15
   0   3  16    0.51    0.16
   0   3  16    0.71    0.21
  -1  -3 -16    6.96    0.36
  -1  -3 -16    6.67    0.35
   1   3  16    6.98    0.36
   1   3  16    7.43    0.44
  -2  -3 -16    1.21    0.16
  -2  -3 -16    0.95    0.17
   2   3  16    1.04    0.23
   2   3  16    1.15    0.21
  -3  -3 -16    5.39    0.31
  -3  -3 -16    4.97    0.34
   3   3  16    5.88    0.44
  -3   4  16    0.05    0.18
  -2   4  16   11.04    0.51
  -2   4  16   12.74    0.57
  -2   4  16   12.36    0.51
   1  -4 -16    1.19    0.20
  -1   4  16    1.26    0.22
  -1   4  16    1.33    0.17
  -1   4  16    1.52    0.17
   0  -4 -16   28.34    1.05
   0  -4 -16   28.33    1.05
   0   4  16   28.64    1.03
   0   4  16   28.71    1.05
   0   4  16   28.94    1.08
  -1  -4 -16    0.12    0.15
  -1  -4 -16    0.11    0.15
   1   4  16    0.06    0.22
   1   4  16    0.11    0.14
  -2  -4 -16    4.40    0.29
  -2  -4 -16    4.40    0.30
   2   4  16    3.97    0.38
   2   4  16    3.30    0.30
  -3  -4 -16    0.05    0.17
  -3  -4 -16   -0.07    0.15
   3   4  16   -0.18    0.23
   2  -5 -16   -0.14    0.16
  -2   5  16    0.27    0.16
  -2   5  16   -0.41    0.20
  -2   5  16    0.03    0.15
   1  -5 -16    0.68    0.17
  -1   5  16    0.46    0.16
  -1   5  16    0.33    0.21
   0  -5 -16    6.62    0.35
   0  -5 -16    6.74    0.35
   0   5  16    6.67    0.32
   0   5  16    6.72    0.36
   0   5  16    7.26    0.42
  -1  -5 -16   33.31    1.41
  -1  -5 -16   40.50    1.39
   1   5  16   40.24    1.36
   1   5  16   38.93    1.42
   1   5  16   39.94    1.39
  -2  -5 -16    1.57    0.18
  -2  -5 -16    2.25    0.26
   2   5  16    1.54    0.25
   2   5  16    1.28    0.19
  -3  -5 -16    0.86    0.16
  -3  -5 -16    0.60    0.18
   3   5  16    0.95    0.25
   2  -6 -16    0.33    0.17
  -2   6  16    0.64    0.18
  -2   6  16    0.52    0.16
  -1   6  16    2.91    0.26
  -1   6  16    2.81    0.33
   0  -6 -16    2.67    0.26
   0  -6 -16    2.37    0.37
   0   6  16    3.00    0.29
   0   6  16    2.69    0.34
   0   6  16    2.89    0.23
  -1  -6 -16    1.92    0.26
  -1  -6 -16    2.69    0.25
   1   6  16    1.95    0.25
   1   6  16    2.00    0.19
   1   6  16    2.45    0.29
  -2  -6 -16    2.51    0.27
  -2  -6 -16    2.18    0.27
   2   6  16    2.41    0.36
   2   6  16    2.51    0.31
  -3  -6 -16    6.96    0.37
  -3  -6 -16    6.92    0.40
   3   6  16    7.39    0.49
   2  -7 -16    0.25    0.20
  -2   7  16    0.54    0.16
  -2   7  16    0.43    0.18
   1  -7 -16    0.22    0.17
  -1   7  16   -0.05    0.17
  -1   7  16    0.20    0.15
   0  -7 -16    3.48    0.28
   0  -7 -16    4.24    0.30
   0   7  16    4.11    0.32
   0   7  16    4.13    0.35
   0   7  16    3.03    0.24
  -1  -7 -16    0.63    0.16
  -1  -7 -16    0.40    0.18
   1   7  16    0.73    0.12
   1   7  16    0.73    0.23
   1   7  16    0.84    0.19
  -2  -7 -16    0.19    0.17
  -2  -7 -16    0.10    0.17
   2   7  16    0.33    0.23
   2   7  16    0.08    0.18
  -3  -7 -16    3.97    0.30
  -3  -7 -16    3.63    0.32
   3   7  16    4.10    0.42
   1  -8 -16    2.90    0.30
  -1   8  16    2.40    0.25
  -1   8  16    3.29    0.30
   0  -8 -16    0.48    0.18
   0  -8 -16    0.51    0.17
   0   8  16    0.74    0.14
   0   8  16    1.04    0.22
   0   8  16    0.52    0.19
  -1  -8 -16    1.07    0.18
  -1  -8 -16    1.13    0.18
   1   8  16    0.90    0.19
   1   8  16    1.01    0.13
   1   8  16    1.15    0.23
  -2  -8 -16    0.41    0.17
  -2  -8 -16    0.72    0.18
   2   8  16    0.53    0.23
   2   8  16    0.34    0.24
   2   8  16    0.67    0.21
  -3  -8 -16    3.27    0.31
  -3  -8 -16    3.64    0.34
   3   8  16    4.25    0.45
   1  -9 -16    0.09    0.19
  -1   9  16    0.47    0.16
  -1   9  16    0.50    0.21
   0  -9 -16    0.57    0.18
   0   9  16    1.15    0.20
   0   9  16    0.97    0.16
  -1  -9 -16    2.82    0.28
  -1  -9 -16    2.44    0.29
   1   9  16    2.32    0.31
   1   9  16    1.88    0.21
   1   9  16    2.07    0.34
  -2  -9 -16    0.48    0.18
   2   9  16    0.64    0.21
  -3  -9 -16    0.51    0.20
  -3  -9 -16    0.60    0.19
   3   9  16    0.95    0.29
   0 -10 -16    2.45    0.32
   0  10  16    3.52    0.32
   0  10  16    2.44    0.24
  -1 -10 -16    0.06    0.20
  -1 -10 -16    0.08    0.17
   1  10  16   -0.26    0.20
   1  10  16    0.18    0.23
   1  10  16   -0.18    0.14
  -2 -10 -16    2.94    0.35
  -2 -10 -16    4.16    0.32
   2  10  16    3.68    0.25
   2  10  16    4.50    0.43
  -1 -11 -16    0.85    0.20
  -1 -11 -16    0.39    0.21
   1   5 -17    0.29    0.14
   1   5 -17    0.15    0.30
  -1  -5  17    0.19    0.19
  -1  -5  17    0.20    0.23
   0   5 -17    0.36    0.15
   0  -5  17    0.15    0.24
   0  -5  17    0.27    0.19
  -1   5 -17    0.56    0.16
   1  -5  17    0.24    0.24
  -2  -4  17    4.43    0.34
  -2  -4  17    3.80    0.41
   1   4 -17    0.23    0.15
   1   4 -17    0.01    0.19
  -1  -4  17    0.27    0.22
   0   4 -17    3.96    0.32
   0  -4  17    3.99    0.34
   0  -4  17    4.27    0.40
  -1   4 -17    9.51    0.43
  -1   4 -17    8.41    0.38
   1  -4  17    8.65    0.52
  -2   4 -17   11.51    0.50
  -2   4 -17   11.77    0.52
   2  -4  17   10.80    0.60
   2   3 -17    1.11    0.18
  -2  -3  17    0.82    0.24
  -2  -3  17    0.66    0.19
   1   3 -17    2.90    0.25
   1   3 -17    2.84    0.31
  -1  -3  17    2.74    0.28
  -1  -3  17    2.44    0.36
   0   3 -17    0.10    0.13
   0   3 -17    0.07    0.17
   0  -3  17    0.24    0.18
   0  -3  17   -0.10    0.23
  -1   3 -17    2.94    0.22
  -1   3 -17    2.68    0.33
   1  -3  17    2.92    0.38
   1  -3  17    2.94    0.31
  -2   3 -17   14.08    0.58
  -2   3 -17   13.79    0.56
   2  -3  17   12.89    0.65
   2   2 -17   -0.21    0.15
  -2  -2  17    0.05    0.17
  -2  -2  17   -0.28    0.22
   1   2 -17    2.50    0.29
   1   2 -17    2.29    0.24
  -1  -2  17    1.53    0.25
  -1  -2  17    2.16    0.30
   0   2 -17    0.06    0.16
   0   2 -17    0.24    0.13
   0  -2  17    0.30    0.22
   0  -2  17    0.15    0.17
  -1   2 -17    2.64    0.28
  -1   2 -17    3.00    0.28
  -1   2 -17    2.60    0.21
   1  -2  17    2.97    0.29
   1  -2  17    2.59    0.37
  -2   2 -17    0.56    0.17
  -2   2 -17    0.48    0.15
   2  -2  17    0.47    0.25
   2   1 -17    0.22    0.16
  -2  -1  17    0.10    0.23
  -2  -1  17    0.19    0.16
   1   1 -17    7.42    0.38
  -1  -1  17    7.63    0.39
  -1  -1  17    6.68    0.46
   0   1 -17    1.20    0.14
   0   1 -17    1.30    0.17
   0  -1  17    1.41    0.18
   0  -1  17    1.18    0.22
  -1   1 -17   13.70    0.55
  -1   1 -17   12.98    0.50
  -1   1 -17   12.57    0.55
   1  -1  17   13.27    0.56
   1  -1  17   13.09    0.61
  -2   1 -17    3.60    0.28
  -2   1 -17    3.44    0.27
   2  -1  17    3.43    0.40
  -3   1 -17    4.38    0.28
  -3   1 -17    4.34    0.36
   3  -1  17    4.07    0.47
   2   0 -17    1.15    0.17
  -2   0  17    0.71    0.24
  -2   0  17    1.01    0.18
   1   0 -17    0.79    0.16
   1   0 -17    0.81    0.15
  -1   0  17    0.91    0.23
  -1   0  17    0.95    0.18
   0   0 -17    0.01    0.15
   0   0 -17    0.16    0.11
   0   0  17    0.11    0.16
   0   0  17    0.07    0.21
  -1   0 -17    1.35    0.17
  -1   0 -17    0.87    0.17
   1   0  17    1.13    0.18
   1   0  17    1.18    0.23
  -2   0 -17   14.50    0.58
  -2   0 -17   14.99    0.60
   2   0  17   14.39    0.67
  -3   0 -17    6.39    0.38
  -3   0 -17    6.19    0.34
   3   0  17    6.66    0.50
   2  -1 -17    0.17    0.15
  -2   1  17    0.16    0.16
  -2   1  17    0.17    0.24
   1  -1 -17    6.02    0.35
   1  -1 -17    6.51    0.32
  -1   1  17    6.48    0.43
  -1   1  17    6.42    0.36
   0  -1 -17    7.53    0.33
   0  -1 -17    7.09    0.37
   0   1  17    7.61    0.38
   0   1  17    7.44    0.45
  -1  -1 -17    0.12    0.15
  -1  -1 -17    0.02    0.14
   1   1  17    0.09    0.22
   1   1  17   -0.16    0.15
  -2  -1 -17    0.22    0.19
  -2  -1 -17    0.09    0.15
   2   1  17    0.44    0.24
  -3  -1 -17    2.17    0.25
  -3  -1 -17    2.01    0.29
   3   1  17    2.33    0.40
   2  -2 -17   -0.09    0.14
  -2   2  17   -0.15    0.15
  -2   2  17   -0.20    0.22
   1  -2 -17    4.63    0.37
   1  -2 -17    5.14    0.28
  -1   2  17    5.58    0.33
  -1   2  17    4.27    0.51
   0  -2 -17    1.66    0.24
   0  -2 -17    1.84    0.19
   0  -2 -17    1.92    0.23
   0   2  17    1.58    0.18
  -1  -2 -17    0.74    0.16
  -1  -2 -17    0.86    0.16
   1   2  17    0.93    0.23
   1   2  17    0.72    0.17
  -2  -2 -17   16.10    0.66
   2   2  17   16.63    0.72
  -3  -2 -17    0.22    0.14
  -3  -2 -17    0.03    0.16
   3   2  17    0.09    0.25
  -2   3  17    0.46    0.23
  -2   3  17    0.58    0.18
  -2   3  17    0.68    0.17
  -1   3  17    1.26    0.21
  -1   3  17    0.97    0.33
  -1   3  17    1.23    0.18
   0  -3 -17    0.11    0.10
   0  -3 -17    0.06    0.14
   0  -3 -17   -0.07    0.15
   0   3  17    0.19    0.23
   0   3  17   -0.27    0.16
  -1  -3 -17   55.84    1.95
  -1  -3 -17   54.29    1.95
   1   3  17   53.83    2.02
   1   3  17   55.57    1.95
  -2  -3 -17    3.57    0.29
  -2  -3 -17    3.40    0.29
   2   3  17    2.48    0.33
   2   3  17    3.82    0.41
  -3  -3 -17    0.29    0.15
  -3  -3 -17    0.10    0.17
   3   3  17    0.58    0.26
  -2   4  17   -0.40    0.28
  -2   4  17   -0.08    0.16
  -2   4  17   -0.07    0.16
   1  -4 -17    3.89    0.28
  -1   4  17    3.82    0.37
  -1   4  17    3.58    0.29
   0  -4 -17    0.03    0.15
   0  -4 -17    0.02    0.15
   0   4  17   -0.16    0.15
   0   4  17    0.07    0.22
   0   4  17    0.14    0.13
  -1  -4 -17   10.69    0.47
   1   4  17   10.78    0.48
  -2  -4 -17   17.11    0.69
  -2  -4 -17   18.42    0.69
   2   4  17   18.15    0.75
   2   4  17   15.96    0.68
  -3  -4 -17   -0.05    0.15
  -3  -4 -17   -0.11    0.18
   3   4  17    0.26    0.26
  -2   5  17    0.40    0.25
  -2   5  17    0.95    0.17
  -2   5  17    1.03    0.19
   1  -5 -17    0.47    0.18
  -1   5  17    0.56    0.16
  -1   5  17    0.39    0.22
   0  -5 -17    6.33    0.36
   0  -5 -17    6.17    0.35
   0   5  17    6.37    0.32
   0   5  17    6.73    0.42
   0   5  17    6.42    0.35
  -1  -5 -17    1.00    0.16
  -1  -5 -17    1.08    0.18
   1   5  17    1.08    0.17
  -2  -5 -17   12.60    0.55
  -2  -5 -17   13.88    0.54
   2   5  17   13.18    0.61
   2   5  17   11.51    0.54
  -3  -5 -17    4.82    0.32
  -3  -5 -17    4.02    0.34
   3   5  17    4.33    0.44
   2  -6 -17   -0.38    0.18
  -2   6  17   -0.15    0.18
  -2   6  17    0.03    0.16
   1  -6 -17   -0.06    0.18
  -1   6  17   -0.08    0.15
  -1   6  17   -0.33    0.22
  -1   6  17    0.09    0.15
   0  -6 -17    5.23    0.33
   0  -6 -17    5.06    0.31
   0   6  17    4.94    0.39
   0   6  17    4.57    0.28
   0   6  17    4.65    0.33
  -1  -6 -17    6.97    0.37
  -1  -6 -17    6.51    0.37
   1   6  17    7.10    0.31
   1   6  17    6.78    0.38
   1   6  17    6.80    0.56
  -2  -6 -17   10.64    0.49
  -2  -6 -17   12.00    0.49
   2   6  17   11.32    0.56
   2   6  17    9.53    0.49
  -3  -6 -17    2.75    0.32
  -3  -6 -17    3.25    0.29
   3   6  17    3.40    0.43
   2  -7 -17   -0.32    0.19
  -2   7  17    0.04    0.16
   1  -7 -17    1.91    0.28
  -1   7  17    1.94    0.25
  -1   7  17    1.20    0.24
  -1   7  17    2.07    0.27
   0  -7 -17    0.48    0.17
   0  -7 -17    0.60    0.18
   0   7  17    0.62    0.19
   0   7  17    0.44    0.15
   0   7  17    0.38    0.23
  -1  -7 -17    1.36    0.18
  -1  -7 -17    1.27    0.19
   1   7  17    1.71    0.21
   1   7  17    1.46    0.27
   1   7  17    1.56    0.19
  -2  -7 -17    1.32    0.19
  -2  -7 -17    1.81    0.27
   2   7  17    1.61    0.26
   2   7  17    1.73    0.23
  -3  -7 -17    0.84    0.20
  -3  -7 -17    0.84    0.19
   3   7  17    1.21    0.28
   1  -8 -17    0.14    0.20
  -1   8  17    0.51    0.16
  -1   8  17    0.25    0.19
   0  -8 -17    5.04    0.34
   0  -8 -17    5.20    0.44
   0   8  17    5.06    0.33
   0   8  17    4.51    0.39
  -1  -8 -17    7.98    0.44
  -1  -8 -17    9.36    0.44
   1   8  17    9.49    0.49
   1   8  17    8.29    0.37
   1   8  17    8.56    0.45
  -2  -8 -17    0.15    0.17
   2   8  17    0.58    0.25
   2   8  17    0.34    0.24
  -3  -8 -17   19.83    0.83
  -3  -8 -17   21.56    0.81
   1  -9 -17   -0.08    0.20
  -1   9  17   -0.15    0.16
  -1   9  17   -0.07    0.19
   0  -9 -17   -0.10    0.19
   0   9  17    0.36    0.14
   0   9  17    0.45    0.21
  -1  -9 -17    0.89    0.19
  -1  -9 -17    0.78    0.19
   1   9  17    0.71    0.14
   1   9  17    0.69    0.20
   1   9  17    0.75    0.25
  -2  -9 -17    1.39    0.21
   2   9  17    1.63    0.27
   2   9  17    1.71    0.33
   0 -10 -17    1.74    0.24
   0  10  17    2.96    0.33
   0  10  17    2.26    0.25
  -1 -10 -17    2.89    0.32
  -1 -10 -17    2.62    0.32
   1  10  17    2.67    0.37
   1  10  17    2.30    0.28
   1  10  17    2.03    0.25
  -2 -10 -17    6.23    0.44
   0  -5  18    0.11    0.25
   1   4 -18    0.08    0.16
  -1  -4  18   -0.07    0.19
  -1  -4  18   -0.06    0.23
   0   4 -18    1.74    0.23
   0   4 -18    1.55    0.21
   0  -4  18    1.62    0.27
   0  -4  18    2.10    0.23
  -1   4 -18   -0.09    0.16
  -1   4 -18   -0.17    0.13
   1  -4  18    0.10    0.23
   1   3 -18    2.22    0.24
  -1  -3  18    1.73    0.20
  -1  -3  18    1.28    0.25
   0   3 -18    0.85    0.19
   0   3 -18    0.86    0.19
   0  -3  18    0.72    0.25
   0  -3  18    0.82    0.20
  -1   3 -18    0.12    0.17
  -1   3 -18    0.16    0.12
  -1   3 -18    0.42    0.16
   1  -3  18    0.26    0.24
  -2   3 -18    0.69    0.19
   2  -3  18    0.08    0.27
   2   2 -18    0.03    0.16
  -2  -2  18   -0.06    0.17
  -2  -2  18   -0.06    0.24
   1   2 -18    8.50    0.39
  -1  -2  18    8.42    0.49
  -1  -2  18    7.46    0.49
   0   2 -18    5.42    0.30
   0   2 -18    5.15    0.35
   0  -2  18    4.79    0.42
   0  -2  18    5.42    0.35
  -1   2 -18   15.19    0.71
  -1   2 -18   15.26    0.58
   1  -2  18   14.83    0.69
   1  -2  18   15.51    0.64
  -2   2 -18    2.52    0.27
  -2   2 -18    2.79    0.29
   2  -2  18    1.83    0.31
   2   1 -18    1.75    0.25
  -2  -1  18    0.77    0.26
  -2  -1  18    1.32    0.19
   1   1 -18    0.75    0.15
  -1  -1  18    0.32    0.24
   0   1 -18    0.10    0.16
   0   1 -18    0.17    0.13
   0  -1  18    0.33    0.23
   0  -1  18   -0.13    0.17
  -1   1 -18    0.60    0.16
  -1   1 -18    0.71    0.12
   1  -1  18    0.59    0.19
   1  -1  18    0.39    0.23
  -2   1 -18    2.16    0.26
  -2   1 -18    2.49    0.28
   2  -1  18    2.27    0.39
   2   0 -18   -0.02    0.15
  -2   0  18   -0.24    0.24
  -2   0  18   -0.17    0.17
   1   0 -18    1.10    0.22
  -1   0  18    1.08    0.24
   0   0 -18   20.96    0.78
   0   0 -18   21.42    0.82
   0   0  18   21.29    0.82
  -1   0 -18    7.19    0.41
  -1   0 -18    7.64    0.39
   1   0  18    6.58    0.46
   1   0  18    7.96    0.40
  -2   0 -18    0.64    0.17
  -2   0 -18    0.44    0.15
   2   0  18    0.59    0.26
  -3   0 -18    0.15    0.16
   3   0  18   -0.07    0.28
   2  -1 -18    1.76    0.24
  -2   1  18    1.28    0.27
  -2   1  18    1.13    0.19
  -1   1  18    0.69    0.24
   0  -1 -18    1.20    0.18
   0  -1 -18    1.62    0.19
   0   1  18    1.09    0.18
   0   1  18    1.09    0.24
  -1  -1 -18    0.25    0.16
  -1  -1 -18    0.09    0.19
   1   1  18    0.04    0.18
   1   1  18    0.10    0.23
  -2  -1 -18    7.05    0.39
  -2  -1 -18    7.28    0.37
   2   1  18    7.22    0.49
  -3  -1 -18    2.05    0.25
  -3  -1 -18    2.41    0.31
   3   1  18    2.75    0.45
   2  -2 -18    0.43    0.15
  -2   2  18    0.36    0.25
  -2   2  18    0.70    0.18
  -1   2  18    1.52    0.25
  -1   2  18    1.43    0.25
   0  -2 -18    3.54    0.28
   0  -2 -18    3.79    0.23
   0  -2 -18    3.05    0.26
   0   2  18    3.29    0.30
   0   2  18    3.73    0.38
  -1  -2 -18    0.95    0.16
   1   2  18    0.92    0.24
   1   2  18    1.03    0.19
  -2  -2 -18    2.52    0.25
  -2  -2 -18    1.83    0.28
   2   2  18    2.37    0.38
  -3  -2 -18   10.60    0.52
  -3  -2 -18   11.95    0.50
   3   2  18   12.18    0.62
  -2   3  18    0.08    0.17
  -2   3  18   -0.30    0.24
  -1   3  18    0.84    0.18
  -1   3  18    0.57    0.24
   0  -3 -18   -0.19    0.15
   0  -3 -18   -0.06    0.16
   0  -3 -18    0.05    0.10
   0   3  18   -0.04    0.22
   0   3  18    0.10    0.16
  -1  -3 -18    6.37    0.45
  -1  -3 -18    6.29    0.35
   1   3  18    6.29    0.43
   1   3  18    6.52    0.37
  -2  -3 -18    2.41    0.32
  -2  -3 -18    2.90    0.28
   2   3  18    3.34    0.40
  -3  -3 -18    0.37    0.15
  -3  -3 -18   -0.20    0.17
   3   3  18    0.29    0.26
  -2   4  18    1.10    0.19
  -2   4  18    0.59    0.24
  -2   4  18    1.14    0.18
  -1   4  18   -0.29    0.26
  -1   4  18   -0.14    0.17
  -1   4  18   -0.31    0.21
   0  -4 -18    0.41    0.16
   0  -4 -18    0.51    0.17
   0   4  18    0.37    0.17
   0   4  18    0.41    0.29
  -1  -4 -18    1.44    0.18
  -1  -4 -18    2.09    0.26
   1   4  18    1.44    0.19
   1   4  18    1.36    0.25
  -2  -4 -18    6.59    0.38
   2   4  18    7.33    0.48
  -3  -4 -18    0.07    0.16
  -3  -4 -18    0.09    0.18
   3   4  18   -0.14    0.26
  -2   5  18    0.21    0.17
  -2   5  18    0.15    0.18
  -1   5  18    0.22    0.16
  -1   5  18   -0.07    0.16
   0  -5 -18    1.50    0.28
   0  -5 -18    1.63    0.20
   0   5  18    1.86    0.27
   0   5  18    1.73    0.22
  -1  -5 -18    0.07    0.16
  -1  -5 -18    0.16    0.17
   1   5  18    0.31    0.24
   1   5  18    0.00    0.16
  -2  -5 -18    0.20    0.16
   2   5  18    0.43    0.24
  -3  -5 -18    0.23    0.18
  -3  -5 -18    0.63    0.18
   3   5  18    0.17    0.26
   1  -6 -18    0.44    0.18
  -1   6  18    0.03    0.23
  -1   6  18    0.48    0.16
  -1   6  18    0.27    0.15
   0  -6 -18    0.23    0.17
   0  -6 -18    0.57    0.18
   0   6  18    0.48    0.14
   0   6  18    0.17    0.28
   0   6  18    0.29    0.17
  -1  -6 -18    2.01    0.27
  -1  -6 -18    2.39    0.27
   1   6  18    2.27    0.38
   1   6  18    1.72    0.21
   1   6  18    1.97    0.20
  -2  -6 -18   10.76    0.61
  -2  -6 -18   11.26    0.51
   2   6  18   11.07    0.58
  -3  -6 -18    0.00    0.20
  -3  -6 -18    0.12    0.17
   3   6  18    0.37    0.28
   1  -7 -18   -0.22    0.19
  -1   7  18    0.11    0.17
   0  -7 -18   -0.01    0.18
   0  -7 -18    0.25    0.20
   0   7  18    0.07    0.24
   0   7  18    0.32    0.15
  -1  -7 -18    0.50    0.18
  -1  -7 -18    0.18    0.17
   1   7  18    0.41    0.13
   1   7  18    0.50    0.24
   1   7  18    0.62    0.20
  -2  -7 -18    0.79    0.18
  -2  -7 -18    1.23    0.20
   2   7  18    0.92    0.27
   1  -8 -18   -0.41    0.19
  -1   8  18   -0.13    0.18
  -1   8  18    0.05    0.16
   0  -8 -18    0.25    0.20
   0   8  18   -0.02    0.24
   0   8  18    0.14    0.19
  -1  -8 -18    3.98    0.32
  -1  -8 -18    3.25    0.32
   1   8  18    3.92    0.40
   1   8  18    3.37    0.34
   1   8  18    3.27    0.25
  -2  -8 -18    0.06    0.16
  -2  -8 -18    0.07    0.17
   2   8  18    0.08    0.26
   0  -9 -18    0.00    0.20
   0   9  18   -0.31    0.14
   0   9  18    0.24    0.20
  -1  -9 -18    0.39    0.20
  -1  -9 -18    0.30    0.20
   1   9  18    0.50    0.22
   1   9  18    0.14    0.25
   1   9  18    0.28    0.14
  -2  -9 -18   -0.33    0.18
  -2  -9 -18    0.16    0.19
   2   9  18    0.23    0.26
   1   3 -19    0.08    0.15
  -1  -3  19    0.23    0.19
  -1  -3  19    0.00    0.24
   0   3 -19    2.55    0.32
   0   3 -19    2.00    0.24
   0  -3  19    1.78    0.24
  -1   3 -19    0.22    0.13
  -1   3 -19   -0.18    0.17
   1  -3  19    0.01    0.25
   1   2 -19    0.65    0.16
  -1  -2  19    0.40    0.25
  -1  -2  19    0.95    0.20
   0   2 -19    1.95    0.24
   0   2 -19    1.54    0.21
   0  -2  19    1.76    0.23
   0  -2  19    1.15    0.27
  -1   2 -19    5.10    0.33
  -1   2 -19    4.94    0.33
  -1   2 -19    4.77    0.27
   1  -2  19    4.68    0.44
   1   1 -19   10.27    0.44
  -1  -1  19    9.79    0.48
  -1  -1  19    9.12    0.55
   0   1 -19    1.06    0.19
   0   1 -19    1.69    0.22
   0  -1  19    1.15    0.20
   0  -1  19    1.10    0.26
  -1   1 -19    0.43    0.16
  -1   1 -19    0.39    0.25
  -1   1 -19    0.67    0.12
   1  -1  19    0.12    0.25
   1  -1  19    0.19    0.19
  -2   1 -19    2.16    0.27
  -2   1 -19    2.30    0.28
   2  -1  19    1.53    0.30
  -2   0  19   -0.09    0.19
  -2   0  19   -0.22    0.26
   1   0 -19   -0.22    0.14
  -1   0  19    0.05    0.18
  -1   0  19    0.25    0.24
   0   0 -19    3.71    0.33
   0   0 -19    3.91    0.26
   0   0  19    3.92    0.33
   0   0  19    3.81    0.42
  -1   0 -19    0.36    0.17
  -1   0 -19    0.10    0.15
   1   0  19    0.12    0.24
   1   0  19    0.17    0.19
  -2   0 -19    0.80    0.17
  -2   0 -19    0.62    0.19
   2   0  19    0.70    0.26
   2  -1 -19    0.30    0.16
  -2   1  19   -0.10    0.26
  -2   1  19   -0.01    0.18
   1  -1 -19    0.50    0.14
  -1   1  19    0.23    0.18
  -1   1  19    0.51    0.24
   0  -1 -19    0.72    0.13
   0  -1 -19    0.56    0.17
   0   1  19    0.66    0.18
   0   1  19    0.34    0.24
  -1  -1 -19    0.06    0.17
  -1  -1 -19   -0.03    0.16
   1   1  19    0.21    0.18
   1   1  19    0.04    0.24
  -2  -1 -19    0.18    0.17
  -2  -1 -19    0.18    0.16
   2   1  19    0.28    0.26
   2  -2 -19    0.32    0.15
  -2   2  19    0.05    0.26
  -2   2  19   -0.15    0.18
   1  -2 -19    2.50    0.24
  -1   2  19    2.25    0.39
  -1   2  19    2.39    0.29
   0  -2 -19    2.77    0.22
   0  -2 -19    2.37    0.28
   0   2  19    2.67    0.38
   0   2  19    2.48    0.29
  -1  -2 -19    0.68    0.16
  -1  -2 -19    0.38    0.16
   1   2  19    0.43    0.18
   1   2  19    0.63    0.25
  -2  -2 -19   -0.17    0.16
  -2  -2 -19   -0.07    0.15
   2   2  19   -0.10    0.26
   2  -3 -19    0.24    0.16
  -2   3  19   -0.32    0.25
  -2   3  19    0.10    0.17
   1  -3 -19    0.66    0.14
  -1   3  19    0.88    0.25
  -1   3  19    1.16    0.19
   0  -3 -19    0.62    0.17
   0  -3 -19    0.75    0.12
   0  -3 -19    0.51    0.17
   0   3  19    0.62    0.24
   0   3  19    0.64    0.18
  -1  -3 -19    0.23    0.17
  -1  -3 -19    0.19    0.16
   1   3  19    0.15    0.17
   1   3  19   -0.08    0.24
  -2  -3 -19    0.32    0.16
  -2  -3 -19    0.24    0.16
   2   3  19    0.27    0.26
  -1   4  19    2.09    0.29
  -1   4  19    1.55    0.27
  -1   4  19    1.89    0.19
   0  -4 -19    0.13    0.12
   0  -4 -19    0.31    0.17
   0   4  19   -0.10    0.17
   0   4  19    0.10    0.24
  -1  -4 -19    3.87    0.30
  -1  -4 -19    3.65    0.30
   1   4  19    3.95    0.32
   1   4  19    3.24    0.39
  -2  -4 -19   -0.21    0.18
  -2  -4 -19   -0.01    0.15
   2   4  19   -0.03    0.26
  -1   5  19    3.62    0.40
  -1   5  19    3.99    0.31
  -1   5  19    3.59    0.29
   0  -5 -19    0.10    0.17
   0  -5 -19    0.18    0.17
   0   5  19    0.10    0.18
   0   5  19   -0.19    0.24
   0   5  19    0.28    0.14
  -1  -5 -19   -0.04    0.17
  -1  -5 -19    0.07    0.16
   1   5  19    0.02    0.18
   1   5  19   -0.02    0.24
  -2  -5 -19    1.11    0.19
  -2  -5 -19    1.35    0.18
   2   5  19    1.28    0.28
   1  -6 -19    3.78    0.32
  -1   6  19    3.57    0.40
  -1   6  19    4.06    0.30
  -1   6  19    3.27    0.31
   0  -6 -19    1.54    0.21
   0  -6 -19    0.99    0.19
   0   6  19    1.42    0.26
   0   6  19    1.37    0.18
  -1  -6 -19    0.32    0.17
  -1  -6 -19    0.40    0.17
   1   6  19    0.14    0.18
   1   6  19    0.49    0.25
  -2  -6 -19    0.43    0.17
  -2  -6 -19    0.48    0.19
   2   6  19    0.75    0.28
   1  -7 -19    0.25    0.20
  -1   7  19    0.38    0.17
  -1   7  19    0.06    0.17
   0  -7 -19    0.45    0.19
   0   7  19    0.11    0.25
   0   7  19    0.61    0.19
   0   7  19    0.34    0.17
  -1  -7 -19   -0.01    0.19
  -1  -7 -19    0.09    0.19
   1   7  19    0.22    0.19
   1   7  19    0.02    0.25
   1   7  19    0.04    0.14
  -2  -7 -19    0.63    0.19
  -2  -7 -19    0.73    0.19
   2   7  19    1.05    0.29
   0  -8 -19    1.06    0.21
   0   8  19    1.30    0.18
   0   8  19    1.34    0.21
  -1  -8 -19    3.18    0.35
  -1  -8 -19    4.35    0.36
   1   8  19    4.24    0.42
   1   8  19    4.35    0.38
   1   8  19    3.87    0.27
  -2  -8 -19    0.21    0.19
  -2  -8 -19    0.01    0.19
   2   8  19    0.07    0.28
  -1  -9 -19    2.00    0.32
   0   2 -20    0.45    0.15
   0   2 -20    0.05    0.20
   0  -2  20    0.15    0.27
   0  -2  20    0.20    0.21
  -1   2 -20    5.11    0.34
   1  -2  20    4.77    0.46
  -1  -1  20    0.04    0.25
  -1  -1  20   -0.24    0.20
   0   1 -20    2.03    0.23
   0   1 -20    2.71    0.24
   0  -1  20    1.37    0.28
   0  -1  20    2.21    0.31
  -1   1 -20    0.43    0.13
  -1   1 -20   -0.22    0.17
  -1   1 -20    0.23    0.16
   1  -1  20   -0.08    0.35
   1  -1  20    0.15    0.25
   1   0 -20    0.22    0.15
  -1   0  20    0.25    0.19
  -1   0  20    0.48    0.26
   0   0 -20    0.67    0.19
   0   0 -20    0.98    0.15
   0   0  20    0.48    0.26
   0   0  20    1.10    0.20
  -1   0 -20    2.79    0.28
   1   0  20    3.10    0.34
   1   0  20    3.31    0.41
  -2   0 -20    0.09    0.17
   2   0  20    0.14    0.28
   1  -1 -20    0.44    0.15
  -1   1  20    0.10    0.19
  -1   1  20   -0.11    0.25
   0  -1 -20    0.96    0.15
   0  -1 -20    0.78    0.19
   0   1  20    0.56    0.24
   0   1  20    0.80    0.20
  -1  -1 -20   -0.06    0.15
  -1  -1 -20   -0.02    0.18
   1   1  20    0.11    0.25
   1   1  20    0.09    0.20
  -2  -1 -20    0.45    0.17
  -2  -1 -20    0.25    0.17
   2   1  20    0.26    0.28
   1  -2 -20    0.22    0.15
  -1   2  20   -0.17    0.25
  -1   2  20    0.01    0.18
   0  -2 -20    1.56    0.19
   0  -2 -20    1.95    0.21
   0   2  20    1.48    0.21
  -1  -2 -20    4.57    0.34
  -1  -2 -20    4.29    0.31
   1   2  20    5.22    0.36
   1   2  20    4.02    0.43
  -2  -2 -20    0.25    0.18
  -2  -2 -20    0.59    0.17
   2   2  20    0.19    0.27
   1  -3 -20    0.22    0.14
  -1   3  20   -0.27    0.25
  -1   3  20   -0.09    0.18
   0  -3 -20    0.01    0.13
   0  -3 -20    0.39    0.19
   0  -3 -20    0.18    0.17
   0   3  20   -0.08    0.19
   0   3  20    0.00    0.26
  -1  -3 -20    0.78    0.18
  -1  -3 -20    0.64    0.18
   1   3  20    0.88    0.20
   1   3  20    0.52    0.26
  -2  -3 -20    0.28    0.18
  -2  -3 -20    0.36    0.17
   2   3  20    0.27    0.28
   1  -4 -20    0.78    0.14
  -1   4  20    0.24    0.25
  -1   4  20    0.56    0.19
   0  -4 -20    5.10    0.36
   0  -4 -20    5.78    0.29
   0  -4 -20    5.52    0.33
   0   4  20    5.31    0.45
   0   4  20    5.53    0.43
  -1  -4 -20    0.31    0.17
  -1  -4 -20    0.31    0.16
   1   4  20    0.11    0.26
   1   4  20    0.04    0.19
  -2  -4 -20    0.60    0.18
  -2  -4 -20    0.51    0.19
   2   4  20    0.71    0.28
   1  -5 -20   -0.25    0.17
  -1   5  20   -0.51    0.25
  -1   5  20   -0.01    0.19
  -1   5  20    0.06    0.16
   0  -5 -20    0.12    0.17
   0  -5 -20    0.05    0.20
   0   5  20    0.01    0.25
   0   5  20   -0.01    0.31
  -1  -5 -20    0.76    0.18
  -1  -5 -20    0.66    0.18
   1   5  20    0.13    0.19
   1   5  20    0.17    0.26
  -2  -5 -20    2.47    0.30
  -2  -5 -20    2.20    0.29
   2   5  20    1.85    0.31
   1  -6 -20    2.40    0.30
   0  -6 -20    4.12    0.33
   0   6  20    4.64    0.44
   0   6  20    3.92    0.30
   0   6  20    4.05    0.33
  -1  -6 -20   -0.09    0.19
  -1  -6 -20    0.11    0.18
   1   6  20   -0.19    0.26
   1   6  20   -0.20    0.18
  -2  -6 -20    1.45    0.21
  -2  -6 -20    1.88    0.30
   2   6  20    1.16    0.31
   0  -7 -20    0.03    0.19
   0   7  20    0.18    0.19
   0   7  20   -0.37    0.26
  -1  -7 -20    5.30    0.36
  -1  -7 -20    5.16    0.37
   1   7  20    5.72    0.46
   1   7  20    4.97    0.38
   1   7  20    5.35    0.30
   0   0 -21   -0.23    0.20
   0   0 -21    0.22    0.23
   0   0  21    0.10    0.27
  -1   0 -21    2.99    0.30
  -1   0 -21    2.53    0.30
   1   0  21    2.02    0.39
   0  -1 -21    1.67    0.24
   0  -1 -21    1.37    0.22
   0   1  21    2.34    0.41
  -1  -1 -21    4.02    0.46
  -1  -1 -21    4.56    0.33
   1   1  21    4.95    0.46
   1   1  21    5.04    0.39
   0  -2 -21    0.22    0.20
   0  -2 -21    0.49    0.14
   0   2  21    0.06    0.25
  -1  -2 -21    2.70    0.29
  -1  -2 -21    2.26    0.32
   1   2  21    2.46    0.42
   1   2  21    2.43    0.34
   0  -3 -21    1.28    0.20
   0   3  21    1.21    0.28
   0   3  21    1.08    0.28
  -1  -3 -21    0.19    0.18
  -1  -3 -21    0.50    0.18
   1   3  21    0.16    0.27
   1   3  21    0.42    0.21
   0  -4 -21    7.85    0.36
   0  -4 -21    7.81    0.40
   0  -4 -21    7.31    0.54
   0   4  21    7.20    0.43
  -1  -4 -21    5.00    0.33
  -1  -4 -21    4.54    0.35
   1   4  21    4.59    0.37
   1   4  21    3.72    0.46
   0  -5 -21    0.36    0.14
   0  -5 -21   -0.13    0.18
   0   5  21   -0.14    0.20
   0   5  21    0.19    0.28
  -1  -5 -21    1.29    0.20
  -1  -5 -21    2.16    0.30
   1   5  21    0.96    0.29
   1   5  21    1.60    0.23
   0  -6 -21    0.32    0.19
  -1  -6 -21   -0.09    0.19
  -1  -6 -21    0.09    0.18
   1   6  21   -0.10    0.21
   1   6  21   -0.07    0.28
   0   0   0    0.00    0.00
;
_shelx_hkl_checksum              32158
loop_
_space_group_symop_operation_xyz
'x, y, z'
'-x, -y, -z'
loop_
_atom_site_label
_atom_site_type_symbol
_atom_site_fract_x
_atom_site_fract_y
_atom_site_fract_z
_atom_site_U_iso_or_equiv
_atom_site_adp_type
_atom_site_occupancy
_atom_site_site_symmetry_order
_atom_site_calc_flag
_atom_site_refinement_flags_posn
_atom_site_refinement_flags_adp
_atom_site_refinement_flags_occupancy
_atom_site_disorder_assembly
_atom_site_disorder_group
O1 O 0.4922(3) 0.75399(11) 0.55877(7) 0.0220(3) Uani 1 1 d . . . . .
O2 O 0.6799(3) 0.76482(11) 0.43748(7) 0.0201(3) Uani 1 1 d . . . . .
F1A F 0.1387(17) 0.8203(6) 1.0542(3) 0.081(2) Uani 0.502(5) 1 d D . P A 1
F1B F -0.0457(7) 0.6701(3) 1.02705(15) 0.0582(12) Uani 0.502(5) 1 d D . P A 1
F1C F 0.4322(12) 0.6438(6) 1.0512(3) 0.0683(15) Uani 0.502(5) 1 d D . P A 1
C1AB C 0.2062(18) 0.7273(12) 1.0160(5) 0.0487(19) Uani 0.498(5) 1 d . . P A 1
C1AA C 0.2048(16) 0.7916(9) 1.0220(5) 0.0386(16) Uani 0.502(5) 1 d . . P A 2
F2A F 0.3522(10) 0.8477(3) 1.06360(15) 0.0521(11) Uani 0.498(5) 1 d D . P A 2
F2B F -0.0971(9) 0.8310(4) 1.03238(18) 0.0689(13) Uani 0.498(5) 1 d D . P A 2
F2C F 0.2574(17) 0.6719(5) 1.0550(3) 0.0630(16) Uani 0.498(5) 1 d D . P A 2
C1 C 0.3015(6) 0.7951(4) 0.93688(14) 0.0632(9) Uani 1 1 d . U . . .
C2 C 0.2576(7) 0.7197(4) 0.88877(16) 0.0697(10) Uani 1 1 d . U . . .
H2 H 0.1609 0.6478 0.9079 0.084 Uiso 1 1 calc R U . . .
C3 C 0.3533(6) 0.7478(3) 0.81275(13) 0.0462(6) Uani 1 1 d . U . . .
H3 H 0.3208 0.6956 0.7796 0.055 Uiso 1 1 calc R U . . .
C4 C 0.4959(5) 0.85135(19) 0.78472(11) 0.0284(4) Uani 1 1 d . . . . .
C5 C 0.5340(7) 0.9275(2) 0.83379(13) 0.0497(7) Uani 1 1 d . U . . .
H5 H 0.6292 0.9999 0.8152 0.060 Uiso 1 1 calc R U . . .
C6 C 0.4352(8) 0.8991(3) 0.90920(14) 0.0656(9) Uani 1 1 d . U . . .
H6 H 0.4603 0.9525 0.9423 0.079 Uiso 1 1 calc R U . . .
C7 C 0.6111(4) 0.87900(17) 0.70723(10) 0.0229(4) Uani 1 1 d . . . . .
C8 C 0.7148(4) 0.90214(16) 0.64286(10) 0.0194(4) Uani 1 1 d . . . . .
C9 C 0.8555(4) 0.94720(15) 0.56974(10) 0.0173(4) Uani 1 1 d . . . . .
C10 C 0.8288(4) 0.90282(15) 0.50343(9) 0.0168(4) Uani 1 1 d . . . . .
C11 C 0.9725(4) 0.95639(15) 0.43541(10) 0.0175(4) Uani 1 1 d . . . . .
H11 H 0.9527 0.9262 0.3908 0.021 Uiso 1 1 calc R U . . .
C12 C 0.6464(4) 0.80021(15) 0.50523(10) 0.0178(4) Uani 1 1 d . . . . .
C13 C 0.5106(4) 0.66601(16) 0.43175(10) 0.0209(4) Uani 1 1 d . . . . .
H13A H 0.2856 0.6993 0.4260 0.025 Uiso 1 1 calc R U . . .
H13B H 0.5337 0.5986 0.4782 0.025 Uiso 1 1 calc R U . . .
C14 C 0.6470(4) 0.61664(16) 0.36323(10) 0.0201(4) Uani 1 1 d . . . . .
F15 F 0.9623(3) 0.45076(10) 0.43822(6) 0.0293(3) Uani 1 1 d . . . . .
C15 C 0.8714(4) 0.51053(17) 0.36844(10) 0.0217(4) Uani 1 1 d . . . . .
C16 C 1.0085(5) 0.46264(18) 0.30717(12) 0.0318(5) Uani 1 1 d . . . . .
H16 H 1.1593 0.3885 0.3132 0.038 Uiso 1 1 calc R U . . .
F17 F 1.0464(4) 0.48528(13) 0.17508(7) 0.0610(5) Uani 1 1 d . . . . .
C17 C 0.9151(6) 0.5282(2) 0.23678(12) 0.0371(5) Uani 1 1 d . . . . .
C18 C 0.6940(6) 0.6345(2) 0.22558(11) 0.0366(5) Uani 1 1 d . . . . .
H18 H 0.6330 0.6775 0.1760 0.044 Uiso 1 1 calc R U . . .
F19 F 0.3470(3) 0.77901(12) 0.28167(7) 0.0437(4) Uani 1 1 d . . . . .
C19 C 0.5660(5) 0.67543(18) 0.28988(11) 0.0277(4) Uani 1 1 d . . . . .
loop_
_atom_site_aniso_label
_atom_site_aniso_U_11
_atom_site_aniso_U_22
_atom_site_aniso_U_33
_atom_site_aniso_U_23
_atom_site_aniso_U_13
_atom_site_aniso_U_12
O1 0.0235(7) 0.0210(6) 0.0207(7) -0.0022(5) 0.0015(5) -0.0050(5)
O2 0.0245(7) 0.0184(6) 0.0189(6) -0.0054(5) -0.0002(5) -0.0060(5)
F1A 0.116(6) 0.111(4) 0.029(2) -0.028(2) 0.026(3) -0.050(3)
F1B 0.047(2) 0.098(3) 0.0262(15) 0.0070(14) 0.0051(12) -0.0314(17)
F1C 0.062(3) 0.108(4) 0.0242(19) 0.0172(19) -0.010(2) -0.018(3)
C1AB 0.045(4) 0.077(6) 0.025(4) -0.008(5) 0.000(3) -0.017(4)
C1AA 0.037(3) 0.055(4) 0.023(4) -0.007(4) 0.004(3) -0.009(3)
F2A 0.072(2) 0.072(2) 0.0196(14) -0.0112(13) 0.0029(14) -0.0314(18)
F2B 0.040(2) 0.139(4) 0.0252(16) -0.0184(18) 0.0075(14) -0.010(2)
F2C 0.102(5) 0.057(3) 0.026(2) 0.0057(19) 0.008(3) -0.025(3)
C1 0.0343(14) 0.115(3) 0.0190(12) 0.0142(15) 0.0020(10) 0.0084(15)
C2 0.0456(16) 0.118(3) 0.0356(15) 0.0278(16) -0.0044(12) -0.0412(17)
C3 0.0426(14) 0.0669(16) 0.0269(12) 0.0098(11) -0.0036(10) -0.0266(12)
C4 0.0281(11) 0.0317(10) 0.0194(10) 0.0019(8) 0.0006(8) 0.0012(8)
C5 0.085(2) 0.0387(13) 0.0206(11) -0.0049(9) 0.0024(11) -0.0003(13)
C6 0.096(2) 0.0704(19) 0.0178(12) -0.0083(12) 0.0044(13) 0.0174(17)
C7 0.0253(10) 0.0223(9) 0.0201(10) -0.0020(7) -0.0029(8) -0.0029(7)
C8 0.0204(9) 0.0174(8) 0.0203(9) -0.0035(7) -0.0041(7) -0.0019(7)
C9 0.0158(9) 0.0157(8) 0.0176(8) -0.0004(7) -0.0028(7) 0.0023(6)
C10 0.0162(9) 0.0145(8) 0.0177(9) -0.0015(7) -0.0036(7) 0.0018(6)
C11 0.0182(9) 0.0169(8) 0.0161(8) -0.0035(6) -0.0038(7) 0.0019(7)
C12 0.0172(9) 0.0159(8) 0.0175(9) -0.0017(7) -0.0033(7) 0.0035(7)
C13 0.0200(9) 0.0185(9) 0.0255(10) -0.0054(7) -0.0014(7) -0.0059(7)
C14 0.0214(9) 0.0195(9) 0.0215(9) -0.0047(7) -0.0022(7) -0.0080(7)
F15 0.0315(6) 0.0291(6) 0.0226(6) -0.0019(4) -0.0042(5) 0.0048(5)
C15 0.0258(10) 0.0205(9) 0.0193(9) -0.0024(7) -0.0018(7) -0.0068(7)
C16 0.0444(13) 0.0211(9) 0.0297(11) -0.0076(8) 0.0092(9) -0.0069(9)
F17 0.1189(15) 0.0412(8) 0.0259(7) -0.0158(6) 0.0260(8) -0.0235(8)
C17 0.0651(16) 0.0293(11) 0.0219(10) -0.0115(8) 0.0123(10) -0.0204(10)
C18 0.0604(15) 0.0330(11) 0.0187(10) 0.0002(8) -0.0056(9) -0.0186(10)
F19 0.0495(8) 0.0339(7) 0.0386(7) 0.0063(5) -0.0130(6) 0.0059(6)
C19 0.0332(11) 0.0223(9) 0.0271(10) -0.0006(8) -0.0062(8) -0.0068(8)
loop_
_atom_type_symbol
_atom_type_description
_atom_type_scat_dispersion_real
_atom_type_scat_dispersion_imag
_atom_type_scat_source
C C 0.0033 0.0016 'International Tables Vol C Tables 4.2.6.8 and 6.1.1.4'
H H 0.0000 0.0000 'International Tables Vol C Tables 4.2.6.8 and 6.1.1.4'
O O 0.0106 0.0060 'International Tables Vol C Tables 4.2.6.8 and 6.1.1.4'
F F 0.0171 0.0103 'International Tables Vol C Tables 4.2.6.8 and 6.1.1.4'
loop_
_geom_angle_atom_site_label_1
_geom_angle_atom_site_label_2
_geom_angle_atom_site_label_3
_geom_angle
_geom_angle_site_symmetry_1
_geom_angle_site_symmetry_3
C12 O2 C13 115.61(14) . .
F1C C1AB F1A 107.7(7) . .
F1C C1AB F1B 105.3(9) . .
F1A C1AB F1B 105.4(6) . .
F1C C1AB C1 114.4(6) . .
F1A C1AB C1 102.5(9) . .
F1B C1AB C1 120.6(6) . .
F2C C1AA F2B 106.9(7) . .
F2C C1AA F2A 104.7(7) . .
F2B C1AA F2A 106.5(8) . .
F2C C1AA C1 104.8(8) . .
F2B C1AA C1 112.1(6) . .
F2A C1AA C1 120.9(6) . .
C6 C1 C2 119.8(2) . .
C6 C1 C1AB 134.6(5) . .
C2 C1 C1AB 105.3(5) . .
C6 C1 C1AA 108.2(5) . .
C2 C1 C1AA 131.8(5) . .
C1 C2 C3 120.3(3) . .
C4 C3 C2 120.2(3) . .
C3 C4 C5 118.8(2) . .
C3 C4 C7 121.3(2) . .
C5 C4 C7 119.9(2) . .
C6 C5 C4 120.5(3) . .
C1 C6 C5 120.4(3) . .
C8 C7 C4 178.4(2) . .
C7 C8 C9 170.27(19) . .
C11 C9 C10 118.39(16) 2_776 .
C11 C9 C8 116.59(16) 2_776 .
C10 C9 C8 125.01(16) . .
C11 C10 C9 119.32(16) . .
C11 C10 C12 119.78(16) . .
C9 C10 C12 120.90(15) . .
C10 C11 C9 122.29(16) . 2_776
O1 C12 O2 123.99(16) . .
O1 C12 C10 125.70(16) . .
O2 C12 C10 110.31(14) . .
O2 C13 C14 106.76(14) . .
C19 C14 C15 115.07(17) . .
C19 C14 C13 122.66(17) . .
C15 C14 C13 122.25(16) . .
F15 C15 C16 117.84(17) . .
F15 C15 C14 117.61(16) . .
C16 C15 C14 124.55(18) . .
C17 C16 C15 116.0(2) . .
F17 C17 C16 118.0(2) . .
F17 C17 C18 118.2(2) . .
C16 C17 C18 123.83(19) . .
C19 C18 C17 116.44(18) . .
F19 C19 C18 118.51(18) . .
F19 C19 C14 117.43(17) . .
C18 C19 C14 124.06(19) . .
loop_
_geom_bond_atom_site_label_1
_geom_bond_atom_site_label_2
_geom_bond_distance
_geom_bond_site_symmetry_2
O1 C12 1.198(2) .
O2 C12 1.349(2) .
O2 C13 1.448(2) .
F1A C1AB 1.338(10) .
F1B C1AB 1.339(10) .
F1C C1AB 1.325(11) .
C1AB C1 1.518(10) .
C1AA F2C 1.318(10) .
C1AA F2B 1.322(8) .
C1AA F2A 1.335(10) .
C1AA C1 1.547(10) .
C1 C6 1.360(5) .
C1 C2 1.372(5) .
C2 C3 1.380(4) .
C3 C4 1.378(3) .
C4 C5 1.384(3) .
C4 C7 1.427(3) .
C5 C6 1.373(3) .
C7 C8 1.197(3) .
C8 C9 1.428(2) .
C9 C11 1.391(3) 2_776
C9 C10 1.406(2) .
C10 C11 1.387(2) .
C10 C12 1.489(2) .
C11 C9 1.391(3) 2_776
C13 C14 1.493(3) .
C14 C19 1.383(3) .
C14 C15 1.383(3) .
F15 C15 1.341(2) .
C15 C16 1.373(3) .
C16 C17 1.370(3) .
F17 C17 1.346(2) .
C17 C18 1.375(3) .
C18 C19 1.373(3) .
F19 C19 1.348(2) .
