#------------------------------------------------------------------------------
#$Date: 2017-09-16 02:06:49 +0300 (Sat, 16 Sep 2017) $
#$Revision: 200940 $
#$URL: file:///home/coder/svn-repositories/cod/cif/4/12/64/4126411.cif $
#------------------------------------------------------------------------------
#
# This file is available in the Crystallography Open Database (COD),
# http://www.crystallography.net/
#
# All data on this site have been placed in the public domain by the
# contributors.
#
data_4126411
loop_
_publ_author_name
'Parisi, Giovanna'
'Colella, Marco'
'Monticelli, Serena'
'Romanazzi, Giuseppe'
'Holzer, Wolfgang'
'Langer, Thierry'
'Degennaro, Leonardo'
'Pace, Vittorio'
'Luisi, Renzo'
_publ_section_title
;
 Exploiting a &quot;Beast&quot; in Carbenoid Chemistry: Development of a
 Straightforward Direct Nucleophilic Fluoromethylation Strategy.
;
_journal_name_full               'Journal of the American Chemical Society'
_journal_paper_doi               10.1021/jacs.7b07891
_journal_year                    2017
_chemical_formula_moiety         'C13 H18 F N O2'
_chemical_formula_sum            'C13 H18 F N O2'
_chemical_formula_weight         239.28
_space_group_crystal_system      triclinic
_space_group_IT_number           2
_space_group_name_Hall           '-P 1'
_space_group_name_H-M_alt        'P -1'
_symmetry_cell_setting           triclinic
_symmetry_Int_Tables_number      2
_symmetry_space_group_name_Hall  '-P 1'
_symmetry_space_group_name_H-M   'P -1'
_atom_sites_solution_hydrogens   geom
_atom_sites_solution_primary     direct
_audit_creation_date             2017-07-24
_audit_creation_method
;
Olex2 1.2
(compiled 2017.03.28 svn.r3405 for OlexSys, GUI svn.r5337)
;
_cell_angle_alpha                74.8164(8)
_cell_angle_beta                 85.3302(9)
_cell_angle_gamma                75.4550(8)
_cell_formula_units_Z            2
_cell_length_a                   5.3296(2)
_cell_length_b                   10.3296(3)
_cell_length_c                   12.0234(4)
_cell_measurement_reflns_used    8271
_cell_measurement_temperature    100.0
_cell_measurement_theta_max      72.499
_cell_measurement_theta_min      3.810
_cell_volume                     618.25(4)
_computing_cell_refinement       'SAINT V8.32B (?, 2016)'
_computing_data_collection       'APEX 3'
_computing_data_reduction        'SAINT V8.32B (?, 2016)'
_computing_molecular_graphics    'Olex2 (Dolomanov et al., 2009)'
_computing_publication_material  'Olex2 (Dolomanov et al., 2009)'
_computing_structure_refinement  'ShelXL (Sheldrick, 2015)'
_computing_structure_solution    'ShelXS (Sheldrick, 2008)'
_diffrn_ambient_temperature      100.0
_diffrn_measured_fraction_theta_full 0.996
_diffrn_measured_fraction_theta_max 0.994
_diffrn_measurement_device_type  'Bruker D8 Venture'
_diffrn_measurement_method       '\f and \w scans'
_diffrn_radiation_probe          x-ray
_diffrn_radiation_type           CuK\a
_diffrn_radiation_wavelength     1.54178
_diffrn_reflns_av_R_equivalents  0.0225
_diffrn_reflns_av_unetI/netI     0.0163
_diffrn_reflns_Laue_measured_fraction_full 0.996
_diffrn_reflns_Laue_measured_fraction_max 0.994
_diffrn_reflns_limit_h_max       6
_diffrn_reflns_limit_h_min       -6
_diffrn_reflns_limit_k_max       12
_diffrn_reflns_limit_k_min       -12
_diffrn_reflns_limit_l_max       14
_diffrn_reflns_limit_l_min       -14
_diffrn_reflns_number            9859
_diffrn_reflns_point_group_measured_fraction_full 0.996
_diffrn_reflns_point_group_measured_fraction_max 0.994
_diffrn_reflns_theta_full        67.679
_diffrn_reflns_theta_max         72.492
_diffrn_reflns_theta_min         3.810
_diffrn_source                   'sealed xray tube'
_diffrn_source_type              'Incoatec IuS'
_diffrn_standards_number         0
_exptl_absorpt_coefficient_mu    0.796
_exptl_absorpt_correction_T_max  0.7536
_exptl_absorpt_correction_T_min  0.7043
_exptl_absorpt_correction_type   multi-scan
_exptl_absorpt_process_details
;
SADABS-2012/1 (Bruker,2012) was used for absorption correction. 
wR2(int) was 0.0479 before and 0.0268 after correction. 
The Ratio of minimum to maximum transmission is 0.9346.
 The \l/2 correction factor is 0.0015.
;
_exptl_crystal_colour            'clear colourless'
_exptl_crystal_colour_lustre     clear
_exptl_crystal_colour_primary    colourless
_exptl_crystal_density_diffrn    1.285
_exptl_crystal_description       block
_exptl_crystal_F_000             256
_exptl_crystal_size_max          0.147
_exptl_crystal_size_mid          0.097
_exptl_crystal_size_min          0.089
_refine_diff_density_max         0.277
_refine_diff_density_min         -0.275
_refine_diff_density_rms         0.038
_refine_ls_extinction_method     none
_refine_ls_goodness_of_fit_ref   1.036
_refine_ls_hydrogen_treatment    constr
_refine_ls_matrix_type           full
_refine_ls_number_parameters     157
_refine_ls_number_reflns         2445
_refine_ls_number_restraints     0
_refine_ls_restrained_S_all      1.036
_refine_ls_R_factor_all          0.0332
_refine_ls_R_factor_gt           0.0321
_refine_ls_shift/su_max          0.000
_refine_ls_shift/su_mean         0.000
_refine_ls_structure_factor_coef Fsqd
_refine_ls_weighting_details
;
 w=1/[\s^2^(Fo^2^)+(0.0306P)^2^+0.3178P]
 where P=(Fo^2^+2Fc^2^)/3
;
_refine_ls_weighting_scheme      calc
_refine_ls_wR_factor_gt          0.0778
_refine_ls_wR_factor_ref         0.0786
_reflns_Friedel_coverage         0.000
_reflns_number_gt                2347
_reflns_number_total             2445
_reflns_threshold_expression     'I > 2\s(I)'
_iucr_refine_instructions_details
;
TITL cu_vipa_VDM39_P-1 in P-1 #2
REM reset to P-1 #2
CELL 1.54178 5.3296 10.3296 12.0234 74.8164 85.3302 75.455
ZERR 2 0.0002 0.0003 0.0004 0.0008 0.0009 0.0008
LATT 1
SFAC C H N O F
UNIT 26 36 2 4 2
EQIV $1 -1+X,+Y,+Z
 
L.S. 20
PLAN  20
SIZE 0.089 0.097 0.147
TEMP -173.15
HTAB N1 O2_$1
LIST 4
BOND
CONF
HTAB
fmap 2
acta
REM <olex2.extras>
REM <HklSrc "%.\\cu_vipa_VDM39_P-1.hkl">
REM </olex2.extras>
 
WGHT    0.030600    0.317800
FVAR       0.61457
F1    5   -0.178801    0.371412    1.027504    11.00000    0.02702    0.02175 =
         0.01429   -0.00184    0.00248   -0.00265
O1    4    0.294818    0.082774    0.790078    11.00000    0.00994    0.01010 =
         0.02025   -0.00645    0.00103   -0.00105
O2    4    0.492739    0.246901    0.811845    11.00000    0.01146    0.01538 =
         0.02538   -0.00843    0.00013   -0.00394
N1    3    0.055011    0.274474    0.828835    11.00000    0.01035    0.00984 =
         0.01794   -0.00502    0.00039   -0.00285
AFIX  43
H1    2   -0.073777    0.233492    0.836304    11.00000   -1.20000
AFIX   0
C1    1   -0.040030    0.520960    0.719764    11.00000    0.01019    0.01095 =
         0.01391   -0.00592    0.00182    0.00039
C2    1   -0.225050    0.518180    0.644870    11.00000    0.01211    0.01524 =
         0.01830   -0.00680    0.00082   -0.00301
AFIX  43
H2    2   -0.324384    0.450661    0.666658    11.00000   -1.20000
AFIX   0
C3    1   -0.263890    0.614029    0.538599    11.00000    0.01404    0.02121 =
         0.01684   -0.00731   -0.00215   -0.00054
AFIX  43
H3    2   -0.390525    0.612169    0.488185    11.00000   -1.20000
AFIX   0
C4    1   -0.118233    0.712477    0.505879    11.00000    0.01750    0.01683 =
         0.01376   -0.00242    0.00171    0.00113
AFIX  43
H4    2   -0.143523    0.777089    0.432804    11.00000   -1.20000
AFIX   0
C5    1    0.064453    0.716219    0.580254    11.00000    0.01592    0.01431 =
         0.01900   -0.00479    0.00450   -0.00410
AFIX  43
H5    2    0.163628    0.783797    0.558209    11.00000   -1.20000
AFIX   0
C6    1    0.102429    0.621180    0.686963    11.00000    0.01197    0.01478 =
         0.01682   -0.00687    0.00058   -0.00235
AFIX  43
H6    2    0.226530    0.624703    0.737833    11.00000   -1.20000
AFIX   0
C7    1    0.003709    0.417435    0.836719    11.00000    0.01099    0.01003 =
         0.01525   -0.00530   -0.00069   -0.00174
AFIX  13
H7    2    0.157414    0.429141    0.872093    11.00000   -1.20000
AFIX   0
C8    1    0.299031    0.204533    0.810135    11.00000    0.01291    0.00997 =
         0.00993   -0.00191   -0.00062   -0.00226
C9    1    0.538222   -0.017611    0.772272    11.00000    0.01041    0.01035 =
         0.01856   -0.00497    0.00153    0.00097
C10   1    0.695050   -0.070692    0.881919    11.00000    0.02061    0.02055 =
         0.02039   -0.00253   -0.00287    0.00407
AFIX 137
H10A  2    0.585231   -0.104678    0.946842    11.00000   -1.50000
H10B  2    0.758253    0.004471    0.896615    11.00000   -1.50000
H10C  2    0.842834   -0.146112    0.873034    11.00000   -1.50000
AFIX   0
C11   1    0.436117   -0.131830    0.747432    11.00000    0.01744    0.01541 =
         0.03818   -0.01413    0.00520   -0.00336
AFIX 137
H11A  2    0.325498   -0.094021    0.679635    11.00000   -1.50000
H11B  2    0.334907   -0.170175    0.814063    11.00000   -1.50000
H11C  2    0.582122   -0.204928    0.732583    11.00000   -1.50000
AFIX   0
C12   1    0.689919    0.045610    0.668385    11.00000    0.01613    0.01726 =
         0.01991   -0.00517    0.00436   -0.00191
AFIX 137
H12A  2    0.752770    0.119916    0.684883    11.00000   -1.50000
H12B  2    0.576937    0.083234    0.601363    11.00000   -1.50000
H12C  2    0.837781   -0.025588    0.651978    11.00000   -1.50000
AFIX   0
C13   1   -0.230682    0.449652    0.913978    11.00000    0.01512    0.01384 =
         0.01332   -0.00384    0.00039   -0.00159
AFIX  23
H13A  2   -0.274933    0.549249    0.911864    11.00000   -1.20000
H13B  2   -0.381082    0.428348    0.885575    11.00000   -1.20000
AFIX   0
HKLF 4
 
REM  cu_vipa_VDM39_P-1 in P-1 #2
REM R1 =  0.0321 for    2347 Fo > 4sig(Fo)  and  0.0332 for all    2445 data
REM    157 parameters refined using      0 restraints
 
END  
     
WGHT      0.0306      0.3178 

REM Instructions for potential hydrogen bonds
HTAB N1 O2_$1
HTAB C10 O2
EQIV $2 -x+1, -y, -z+2
HTAB C10 F1_$2
HTAB C12 O2
HTAB C13 O2_$1

REM Highest difference peak  0.277,  deepest hole -0.275,  1-sigma level  0.038
Q1    1  -0.0767  0.2491  0.7929  11.00000  0.05    0.28
Q2    1  -0.0350  0.4733  0.7766  11.00000  0.05    0.27
Q3    1  -0.0981  0.4347  0.8766  11.00000  0.05    0.25
Q4    1   0.6226  0.0094  0.7209  11.00000  0.05    0.25
Q5    1   0.6234 -0.0398  0.8229  11.00000  0.05    0.22
Q6    1   0.0383  0.3414  0.8340  11.00000  0.05    0.21
Q7    1   0.4979 -0.0731  0.7640  11.00000  0.05    0.21
Q8    1   0.0082  0.5801  0.7054  11.00000  0.05    0.21
Q9    1  -0.1230  0.5186  0.6801  11.00000  0.05    0.20
Q10   1   0.0505  0.6838  0.6457  11.00000  0.05    0.20
Q11   1  -0.1692  0.5380  0.6938  11.00000  0.05    0.19
Q12   1  -0.1939  0.5499  0.5784  11.00000  0.05    0.18
Q13   1  -0.0824  0.7311  0.5563  11.00000  0.05    0.18
Q14   1  -0.2632  0.5762  0.5962  11.00000  0.05    0.17
Q15   1   0.1224  0.6465  0.6242  11.00000  0.05    0.17
Q16   1  -0.1798  0.6509  0.5211  11.00000  0.05    0.17
Q17   1  -0.2269  0.6734  0.5316  11.00000  0.05    0.16
Q18   1  -0.0072  0.6956  0.5367  11.00000  0.05    0.16
Q19   1   0.4221  0.0358  0.7819  11.00000  0.05    0.16
Q20   1   0.1673  0.2368  0.8394  11.00000  0.05    0.16

  REM The information below was added by Olex2.
  REM
  REM R1 = 0.0321 for 2347 Fo > 4sig(Fo) and 0.0332 for all 9859 data
  REM n/a parameters refined using n/a restraints
  REM Highest difference peak 0.28, deepest hole -0.28
  REM Mean Shift 0, Max Shift 0.000.

  REM +++ Tabular Listing of Refinement Information +++
  REM R1_all = 0.0332
  REM R1_gt = 0.0321
  REM wR_ref = 0.0786
  REM GOOF = 1.036
  REM Shift_max = 0.000
  REM Shift_mean = 0
  REM Reflections_all = 9859
  REM Reflections_gt = 2347
  REM Parameters = n/a
  REM Hole = -0.28
  REM Peak = 0.28
  REM Flack = n/a

  
;
_cod_data_source_file            ja7b07891_si_002.cif
_cod_data_source_block           cu_vipa_vdm39_p-1
_cod_database_code               4126411
_shelxl_version_number           2013-2
_shelx_space_group_comment
;
The symmetry employed for this shelxl refinement is uniquely defined
by the following loop, which should always be used as a source of
symmetry information in preference to the above space-group names.
They are only intended as comments.
;
_shelx_estimated_absorpt_t_max   0.933
_shelx_estimated_absorpt_t_min   0.892
loop_
_space_group_symop_operation_xyz
'x, y, z'
'-x, -y, -z'
loop_
_atom_site_label
_atom_site_type_symbol
_atom_site_fract_x
_atom_site_fract_y
_atom_site_fract_z
_atom_site_U_iso_or_equiv
_atom_site_adp_type
_atom_site_occupancy
_atom_site_site_symmetry_order
_atom_site_calc_flag
_atom_site_refinement_flags_posn
F1 F -0.17880(13) 0.37141(7) 1.02750(5) 0.02229(17) Uani 1 1 d .
O1 O 0.29482(13) 0.08277(7) 0.79008(6) 0.01324(17) Uani 1 1 d .
O2 O 0.49274(14) 0.24690(8) 0.81185(7) 0.01665(18) Uani 1 1 d .
N1 N 0.05501(16) 0.27447(9) 0.82884(8) 0.01237(19) Uani 1 1 d .
H1 H -0.0738 0.2335 0.8363 0.015 Uiso 1 1 calc R
C1 C -0.04003(19) 0.52096(10) 0.71976(9) 0.0118(2) Uani 1 1 d .
C2 C -0.2251(2) 0.51818(11) 0.64487(9) 0.0148(2) Uani 1 1 d .
H2 H -0.3244 0.4507 0.6667 0.018 Uiso 1 1 calc R
C3 C -0.2639(2) 0.61403(12) 0.53860(9) 0.0174(2) Uani 1 1 d .
H3 H -0.3905 0.6122 0.4882 0.021 Uiso 1 1 calc R
C4 C -0.1182(2) 0.71248(11) 0.50588(9) 0.0174(2) Uani 1 1 d .
H4 H -0.1435 0.7771 0.4328 0.021 Uiso 1 1 calc R
C5 C 0.0645(2) 0.71622(11) 0.58025(9) 0.0165(2) Uani 1 1 d .
H5 H 0.1636 0.7838 0.5582 0.020 Uiso 1 1 calc R
C6 C 0.1024(2) 0.62118(11) 0.68696(9) 0.0142(2) Uani 1 1 d .
H6 H 0.2265 0.6247 0.7378 0.017 Uiso 1 1 calc R
C7 C 0.00371(19) 0.41744(10) 0.83672(9) 0.0118(2) Uani 1 1 d .
H7 H 0.1574 0.4291 0.8721 0.014 Uiso 1 1 calc R
C8 C 0.29903(19) 0.20453(10) 0.81014(8) 0.0111(2) Uani 1 1 d .
C9 C 0.53822(19) -0.01761(10) 0.77227(9) 0.0136(2) Uani 1 1 d .
C10 C 0.6950(2) -0.07069(12) 0.88192(10) 0.0225(3) Uani 1 1 d .
H10A H 0.5852 -0.1047 0.9468 0.034 Uiso 1 1 calc GR
H10B H 0.7583 0.0045 0.8966 0.034 Uiso 1 1 calc GR
H10C H 0.8428 -0.1461 0.8730 0.034 Uiso 1 1 calc GR
C11 C 0.4361(2) -0.13183(12) 0.74743(11) 0.0227(3) Uani 1 1 d .
H11A H 0.3255 -0.0940 0.6796 0.034 Uiso 1 1 calc GR
H11B H 0.3349 -0.1702 0.8141 0.034 Uiso 1 1 calc GR
H11C H 0.5821 -0.2049 0.7326 0.034 Uiso 1 1 calc GR
C12 C 0.6899(2) 0.04561(11) 0.66838(10) 0.0183(2) Uani 1 1 d .
H12A H 0.7528 0.1199 0.6849 0.027 Uiso 1 1 calc GR
H12B H 0.5769 0.0832 0.6014 0.027 Uiso 1 1 calc GR
H12C H 0.8378 -0.0256 0.6520 0.027 Uiso 1 1 calc GR
C13 C -0.2307(2) 0.44965(11) 0.91398(9) 0.0144(2) Uani 1 1 d .
H13A H -0.2749 0.5492 0.9119 0.017 Uiso 1 1 calc R
H13B H -0.3811 0.4283 0.8856 0.017 Uiso 1 1 calc R
loop_
_atom_site_aniso_label
_atom_site_aniso_U_11
_atom_site_aniso_U_22
_atom_site_aniso_U_33
_atom_site_aniso_U_23
_atom_site_aniso_U_13
_atom_site_aniso_U_12
F1 0.0270(4) 0.0217(3) 0.0143(3) -0.0018(3) 0.0025(3) -0.0026(3)
O1 0.0099(3) 0.0101(3) 0.0203(4) -0.0064(3) 0.0010(3) -0.0011(3)
O2 0.0115(4) 0.0154(4) 0.0254(4) -0.0084(3) 0.0001(3) -0.0039(3)
N1 0.0104(4) 0.0098(4) 0.0179(4) -0.0050(3) 0.0004(3) -0.0028(3)
C1 0.0102(5) 0.0110(5) 0.0139(5) -0.0059(4) 0.0018(4) 0.0004(4)
C2 0.0121(5) 0.0152(5) 0.0183(5) -0.0068(4) 0.0008(4) -0.0030(4)
C3 0.0140(5) 0.0212(5) 0.0168(5) -0.0073(4) -0.0021(4) -0.0005(4)
C4 0.0175(5) 0.0168(5) 0.0138(5) -0.0024(4) 0.0017(4) 0.0011(4)
C5 0.0159(5) 0.0143(5) 0.0190(5) -0.0048(4) 0.0045(4) -0.0041(4)
C6 0.0120(5) 0.0148(5) 0.0168(5) -0.0069(4) 0.0006(4) -0.0023(4)
C7 0.0110(5) 0.0100(5) 0.0152(5) -0.0053(4) -0.0007(4) -0.0017(4)
C8 0.0129(5) 0.0100(5) 0.0099(5) -0.0019(4) -0.0006(4) -0.0023(4)
C9 0.0104(5) 0.0103(5) 0.0186(5) -0.0050(4) 0.0015(4) 0.0010(4)
C10 0.0206(6) 0.0206(6) 0.0204(6) -0.0025(5) -0.0029(4) 0.0041(4)
C11 0.0174(5) 0.0154(5) 0.0382(7) -0.0141(5) 0.0052(5) -0.0034(4)
C12 0.0161(5) 0.0173(5) 0.0199(6) -0.0052(4) 0.0044(4) -0.0019(4)
C13 0.0151(5) 0.0138(5) 0.0133(5) -0.0038(4) 0.0004(4) -0.0016(4)
loop_
_atom_type_symbol
_atom_type_description
_atom_type_scat_dispersion_real
_atom_type_scat_dispersion_imag
_atom_type_scat_source
C C 0.0181 0.0091 'International Tables Vol C Tables 4.2.6.8 and 6.1.1.4'
H H 0.0000 0.0000 'International Tables Vol C Tables 4.2.6.8 and 6.1.1.4'
N N 0.0311 0.0180 'International Tables Vol C Tables 4.2.6.8 and 6.1.1.4'
O O 0.0492 0.0322 'International Tables Vol C Tables 4.2.6.8 and 6.1.1.4'
F F 0.0727 0.0534 'International Tables Vol C Tables 4.2.6.8 and 6.1.1.4'
loop_
_geom_angle_atom_site_label_1
_geom_angle_atom_site_label_2
_geom_angle_atom_site_label_3
_geom_angle
C8 O1 C9 121.16(8)
C8 N1 C7 120.49(8)
C2 C1 C7 120.82(9)
C6 C1 C2 119.23(10)
C6 C1 C7 119.94(9)
C3 C2 C1 120.14(10)
C4 C3 C2 120.24(10)
C5 C4 C3 119.83(10)
C4 C5 C6 120.08(10)
C5 C6 C1 120.47(10)
N1 C7 C1 112.83(8)
N1 C7 C13 110.42(8)
C13 C7 C1 109.00(8)
O1 C8 N1 109.95(8)
O2 C8 O1 125.76(9)
O2 C8 N1 124.29(9)
O1 C9 C10 110.03(8)
O1 C9 C11 101.88(8)
O1 C9 C12 110.71(8)
C10 C9 C11 110.73(9)
C10 C9 C12 112.83(9)
C11 C9 C12 110.13(9)
F1 C13 C7 110.23(8)
loop_
_geom_bond_atom_site_label_1
_geom_bond_atom_site_label_2
_geom_bond_distance
F1 C13 1.4015(12)
O1 C8 1.3470(12)
O1 C9 1.4830(12)
O2 C8 1.2218(13)
N1 C7 1.4597(13)
N1 C8 1.3526(13)
C1 C2 1.3987(14)
C1 C6 1.3914(15)
C1 C7 1.5218(14)
C2 C3 1.3904(15)
C3 C4 1.3888(16)
C4 C5 1.3885(16)
C5 C6 1.3905(15)
C7 C13 1.5160(14)
C9 C10 1.5192(15)
C9 C11 1.5202(15)
C9 C12 1.5211(15)
loop_
_geom_hbond_atom_site_label_D
_geom_hbond_atom_site_label_H
_geom_hbond_atom_site_label_A
_geom_hbond_distance_DH
_geom_hbond_distance_HA
_geom_hbond_distance_DA
_geom_hbond_angle_DHA
_geom_hbond_site_symmetry_A
N1 H1 O2 0.88 2.32 3.1083(11) 149.5 1_455
loop_
_geom_torsion_atom_site_label_1
_geom_torsion_atom_site_label_2
_geom_torsion_atom_site_label_3
_geom_torsion_atom_site_label_4
_geom_torsion
N1 C7 C13 F1 65.40(11)
C1 C2 C3 C4 0.41(16)
C1 C7 C13 F1 -170.12(8)
C2 C1 C6 C5 -0.99(15)
C2 C1 C7 N1 53.36(12)
C2 C1 C7 C13 -69.69(12)
C2 C3 C4 C5 -0.83(16)
C3 C4 C5 C6 0.34(16)
C4 C5 C6 C1 0.58(16)
C6 C1 C2 C3 0.50(15)
C6 C1 C7 N1 -127.56(10)
C6 C1 C7 C13 109.39(10)
C7 N1 C8 O1 -171.43(8)
C7 N1 C8 O2 8.77(15)
C7 C1 C2 C3 179.59(9)
C7 C1 C6 C5 179.91(9)
C8 O1 C9 C10 65.24(12)
C8 O1 C9 C11 -177.26(9)
C8 O1 C9 C12 -60.17(12)
C8 N1 C7 C1 86.64(11)
C8 N1 C7 C13 -151.10(9)
C9 O1 C8 O2 2.69(15)
C9 O1 C8 N1 -177.10(8)
loop_
_refln_index_h
_refln_index_k
_refln_index_l
_refln_F_squared_meas
_refln_F_squared_sigma
-1 0 0 84.25 3.2
-1 0 0 82.53 2.53
-1 0 0 80.64 3.2
1 0 0 86.14 3.28
1 0 0 83.01 3.28
-2 0 0 28.35 1.12
-2 0 0 27.9 0.94
-2 0 0 29.21 1.12
2 0 0 28.55 1.14
2 0 0 29.97 1.14
-3 0 0 1.22 0.13
-3 0 0 1.56 0.15
3 0 0 1.2 0.11
4 0 0 122.45 3.13
4 0 0 122.35 2.67
5 0 0 60.29 1.53
5 0 0 57.69 1.31
6 0 0 0.15 0.07
6 0 0 0.06 0.06
6 -1 0 0.25 0.06
6 -1 0 0.28 0.07
5 -1 0 46.67 1.03
5 -1 0 45.24 1.2
4 -1 0 19.13 0.46
4 -1 0 19 0.54
3 -1 0 7.64 0.33
3 -1 0 7.18 0.25
3 -1 0 7.48 0.23
-3 1 0 7.5 0.35
-3 1 0 6.84 0.35
-3 1 0 7.11 0.35
2 -1 0 41.82 1.65
2 -1 0 42.81 1.65
-2 1 0 41.96 1.36
-2 1 0 41.99 1.63
-2 1 0 41.08 1.63
1 -1 0 893.07 34.5
-1 1 0 915.47 34.47
-1 1 0 868.72 28.58
0 -1 0 124.77 3.91
0 -1 0 128.6 4.09
0 -1 0 127.73 4.94
0 -1 0 128.61 4.95
0 1 0 128.7 4.14
0 1 0 126.9 5
0 1 0 128.59 3.95
0 1 0 130.68 5
-2 -1 0 16.77 0.52
-3 -1 0 81.24 2.63
3 1 0 79.1 1.73
4 1 0 104.81 2.28
4 1 0 103.98 1.93
4 1 0 104.24 2.67
4 1 0 104.66 2.01
5 1 0 115.46 2.95
5 1 0 114.9 2.51
6 1 0 36.11 0.94
6 1 0 35.63 0.8
6 -2 0 2.11 0.1
6 -2 0 2.15 0.12
5 -2 0 2.38 0.17
5 -2 0 2.25 0.14
-5 2 0 2.44 0.2
4 -2 0 44.96 1.01
4 -2 0 43.8 1.16
4 -2 0 46.02 1.18
3 -2 0 6.84 0.25
3 -2 0 6.8 0.21
3 -2 0 6.42 0.23
2 -2 0 99.06 3.84
-2 2 0 97.83 3.13
-2 2 0 96.67 3.77
-2 2 0 96.75 3.77
1 -2 0 63.51 1.95
1 -2 0 63.4 2.47
1 -2 0 63.61 2.47
-1 2 0 64.55 1.95
-1 2 0 61.4 2.47
-1 2 0 65.22 2.48
-1 2 0 63.01 2.05
0 -2 0 77.31 3.11
0 -2 0 76.07 2.46
0 -2 0 84.68 2.59
0 -2 0 83.35 3.12
0 2 0 77.75 2.45
0 2 0 82.7 3.11
0 2 0 77.71 3.09
0 2 0 81.4 2.57
-1 -2 0 430.26 16.13
-1 -2 0 416.33 16.12
-1 -2 0 403.1 12.78
1 2 0 425.33 16.62
1 2 0 432.48 13.18
1 2 0 430.39 16.62
-2 -2 0 689.36 26.32
-2 -2 0 673.8 26.31
-2 -2 0 681.18 20.88
-3 -2 0 138.36 4.2
-3 -2 0 135.66 4.41
3 2 0 133.42 2.85
3 2 0 128.75 3.34
4 2 0 17.16 0.43
4 2 0 18.37 0.37
4 2 0 17.67 0.51
4 2 0 17.93 0.39
5 2 0 75.91 1.66
5 2 0 76.53 1.4
5 2 0 74.31 1.46
5 2 0 75.32 1.95
6 2 0 2.72 0.14
6 2 0 2.79 0.13
5 -3 0 5.3 0.21
5 -3 0 5.22 0.17
-5 3 0 5.49 0.19
4 -3 0 0.41 0.09
4 -3 0 0.28 0.1
4 -3 0 0.41 0.09
-4 3 0 0.45 0.15
-4 3 0 0.47 0.11
3 -3 0 105.54 2.69
3 -3 0 103.81 2.68
-3 3 0 97.44 2.48
-3 3 0 100.94 2.28
2 -3 0 31.46 1.24
2 -3 0 30.09 1.23
-2 3 0 29.45 1
-2 3 0 31.01 1.21
-2 3 0 29.62 1.2
1 -3 0 5.68 0.19
1 -3 0 5.99 0.26
1 -3 0 5.58 0.26
1 -3 0 5.55 0.22
-1 3 0 5.66 0.26
-1 3 0 5.56 0.21
-1 3 0 5.29 0.26
-1 3 0 5.65 0.19
0 -3 0 54.56 2.19
0 -3 0 56.51 1.73
0 -3 0 56.86 1.81
0 3 0 58.19 2.23
0 3 0 57.47 1.77
0 3 0 55.76 1.85
-1 -3 0 112.81 4.6
-1 -3 0 126.14 3.83
-1 -3 0 115.58 3.65
-1 -3 0 120.46 4.6
1 3 0 114.85 4.51
1 3 0 117.83 3.57
1 3 0 116.18 4.51
-2 -3 0 92.49 4.14
-2 -3 0 112.55 3.29
-2 -3 0 116.14 4.14
2 3 0 128.38 4.7
2 3 0 115.38 4.7
2 3 0 121.03 3.73
-3 -3 0 10.39 0.37
-3 -3 0 10.43 0.39
3 3 0 10.11 0.24
3 3 0 9.57 0.34
3 3 0 10.23 0.25
4 3 0 102.12 1.94
4 3 0 101.73 1.86
4 3 0 97.21 2.58
4 3 0 102.84 2.21
5 3 0 43.56 0.81
5 3 0 43.21 0.96
5 3 0 41.48 1.13
5 3 0 43.38 0.85
6 3 0 1.76 0.11
6 3 0 1.6 0.13
5 -4 0 5.44 0.2
5 -4 0 5.48 0.17
-5 4 0 5.55 0.29
-5 4 0 5.38 0.17
4 -4 0 12.4 0.32
4 -4 0 11.7 0.34
4 -4 0 12.03 0.37
-4 4 0 12.36 0.38
-4 4 0 12.12 0.33
3 -4 0 0.18 0.08
3 -4 0 0.39 0.11
-3 4 0 0.44 0.09
-3 4 0 0.33 0.11
2 -4 0 130.95 3.39
2 -4 0 135.35 3.41
-2 4 0 134.19 3
-2 4 0 128.75 3.27
1 -4 0 16.82 0.71
1 -4 0 17.07 0.71
1 -4 0 17.38 0.55
-1 4 0 17.02 0.59
-1 4 0 17 0.72
-1 4 0 16.81 0.71
-1 4 0 17.74 0.55
0 -4 0 30.25 1.21
0 -4 0 30.81 0.95
0 -4 0 31.34 1
0 -4 0 29.83 1.21
0 4 0 31.85 0.96
0 4 0 30.97 1.21
0 4 0 29.67 1
0 4 0 29.8 1.21
-1 -4 0 18.22 0.58
-1 -4 0 17.54 0.73
-1 -4 0 18.31 0.73
-1 -4 0 18.74 0.6
1 4 0 18.17 0.74
1 4 0 19.04 0.74
-2 -4 0 231.16 7.36
-2 -4 0 224.72 8.88
-2 -4 0 229.02 7.04
-2 -4 0 234.33 8.88
2 4 0 234.1 9.03
2 4 0 228.32 9.03
2 4 0 238.63 7.16
-3 -4 0 2.09 0.2
-3 -4 0 1.64 0.16
3 4 0 1.75 0.11
3 4 0 1.35 0.16
3 4 0 1.36 0.09
3 4 0 1.45 0.1
4 4 0 43.49 0.98
4 4 0 44.59 0.83
4 4 0 44.22 0.86
4 4 0 42.46 1.15
5 4 0 13.84 0.32
5 4 0 13.82 0.41
5 4 0 13.99 0.3
5 4 0 13.88 0.35
6 4 0 9.4 0.28
6 4 0 8.65 0.23
6 4 0 9.14 0.24
5 -5 0 6.99 0.24
5 -5 0 6.99 0.19
-5 5 0 6.98 0.29
-5 5 0 7.35 0.19
4 -5 0 0.04 0.11
4 -5 0 0.03 0.08
4 -5 0 0 0.08
-4 5 0 0.11 0.11
-4 5 0 -0.01 0.07
3 -5 0 1.83 0.15
3 -5 0 2.06 0.19
-3 5 0 2.21 0.18
-3 5 0 1.99 0.13
2 -5 0 3.81 0.24
2 -5 0 3.05 0.18
-2 5 0 3.27 0.15
-2 5 0 3.45 0.18
1 -5 0 16.63 0.71
1 -5 0 14.74 0.53
1 -5 0 16.61 0.46
1 -5 0 16.12 0.48
1 -5 0 16.42 0.73
-1 5 0 16.17 0.45
-1 5 0 16.66 0.4
-1 5 0 15.87 0.71
-1 5 0 15.9 0.58
0 -5 0 1.71 0.15
0 -5 0 1.78 0.13
0 -5 0 1.55 0.19
0 -5 0 1.81 0.18
0 5 0 1.79 0.2
0 5 0 1.9 0.13
0 5 0 1.86 0.18
0 5 0 1.78 0.15
-1 -5 0 200.98 6.34
-1 -5 0 201.26 8
-1 -5 0 206.65 6.62
-1 -5 0 217.71 8.01
1 5 0 204.73 8.14
1 5 0 214.65 6.45
1 5 0 211.75 8.15
-2 -5 0 48.71 1.61
-2 -5 0 55.17 1.67
-2 -5 0 49.19 2.02
-2 -5 0 52.67 2.02
2 5 0 49.55 1.54
2 5 0 48.09 0.92
2 5 0 47.63 0.96
2 5 0 43.74 1.27
2 5 0 49.4 1.08
2 5 0 52.59 1.92
2 5 0 50.55 1.92
3 5 0 128.93 2.82
3 5 0 126.59 3.3
3 5 0 132.95 2.38
3 5 0 133.19 2.48
3 5 0 126.97 3.31
3 5 0 128.7 3.66
4 5 0 7.57 0.2
4 5 0 7.47 0.28
4 5 0 7.87 0.21
4 5 0 7.74 0.23
5 5 0 0.85 0.09
5 5 0 0.93 0.08
5 5 0 0.83 0.08
5 5 0 1.44 0.12
6 5 0 27.72 0.54
6 5 0 28.41 0.62
6 5 0 26.29 0.72
4 -6 0 17.61 0.47
4 -6 0 17.7 0.5
4 -6 0 17.5 0.42
-4 6 0 17.4 0.48
-4 6 0 17.61 0.43
3 -6 0 65.26 1.68
3 -6 0 63.6 1.67
-3 6 0 64.26 1.52
-3 6 0 66.9 1.66
2 -6 0 121.23 3.07
2 -6 0 118.69 3.09
-2 6 0 119.76 2.71
-2 6 0 117.05 2.95
1 -6 0 3.17 0.19
1 -6 0 3.36 0.2
1 -6 0 3.32 0.16
-1 6 0 3.14 0.17
-1 6 0 3.36 0.13
0 -6 0 184.16 5.66
0 -6 0 178.32 4.73
0 -6 0 182.89 4.19
0 -6 0 189.83 7.18
0 -6 0 184.38 4.57
0 -6 0 180.16 7.17
0 -6 0 190.45 5.93
0 6 0 178.9 6.92
0 6 0 175.96 6.92
0 6 0 183.95 4.55
0 6 0 184.92 4.05
0 6 0 178.99 4.41
0 6 0 161.29 5.47
0 6 0 180.82 5.72
-1 -6 0 7.79 0.44
-1 -6 0 6.93 0.23
-1 -6 0 6.95 0.29
-1 -6 0 6.55 0.32
-1 -6 0 6.38 0.4
-1 -6 0 7.67 0.32
1 6 0 7.15 0.25
-2 -6 0 146.98 3.65
-2 -6 0 145.37 3.34
2 6 0 159.13 4.07
2 6 0 156.89 3.45
2 6 0 161.16 3.04
2 6 0 160.34 2.92
3 6 0 1.99 0.12
3 6 0 2.13 0.14
3 6 0 2.2 0.15
3 6 0 2.26 0.18
3 6 0 2.01 0.13
4 6 0 7.73 0.23
4 6 0 7.59 0.2
4 6 0 8.04 0.21
4 6 0 7.6 0.3
5 6 0 0.63 0.14
5 6 0 0.4 0.08
5 6 0 0.5 0.08
6 6 0 0.16 0.06
6 6 0 0.19 0.06
4 -7 0 14.77 0.35
-4 7 0 13.88 0.34
-4 7 0 14.53 0.39
3 -7 0 5.27 0.21
-3 7 0 5.19 0.21
-3 7 0 5.2 0.17
2 -7 0 268.4 6.86
-2 7 0 263.82 6.44
-2 7 0 256.11 5.91
1 -7 0 13.07 0.41
1 -7 0 13.17 0.39
-1 7 0 13.07 0.33
-1 7 0 12.44 0.37
0 -7 0 8.07 0.27
0 -7 0 8.1 0.22
0 -7 0 7.5 0.34
0 7 0 8.05 0.26
0 7 0 8.07 0.23
0 7 0 7.64 0.28
-1 -7 0 20.71 0.5
-1 -7 0 19.98 0.56
1 7 0 20.81 0.58
1 7 0 21.22 0.58
-2 -7 0 95.5 2.42
-2 -7 0 96.94 2.21
2 7 0 96.17 1.78
2 7 0 96.19 1.85
2 7 0 96.76 2.1
-3 -7 0 45.22 1.2
-3 -7 0 45.93 1.08
3 7 0 47.13 1.24
3 7 0 47.83 0.94
3 7 0 47.88 0.9
3 7 0 47.78 1.06
4 7 0 13.56 0.29
4 7 0 13.47 0.34
4 7 0 13.57 0.31
5 7 0 17.92 0.42
5 7 0 17.57 0.37
6 7 0 13.64 0.31
6 7 0 13.05 0.28
3 -8 0 35.09 0.78
3 -8 0 34.54 0.91
-3 8 0 33.51 0.8
-3 8 0 35.36 0.88
2 -8 0 96.15 2.48
-2 8 0 98.87 2.27
-2 8 0 99.54 2.48
1 -8 0 19.34 0.56
1 -8 0 19.38 0.53
-1 8 0 18.95 0.52
-1 8 0 19.33 0.47
0 -8 0 41.6 1.07
0 -8 0 41.82 0.97
0 -8 0 40.87 1.12
0 8 0 43.49 1.09
0 8 0 41.49 1.13
-1 -8 0 11.06 0.3
-1 -8 0 11.19 0.35
1 8 0 10.31 0.35
1 8 0 10.91 0.33
-2 -8 0 7.61 0.23
-2 -8 0 7.29 0.29
2 8 0 7.44 0.22
2 8 0 7.5 0.22
2 8 0 7.11 0.25
-3 -8 0 203.05 4.6
-3 -8 0 200.21 5.01
3 8 0 208.41 3.9
3 8 0 200.51 4.43
3 8 0 205.27 5.22
-4 -8 0 33.11 0.81
4 8 0 37.3 0.73
4 8 0 36.66 0.83
5 8 0 2.15 0.11
5 8 0 2.14 0.11
3 -9 0 0.07 0.06
3 -9 0 0.12 0.06
-3 9 0 0.08 0.06
2 -9 0 4.97 0.2
-2 9 0 4.71 0.18
-2 9 0 4.94 0.15
1 -9 0 196.79 4.87
1 -9 0 196.48 5.04
-1 9 0 194.89 5.04
-1 9 0 198.78 4.88
0 -9 0 65.51 1.51
0 -9 0 64.98 1.73
0 -9 0 66.74 1.66
0 9 0 67.79 1.79
0 9 0 69.36 1.72
-1 -9 0 0.84 0.08
-1 -9 0 0.66 0.11
1 9 0 0.89 0.1
-2 -9 0 3.44 0.15
-2 -9 0 3.12 0.21
2 9 0 3.17 0.19
2 9 0 3.45 0.17
-3 -9 0 31.39 0.83
-3 -9 0 30.77 0.74
3 9 0 30.87 0.62
3 9 0 30.11 0.92
3 9 0 31.34 0.7
-4 -9 0 20.39 0.51
-4 -9 0 20.58 0.61
4 9 0 21.23 0.48
4 9 0 20.75 0.42
4 9 0 19.43 0.64
-5 -9 0 0.39 0.11
5 9 0 0.23 0.05
5 9 0 0.28 0.06
2 -10 0 4.43 0.17
-2 10 0 4.36 0.16
1 -10 0 -0.02 0.1
1 -10 0 -0.09 0.12
-1 10 0 0.16 0.13
-1 10 0 0.1 0.08
0 -10 0 3.45 0.26
0 -10 0 2.97 0.18
0 10 0 2.73 0.19
0 10 0 2.81 0.19
-1 -10 0 60.71 1.53
-1 -10 0 60.16 1.39
-2 -10 0 13.64 0.36
-2 -10 0 14.71 0.42
-3 -10 0 1.8 0.12
-3 -10 0 1.81 0.14
3 10 0 1.94 0.18
3 10 0 1.96 0.15
3 10 0 1.85 0.13
-4 -10 0 12.97 0.41
-4 -10 0 13.33 0.33
4 10 0 13.67 0.29
5 10 0 7.65 0.17
1 -11 0 25.04 0.67
-1 11 0 24.69 0.67
0 -11 0 21.94 0.62
0 -11 0 21.89 0.57
0 11 0 22.28 0.61
-1 -11 0 4.75 0.15
-1 -11 0 4.79 0.19
1 11 0 4.98 0.19
-2 -11 0 3.9 0.13
-2 -11 0 4 0.18
2 11 0 4.01 0.17
-3 -11 0 0.1 0.05
-3 -11 0 0.1 0.09
3 11 0 -0.02 0.1
-4 -11 0 0.35 0.05
-4 -11 0 0.37 0.14
-1 -12 0 0.4 0.07
1 12 0 0.49 0.07
-2 -12 0 19.84 0.47
-2 -12 0 20.55 0.52
2 12 0 21.22 0.55
2 12 0 20.45 0.61
-3 -12 0 7.08 0.22
-3 -12 0 7.28 0.18
2 12 -1 19.56 0.57
-2 -12 1 19.52 0.51
1 12 -1 7.29 0.24
1 12 -1 7.35 0.22
-1 -12 1 7.27 0.22
-4 -11 1 3.88 0.13
3 11 -1 29.8 0.87
-3 -11 1 27.57 0.65
-3 -11 1 27.71 0.71
2 11 -1 0.34 0.07
2 11 -1 0.28 0.09
-2 -11 1 0.29 0.05
-2 -11 1 0.29 0.08
1 11 -1 0 0.07
-1 -11 1 0 0.06
-1 -11 1 -0.04 0.07
0 11 -1 98.1 2.52
0 -11 1 98.99 2.44
0 -11 1 97.04 2.53
-1 11 -1 0.21 0.1
1 -11 1 0.15 0.1
4 10 -1 4.69 0.25
4 10 -1 4.48 0.14
-4 -10 1 4.44 0.15
3 10 -1 52.87 1.37
3 10 -1 52.76 1.03
3 10 -1 53.77 1.53
-3 -10 1 53.15 1.23
-3 -10 1 53.3 1.35
2 10 -1 1.6 0.14
-2 -10 1 1.58 0.11
-2 -10 1 1.87 0.17
1 10 -1 161.57 4.14
-1 -10 1 159.65 3.67
-1 -10 1 162.03 4
0 10 -1 43.62 1.15
0 -10 1 45.22 1.18
0 -10 1 42.78 1.12
-1 10 -1 0.82 0.12
-1 10 -1 0.94 0.1
1 -10 1 0.83 0.11
1 -10 1 0.9 0.11
-2 10 -1 3.59 0.15
2 -10 1 3.87 0.14
2 -10 1 3.68 0.16
5 9 -1 2.94 0.1
-5 -9 1 2.75 0.19
4 9 -1 7.53 0.19
4 9 -1 7.77 0.21
4 9 -1 7.7 0.31
-4 -9 1 7.75 0.24
3 9 -1 19.02 0.53
3 9 -1 19.86 0.41
3 9 -1 19.29 0.6
-3 -9 1 19.09 0.54
-3 -9 1 18.59 0.47
2 9 -1 7.39 0.23
-2 -9 1 6.94 0.21
-2 -9 1 7.19 0.27
-1 -9 1 48.88 1.24
-1 -9 1 48.13 1.13
0 9 -1 166.83 4.25
0 9 -1 164.7 4.11
0 -9 1 162.83 4.1
0 -9 1 166.87 3.75
-1 9 -1 0.06 0.13
-1 9 -1 0.02 0.09
1 -9 1 0.17 0.11
1 -9 1 0.07 0.1
-2 9 -1 31.04 0.87
-2 9 -1 30.2 0.79
2 -9 1 31.16 0.83
-3 9 -1 2.22 0.12
3 -9 1 2.32 0.12
3 -9 1 2.39 0.12
5 8 -1 35.88 0.7
5 8 -1 35.7 0.79
4 8 -1 3.59 0.14
4 8 -1 3.15 0.15
4 8 -1 3.47 0.24
-4 -8 1 3.85 0.24
3 8 -1 147.46 4.05
3 8 -1 139.48 3.1
3 8 -1 141.09 3.65
3 8 -1 143.97 2.74
-3 -8 1 137.68 3.14
-3 -8 1 137.01 3.43
2 8 -1 8.78 0.24
2 8 -1 9.23 0.29
-2 -8 1 9.06 0.33
-2 -8 1 9.31 0.27
1 8 -1 58.01 1.52
-1 -8 1 56.89 1.44
-1 -8 1 55.89 1.31
0 8 -1 0.25 0.1
0 8 -1 0.3 0.09
0 -8 1 0.29 0.07
0 -8 1 0.2 0.09
0 -8 1 0.29 0.16
-1 8 -1 25.99 0.69
-1 8 -1 25.88 0.73
1 -8 1 26.18 0.69
1 -8 1 25.93 0.72
-2 8 -1 9.34 0.42
-2 8 -1 8.37 0.26
-2 8 -1 7.51 0.22
2 -8 1 8.44 0.28
-3 8 -1 8.6 0.26
-3 8 -1 8.59 0.22
3 -8 1 9.17 0.24
3 -8 1 8.94 0.27
6 7 -1 3.13 0.1
5 7 -1 4.06 0.14
5 7 -1 3.98 0.15
4 7 -1 68.93 1.5
4 7 -1 69.14 1.32
4 7 -1 66.03 1.95
3 7 -1 10.3 0.25
3 7 -1 9.83 0.37
3 7 -1 10.91 0.28
-3 -7 1 10.45 0.35
-3 -7 1 10.68 0.43
2 7 -1 67.9 1.34
2 7 -1 69.18 1.79
2 7 -1 70.53 1.52
-2 -7 1 70.24 1.78
1 7 -1 0.65 0.09
1 7 -1 0.7 0.14
-1 -7 1 0.66 0.12
-1 -7 1 0.45 0.08
0 7 -1 3.7 0.16
0 7 -1 3.13 0.18
0 -7 1 3.24 0.14
0 -7 1 3.42 0.28
0 -7 1 3.36 0.19
-1 7 -1 3.49 0.14
-1 7 -1 3.56 0.18
1 -7 1 3.61 0.16
1 -7 1 3.49 0.19
-2 7 -1 65.54 1.64
-2 7 -1 64.3 1.5
2 -7 1 62.41 1.63
-3 7 -1 4.8 0.19
-3 7 -1 4.35 0.15
3 -7 1 4.69 0.2
-4 7 -1 70.66 1.76
-4 7 -1 70.09 1.61
4 -7 1 72.69 1.58
6 6 -1 0.26 0.07
6 6 -1 0.21 0.06
5 6 -1 27.04 0.54
5 6 -1 26.18 0.61
4 6 -1 18.41 0.37
4 6 -1 16.94 0.57
4 6 -1 18.42 0.38
4 6 -1 17.34 0.43
3 6 -1 7.97 0.2
3 6 -1 7.72 0.21
3 6 -1 7.97 0.32
3 6 -1 7.97 0.24
2 6 -1 20.11 0.42
2 6 -1 19.75 0.4
2 6 -1 19.88 0.54
2 6 -1 19.45 0.47
-2 -6 1 18.45 0.5
-2 -6 1 18.25 0.58
1 6 -1 86.02 2.15
1 6 -1 85.06 1.82
1 6 -1 79.5 1.61
-1 -6 1 83.48 2.11
-1 -6 1 84.61 1.93
0 6 -1 44.62 1.13
0 6 -1 44.28 1.03
0 -6 1 44.35 1.73
0 -6 1 43.74 0.97
0 -6 1 41.17 1.14
0 -6 1 40.41 1.33
0 -6 1 39.06 1.71
-1 6 -1 1.76 0.11
-1 6 -1 1.52 0.15
-1 6 -1 1.67 0.17
1 -6 1 1.68 0.12
1 -6 1 1.39 0.13
1 -6 1 1.93 0.15
-2 6 -1 11.55 0.34
-2 6 -1 10.7 0.29
2 -6 1 10.83 0.36
-3 6 -1 52.68 1.24
-3 6 -1 53.72 1.35
3 -6 1 56.32 1.44
3 -6 1 54.19 1.44
-4 6 -1 15.87 0.43
-4 6 -1 15.4 0.38
4 -6 1 16.4 0.45
4 -6 1 16.89 0.4
6 5 -1 0.49 0.07
6 5 -1 0.54 0.07
5 5 -1 77.29 2
5 5 -1 78.08 1.51
5 5 -1 78.37 1.71
4 5 -1 32.46 1.02
4 5 -1 35.66 0.66
4 5 -1 35.06 0.69
4 5 -1 34.31 0.78
4 5 -1 34.9 0.92
3 5 -1 0.27 0.07
3 5 -1 0.14 0.14
3 5 -1 0.24 0.08
3 5 -1 0.29 0.09
2 5 -1 11.8 0.36
2 5 -1 12.51 0.29
2 5 -1 12.08 0.32
2 5 -1 12.44 0.27
-2 -5 1 11.42 0.54
-2 -5 1 13.16 0.41
-2 -5 1 12.69 0.54
-2 -5 1 11.86 0.45
1 5 -1 8.33 0.38
-1 -5 1 9.91 0.33
-1 -5 1 8.91 0.42
-1 -5 1 9.25 0.34
-1 -5 1 9.62 0.44
0 5 -1 84.96 3.36
0 5 -1 86.77 2.77
0 -5 1 86.44 2.73
0 -5 1 90.47 3.46
0 -5 1 88.15 3.45
-1 5 -1 192.02 7.16
-1 5 -1 186.01 7.16
-1 5 -1 168.58 4.72
-1 5 -1 180.75 5.92
-1 5 -1 187.73 4.19
-1 5 -1 189.4 4.56
1 -5 1 189.74 4.69
1 -5 1 190.56 5.8
1 -5 1 191.64 4.3
1 -5 1 187.12 7.35
1 -5 1 192.98 4.84
1 -5 1 183.1 7.36
-2 5 -1 10.05 0.29
-2 5 -1 8.16 0.25
2 -5 1 10.71 0.37
2 -5 1 11.32 0.35
2 -5 1 10.77 0.41
-3 5 -1 23.76 0.58
-3 5 -1 24.43 0.65
3 -5 1 25.04 0.68
3 -5 1 24.62 0.69
-4 5 -1 0.68 0.11
-4 5 -1 0.3 0.07
4 -5 1 0.39 0.08
4 -5 1 0.42 0.09
4 -5 1 0.41 0.13
-5 5 -1 3.57 0.12
-5 5 -1 3.83 0.21
5 -5 1 3.87 0.13
6 4 -1 20.8 0.46
6 4 -1 19.98 0.55
6 4 -1 19.84 0.42
5 4 -1 12.81 0.33
5 4 -1 12.9 0.29
5 4 -1 12.64 0.39
4 4 -1 2.88 0.21
4 4 -1 2.62 0.14
4 4 -1 3.16 0.16
4 4 -1 2.96 0.13
4 4 -1 3.06 0.27
3 4 -1 25.25 0.72
3 4 -1 26.61 0.8
3 4 -1 26.53 0.6
-3 -4 1 25.06 0.84
2 4 -1 92.77 3.53
2 4 -1 89.57 3.53
-2 -4 1 88.22 2.8
-2 -4 1 95.17 2.91
-2 -4 1 90.49 3.52
-2 -4 1 89.16 3.52
1 4 -1 40.94 1.62
-1 -4 1 42.64 1.37
-1 -4 1 42.71 1.32
-1 -4 1 42.46 1.67
-1 -4 1 41.06 1.67
0 4 -1 48.97 1.9
0 4 -1 48.84 1.56
0 4 -1 47.55 1.9
0 -4 1 50.52 1.62
0 -4 1 50.85 1.97
0 -4 1 48.55 1.97
0 -4 1 50.9 1.55
-1 4 -1 99.13 3.16
-1 4 -1 95.86 3.81
-1 4 -1 98.06 3.82
1 -4 1 101.44 3.98
1 -4 1 101.04 3.14
1 -4 1 103.71 3.98
-2 4 -1 8.3 0.24
-2 4 -1 8.06 0.28
2 -4 1 8.03 0.35
2 -4 1 9.01 0.29
-3 4 -1 9.12 0.27
-3 4 -1 10.03 0.32
3 -4 1 9.48 0.29
3 -4 1 8.93 0.32
-4 4 -1 77.49 1.95
-4 4 -1 77.65 1.79
4 -4 1 76.44 1.98
4 -4 1 76.17 1.98
4 -4 1 77.98 1.69
-5 4 -1 0.32 0.13
-5 4 -1 0.18 0.06
5 -4 1 0.24 0.07
5 -4 1 0.26 0.09
6 3 -1 1.5 0.11
6 3 -1 1.74 0.13
5 3 -1 15.28 0.45
5 3 -1 15.46 0.34
5 3 -1 15.58 0.38
4 3 -1 19.07 0.38
4 3 -1 18.07 0.44
4 3 -1 18.68 0.4
4 3 -1 17.65 0.52
3 3 -1 295.38 5.3
3 3 -1 294.89 5.53
3 3 -1 282.23 7.36
3 3 -1 290.85 6.28
-3 -3 1 283.23 8.74
-3 -3 1 287.3 9.14
-2 -3 1 2.96 0.14
-2 -3 1 3.17 0.14
-2 -3 1 2.84 0.14
1 3 -1 0.82 0.08
1 3 -1 0.82 0.08
-1 -3 1 0.87 0.08
-1 -3 1 0.84 0.07
-1 -3 1 0.83 0.04
-1 -3 1 0.74 0.07
0 3 -1 82.81 3.2
0 3 -1 81.9 3.2
0 3 -1 80.02 2.65
0 3 -1 84.67 2.53
0 -3 1 82.74 3.19
0 -3 1 81.37 2.53
0 -3 1 82.89 2.64
0 -3 1 81.67 3.19
-1 3 -1 54.18 2.1
-1 3 -1 53.03 1.73
-1 3 -1 53.71 2.1
1 -3 1 55.21 2.11
1 -3 1 54.54 1.66
1 -3 1 52.28 2.11
-2 3 -1 217.43 7.38
-2 3 -1 244.51 8.91
-2 3 -1 227.47 8.91
2 -3 1 236.18 9.19
2 -3 1 235.02 6.06
2 -3 1 240.61 9.19
-3 3 -1 51.11 1.18
-3 3 -1 49.87 1.29
3 -3 1 50.01 1.33
3 -3 1 51.9 1.33
-4 3 -1 33.64 0.89
-4 3 -1 33.69 0.8
4 -3 1 33.41 0.91
4 -3 1 34.87 0.9
4 -3 1 34.19 0.78
-5 3 -1 3.6 0.27
5 -3 1 3.38 0.14
5 -3 1 3.27 0.17
6 2 -1 3.19 0.14
6 2 -1 3.63 0.16
5 2 -1 181.59 4.57
5 2 -1 176.62 3.42
5 2 -1 180.34 3.9
4 2 -1 14.33 0.33
4 2 -1 14.07 0.35
4 2 -1 16.6 0.46
4 2 -1 16.83 0.39
3 2 -1 87.39 1.88
3 2 -1 85.58 1.66
3 2 -1 84.51 2.21
3 2 -1 86.91 1.59
-3 -2 1 89.62 2.8
-3 -2 1 92.15 2.93
-2 -2 1 162.46 4.99
-2 -2 1 163.52 5.22
1 2 -1 2.43 0.11
-1 -2 1 2.41 0.12
-1 -2 1 2.67 0.09
-1 -2 1 2.37 0.12
-1 -2 1 2.44 0.1
0 2 -1 0.07 0.03
0 2 -1 0.1 0.02
0 2 -1 0 0.03
0 2 -1 0.02 0.03
0 -2 1 0.06 0.03
0 -2 1 0.1 0.02
0 -2 1 0.03 0.02
0 -2 1 0.11 0.03
-1 2 -1 43.97 1.72
-1 2 -1 43.65 1.72
-1 2 -1 44.73 1.43
1 -2 1 44.18 1.71
1 -2 1 44.62 1.71
1 -2 1 42.46 1.34
-2 2 -1 70.68 2.77
-2 2 -1 73.13 2.77
-2 2 -1 69.62 2.3
2 -2 1 70.28 2.77
2 -2 1 72.06 2.77
-3 2 -1 128.9 3.22
3 -2 1 137.96 3.56
3 -2 1 138.79 3.55
3 -2 1 140.8 3.03
-4 2 -1 40.9 0.98
-4 2 -1 41.59 1.08
4 -2 1 41.33 0.93
4 -2 1 40.85 1.07
4 -2 1 41.07 1.09
-5 2 -1 1.67 0.12
5 -2 1 1.55 0.13
5 -2 1 1.9 0.16
6 -2 1 8.98 0.22
6 -2 1 8.99 0.26
6 1 -1 99.96 2.2
6 1 -1 102.19 2.57
5 1 -1 47.51 1.09
5 1 -1 50.43 1.28
4 1 -1 196.26 3.74
4 1 -1 195.25 4.25
4 1 -1 195.44 3.58
4 1 -1 197.11 4.98
3 1 -1 3.36 0.18
3 1 -1 3.31 0.2
-3 -1 1 3.52 0.15
-3 -1 1 3.33 0.22
-2 -1 1 19.91 0.65
-2 -1 1 19.63 0.62
-1 -1 1 1.82 0.08
-1 -1 1 1.82 0.08
-1 -1 1 1.84 0.07
-1 -1 1 1.87 0.07
0 1 -1 75.65 2.37
0 1 -1 74.49 2.87
0 1 -1 71.3 2.87
0 -1 1 66.75 2.11
0 -1 1 65.32 2.67
0 -1 1 74.93 2.69
-1 1 -1 0.91 0.07
-1 1 -1 0.91 0.06
-1 1 -1 0.88 0.07
1 -1 1 0.89 0.07
1 -1 1 0.86 0.07
1 -1 1 0.87 0.03
-2 1 -1 116.46 3.74
-2 1 -1 115.4 4.51
-2 1 -1 117.31 4.51
2 -1 1 119.24 4.62
3 -1 1 2.08 0.15
3 -1 1 2.18 0.17
3 -1 1 2.1 0.15
4 -1 1 2.4 0.17
4 -1 1 2.92 0.15
4 -1 1 2.61 0.16
-5 1 -1 24.24 0.61
5 -1 1 23.45 0.55
5 -1 1 23.8 0.65
-6 1 -1 6.64 0.24
6 -1 1 6.62 0.18
6 -1 1 6.57 0.21
6 0 -1 61.7 1.58
6 0 -1 61.76 1.35
5 0 -1 12.06 0.31
5 0 -1 11.8 0.37
4 0 -1 0.25 0.08
4 0 -1 0.09 0.09
3 0 -1 70.62 1.56
3 0 -1 71.58 1.83
-3 0 1 69.76 2.27
-2 0 1 33.16 1.02
-2 0 1 33.16 1.08
-1 0 1 63.67 2.1
-1 0 1 66.66 2.53
0 0 -1 44.77 1.75
0 0 -1 43.46 1.75
0 0 1 46.32 1.83
0 0 1 46.02 1.83
-1 0 -1 27.07 1.05
-1 0 -1 25.89 1.05
1 0 1 27.31 0.89
1 0 1 29.38 1.12
-2 0 -1 2.93 0.15
-2 0 -1 3 0.14
-2 0 -1 3.09 0.15
2 0 1 3.14 0.15
2 0 1 2.99 0.15
-3 0 -1 19.5 0.78
-3 0 -1 19.14 0.68
-3 0 -1 18.78 0.77
3 0 1 18.75 0.54
3 0 1 20.07 0.78
3 0 1 19.2 0.47
3 0 1 20.1 0.78
4 0 1 79.67 2.08
4 0 1 81.83 1.78
5 0 1 8.28 0.24
5 0 1 8.38 0.28
6 0 1 3.78 0.16
6 0 1 3.92 0.13
6 -1 -1 1.03 0.08
6 -1 -1 0.92 0.07
5 -1 -1 67.32 1.74
5 -1 -1 67.03 1.48
4 -1 -1 154.88 3.93
4 -1 -1 153.27 3.35
3 -1 -1 275.77 5.83
3 -1 -1 263.44 6.83
-3 1 1 266.1 8.55
2 -1 -1 1.08 0.08
2 -1 -1 1.1 0.08
-2 1 1 0.76 0.08
-2 1 1 1.09 0.08
-2 1 1 1 0.09
1 -1 -1 309.66 10.05
1 -1 -1 312.23 12.1
1 -1 -1 316.64 12.11
-1 1 1 302.59 11.9
-1 1 1 308.06 9.89
-1 1 1 307.32 11.91
-1 1 1 312.79 9.42
0 -1 -1 196.33 7.48
0 -1 -1 191.93 5.92
0 -1 -1 194.71 6.2
0 -1 -1 183.9 7.48
0 1 1 193.97 6.38
0 1 1 196.83 7.7
0 1 1 199.98 6.09
0 1 1 198.22 7.69
-1 -1 -1 9.61 0.38
-1 -1 -1 9.88 0.38
-1 -1 -1 9.4 0.3
1 1 1 9.78 0.39
1 1 1 9.86 0.31
-2 -1 -1 20.43 0.79
-2 -1 -1 20 0.79
-2 -1 -1 19.85 0.62
2 1 1 21.5 0.84
2 1 1 21.27 0.84
-3 -1 -1 7.26 0.32
-3 -1 -1 7.3 0.31
-3 -1 -1 6.95 0.31
3 1 1 6.59 0.23
3 1 1 7.28 0.26
4 1 1 2.22 0.16
4 1 1 2.35 0.14
4 1 1 2.48 0.15
4 1 1 2.25 0.15
5 1 1 61.06 1.57
5 1 1 59.68 1.34
6 1 1 14.41 0.4
6 1 1 14.53 0.35
6 -2 -1 5.66 0.18
6 -2 -1 5.51 0.16
5 -2 -1 -0.03 0.08
5 -2 -1 0.05 0.09
4 -2 -1 7.26 0.23
4 -2 -1 7.33 0.26
3 -2 -1 9.08 0.26
3 -2 -1 9.42 0.31
3 -2 -1 11.18 0.43
3 -2 -1 8.44 0.29
2 -2 -1 155.77 5.94
2 -2 -1 150.99 5.94
-2 2 1 151.42 5.83
-2 2 1 152.34 5.83
-2 2 1 147.24 4.84
0 -2 -1 120.67 4.67
0 -2 -1 119.86 3.87
0 -2 -1 116.68 4.67
0 -2 -1 119.11 3.69
0 2 1 114.34 4.62
0 2 1 120.78 3.84
0 2 1 119.79 4.63
0 2 1 117.04 3.65
-1 -2 -1 974.55 29.24
-1 -2 -1 937.07 36.92
1 2 1 954.87 37.75
1 2 1 1000 29.9
-2 -2 -1 231.82 7.12
-2 -2 -1 235.69 8.99
-2 -2 -1 228.77 8.99
2 2 1 231.94 8.7
2 2 1 216.12 6.87
2 2 1 226.05 8.69
-3 -2 -1 36.32 1.43
-3 -2 -1 37.34 1.14
-3 -2 -1 36.49 1.43
3 2 1 36.23 0.81
3 2 1 34.93 0.94
4 2 1 17.43 0.39
4 2 1 16.85 0.42
4 2 1 17.26 0.37
4 2 1 18.04 0.5
5 2 1 170.43 4.39
5 2 1 174.38 3.3
5 2 1 175.44 3.16
5 2 1 170.31 3.75
6 2 1 1.99 0.11
6 2 1 2.24 0.13
5 -3 -1 1.64 0.12
5 -3 -1 1.7 0.14
-5 3 1 1.7 0.12
4 -3 -1 0.4 0.08
4 -3 -1 0.51 0.11
-4 3 1 0.87 0.14
3 -3 -1 32.65 0.99
3 -3 -1 32.18 0.85
-3 3 1 33.72 0.9
2 -3 -1 758.28 28.04
2 -3 -1 692.2 28.06
-2 3 1 743.27 29.78
-2 3 1 812.1 29.8
-2 3 1 754.99 24.72
1 -3 -1 0.39 0.06
1 -3 -1 0.34 0.06
1 -3 -1 0.21 0.06
-1 3 1 0.3 0.06
-1 3 1 0.31 0.05
-1 3 1 0.33 0.05
-1 3 1 0.34 0.04
0 -3 -1 249.26 10.22
0 -3 -1 270.75 10.26
0 -3 -1 268.07 8.11
0 -3 -1 268.21 8.5
0 3 1 264.6 7.98
0 3 1 249.75 8.35
0 3 1 248.26 10.08
0 3 1 276.53 10.11
-1 -3 -1 123.74 3.97
-1 -3 -1 125.16 4.8
-1 -3 -1 122.59 3.8
-1 -3 -1 124.51 4.8
1 3 1 121.58 3.76
1 3 1 124.68 4.75
1 3 1 122.32 4.75
-2 -3 -1 76.25 2.3
-2 -3 -1 73.25 2.9
-2 -3 -1 74.39 2.9
2 3 1 76.35 2.91
2 3 1 76.6 2.31
2 3 1 71.89 2.91
-3 -3 -1 19.44 0.61
-3 -3 -1 19.07 0.76
-3 -3 -1 18.55 0.75
3 3 1 18.69 0.47
3 3 1 18.86 0.45
3 3 1 17.77 0.52
4 3 1 0.31 0.08
4 3 1 0.49 0.09
4 3 1 0.31 0.1
4 3 1 0.17 0.08
5 3 1 184 3.52
5 3 1 183.47 4.01
5 3 1 185.95 4.7
5 3 1 185.13 3.38
6 3 1 203.71 4.48
6 3 1 210.76 5.25
5 -4 -1 3.86 0.17
5 -4 -1 4.07 0.15
-5 4 1 3.86 0.15
4 -4 -1 3.87 0.17
4 -4 -1 4.18 0.2
4 -4 -1 3.99 0.17
-4 4 1 4.34 0.18
-4 4 1 3.76 0.25
3 -4 -1 10.47 0.34
3 -4 -1 10.62 0.32
3 -4 -1 10.69 0.42
-3 4 1 11.02 0.35
-3 4 1 10.45 0.31
2 -4 -1 11.48 0.34
2 -4 -1 11.41 0.36
2 -4 -1 11.28 0.43
-2 4 1 11.8 0.34
-2 4 1 11.69 0.37
1 -4 -1 84.54 3.32
1 -4 -1 86.31 2.75
1 -4 -1 84.46 3.31
-1 4 1 85.16 2.56
-1 4 1 82.02 2.69
-1 4 1 85.23 3.25
-1 4 1 80.41 3.24
0 -4 -1 29.65 0.99
0 -4 -1 30.34 0.95
0 -4 -1 29.99 1.2
0 -4 -1 31.46 1.2
0 4 1 31.45 1.2
0 4 1 29.82 0.99
0 4 1 30.44 0.95
0 4 1 29.67 1.2
-1 -4 -1 816.24 32.5
-1 -4 -1 845.7 32.51
-1 -4 -1 844.26 25.75
-1 -4 -1 853.76 26.93
1 4 1 895.1 33.3
1 4 1 826.01 33.3
-2 -4 -1 38.67 1.25
-2 -4 -1 39.53 1.57
-2 -4 -1 39.38 1.57
-2 -4 -1 42.83 1.31
2 4 1 39.48 1.55
2 4 1 39.81 1.55
-3 -4 -1 36.74 1.49
-3 -4 -1 38.07 1.2
-3 -4 -1 39.03 1.5
3 4 1 39.35 0.89
3 4 1 38.93 0.86
3 4 1 36.49 1.01
4 4 1 5.4 0.23
4 4 1 5.25 0.19
4 4 1 5.37 0.18
4 4 1 5.41 0.17
5 4 1 132.8 2.52
5 4 1 132.31 2.42
5 4 1 130.71 2.87
5 4 1 130.55 3.36
6 4 1 11.37 0.27
6 4 1 11.87 0.34
6 4 1 11.59 0.29
5 -5 -1 1.22 0.1
5 -5 -1 1.29 0.1
-5 5 1 1.96 0.1
4 -5 -1 2.5 0.15
4 -5 -1 2.52 0.15
4 -5 -1 2.58 0.18
-4 5 1 2.85 0.21
-4 5 1 2.45 0.14
3 -5 -1 2.64 0.19
3 -5 -1 3.05 0.16
-3 5 1 3 0.19
-3 5 1 2.81 0.15
2 -5 -1 2.57 0.2
2 -5 -1 2.43 0.16
-2 5 1 2.47 0.17
-2 5 1 2.96 0.14
1 -5 -1 43.92 1.23
1 -5 -1 49.24 1.93
1 -5 -1 51.18 1.93
1 -5 -1 48.51 1.6
1 -5 -1 49.19 1.27
-1 5 1 51.7 1.19
-1 5 1 48.93 2.03
-1 5 1 50.51 1.3
-1 5 1 52.96 1.6
-1 5 1 50.25 1.68
-1 5 1 52.86 2.04
0 -5 -1 606.31 23.06
0 -5 -1 611.6 23.04
0 -5 -1 587.76 18.22
0 -5 -1 574.35 19.04
0 5 1 609.6 17.72
0 5 1 566.19 22.3
0 5 1 561.08 22.34
0 5 1 573.26 18.51
-1 -5 -1 5.47 0.22
-1 -5 -1 5.4 0.27
-1 -5 -1 5.67 0.22
-1 -5 -1 5.23 0.28
1 5 1 5.23 0.23
1 5 1 5.14 0.26
1 5 1 5.42 0.27
-2 -5 -1 153.12 4.67
-2 -5 -1 154.68 5.89
-2 -5 -1 145.55 5.89
-2 -5 -1 154.13 4.88
2 5 1 149.44 4.45
2 5 1 139.29 5.59
2 5 1 148.96 5.6
2 5 1 139.7 3.13
3 5 1 60.51 1.58
3 5 1 59.96 1.57
3 5 1 63.35 1.34
3 5 1 60.13 1.14
3 5 1 60.65 1.19
4 5 1 0.28 0.08
4 5 1 0.23 0.08
4 5 1 0.3 0.11
4 5 1 0.26 0.09
5 5 1 12.1 0.32
5 5 1 11.97 0.37
5 5 1 12.56 0.29
5 5 1 12.38 0.27
6 5 1 30.78 0.61
6 5 1 31.08 0.69
6 5 1 30.39 0.8
4 -6 -1 0.5 0.11
4 -6 -1 0.23 0.07
-4 6 1 0.39 0.07
-4 6 1 0.53 0.1
3 -6 -1 8.36 0.27
3 -6 -1 8.09 0.3
-3 6 1 8.27 0.24
-3 6 1 8.7 0.28
2 -6 -1 5.91 0.27
2 -6 -1 5.86 0.23
-2 6 1 5.95 0.19
-2 6 1 5.88 0.23
1 -6 -1 1.33 0.13
1 -6 -1 1.29 0.13
-1 6 1 1.12 0.1
-1 6 1 1.11 0.08
-1 6 1 1.21 0.19
0 -6 -1 17.63 0.58
0 -6 -1 19.3 0.53
0 -6 -1 19.06 0.69
0 -6 -1 19.24 0.82
0 -6 -1 18.76 0.64
0 -6 -1 19.69 0.84
0 -6 -1 18.97 0.46
0 6 1 19.55 0.46
0 6 1 18.51 0.66
0 6 1 18.61 0.55
0 6 1 18.73 0.67
0 6 1 18.95 0.83
0 6 1 19.62 0.51
0 6 1 18.88 0.85
-1 -6 -1 86.21 2.03
-1 -6 -1 87.31 3.47
-1 -6 -1 85.01 2.75
-1 -6 -1 94.97 3.48
-1 -6 -1 89.92 2.87
1 6 1 89.03 2.24
1 6 1 89.25 1.9
1 6 1 83.34 3.41
1 6 1 86.23 3.41
-2 -6 -1 1.8 0.2
-2 -6 -1 2.4 0.22
-2 -6 -1 2.22 0.29
2 6 1 2.05 0.15
2 6 1 2.04 0.14
2 6 1 2.17 0.12
2 6 1 1.97 0.15
3 6 1 4.48 0.25
3 6 1 4.58 0.17
3 6 1 4.22 0.19
3 6 1 4.34 0.15
3 6 1 4.41 0.17
4 6 1 26.24 0.52
4 6 1 26.12 0.61
4 6 1 26.25 0.71
4 6 1 26.17 0.54
5 6 1 13.81 0.31
5 6 1 13.48 0.34
5 6 1 13.82 0.29
5 6 1 13.53 0.41
6 6 1 4.98 0.14
6 6 1 5.21 0.15
6 6 1 4.7 0.22
4 -7 -1 4.91 0.16
-4 7 1 5.04 0.15
-4 7 1 5.03 0.18
3 -7 -1 8 0.27
3 -7 -1 8.49 0.32
-3 7 1 7.55 0.27
-3 7 1 8.31 0.22
2 -7 -1 59.92 1.54
2 -7 -1 57.89 1.54
-2 7 1 59.53 1.38
-2 7 1 59.85 1.51
1 -7 -1 12.05 0.37
1 -7 -1 11.76 0.36
1 -7 -1 11.57 0.42
-1 7 1 11.95 0.35
-1 7 1 11.44 0.42
-1 7 1 11.82 0.3
0 -7 -1 74.79 1.93
0 -7 -1 77.11 2
0 -7 -1 78.46 1.76
0 7 1 78.05 1.77
0 7 1 77.97 1.93
0 7 1 75.58 2
-1 -7 -1 16.91 0.48
-1 -7 -1 16.88 0.42
1 7 1 16.89 0.48
1 7 1 17.27 0.41
1 7 1 17.53 0.49
-2 -7 -1 4.46 0.19
-2 -7 -1 4.24 0.26
2 7 1 4.68 0.19
2 7 1 4.57 0.16
2 7 1 4.29 0.18
2 7 1 4.27 0.19
-3 -7 -1 113.93 2.61
-3 -7 -1 113.17 2.85
3 7 1 116.12 2.21
3 7 1 113.86 2.95
3 7 1 115.43 2.51
3 7 1 115.51 2.12
4 7 1 2.94 0.15
4 7 1 3.11 0.22
4 7 1 3.02 0.15
4 7 1 2.81 0.14
5 7 1 62.55 1.17
5 7 1 63.7 1.39
5 7 1 62.82 1.22
6 7 1 11.47 0.27
6 7 1 11.46 0.24
3 -8 -1 5.83 0.18
3 -8 -1 5.47 0.2
-3 8 1 5.65 0.17
-3 8 1 5.75 0.2
2 -8 -1 53.71 1.41
-2 8 1 52.04 1.21
-2 8 1 52.84 1.33
1 -8 -1 34.25 0.94
1 -8 -1 35.33 0.9
-1 8 1 36.05 0.97
-1 8 1 35.62 0.83
-1 8 1 34.09 0.91
0 -8 -1 3.03 0.19
0 -8 -1 3.41 0.14
0 -8 -1 3.5 0.25
0 8 1 3.18 0.2
0 8 1 3.11 0.15
0 8 1 3.23 0.17
-1 -8 -1 68.49 1.73
-1 -8 -1 67.8 1.57
1 8 1 71.42 1.81
1 8 1 67.3 1.74
-2 -8 -1 27.12 0.74
-2 -8 -1 27.4 0.66
2 8 1 28.04 0.73
2 8 1 26.64 0.62
2 8 1 26.34 0.56
-3 -8 -1 -0.12 0.15
-3 -8 -1 0.14 0.1
3 8 1 0.2 0.08
3 8 1 0.2 0.08
3 8 1 0.11 0.06
3 8 1 0.23 0.08
-4 -8 -1 13.96 0.47
-4 -8 -1 13.24 0.38
4 8 1 13.78 0.31
4 8 1 13.59 0.34
4 8 1 13.28 0.29
-5 -8 -1 1.83 0.15
5 8 1 1.66 0.1
5 8 1 1.7 0.11
3 -9 -1 12.37 0.34
3 -9 -1 12.03 0.29
-3 9 1 11.97 0.33
-3 9 1 11.98 0.29
2 -9 -1 4.33 0.19
-2 9 1 4.08 0.13
-2 9 1 3.91 0.17
1 -9 -1 36.55 0.95
1 -9 -1 37.06 0.99
-1 9 1 37.42 0.97
-1 9 1 37.85 0.88
0 -9 -1 8.41 0.23
0 -9 -1 8.72 0.28
0 -9 -1 8.43 0.33
0 9 1 8.73 0.28
0 9 1 8.82 0.31
-1 -9 -1 13.2 0.4
-1 -9 -1 13.11 0.34
1 9 1 13.31 0.37
1 9 1 10.73 0.38
-2 -9 -1 17.65 0.5
-2 -9 -1 17.32 0.44
2 9 1 17.97 0.4
2 9 1 17.18 0.5
-3 -9 -1 104.53 2.61
-3 -9 -1 103.65 2.39
3 9 1 107.54 2.76
3 9 1 107.06 2.06
3 9 1 108.08 2.34
-4 -9 -1 0.41 0.17
-4 -9 -1 0.66 0.1
4 9 1 0.51 0.08
4 9 1 0.44 0.07
-5 -9 -1 21.22 0.52
5 9 1 22.04 0.45
5 9 1 22.5 0.5
2 -10 -1 4.47 0.17
-2 10 1 4.42 0.16
1 -10 -1 8.26 0.28
-1 10 1 8.67 0.26
-1 10 1 8.51 0.33
0 -10 -1 3.22 0.24
0 -10 -1 3.27 0.18
0 10 1 2.74 0.19
0 10 1 2.94 0.18
-1 -10 -1 28.17 0.67
-1 -10 -1 28.63 0.75
1 10 1 27.72 0.75
-2 -10 -1 6.94 0.21
-2 -10 -1 7.09 0.26
2 10 1 7.45 0.25
-3 -10 -1 14.9 0.39
-3 -10 -1 15.74 0.45
3 10 1 16.01 0.52
3 10 1 16.11 0.36
-4 -10 -1 74.19 1.72
-4 -10 -1 75.79 1.88
4 10 1 77.99 1.5
-5 -10 -1 0.47 0.08
5 10 1 0.45 0.06
1 -11 -1 50.91 1.32
-1 11 1 49.81 1.25
-1 11 1 49.72 1.3
0 -11 -1 32.42 0.81
0 -11 -1 31.02 0.86
0 11 1 32.63 0.87
-1 -11 -1 20.03 0.48
-1 -11 -1 20.07 0.54
1 11 1 20.63 0.57
-2 -11 -1 44.22 1.12
-2 -11 -1 43.85 1.02
2 11 1 46.08 1.2
-3 -11 -1 0.13 0.05
-3 -11 -1 0.07 0.09
3 11 1 0.2 0.12
3 11 1 0.13 0.07
-4 -11 -1 8.03 0.21
-4 -11 -1 7.82 0.27
0 -12 -1 42.24 1.11
0 12 1 45.14 1.17
-1 -12 -1 18.2 0.48
1 12 1 18.49 0.5
-2 -12 -1 0.05 0.05
-2 -12 -1 0.05 0.07
2 12 1 -0.03 0.09
2 12 1 0.04 0.06
-3 -12 -1 0.09 0.07
-3 -12 -1 0.05 0.05
3 11 -2 17.39 0.52
-3 -11 2 18.57 0.43
-3 -11 2 17.83 0.48
2 11 -2 7.24 0.22
2 11 -2 7.32 0.26
-2 -11 2 7.16 0.19
-2 -11 2 6.98 0.22
1 11 -2 0.3 0.07
-1 -11 2 0.35 0.07
-1 -11 2 0.29 0.06
0 11 -2 0.1 0.07
0 -11 2 0.22 0.07
4 10 -2 2.49 0.11
4 10 -2 2.69 0.19
-4 -10 2 2.39 0.12
3 10 -2 1.73 0.16
3 10 -2 1.93 0.14
-3 -10 2 1.7 0.11
-3 -10 2 1.8 0.17
2 10 -2 5.99 0.25
2 10 -2 6.05 0.21
-2 -10 2 5.93 0.23
-2 -10 2 5.9 0.18
1 10 -2 9.43 0.3
-1 -10 2 9.68 0.3
-1 -10 2 9.3 0.25
0 10 -2 10.56 0.33
0 -10 2 10.34 0.41
0 -10 2 11.18 0.32
-1 10 -2 31.95 0.85
1 -10 2 31.2 0.81
1 -10 2 29.25 0.78
2 -10 2 6.22 0.19
2 -10 2 5.13 0.19
5 9 -2 11.84 0.25
4 9 -2 29.87 0.87
4 9 -2 29.08 0.58
-4 -9 2 28.44 0.68
3 9 -2 34.48 1.01
3 9 -2 34.26 0.68
-3 -9 2 33.41 0.78
-3 -9 2 32.56 0.87
2 9 -2 19.98 0.43
2 9 -2 19.98 0.55
-2 -9 2 20.12 0.56
-2 -9 2 20.17 0.49
1 9 -2 23.52 0.65
-1 -9 2 22.46 0.55
-1 -9 2 22.87 0.61
0 9 -2 7.11 0.24
0 9 -2 4.86 0.26
0 -9 2 7.26 0.25
0 -9 2 7.23 0.21
0 -9 2 7.6 0.35
-1 9 -2 2.23 0.15
-1 9 -2 2.37 0.2
1 -9 2 2.67 0.2
1 -9 2 2.4 0.17
-2 9 -2 14.98 0.5
-2 9 -2 15.46 0.41
2 -9 2 16.1 0.45
5 8 -2 3.35 0.11
4 8 -2 0.75 0.07
4 8 -2 0.91 0.09
4 8 -2 1.1 0.14
-4 -8 2 1.11 0.14
3 8 -2 62.56 1.79
3 8 -2 62.72 1.61
3 8 -2 62.21 1.21
3 8 -2 62.06 1.37
-3 -8 2 62.33 1.45
-3 -8 2 62.42 1.59
2 8 -2 255.52 4.85
2 8 -2 254.24 6.5
-2 -8 2 251.75 5.86
-2 -8 2 263.2 6.39
1 8 -2 143.18 3.68
-1 -8 2 141.04 3.24
-1 -8 2 142.88 3.54
0 8 -2 1.56 0.12
0 8 -2 1.27 0.12
0 -8 2 1.33 0.12
0 -8 2 1.29 0.18
0 -8 2 1.68 0.11
-1 8 -2 24.23 0.63
-1 8 -2 22.92 0.67
1 -8 2 24.38 0.69
1 -8 2 24.64 0.65
-2 8 -2 135.01 3.48
-2 8 -2 139.95 3.18
-2 8 -2 144.8 3.61
2 -8 2 140.69 3.61
-3 8 -2 9.23 0.24
-3 8 -2 9.42 0.27
3 -8 2 9.41 0.25
3 -8 2 9.64 0.28
5 7 -2 23.32 0.54
5 7 -2 23.72 0.47
4 7 -2 2.65 0.13
4 7 -2 2.65 0.21
4 7 -2 2.93 0.15
3 7 -2 18.77 0.45
3 7 -2 18.94 0.52
3 7 -2 19.51 0.6
3 7 -2 19.34 0.41
-3 -7 2 18.93 0.51
2 7 -2 0.06 0.08
2 7 -2 0.13 0.08
-2 -7 2 0.15 0.15
-2 -7 2 0.09 0.1
1 7 -2 40.61 1.06
1 7 -2 39.65 0.8
-1 -7 2 41.35 0.96
-1 -7 2 40.56 1.06
0 7 -2 40.9 1.05
0 -7 2 42.69 0.93
0 -7 2 42.09 1.03
0 -7 2 34.71 1.08
-1 7 -2 18.44 0.53
-1 7 -2 20.84 0.47
-1 7 -2 18.68 0.57
1 -7 2 18.39 0.45
1 -7 2 18.89 0.51
-2 7 -2 2.19 0.22
-2 7 -2 2.09 0.15
-2 7 -2 2.12 0.11
-3 7 -2 40.79 1.03
-3 7 -2 40 0.94
3 -7 2 41.59 0.94
3 -7 2 42.73 1.11
-4 7 -2 0.35 0.07
-4 7 -2 0.58 0.05
4 -7 2 0.58 0.07
6 6 -2 10.14 0.22
5 6 -2 10.4 0.25
5 6 -2 10.98 0.28
4 6 -2 9.13 0.23
4 6 -2 9.51 0.26
4 6 -2 8.92 0.35
3 6 -2 24.27 0.5
3 6 -2 25.66 0.75
3 6 -2 24.71 0.57
3 6 -2 23.92 0.66
2 6 -2 8.01 0.26
2 6 -2 7.8 0.24
2 6 -2 8.03 0.21
-2 -6 2 7.61 0.38
-2 -6 2 7.67 0.3
1 6 -2 11.25 0.34
1 6 -2 10.65 0.28
-1 -6 2 10.89 0.36
-1 -6 2 11.14 0.31
0 6 -2 102.81 2.44
0 6 -2 107.37 2.75
0 6 -2 110.68 2.67
0 -6 2 104.05 2.65
0 -6 2 108.11 2.43
-1 6 -2 10.48 0.38
-1 6 -2 10.63 0.28
-1 6 -2 10.47 0.32
1 -6 2 10.47 0.32
1 -6 2 10.46 0.27
1 -6 2 9.45 0.35
-2 6 -2 0.85 0.1
-2 6 -2 0.7 0.07
-2 6 -2 0.9 0.22
2 -6 2 0.9 0.13
2 -6 2 0.57 0.09
-3 6 -2 0.96 0.1
-3 6 -2 0.86 0.07
3 -6 2 0.97 0.1
-4 6 -2 70.57 1.64
-4 6 -2 72.58 1.79
4 -6 2 72.13 1.86
4 -6 2 72.78 1.59
6 5 -2 0.29 0.07
6 5 -2 -0.02 0.09
5 5 -2 74.12 1.39
5 5 -2 69.52 1.57
4 5 -2 2.58 0.13
4 5 -2 2.86 0.16
4 5 -2 2.8 0.23
3 5 -2 121.8 3.48
3 5 -2 122.96 2.35
3 5 -2 122.71 2.26
3 5 -2 124.12 2.67
2 5 -2 121.21 2.67
2 5 -2 124.4 3.14
2 5 -2 122.3 2.35
1 5 -2 1.6 0.24
1 5 -2 1.3 0.15
1 5 -2 1.89 0.16
-1 -5 2 1.48 0.18
-1 -5 2 2.05 0.26
-1 -5 2 1.66 0.22
0 5 -2 51.54 1.33
0 5 -2 50.8 2.03
0 5 -2 50.21 1.29
0 5 -2 50.77 2.02
0 5 -2 50.68 1.65
0 -5 2 52.61 1.21
0 -5 2 52.72 1.64
0 -5 2 50.97 2.08
0 -5 2 55.33 2.09
0 -5 2 50.55 1.33
-1 5 -2 36.81 1.02
-1 5 -2 38.19 0.96
-1 5 -2 35.65 1.25
-1 5 -2 37.97 1.6
-1 5 -2 36.02 1.56
-1 5 -2 39.48 0.87
1 -5 2 37.53 1.54
1 -5 2 38.32 0.96
1 -5 2 36.25 1
1 -5 2 36.85 0.87
-2 5 -2 83.19 1.93
-2 5 -2 85.15 2.11
2 -5 2 82.94 2.17
2 -5 2 84.43 2.1
-3 5 -2 0.46 0.07
-3 5 -2 0.41 0.09
3 -5 2 0.59 0.17
3 -5 2 0.39 0.09
-4 5 -2 2.31 0.11
-4 5 -2 2.22 0.17
4 -5 2 2.3 0.14
4 -5 2 2.18 0.14
4 -5 2 2.42 0.18
-5 5 -2 50.92 1.32
-5 5 -2 53.79 1.2
5 -5 2 51.66 1.13
6 4 -2 5.5 0.18
5 4 -2 1.21 0.15
5 4 -2 1.1 0.09
5 4 -2 1.12 0.1
4 4 -2 16.64 0.36
4 4 -2 16.55 0.5
4 4 -2 16.83 0.41
4 4 -2 16.96 0.54
3 4 -2 15.89 0.41
3 4 -2 16.86 0.35
3 4 -2 16.34 0.34
3 4 -2 16.88 0.53
2 4 -2 106.12 2.09
2 4 -2 109.56 4.23
2 4 -2 115.12 4.23
2 4 -2 106.56 2.01
-2 -4 2 110.97 4.24
-2 -4 2 107.09 3.37
-2 -4 2 109.91 4.24
1 4 -2 6.8 0.31
1 4 -2 6.8 0.32
-1 -4 2 7.97 0.27
-1 -4 2 7.02 0.33
-1 -4 2 6.98 0.33
0 4 -2 0.09 0.05
0 4 -2 0.05 0.1
0 4 -2 0 0.09
0 -4 2 0.11 0.09
0 -4 2 0.01 0.06
0 -4 2 0.07 0.09
-1 4 -2 3.3 0.26
-1 4 -2 2.99 0.19
-1 4 -2 3.37 0.14
-1 4 -2 3.66 0.3
-1 4 -2 3.33 0.18
1 -4 2 3.21 0.15
1 -4 2 2.92 0.18
1 -4 2 2.83 0.26
1 -4 2 3.34 0.29
-2 4 -2 10.14 0.28
-2 4 -2 10.28 0.32
2 -4 2 9.73 0.34
2 -4 2 10.43 0.32
-3 4 -2 49.93 1.17
-3 4 -2 50.48 1.28
3 -4 2 51.16 1.34
3 -4 2 51 1.34
-4 4 -2 0.39 0.11
-4 4 -2 0.31 0.07
4 -4 2 0.35 0.08
4 -4 2 0.36 0.08
4 -4 2 0.22 0.12
-5 4 -2 1.16 0.09
-5 4 -2 1.18 0.12
5 -4 2 1.15 0.08
5 -4 2 1.43 0.13
6 3 -2 3.71 0.18
6 3 -2 3.72 0.15
5 3 -2 24.55 0.51
5 3 -2 25.3 0.69
5 3 -2 25.51 0.59
4 3 -2 4.44 0.23
4 3 -2 4.59 0.16
4 3 -2 4.3 0.15
4 3 -2 4.31 0.18
4 3 -2 4.36 0.28
3 3 -2 8.63 0.21
3 3 -2 8.44 0.26
3 3 -2 8.4 0.33
3 3 -2 8.13 0.22
3 3 -2 8.16 0.34
-3 -3 2 8.43 0.37
-2 -3 2 53.37 2.08
-2 -3 2 53.98 2.08
-2 -3 2 53.95 1.67
1 3 -2 2.16 0.13
-1 -3 2 2.42 0.14
-1 -3 2 2.5 0.12
-1 -3 2 2.49 0.14
0 3 -2 467.82 17.52
0 3 -2 456.54 17.51
0 3 -2 429.28 14.46
0 -3 2 436.01 17.3
0 -3 2 441.44 13.7
0 -3 2 462.92 17.34
-1 3 -2 14.87 0.49
-1 3 -2 14.68 0.61
-1 3 -2 14.36 0.61
1 -3 2 15.08 0.62
1 -3 2 15.04 0.47
1 -3 2 14.76 0.62
-2 3 -2 5.34 0.29
-2 3 -2 5.23 0.35
-2 3 -2 5.19 0.24
-2 3 -2 5.8 0.39
-2 3 -2 5.59 0.2
2 -3 2 5.58 0.22
2 -3 2 5.04 0.32
-3 3 -2 2.82 0.2
-3 3 -2 2.43 0.15
3 -3 2 2.84 0.16
3 -3 2 2.8 0.21
-4 3 -2 0.05 0.08
-4 3 -2 0.3 0.11
4 -3 2 0.09 0.08
4 -3 2 0.13 0.11
4 -3 2 0.12 0.08
-5 3 -2 6.36 0.19
-5 3 -2 6.61 0.27
5 -3 2 6.25 0.23
5 -3 2 6.46 0.19
6 2 -2 53.73 1.17
6 2 -2 53.03 1.37
5 2 -2 0.3 0.1
5 2 -2 0.04 0.1
5 2 -2 0.1 0.09
4 2 -2 119.81 2.34
4 2 -2 117.78 3.46
4 2 -2 126.25 2.67
4 2 -2 120 2.25
4 2 -2 127.65 3.12
3 2 -2 3.56 0.24
3 2 -2 2.83 0.17
3 2 -2 3.09 0.24
3 2 -2 2.75 0.16
3 2 -2 2.96 0.18
-3 -2 2 2.96 0.21
-3 -2 2 3.15 0.2
-2 -2 2 23.33 0.76
-2 -2 2 23.53 0.74
1 2 -2 0.08 0.04
1 2 -2 0.09 0.04
-1 -2 2 0.1 0.04
-1 -2 2 0.13 0.04
-1 -2 2 0.07 0.04
0 2 -2 83.25 3.14
0 2 -2 79.7 2.6
0 2 -2 79.56 3.14
0 -2 2 79.63 3.11
0 -2 2 80.25 2.46
0 -2 2 80.04 3.11
-1 2 -2 8.61 0.36
-1 2 -2 8.33 0.29
-1 2 -2 8.64 0.36
1 -2 2 8.4 0.27
1 -2 2 8.48 0.36
1 -2 2 8.62 0.36
-2 2 -2 64.99 2.44
-2 2 -2 59.71 2.43
-2 2 -2 61.58 2.02
2 -2 2 63.15 2.45
2 -2 2 62.16 2.45
-3 2 -2 16.07 0.48
-3 2 -2 16.43 0.43
3 -2 2 16.21 0.45
3 -2 2 16.06 0.4
3 -2 2 16.3 0.48
-4 2 -2 5.88 0.22
-4 2 -2 6.03 0.28
4 -2 2 5.78 0.24
4 -2 2 6.02 0.2
4 -2 2 5.96 0.21
-5 2 -2 0.69 0.09
-5 2 -2 0.96 0.17
5 -2 2 0.76 0.1
5 -2 2 0.62 0.08
6 1 -2 36.38 0.81
6 1 -2 36.87 0.95
5 1 -2 84.5 1.83
5 1 -2 82.37 2.15
4 1 -2 58.91 1.24
4 1 -2 55.73 1.45
4 1 -2 50.97 1.62
4 1 -2 58.09 1.1
3 1 -2 0.74 0.12
3 1 -2 0.77 0.12
-3 -1 2 0.88 0.11
-3 -1 2 0.71 0.12
-2 -1 2 42.68 1.32
-2 -1 2 42.58 1.38
1 1 -2 179.56 6.9
1 1 -2 177.24 6.9
-1 -1 2 174.6 6.74
-1 -1 2 174.88 6.74
-1 -1 2 173.06 5.58
-1 1 -2 21.36 0.85
-1 1 -2 21.88 0.85
1 -1 2 21.24 0.86
1 -1 2 22.22 0.67
1 -1 2 21.72 0.86
-2 1 -2 0.88 0.12
-2 1 -2 1.01 0.11
-2 1 -2 0.92 0.13
2 -1 2 0.81 0.12
3 -1 2 31.05 0.71
3 -1 2 31.92 0.84
3 -1 2 31.02 0.83
-4 1 -2 30.01 0.73
-4 1 -2 29.43 0.82
4 -1 2 29.04 0.68
4 -1 2 29.23 0.77
4 -1 2 29.43 0.79
-5 1 -2 12.79 0.35
5 -1 2 13.65 0.35
5 -1 2 13.77 0.4
-6 1 -2 7.61 0.22
6 -1 2 8.26 0.25
6 -1 2 8.29 0.21
6 0 -2 5.12 0.18
6 0 -2 5.05 0.16
5 0 -2 15.99 0.4
5 0 -2 16.13 0.46
4 0 -2 81.13 2.36
4 0 -2 82.87 2.12
4 0 -2 83.4 1.81
3 0 -2 16.12 0.4
3 0 -2 16.1 0.46
3 0 -2 15.67 0.52
-3 0 2 16.09 0.59
-3 0 2 16.73 0.52
-2 0 2 184.39 6.02
-2 0 2 191.01 5.75
1 0 -2 39.48 1.25
1 0 -2 38.45 1.5
1 0 -2 38.42 1.5
-1 0 2 38.69 1.47
-1 0 2 37.28 1.22
-1 0 2 38.06 1.47
0 0 -2 684.2 26.44
0 0 2 680.92 25.66
0 0 2 647.27 25.66
-1 0 -2 678.69 25.17
-1 0 -2 622.27 25.16
1 0 2 634.29 25.07
1 0 2 662.07 25.08
-2 0 -2 400.8 15.46
-2 0 -2 396.65 15.46
-3 0 -2 174.87 5.72
-3 0 -2 178.62 6.88
-3 0 -2 179.46 6.89
3 0 2 191.24 4.11
3 0 2 186.47 4.85
3 0 2 192.24 4.82
4 0 2 26.04 0.61
4 0 2 26.69 0.72
4 0 2 26.49 0.7
-5 0 -2 44.39 1.05
5 0 2 45.44 1.03
5 0 2 46.66 1.21
-6 0 -2 1.92 0.17
6 0 2 2.16 0.13
6 0 2 2.14 0.11
6 -1 -2 2.28 0.13
6 -1 -2 2.55 0.12
5 -1 -2 0.17 0.09
5 -1 -2 0.22 0.08
4 -1 -2 3.85 0.17
4 -1 -2 3.28 0.3
4 -1 -2 3.66 0.19
3 -1 -2 70.5 1.55
3 -1 -2 73.54 1.81
3 -1 -2 66.96 2.01
-3 1 2 61.15 2.01
-2 1 2 535.22 17.21
-2 1 2 535.71 20.69
1 -1 -2 514.59 16.49
1 -1 -2 506.37 19.86
1 -1 -2 519.34 19.87
-1 1 2 498.3 16.1
-1 1 2 499.03 19.4
-1 1 2 506.87 19.41
0 -1 -2 14.89 0.49
0 -1 -2 14.65 0.59
0 -1 -2 15.39 0.59
0 1 2 15.55 0.6
0 1 2 14.81 0.5
0 1 2 15.29 0.6
-1 -1 -2 944.13 35.44
-1 -1 -2 889.13 35.44
1 1 2 906.7 35.66
1 1 2 938.19 35.66
-2 -1 -2 520.7 17.9
-2 -1 -2 403.72 17.88
2 1 2 539.89 21.27
2 1 2 556.9 21.27
2 1 2 552.33 16.82
-3 -1 -2 12.36 0.51
-3 -1 -2 11.75 0.46
-3 -1 -2 11.68 0.51
3 1 2 12.39 0.52
3 1 2 12.54 0.52
3 1 2 12.3 0.33
3 1 2 12.23 0.37
4 1 2 55.46 1.1
4 1 2 55.15 1.45
4 1 2 56.42 1.05
4 1 2 57.53 1.29
4 1 2 56.58 1.24
4 1 2 53.02 1.44
5 1 2 0.98 0.11
5 1 2 0.96 0.09
6 1 2 0.51 0.06
6 1 2 0.3 0.07
6 -2 -2 19.94 0.46
6 -2 -2 20.41 0.53
5 -2 -2 0.95 0.11
5 -2 -2 0.87 0.09
4 -2 -2 46.67 1.41
4 -2 -2 49.48 1.08
4 -2 -2 48.4 1.27
3 -2 -2 0.99 0.11
3 -2 -2 1.25 0.1
3 -2 -2 1.84 0.18
3 -2 -2 1.42 0.12
2 -2 -2 13.56 0.54
2 -2 -2 13.27 0.54
-2 2 2 13.75 0.42
-2 2 2 13.47 0.54
-2 2 2 13.19 0.55
-2 2 2 13.21 0.47
1 -2 -2 491.21 18.89
1 -2 -2 482.9 15.66
-1 2 2 472.19 14.37
-1 2 2 460.95 18.16
-1 2 2 477.34 18.15
-1 2 2 462.2 15.05
0 -2 -2 955.41 30.4
0 -2 -2 942.84 36.68
0 2 2 938.8 36.95
0 2 2 912.55 30.63
0 2 2 973.71 36.95
0 2 2 999.88 29.26
-1 -2 -2 264.89 10.12
-1 -2 -2 266.59 10.12
-1 -2 -2 251.74 8.01
1 2 2 272.71 10.6
1 2 2 276.07 8.4
1 2 2 272.21 10.62
-2 -2 -2 15.75 0.49
-2 -2 -2 15.64 0.62
-2 -2 -2 15.56 0.62
2 2 2 15.14 0.61
2 2 2 15.44 0.61
2 2 2 15.63 0.49
-3 -2 -2 123.3 4.72
-3 -2 -2 120.31 4.72
3 2 2 123.79 2.75
3 2 2 123.69 3.22
3 2 2 128.33 4.89
3 2 2 129.22 4.89
4 2 2 55.39 1.38
4 2 2 58.31 1.18
4 2 2 67.23 1.57
4 2 2 57.97 1.13
4 2 2 63.56 1.34
5 2 2 0.4 0.1
5 2 2 0.41 0.11
5 2 2 0.22 0.08
5 2 2 0.33 0.1
6 2 2 2.86 0.13
6 2 2 2.86 0.14
5 -3 -2 107.74 2.33
5 -3 -2 106.53 2.74
-5 3 2 111.06 2.54
4 -3 -2 19.69 0.66
4 -3 -2 20.82 0.49
3 -3 -2 24.86 0.66
3 -3 -2 24.46 0.76
2 -3 -2 159.62 6.11
2 -3 -2 155.74 6.11
-2 3 2 151.53 5.98
-2 3 2 157.46 5.98
-2 3 2 156.44 4.72
-2 3 2 151.65 4.97
1 -3 -2 132.02 4.97
1 -3 -2 124.6 4.97
-1 3 2 130.63 5.04
-1 3 2 128.04 4.18
-1 3 2 130.11 5.04
-1 3 2 131.49 3.98
0 -3 -2 45.49 1.47
0 -3 -2 45.89 1.78
0 -3 -2 45.63 1.41
0 -3 -2 45.51 1.78
0 3 2 45.72 1.5
0 3 2 47.57 1.43
0 3 2 46.73 1.8
0 3 2 45.19 1.8
-1 -3 -2 196.27 6.18
-1 -3 -2 191.9 7.8
-1 -3 -2 202.02 6.46
-1 -3 -2 212.9 7.83
1 3 2 186.34 7.16
1 3 2 184.11 7.17
1 3 2 183.71 5.67
-2 -3 -2 16.38 0.49
-2 -3 -2 16.38 0.62
-2 -3 -2 13.3 0.62
2 3 2 18.35 0.57
2 3 2 17.07 0.71
-3 -3 -2 22.64 0.9
-3 -3 -2 21.57 0.89
-3 -3 -2 22.3 0.71
3 3 2 22.78 0.73
3 3 2 22.67 0.91
3 3 2 22.67 0.53
3 3 2 21.67 0.62
3 3 2 23.55 0.91
4 3 2 11 0.3
4 3 2 11.64 0.33
4 3 2 11.37 0.35
4 3 2 11.36 0.28
4 3 2 11.13 0.27
5 3 2 5.97 0.2
5 3 2 6.09 0.19
5 3 2 6.29 0.23
5 3 2 6.13 0.2
6 3 2 2.24 0.14
6 3 2 2.31 0.12
5 -4 -2 11.56 0.29
5 -4 -2 11.28 0.33
-5 4 2 11.36 0.3
4 -4 -2 122.51 3.17
4 -4 -2 125.68 2.71
-4 4 2 127.48 3.22
-4 4 2 130.91 2.96
3 -4 -2 2.78 0.25
3 -4 -2 2.56 0.19
3 -4 -2 2.85 0.16
-3 4 2 2.53 0.2
-3 4 2 2.94 0.24
2 -4 -2 26.15 0.8
2 -4 -2 26.59 0.71
2 -4 -2 26.19 0.71
-2 4 2 26.04 0.69
-2 4 2 24.8 0.62
1 -4 -2 21.51 0.71
1 -4 -2 20.95 0.85
1 -4 -2 20.01 0.84
-1 4 2 20.99 0.71
-1 4 2 21.19 0.86
-1 4 2 22.26 0.67
-1 4 2 20.06 0.85
0 -4 -2 624.7 24.49
0 -4 -2 630.58 20.28
0 -4 -2 640.26 19.38
0 4 2 648.92 20.39
0 4 2 666.31 19.49
0 4 2 612.17 24.63
0 4 2 612.94 24.6
-1 -4 -2 77.45 2.4
-1 -4 -2 79.94 2.51
-1 -4 -2 76.43 3.03
-1 -4 -2 77.88 3.03
1 4 2 59.7 2.61
1 4 2 74.36 2.61
-2 -4 -2 14.84 0.6
-2 -4 -2 15.07 0.48
-2 -4 -2 14.42 0.51
-2 -4 -2 14.87 0.61
2 4 2 13.99 0.58
-3 -4 -2 42.23 1.33
3 4 2 45.52 1.16
3 4 2 45.29 0.88
3 4 2 44.89 1.03
3 4 2 42.72 1.16
3 4 2 43.97 1.42
3 4 2 45.15 0.84
4 4 2 62.17 1.4
4 4 2 63.69 1.24
4 4 2 64.43 1.19
4 4 2 62.8 1.64
4 4 2 64.4 1.45
5 4 2 1.62 0.13
5 4 2 1.29 0.09
5 4 2 1.28 0.1
5 4 2 1.5 0.15
6 4 2 30.43 0.79
6 4 2 29.92 0.6
6 4 2 30.44 0.68
5 -5 -2 1.21 0.1
5 -5 -2 1.09 0.09
-5 5 2 1.1 0.1
4 -5 -2 23.74 0.66
4 -5 -2 24.09 0.56
-4 5 2 24.01 0.6
-4 5 2 25.22 0.67
3 -5 -2 9.76 0.3
3 -5 -2 9.5 0.32
-3 5 2 9.86 0.33
-3 5 2 9.99 0.28
2 -5 -2 12.73 0.44
2 -5 -2 12.95 0.39
2 -5 -2 12.59 0.38
-2 5 2 12.62 0.38
-2 5 2 12.43 0.33
1 -5 -2 5.49 0.24
1 -5 -2 5.6 0.34
1 -5 -2 4.91 0.31
1 -5 -2 5.5 0.28
-1 5 2 5.33 0.25
-1 5 2 5.65 0.36
-1 5 2 5.08 0.19
-1 5 2 5.22 0.32
-1 5 2 4.91 0.22
-1 5 2 5.32 0.28
0 -5 -2 250.47 7.59
0 -5 -2 250.73 7.95
0 -5 -2 242.06 9.59
0 5 2 252.89 7.49
0 5 2 239.46 9.47
0 5 2 241 9.47
0 5 2 244.66 7.84
-1 -5 -2 104.25 4.13
-1 -5 -2 107.62 4.13
-1 -5 -2 104.28 3.27
-1 -5 -2 108.63 3.42
1 5 2 106.74 3.29
1 5 2 108.98 4.15
1 5 2 104.58 4.15
-2 -5 -2 103.34 3.24
-2 -5 -2 104.66 3.92
-2 -5 -2 95.11 3.1
-2 -5 -2 98.89 3.91
2 5 2 100.51 3.89
2 5 2 94.58 2.18
2 5 2 99.8 3.09
2 5 2 104.92 3.89
-3 -5 -2 1.69 0.19
3 5 2 2.42 0.18
3 5 2 1.97 0.14
3 5 2 1.8 0.14
3 5 2 1.59 0.09
3 5 2 1.77 0.13
3 5 2 1.87 0.16
4 5 2 145.63 2.76
4 5 2 143.98 2.64
4 5 2 143.17 3.13
4 5 2 143.1 3.67
5 5 2 138.49 3.53
5 5 2 136.2 3.01
5 5 2 140.13 2.66
5 5 2 139.31 2.54
6 5 2 7.54 0.2
6 5 2 7.56 0.19
6 5 2 7.72 0.24
4 -6 -2 31.94 0.72
4 -6 -2 32.05 0.85
-4 6 2 32.23 0.75
-4 6 2 31.67 0.83
3 -6 -2 0.26 0.11
3 -6 -2 0.2 0.08
-3 6 2 0.19 0.07
-3 6 2 0.31 0.1
2 -6 -2 0.54 0.11
2 -6 -2 0.23 0.09
-2 6 2 0.29 0.09
-2 6 2 0.18 0.07
1 -6 -2 67.48 1.71
1 -6 -2 68.64 1.77
-1 6 2 70.13 1.62
-1 6 2 70.54 1.77
0 -6 -2 38 1.07
0 -6 -2 40.82 0.92
0 -6 -2 39.01 1.33
0 -6 -2 40.93 1.26
0 -6 -2 39.06 1.61
0 -6 -2 39.68 1.02
0 -6 -2 39.86 1.6
0 6 2 40.34 1.02
0 6 2 40.32 1.62
0 6 2 39.06 1.07
0 6 2 38.26 1.32
0 6 2 40.57 1.61
0 6 2 38.36 1.27
0 6 2 41.59 0.93
-1 -6 -2 0.98 0.15
-1 -6 -2 1 0.17
-1 -6 -2 1.14 0.09
-1 -6 -2 0.68 0.13
-1 -6 -2 0.95 0.12
-1 -6 -2 0.79 0.18
1 6 2 1.1 0.19
1 6 2 1.18 0.1
1 6 2 1.2 0.18
1 6 2 1.36 0.13
-2 -6 -2 3.4 0.2
-2 -6 -2 3.02 0.3
-2 -6 -2 3.5 0.33
2 6 2 3.37 0.16
2 6 2 3.53 0.18
2 6 2 3.07 0.24
2 6 2 4.51 0.18
2 6 2 4.45 0.19
-3 -6 -2 0.48 0.24
3 6 2 0.51 0.11
3 6 2 0.28 0.08
3 6 2 0.36 0.09
3 6 2 0.19 0.08
3 6 2 0.31 0.08
4 6 2 91.42 1.77
4 6 2 93.41 2.01
4 6 2 90.95 2.35
4 6 2 90.52 1.7
5 6 2 85.67 1.86
5 6 2 85.23 1.57
5 6 2 84 2.18
5 6 2 84.77 1.64
6 6 2 1.18 0.07
6 6 2 1.08 0.09
6 6 2 1.18 0.09
4 -7 -2 3.43 0.19
4 -7 -2 4.07 0.14
-4 7 2 3.88 0.13
-4 7 2 3.69 0.17
3 -7 -2 6.93 0.23
3 -7 -2 6.34 0.26
-3 7 2 6.09 0.24
-3 7 2 6.79 0.2
2 -7 -2 70.24 1.81
2 -7 -2 69.88 1.82
-2 7 2 69.78 1.79
-2 7 2 72.69 1.64
1 -7 -2 70.06 1.79
1 -7 -2 72.51 1.86
-1 7 2 69.4 1.74
-1 7 2 68.15 1.82
-1 7 2 70.23 1.6
0 -7 -2 9.89 0.26
0 -7 -2 9.33 0.31
0 -7 -2 9.81 0.36
0 7 2 9.49 0.26
0 7 2 9.6 0.34
0 7 2 9.97 0.3
-1 -7 -2 0.42 0.11
-1 -7 -2 0.54 0.07
1 7 2 0.54 0.08
1 7 2 0.47 0.1
1 7 2 0.64 0.11
-2 -7 -2 88 2.23
-2 -7 -2 89.1 2.04
2 7 2 89.7 1.64
2 7 2 88.77 1.71
2 7 2 88.31 1.94
2 7 2 88.13 2.29
-3 -7 -2 76.78 1.98
-3 -7 -2 78.85 1.8
3 7 2 81.12 1.51
3 7 2 80.96 2.09
3 7 2 82.57 2.1
3 7 2 82.91 1.79
3 7 2 80.19 1.58
-4 -7 -2 0.65 0.14
4 7 2 0.7 0.08
4 7 2 0.57 0.08
4 7 2 0.57 0.12
4 7 2 0.82 0.08
5 7 2 2.11 0.13
5 7 2 2.15 0.12
5 7 2 2.26 0.13
5 7 2 2.33 0.17
6 7 2 12.08 0.29
6 7 2 12.07 0.26
3 -8 -2 17.31 0.42
3 -8 -2 18.02 0.49
3 -8 -2 18.14 0.52
-3 8 2 17.81 0.43
-3 8 2 18.1 0.49
2 -8 -2 14.51 0.45
2 -8 -2 14.18 0.42
-2 8 2 14.29 0.4
-2 8 2 13.82 0.35
1 -8 -2 142.23 3.61
1 -8 -2 138.66 3.49
1 -8 -2 140.41 3.58
-1 8 2 145.05 3.69
-1 8 2 143.2 3.27
-1 8 2 141.28 3.56
0 -8 -2 5.38 0.23
0 -8 -2 6.06 0.28
0 -8 -2 5.71 0.18
0 8 2 5.73 0.18
0 8 2 5.93 0.25
0 8 2 5.83 0.22
-1 -8 -2 14.54 0.42
-1 -8 -2 14.53 0.36
-1 -8 -2 13.98 0.54
1 8 2 14.84 0.42
1 8 2 14.5 0.43
-2 -8 -2 0.63 0.13
-2 -8 -2 0.46 0.08
2 8 2 0.53 0.07
2 8 2 0.63 0.12
2 8 2 0.48 0.11
2 8 2 0.43 0.09
-3 -8 -2 47.1 1.23
-3 -8 -2 47.88 1.11
3 8 2 48.79 1.27
3 8 2 48.78 0.96
3 8 2 48.89 0.92
3 8 2 48.13 1.08
-4 -8 -2 43.57 1.02
-4 -8 -2 42.97 1.14
4 8 2 46.57 0.91
4 8 2 46.71 0.87
4 8 2 45.64 1.03
-5 -8 -2 27.09 0.66
5 8 2 29.14 0.58
5 8 2 28.51 0.65
5 8 2 28.81 0.55
6 8 2 52.84 1.02
6 8 2 53.54 1.16
3 -9 -2 24.75 0.65
3 -9 -2 24.97 0.56
-3 9 2 25.18 0.58
-3 9 2 25 0.64
2 -9 -2 12.05 0.37
-2 9 2 10.45 0.27
-2 9 2 10.26 0.31
1 -9 -2 22.41 0.61
1 -9 -2 22.68 0.63
-1 9 2 22.76 0.61
-1 9 2 22.91 0.54
-1 9 2 22.62 0.66
0 -9 -2 12.3 0.36
0 -9 -2 11.55 0.39
0 -9 -2 11.89 0.31
0 9 2 11.88 0.38
0 9 2 11.97 0.35
-1 -9 -2 12.72 0.33
-1 -9 -2 12.7 0.38
-1 -9 -2 12.66 0.5
1 9 2 13.39 0.41
1 9 2 13.21 0.39
-2 -9 -2 41.32 1.06
-2 -9 -2 40.6 0.96
2 9 2 43.56 1.15
-3 -9 -2 6.6 0.21
-3 -9 -2 6.32 0.27
3 9 2 6.52 0.2
3 9 2 6.33 0.2
3 9 2 6.62 0.23
-4 -9 -2 4.43 0.28
-4 -9 -2 3.87 0.18
4 9 2 4.25 0.15
4 9 2 4.08 0.16
-5 -9 -2 2.87 0.15
5 9 2 3 0.11
5 9 2 3.04 0.12
2 -10 -2 5.56 0.19
-2 10 2 5.49 0.18
1 -10 -2 13.63 0.41
-1 10 2 13.55 0.39
-1 10 2 14.26 0.46
0 -10 -2 13.33 0.43
0 -10 -2 13.41 0.39
0 10 2 14.33 0.43
0 10 2 13.89 0.4
-1 -10 -2 15.38 0.54
-1 -10 -2 15.51 0.39
-1 -10 -2 15.8 0.44
1 10 2 16.04 0.47
-2 -10 -2 2.93 0.18
-2 -10 -2 2.61 0.13
2 10 2 2.88 0.16
-3 -10 -2 38.14 0.89
-3 -10 -2 37.4 0.98
3 10 2 39.25 1.03
3 10 2 39.64 1.15
3 10 2 39.13 0.78
-4 -10 -2 4.66 0.24
-4 -10 -2 4.94 0.16
4 10 2 5.31 0.16
4 10 2 5.22 0.16
-5 -10 -2 0.1 0.06
5 10 2 0.02 0.05
1 -11 -2 22.11 0.6
-1 11 2 22.9 0.64
-1 11 2 22.13 0.58
0 -11 -2 33.34 0.9
0 -11 -2 33.42 0.85
0 11 2 33.62 0.88
0 11 2 32.3 0.84
-1 -11 -2 0.28 0.07
-1 -11 -2 0.27 0.09
-1 -11 -2 0.47 0.21
1 11 2 0.23 0.09
-2 -11 -2 8.84 0.28
-2 -11 -2 8.47 0.23
2 11 2 8.52 0.27
-3 -11 -2 5.43 0.16
-3 -11 -2 5.51 0.21
3 11 2 5.78 0.27
3 11 2 5.72 0.2
-4 -11 -2 1.41 0.09
-4 -11 -2 1.38 0.12
4 11 2 1.53 0.12
0 -12 -2 9.41 0.31
0 12 2 9.88 0.3
-1 -12 -2 3.07 0.14
1 12 2 3.25 0.15
-2 -12 -2 4.95 0.14
-2 -12 -2 4.97 0.18
2 12 2 5.24 0.18
-3 -12 -2 41.66 0.96
-3 -12 -2 41.69 1.05
2 11 -3 0.41 0.08
-2 -11 3 0.34 0.07
-2 -11 3 0.43 0.05
1 11 -3 31.37 0.82
1 11 -3 31.79 0.91
-1 -11 3 31.72 0.81
0 11 -3 10.73 0.31
0 11 -3 10.97 0.34
0 -11 3 10.65 0.3
4 10 -3 2.73 0.11
4 10 -3 2.66 0.18
-4 -10 3 2.58 0.11
3 10 -3 44.26 1.26
3 10 -3 43.53 0.85
-3 -10 3 43.64 1.12
-3 -10 3 44.43 1.02
2 10 -3 1.61 0.15
2 10 -3 1.7 0.12
-2 -10 3 1.69 0.1
-2 -10 3 1.56 0.14
1 10 -3 7.26 0.24
-1 -10 3 6.84 0.19
-1 -10 3 6.91 0.23
0 10 -3 85.55 2.2
0 -10 3 85.2 2.09
0 -10 3 82.27 2.18
-1 10 -3 22.97 0.62
1 -10 3 22.9 0.63
4 9 -3 20.07 0.4
4 9 -3 19.51 0.59
-4 -9 3 19.2 0.47
3 9 -3 2.26 0.17
3 9 -3 2.43 0.12
-3 -9 3 2.49 0.14
-3 -9 3 2.49 0.21
2 9 -3 16.03 0.49
2 9 -3 13.33 0.42
2 9 -3 15.78 0.34
-2 -9 3 15.76 0.39
-2 -9 3 15.41 0.45
1 9 -3 2.24 0.15
-1 -9 3 2.07 0.11
-1 -9 3 2.28 0.16
0 9 -3 46.23 1.22
0 -9 3 44.56 1.18
0 -9 3 40.88 1.1
0 -9 3 43.1 0.99
-1 9 -3 14.43 0.41
-1 9 -3 15.1 0.44
1 -9 3 14.83 0.41
1 -9 3 14.98 0.45
-2 9 -3 4.32 0.17
-2 9 -3 4.15 0.27
2 -9 3 4.11 0.17
2 -9 3 4.19 0.17
5 8 -3 40.54 0.79
4 8 -3 8.91 0.21
4 8 -3 8.53 0.31
-4 -8 3 8.78 0.29
3 8 -3 66.34 1.89
3 8 -3 65.28 1.28
-3 -8 3 63.39 1.46
-3 -8 3 62.96 1.61
2 8 -3 3.06 0.14
2 8 -3 3.22 0.16
-2 -8 3 3.42 0.21
-2 -8 3 3.53 0.16
1 8 -3 94.69 1.81
1 8 -3 93.39 2.43
-1 -8 3 91.28 2.11
-1 -8 3 92.24 2.31
0 8 -3 14.01 0.41
0 8 -3 13.62 0.42
0 -8 3 14.37 0.41
0 -8 3 14.04 0.49
0 -8 3 14.13 0.36
-1 8 -3 131.79 3.29
-1 8 -3 132.74 3.4
1 -8 3 131.15 3.32
1 -8 3 135.42 3.43
-2 8 -3 29.34 0.77
-2 8 -3 30.34 0.83
2 -8 3 31.25 0.84
-3 8 -3 12.78 0.35
3 -8 3 12.53 0.32
3 -8 3 13.36 0.36
5 7 -3 37.22 0.73
4 7 -3 52.84 1.02
4 7 -3 50.6 1.15
4 7 -3 53.34 1.51
3 7 -3 23.27 0.48
3 7 -3 22.99 0.54
3 7 -3 23.11 0.71
-3 -7 3 22.27 0.57
2 7 -3 64.76 1.25
2 7 -3 63.45 1.66
-2 -7 3 64.11 1.48
-2 -7 3 63.6 1.63
1 7 -3 235.6 4.46
1 7 -3 233.21 5.99
-1 -7 3 227.48 5.23
-1 -7 3 231.6 5.69
0 7 -3 174.81 4.41
0 7 -3 180.82 4.56
0 -7 3 174.96 4.35
0 -7 3 173.42 4.5
0 -7 3 176.65 3.99
-1 7 -3 2.71 0.22
-1 7 -3 2.6 0.14
-1 7 -3 2.9 0.16
1 -7 3 2.83 0.21
1 -7 3 2.79 0.18
1 -7 3 2.86 0.14
-2 7 -3 6.17 0.22
-2 7 -3 6.06 0.33
-2 7 -3 5.93 0.18
2 -7 3 6.2 0.24
2 -7 3 6.22 0.26
-3 7 -3 8.2 0.26
-3 7 -3 8.27 0.22
3 -7 3 8.49 0.27
3 -7 3 8.62 0.24
5 6 -3 0.36 0.1
5 6 -3 0.14 0.17
5 6 -3 0.45 0.07
4 6 -3 41.28 0.93
4 6 -3 41.72 1.21
4 6 -3 41.67 0.82
3 6 -3 7.36 0.3
3 6 -3 7.4 0.24
3 6 -3 7.64 0.2
2 6 -3 4.07 0.19
2 6 -3 3.97 0.15
2 6 -3 3.63 0.18
-2 -6 3 4.17 0.32
-2 -6 3 4.67 0.24
1 6 -3 28.05 0.76
1 6 -3 28.18 0.57
-1 -6 3 29.2 0.76
-1 -6 3 27.45 0.68
0 6 -3 326.04 8.16
0 6 -3 313.27 7.9
0 -6 3 329.17 7.95
0 -6 3 313.21 8.21
-1 6 -3 12.87 0.32
-1 6 -3 12.82 0.41
-1 6 -3 12.76 0.37
1 -6 3 13.27 0.33
1 -6 3 12.96 0.39
1 -6 3 13.14 0.42
-2 6 -3 13.84 0.43
-2 6 -3 14.11 0.52
-2 6 -3 17.49 0.38
2 -6 3 13.86 0.42
2 -6 3 14.27 0.41
-3 6 -3 35.26 0.83
-3 6 -3 35.47 0.91
3 -6 3 37.59 0.86
3 -6 3 38.25 1.01
-4 6 -3 72.64 1.79
-4 6 -3 70.09 1.63
4 -6 3 73.12 1.89
4 -6 3 74.08 1.61
5 5 -3 30.34 0.6
5 5 -3 29.64 0.68
4 5 -3 10.09 0.28
4 5 -3 9.96 0.24
4 5 -3 9.56 0.36
3 5 -3 1.78 0.12
3 5 -3 1.94 0.13
3 5 -3 2.36 0.19
2 5 -3 0.6 0.1
2 5 -3 0.52 0.08
2 5 -3 0.63 0.12
1 5 -3 3.3 0.16
-1 -5 3 3.33 0.2
-1 -5 3 3.1 0.27
0 5 -3 6.91 0.25
0 5 -3 6.72 0.27
0 -5 3 6.75 0.33
0 -5 3 7.19 0.54
0 -5 3 6.61 0.25
0 -5 3 6.73 0.2
0 -5 3 6.44 0.46
-1 5 -3 9.49 0.25
-1 5 -3 9.78 0.29
-1 5 -3 9.39 0.35
1 -5 3 9.22 0.33
1 -5 3 9.64 0.25
1 -5 3 9.43 0.3
-2 5 -3 8.23 0.27
-2 5 -3 7.78 0.41
-2 5 -3 8.17 0.23
2 -5 3 8.42 0.29
2 -5 3 8.56 0.29
-3 5 -3 6.82 0.24
-3 5 -3 6.87 0.2
3 -5 3 7.34 0.23
3 -5 3 7.41 0.26
-4 5 -3 220.57 5.08
-4 5 -3 225.85 5.53
4 -5 3 227.46 5.81
4 -5 3 228.15 4.93
5 4 -3 1.34 0.11
5 4 -3 1.22 0.09
4 4 -3 23.87 0.72
4 4 -3 23.97 0.49
4 4 -3 23.57 0.56
3 4 -3 75.95 1.46
3 4 -3 74.38 1.66
3 4 -3 76.5 2.16
2 4 -3 38.55 1.53
2 4 -3 37.35 1.02
2 4 -3 40.04 1.53
2 4 -3 40.24 0.77
-2 -4 3 37.37 1.24
-2 -4 3 37.71 1.53
-2 -4 3 41.6 1.53
1 4 -3 71.52 2.69
1 4 -3 65.69 2.68
-1 -4 3 72.06 2.68
-1 -4 3 67.2 2.13
-1 -4 3 65.9 2.67
0 4 -3 1.64 0.09
0 4 -3 1.59 0.18
0 4 -3 1.33 0.2
0 -4 3 1.31 0.16
0 -4 3 1.4 0.14
0 -4 3 1.38 0.2
-1 4 -3 4.54 0.42
-1 4 -3 4.19 0.19
-1 4 -3 3.59 0.35
-1 4 -3 4.26 0.15
-1 4 -3 3.84 0.29
-1 4 -3 4.3 0.23
1 -4 3 4.28 0.37
1 -4 3 4.12 0.41
1 -4 3 4.23 0.21
1 -4 3 4.48 0.2
1 -4 3 4.22 0.15
-2 4 -3 155.76 3.51
-2 4 -3 151.84 3.82
2 -4 3 157.46 4.05
2 -4 3 158.34 3.92
-3 4 -3 231.05 5.68
-3 4 -3 227.36 5.22
3 -4 3 244.62 6.09
3 -4 3 235.65 6.13
3 -4 3 239.64 5.2
-4 4 -3 18.03 0.47
-4 4 -3 15.38 0.41
4 -4 3 15.59 0.45
4 -4 3 15.63 0.4
4 -4 3 16.98 0.48
-5 4 -3 34.99 0.81
-5 4 -3 34.88 0.89
5 -4 3 35.18 0.78
5 3 -3 49.8 1.29
5 3 -3 47.73 0.96
5 3 -3 50.23 1.1
4 3 -3 5.43 0.17
4 3 -3 5.45 0.26
4 3 -3 5.4 0.27
4 3 -3 5.34 0.21
3 3 -3 9.84 0.31
3 3 -3 10.28 0.25
3 3 -3 10.62 0.37
-2 -3 3 382.3 14.18
-2 -3 3 354.61 14.17
-2 -3 3 364.77 11.24
1 3 -3 5.77 0.26
-1 -3 3 5.95 0.27
-1 -3 3 5.95 0.27
-1 -3 3 6.15 0.23
0 3 -3 28.72 1.12
0 3 -3 26.95 0.91
0 3 -3 29.14 1.13
0 -3 3 28.44 0.91
0 -3 3 28.75 1.15
0 -3 3 29.43 1.15
-1 3 -3 62.24 2.02
-1 3 -3 63.1 2.45
-1 3 -3 61.97 2.45
1 -3 3 63.03 2.39
1 -3 3 58.53 1.87
-2 3 -3 154.43 5.26
-2 3 -3 168.94 4.05
-2 3 -3 166.4 3.72
2 -3 3 166.71 4.18
2 -3 3 160.26 4.06
-3 3 -3 72.64 1.83
-3 3 -3 72.68 1.68
3 -3 3 70.14 1.85
3 -3 3 71.86 1.85
3 -3 3 72.72 1.58
-4 3 -3 70.17 1.74
-4 3 -3 67.4 1.59
4 -3 3 68.17 1.78
4 -3 3 68.43 1.52
4 -3 3 70.15 1.78
-5 3 -3 0.56 0.06
-5 3 -3 0.62 0.11
5 -3 3 0.5 0.11
5 -3 3 0.44 0.07
6 2 -3 0.47 0.1
6 2 -3 0.53 0.11
5 2 -3 46.23 1.02
5 2 -3 45.17 1.19
4 2 -3 73.45 1.86
4 2 -3 69.32 2.06
4 2 -3 72.85 1.59
4 2 -3 72.85 1.4
3 2 -3 59.17 1.6
3 2 -3 56.09 1.09
3 2 -3 54.61 1.46
3 2 -3 53.4 1.24
-3 -2 3 53.38 1.68
-2 -2 3 209.9 6.43
1 2 -3 164.66 6.26
1 2 -3 159.27 6.26
-1 -2 3 159.55 4.94
-1 -2 3 158.15 6.22
-1 -2 3 165.43 6.23
0 2 -3 590.12 22.01
0 2 -3 551.91 18.19
0 2 -3 562.33 22
0 -2 3 591.11 22.45
0 -2 3 570.89 22.46
0 -2 3 576.81 17.77
-1 2 -3 1.81 0.15
-1 2 -3 1.91 0.1
-1 2 -3 1.78 0.15
1 -2 3 1.97 0.15
1 -2 3 1.76 0.15
1 -2 3 1.76 0.09
-2 2 -3 68.81 2.26
-2 2 -3 73.02 2.73
-2 2 -3 66.58 2.73
2 -2 3 64.81 1.74
2 -2 3 70.6 2.65
2 -2 3 66.75 2.65
-3 2 -3 170.14 4.29
-3 2 -3 175.38 3.94
3 -2 3 164.59 4.32
3 -2 3 171.86 4.3
3 -2 3 170.6 3.67
-4 2 -3 12.03 0.32
-4 2 -3 11.78 0.38
4 -2 3 12.09 0.35
4 -2 3 12.12 0.32
4 -2 3 12.39 0.38
-5 2 -3 44.01 1.49
-5 2 -3 43.76 1.02
5 -2 3 44.52 1.17
5 -2 3 45.72 1.01
6 1 -3 1.42 0.13
6 1 -3 1.46 0.1
5 1 -3 9.98 0.28
5 1 -3 9.75 0.32
4 1 -3 138.07 3.85
4 1 -3 134.68 2.61
4 1 -3 135.91 2.96
4 1 -3 136.06 3.47
3 1 -3 138.81 2.6
3 1 -3 132.06 2.95
3 1 -3 136.08 3.83
3 1 -3 136.59 3.46
-3 -1 3 139.29 4.51
-3 -1 3 140.75 4.31
-2 -1 3 49.46 1.62
-2 -1 3 51.14 1.56
1 1 -3 856.78 33.25
1 1 -3 865 33.26
-1 -1 3 881.27 34.05
-1 -1 3 881.67 34.05
0 1 -3 5.08 0.23
0 1 -3 4.95 0.23
0 -1 3 5.36 0.24
0 -1 3 5.19 0.24
-1 1 -3 470 17.71
-1 1 -3 443.92 17.7
1 -1 3 470.82 18.37
1 -1 3 478.44 18.4
-2 1 -3 4.52 0.25
-2 1 -3 4.33 0.2
-2 1 -3 4.45 0.24
2 -1 3 4.51 0.25
2 -1 3 4.51 0.25
-3 1 -3 2.5 0.2
-3 1 -3 2.49 0.24
3 -1 3 2.47 0.19
3 -1 3 2.6 0.15
3 -1 3 3.02 0.17
-4 1 -3 46.51 1.08
-4 1 -3 45.1 1.19
4 -1 3 47.52 1.24
4 -1 3 47.77 1.23
4 -1 3 47.01 1.06
-5 1 -3 2.98 0.28
-5 1 -3 3.29 0.16
5 -1 3 2.8 0.15
5 -1 3 3.16 0.18
-6 1 -3 30.01 0.7
6 -1 3 30.63 0.68
6 -1 3 30.56 0.79
6 0 -3 33.65 0.86
6 0 -3 32.43 0.74
5 0 -3 55.84 1.39
5 0 -3 50.97 1.18
4 0 -3 25.28 0.79
4 0 -3 25.99 0.6
4 0 -3 25.63 0.7
3 0 -3 281.02 7.1
3 0 -3 280.09 6.06
3 0 -3 280 7.87
-3 0 3 272.8 8.75
-2 0 3 550.51 17.67
1 0 -3 581.97 21.99
1 0 -3 557.72 21.99
1 0 -3 567.39 18.23
-1 0 3 548.76 17.91
-1 0 3 577.3 21.61
-1 0 3 551.08 21.61
0 0 -3 401.71 12.9
0 0 -3 413.58 15.59
0 0 -3 391.28 15.59
0 0 3 402.68 15.68
0 0 3 406.15 15.67
-1 0 -3 175.81 6.63
-1 0 -3 167.1 6.63
1 0 3 190.06 7.09
1 0 3 175.18 7.06
-2 0 -3 0.34 0.08
-2 0 -3 0.29 0.07
2 0 3 0.37 0.08
2 0 3 0.45 0.04
2 0 3 0.36 0.08
3 0 3 18.53 0.52
3 0 3 18.39 0.45
3 0 3 19.03 0.51
-4 0 -3 70.12 1.75
-4 0 -3 67.11 1.59
4 0 3 73.08 1.6
4 0 3 72.04 1.87
4 0 3 72.3 1.87
-5 0 -3 29.6 0.71
-5 0 -3 29.18 0.83
5 0 3 30.08 0.69
5 0 3 29.67 0.8
-6 0 -3 4.61 0.17
6 0 3 5.19 0.15
6 0 3 5.1 0.18
6 -1 -3 6.57 0.21
5 -1 -3 4.3 0.18
5 -1 -3 4.42 0.2
4 -1 -3 3.86 0.26
4 -1 -3 3.61 0.18
3 -1 -3 18.86 0.62
3 -1 -3 20.03 0.48
3 -1 -3 20.61 0.56
-3 1 3 17.57 0.67
-2 1 3 3.73 0.17
-2 1 3 3.71 0.17
1 -1 -3 633.3 24.39
1 -1 -3 660.78 20.23
1 -1 -3 597.82 24.38
-1 1 3 631.05 20.53
-1 1 3 633.84 24.76
-1 1 3 655.77 24.76
0 -1 -3 534.23 21.64
0 -1 -3 566.59 17.94
0 -1 -3 577.86 21.65
0 1 3 587.67 22.42
0 1 3 571.24 22.42
-1 -1 -3 281.61 11.18
-1 -1 -3 294.7 11.2
1 1 3 306.6 11.78
1 1 3 292.24 11.76
1 1 3 309.86 9.3
-2 -1 -3 431.2 16.25
-2 -1 -3 407.81 16.23
2 1 3 422.65 16.43
2 1 3 425.97 13
-3 -1 -3 4.99 0.29
3 1 3 6.39 0.22
3 1 3 6.54 0.23
3 1 3 6.4 0.25
4 1 3 5.98 0.23
4 1 3 5.56 0.21
4 1 3 5.59 0.21
4 1 3 5.73 0.2
4 1 3 5.73 0.22
4 1 3 5.19 0.27
-5 -1 -3 62.1 1.44
5 1 3 67.22 1.5
5 1 3 68.59 1.76
-6 -1 -3 8.88 0.26
6 1 3 9.79 0.24
6 1 3 9.49 0.28
5 -2 -3 2.22 0.16
5 -2 -3 2.58 0.14
4 -2 -3 2.92 0.18
4 -2 -3 2.95 0.25
4 -2 -3 3.03 0.16
3 -2 -3 63.84 1.64
3 -2 -3 63.41 1.81
3 -2 -3 62.29 1.39
2 -2 -3 604.32 23.27
2 -2 -3 599.6 23.27
-2 2 3 591.18 22.66
-2 2 3 595.31 18.81
-2 2 3 587.01 22.68
-2 2 3 571.13 17.94
1 -2 -3 225.14 8.52
1 -2 -3 214.6 7.04
-1 2 3 211.08 7.06
-1 2 3 210.87 8.53
-1 2 3 230.13 6.76
-1 2 3 229.76 8.54
0 -2 -3 701.92 27.21
0 -2 -3 702.98 27.21
0 -2 -3 704.29 22.55
0 2 3 690.73 22.54
0 2 3 692.85 27.19
0 2 3 715.89 27.19
0 2 3 712.15 21.53
-1 -2 -3 175.3 6.97
-1 -2 -3 183.87 6.99
1 2 3 170 5.4
1 2 3 172.38 6.82
1 2 3 187 6.87
-2 -2 -3 49.17 1.91
-2 -2 -3 48.82 1.91
2 2 3 51.46 1.56
2 2 3 49.6 1.97
-3 -2 -3 72.66 2.99
-3 -2 -3 80.7 2.99
3 2 3 77.78 2.01
3 2 3 77.67 2.02
3 2 3 80.07 1.72
4 2 3 17.6 0.5
4 2 3 17.68 0.43
4 2 3 17.6 0.47
4 2 3 17.86 0.39
4 2 3 17.72 0.38
4 2 3 18.08 0.49
5 2 3 0.25 0.11
5 2 3 0.45 0.1
5 2 3 0.34 0.08
5 2 3 0.17 0.09
-6 -2 -3 19.38 0.49
6 2 3 21.66 0.58
6 2 3 21.26 0.49
5 -3 -3 0.45 0.08
5 -3 -3 0.46 0.08
4 -3 -3 2.38 0.19
4 -3 -3 2.14 0.15
4 -3 -3 1.7 0.16
3 -3 -3 0.29 0.1
3 -3 -3 0.41 0.09
3 -3 -3 0.14 0.09
3 -3 -3 0.07 0.13
2 -3 -3 181.12 6.81
2 -3 -3 173.69 4.49
2 -3 -3 179.31 6.81
2 -3 -3 169.17 4.95
-2 3 3 188.62 6.03
-2 3 3 192.34 5.74
-2 3 3 190.06 7.26
-2 3 3 178.89 7.26
1 -3 -3 311.17 12.08
-1 3 3 329.9 9.83
-1 3 3 325.95 12.44
-1 3 3 298.28 10.26
-1 3 3 325.02 12.42
0 -3 -3 19.74 0.79
0 -3 -3 19.65 0.66
0 -3 -3 20.2 0.79
0 3 3 19.83 0.82
0 3 3 20.8 0.82
0 3 3 20.5 0.68
0 3 3 21.19 0.65
-1 -3 -3 380.09 12.12
-1 -3 -3 396.68 15.32
-1 -3 -3 406.73 12.7
-1 -3 -3 397.55 15.31
1 3 3 405.1 15.46
1 3 3 387.96 15.46
1 3 3 402.43 12.24
-2 -3 -3 1.65 0.13
-2 -3 -3 1.84 0.15
-2 -3 -3 1.85 0.1
2 3 3 1.78 0.12
2 3 3 2.55 0.14
-3 -3 -3 127.83 4.96
3 3 3 146.79 4.5
3 3 3 149.13 3.73
3 3 3 148.09 3.18
3 3 3 141.79 3.74
4 3 3 53.7 1.39
4 3 3 53.78 1.23
4 3 3 52.94 1
4 3 3 53.53 1.05
4 3 3 52.51 1.18
5 3 3 0.19 0.07
5 3 3 0.48 0.08
5 3 3 0.4 0.09
5 3 3 0.27 0.09
6 3 3 10.14 0.3
6 3 3 10.46 0.26
5 -4 -3 1.43 0.12
5 -4 -3 1.33 0.12
-5 4 3 1.29 0.1
4 -4 -3 10.2 0.4
4 -4 -3 10.73 0.28
4 -4 -3 10.48 0.34
-4 4 3 10.93 0.32
3 -4 -3 1 0.1
3 -4 -3 1.14 0.12
-3 4 3 0.98 0.16
-3 4 3 0.94 0.14
2 -4 -3 6.53 0.24
2 -4 -3 6.06 0.28
-2 4 3 5.96 0.31
-2 4 3 6.23 0.27
1 -4 -3 321.27 12.59
1 -4 -3 334.24 12.6
1 -4 -3 322.05 10.44
-1 4 3 352.52 13.16
-1 4 3 336.92 10.41
-1 4 3 334.26 10.91
-1 4 3 337.72 13.16
0 -4 -3 666.89 25.84
0 -4 -3 649.49 25.81
0 -4 -3 684.08 21.41
0 4 3 708.59 27.43
0 4 3 696.53 21.68
0 4 3 716.94 27.39
-1 -4 -3 85.53 3.24
-1 -4 -3 83.56 2.69
-1 -4 -3 81.06 3.24
1 4 3 83.19 3.28
1 4 3 85.37 3.28
-2 -4 -3 133.34 4.21
-2 -4 -3 131.66 5.08
-2 -4 -3 130.35 4.02
-2 -4 -3 127.62 5.07
2 4 3 127.49 4.91
2 4 3 123.71 4.91
2 4 3 128.64 3.89
-3 -4 -3 241.43 7.4
3 4 3 240.05 6.31
3 4 3 253.43 6.35
3 4 3 248.71 7.65
3 4 3 254.77 5.39
4 4 3 97.25 2.18
4 4 3 97.55 2.47
4 4 3 95.94 1.86
4 4 3 95.9 2.47
4 4 3 96.74 1.78
4 4 3 94.96 2.11
5 4 3 127.25 2.31
5 4 3 126.68 2.41
5 4 3 124.36 3.2
5 4 3 122.91 2.73
6 4 3 12.49 0.3
6 4 3 12.23 0.35
6 4 3 11.67 0.27
5 -5 -3 0.12 0.07
5 -5 -3 0.12 0.07
-5 5 3 0.11 0.07
4 -5 -3 29.72 0.69
4 -5 -3 31.02 0.82
-4 5 3 32.77 0.85
-4 5 3 31.27 0.76
3 -5 -3 26.25 0.7
3 -5 -3 26.33 0.8
3 -5 -3 25.43 0.71
-3 5 3 26.02 0.63
-3 5 3 26.27 0.7
2 -5 -3 65.91 1.88
2 -5 -3 64.94 1.7
-2 5 3 67 1.7
-2 5 3 68.17 1.56
1 -5 -3 24 1
1 -5 -3 24.46 0.66
-1 5 3 25.28 0.66
-1 5 3 23.34 0.86
-1 5 3 25.67 1.04
-1 5 3 25.48 0.6
-1 5 3 24.45 1.03
-1 5 3 24.97 0.81
0 -5 -3 3.05 0.19
0 -5 -3 2.72 0.21
0 -5 -3 2.93 0.22
0 5 3 2.81 0.18
0 5 3 2.97 0.21
0 5 3 2.88 0.22
0 5 3 3.01 0.17
-1 -5 -3 236.63 7.6
-1 -5 -3 233.09 9.17
-1 -5 -3 241.92 9.18
-1 -5 -3 236.19 7.26
1 5 3 225.2 9.1
1 5 3 236 7.21
1 5 3 244.25 9.1
-2 -5 -3 271.4 8.61
-2 -5 -3 283.76 9.01
-2 -5 -3 298.03 10.88
-2 -5 -3 270.66 10.87
2 5 3 287.87 10.84
2 5 3 270.69 10.84
2 5 3 283.82 8.59
2 5 3 278.3 6.05
2 5 3 280.22 7.14
-3 -5 -3 30.61 0.79
-3 -5 -3 25.88 0.94
3 5 3 33.63 0.66
3 5 3 33.71 0.69
3 5 3 34.68 0.77
3 5 3 33.31 0.9
3 5 3 34.44 0.8
3 5 3 34.86 0.9
4 5 3 35.49 0.67
4 5 3 33.55 0.91
4 5 3 33.92 0.92
4 5 3 35.2 0.79
4 5 3 34.67 0.82
4 5 3 35.29 0.7
5 5 3 0.05 0.08
5 5 3 0.18 0.08
5 5 3 0.19 0.07
5 5 3 0.09 0.09
6 5 3 46.55 0.87
6 5 3 48.19 1.04
6 5 3 47.28 1.21
6 5 3 46.23 0.91
4 -6 -3 -0.02 0.09
4 -6 -3 0.04 0.07
-4 6 3 0.07 0.11
-4 6 3 0.08 0.06
3 -6 -3 50.53 1.35
3 -6 -3 53 1.35
-3 6 3 51.11 1.21
-3 6 3 52.5 1.32
2 -6 -3 137.46 3.48
2 -6 -3 135.99 3.5
2 -6 -3 135.38 3.86
-2 6 3 139.33 3.45
-2 6 3 137.94 3.17
1 -6 -3 117.86 3.08
1 -6 -3 122.24 3.4
1 -6 -3 119.08 2.98
-1 6 3 123.13 2.86
-1 6 3 127.12 3.12
0 -6 -3 126.28 3.12
0 -6 -3 126.33 3.22
0 -6 -3 124.91 4.89
0 -6 -3 121.15 4.88
0 -6 -3 127.11 2.85
0 6 3 122.5 4.99
0 6 3 132.01 3.18
0 6 3 133.05 5
0 6 3 131.86 2.92
0 6 3 123.3 3.29
0 6 3 124.84 4.14
-1 -6 -3 504.59 19.84
-1 -6 -3 517.19 16.44
-1 -6 -3 508.69 11.64
-1 -6 -3 511.3 15.71
-1 -6 -3 535.6 19.85
-1 -6 -3 502.86 12.68
1 6 3 516 12.67
1 6 3 496.95 19.85
1 6 3 509.67 11.07
1 6 3 510.68 19.85
1 6 3 534.82 13.08
-2 -6 -3 10.31 0.29
-2 -6 -3 9.27 0.37
2 6 3 9.97 0.27
2 6 3 10.17 0.26
2 6 3 9.86 0.32
2 6 3 10.45 0.33
2 6 3 10.15 0.27
2 6 3 9.75 0.31
-3 -6 -3 30.52 0.75
-3 -6 -3 31.1 0.86
3 6 3 31.08 0.85
3 6 3 31.66 0.62
3 6 3 32.17 0.65
3 6 3 31.81 0.75
3 6 3 32.34 0.72
3 6 3 32.1 0.85
-4 -6 -3 47.08 1.12
4 6 3 48.51 0.96
4 6 3 49.38 1.27
4 6 3 48.24 1.26
4 6 3 48.88 0.92
4 6 3 48.52 1.09
-5 -6 -3 1.24 0.16
5 6 3 1.06 0.08
5 6 3 0.93 0.08
5 6 3 1.05 0.08
5 6 3 1.14 0.11
6 6 3 7.48 0.18
6 6 3 7.57 0.23
6 6 3 7.81 0.2
4 -7 -3 0.2 0.07
4 -7 -3 0.2 0.09
-4 7 3 0.18 0.05
-4 7 3 0.15 0.09
3 -7 -3 15.91 0.46
3 -7 -3 15.14 0.44
-3 7 3 13.95 0.38
-3 7 3 15.98 0.43
2 -7 -3 1.52 0.15
2 -7 -3 1.68 0.17
-2 7 3 1.64 0.15
-2 7 3 1.42 0.11
1 -7 -3 56.04 1.48
1 -7 -3 56.48 1.43
-1 7 3 58.47 1.46
-1 7 3 57.45 1.33
-1 7 3 56.8 1.54
0 -7 -3 3.12 0.24
0 -7 -3 3.26 0.19
0 -7 -3 3.05 0.14
0 7 3 4.08 0.18
0 7 3 3.63 0.25
-1 -7 -3 245.46 5.45
-1 -7 -3 235.39 6.14
-1 -7 -3 237.76 5.94
1 7 3 255.87 6.18
1 7 3 248.37 5.4
1 7 3 244.81 6.38
-2 -7 -3 224.46 5.52
-2 -7 -3 220.36 5.06
2 7 3 225.56 5.76
2 7 3 227.62 4.29
2 7 3 226.71 4.12
2 7 3 221.61 4.87
-3 -7 -3 0.47 0.17
-3 -7 -3 0.75 0.1
3 7 3 0.65 0.08
3 7 3 0.67 0.12
3 7 3 0.57 0.09
3 7 3 0.62 0.09
3 7 3 0.61 0.09
-4 -7 -3 155.41 3.83
-4 -7 -3 150.65 3.5
4 7 3 155.38 3.38
4 7 3 157.6 2.98
4 7 3 153.92 3.96
4 7 3 156.09 2.86
4 7 3 154.94 3.97
-5 -7 -3 49.96 1.17
5 7 3 48.67 1.11
5 7 3 51.22 0.94
5 7 3 51.03 0.99
5 7 3 50 1.3
6 7 3 16.04 0.33
6 7 3 16.49 0.37
3 -8 -3 0.6 0.08
3 -8 -3 0.84 0.12
3 -8 -3 0.71 0.08
-3 8 3 0.68 0.09
-3 8 3 0.63 0.06
2 -8 -3 110.92 2.83
2 -8 -3 110.22 2.85
-2 8 3 110.9 2.53
-2 8 3 109.98 2.76
1 -8 -3 22.53 0.62
1 -8 -3 22.76 0.64
-1 8 3 23.01 0.7
-1 8 3 23.85 0.62
-1 8 3 23.02 0.56
0 -8 -3 42.55 1.09
0 -8 -3 41.1 0.98
0 -8 -3 43.14 1.13
0 8 3 44.16 1.03
0 8 3 44.17 1.13
-1 -8 -3 37.75 1.01
-1 -8 -3 39.38 0.91
-1 -8 -3 39.96 1.08
1 8 3 39.04 1.03
1 8 3 41.77 1.08
-2 -8 -3 9.39 0.26
-2 -8 -3 8.99 0.32
2 8 3 9.4 0.31
2 8 3 9.35 0.27
2 8 3 9.62 0.26
2 8 3 9.51 0.26
-3 -8 -3 2.52 0.15
-3 -8 -3 2.7 0.23
3 8 3 2.55 0.13
3 8 3 2.64 0.15
3 8 3 2.77 0.14
3 8 3 3 0.17
-4 -8 -3 -0.02 0.09
-4 -8 -3 0.21 0.16
4 8 3 0.02 0.07
4 8 3 0.04 0.07
4 8 3 0.16 0.08
4 8 3 0.08 0.09
-5 -8 -3 8.86 0.26
5 8 3 9.21 0.22
5 8 3 9.07 0.21
5 8 3 9.17 0.24
6 8 3 17.52 0.4
6 8 3 18.12 0.36
3 -9 -3 4.86 0.15
3 -9 -3 4.81 0.16
-3 9 3 5 0.17
-3 9 3 4.96 0.14
2 -9 -3 7.32 0.3
2 -9 -3 7.3 0.25
-2 9 3 7.2 0.2
-2 9 3 7.28 0.24
1 -9 -3 11.57 0.36
1 -9 -3 9.19 0.35
1 -9 -3 11.57 0.35
-1 9 3 12.22 0.31
-1 9 3 12.08 0.35
-1 9 3 12.2 0.44
0 -9 -3 21.45 0.58
0 -9 -3 21.03 0.51
0 -9 -3 20.95 0.61
0 9 3 21.27 0.62
0 9 3 21.85 0.58
0 9 3 21.78 0.52
-1 -9 -3 6.89 0.2
-1 -9 -3 6.76 0.35
-1 -9 -3 6.71 0.26
1 9 3 7.16 0.25
1 9 3 7.3 0.27
-2 -9 -3 8.88 0.25
-2 -9 -3 8.74 0.3
2 9 3 9.09 0.3
-3 -9 -3 68.13 1.75
-3 -9 -3 69.49 1.59
3 9 3 69.03 1.36
3 9 3 70.99 1.54
3 9 3 69.7 1.3
3 9 3 71 1.82
-4 -9 -3 10.05 0.28
-4 -9 -3 9.71 0.36
4 9 3 9.77 0.3
4 9 3 10.08 0.26
4 9 3 10.18 0.25
4 9 3 10.07 0.23
-5 -9 -3 23.16 0.55
5 9 3 24.11 0.49
5 9 3 24.69 0.55
2 -10 -3 19.1 0.52
-2 10 3 22.05 0.5
-2 10 3 20.71 0.56
1 -10 -3 0.08 0.1
-1 10 3 0.04 0.08
-1 10 3 -0.06 0.07
0 -10 -3 16.83 0.5
0 -10 -3 17.1 0.47
0 10 3 18.48 0.53
0 10 3 17.61 0.49
-1 -10 -3 72.52 1.94
-1 -10 -3 73.01 1.7
-1 -10 -3 76.29 1.87
1 10 3 74.18 1.87
1 10 3 69.58 1.8
-2 -10 -3 0.59 0.07
-2 -10 -3 0.68 0.11
2 10 3 0.91 0.1
-3 -10 -3 24.5 0.66
3 10 3 26.1 0.7
3 10 3 25.8 0.54
-4 -10 -3 5.48 0.24
-4 -10 -3 5.54 0.17
4 10 3 5.83 0.17
4 10 3 5.83 0.17
-5 -10 -3 13.22 0.33
5 10 3 13.8 0.29
1 -11 -3 3.59 0.16
-1 11 3 3.61 0.15
-1 11 3 3.68 0.28
0 -11 -3 0.07 0.09
0 -11 -3 0.1 0.12
0 11 3 0.27 0.11
0 11 3 0.09 0.09
-1 -11 -3 1.56 0.12
-1 -11 -3 1.77 0.21
-1 -11 -3 1.64 0.15
1 11 3 1.8 0.15
-2 -11 -3 51.42 1.21
-2 -11 -3 53.1 1.33
2 11 3 53.5 1.4
-3 -11 -3 6.04 0.22
-3 -11 -3 5.81 0.17
3 11 3 6.39 0.21
-4 -11 -3 2.03 0.16
-4 -11 -3 2.45 0.1
0 -12 -3 17.29 0.48
0 12 3 18.11 0.5
-1 -12 -3 2.03 0.13
1 12 3 2.22 0.14
-2 -12 -3 11.43 0.32
-2 -12 -3 11.42 0.28
-3 -12 -3 0.85 0.08
-3 -12 -3 0.67 0.08
3 12 3 0.85 0.07
3 10 -4 16.68 0.37
3 10 -4 18.36 0.53
-3 -10 4 17.39 0.49
-3 -10 4 18.62 0.43
2 10 -4 0.22 0.08
2 10 -4 0.28 0.07
-2 -10 4 0.24 0.08
-2 -10 4 0.21 0.05
1 10 -4 9 0.27
1 10 -4 9.15 0.3
-1 -10 4 8.75 0.23
-1 -10 4 9.17 0.27
0 10 -4 3.38 0.17
0 10 -4 3.46 0.15
0 -10 4 3.42 0.15
-1 10 -4 0.04 0.08
1 -10 4 0.06 0.13
4 9 -4 32.96 0.64
4 9 -4 32.74 0.95
-4 -9 4 31.21 0.73
3 9 -4 70.39 1.35
3 9 -4 70.26 2
-3 -9 4 70.8 1.63
-3 -9 4 70.8 1.78
2 9 -4 61.96 1.19
2 9 -4 60.45 1.58
2 9 -4 61.29 1.76
-2 -9 4 61.14 1.42
-2 -9 4 61.52 1.55
1 9 -4 19.24 0.53
-1 -9 4 19.58 0.48
-1 -9 4 20.4 0.55
0 9 -4 0.01 0.09
0 -9 4 -0.05 0.08
0 -9 4 -0.04 0.06
-1 9 -4 19.26 0.54
1 -9 4 19.51 0.55
1 -9 4 19.39 0.51
-2 9 -4 9.58 0.35
2 -9 4 9.54 0.29
5 8 -4 40.45 0.78
4 8 -4 -0.04 0.1
4 8 -4 0.05 0.06
-4 -8 4 0.2 0.11
3 8 -4 0.29 0.07
3 8 -4 0.27 0.1
-3 -8 4 0.33 0.16
-3 -8 4 0.74 0.1
2 8 -4 6.51 0.23
2 8 -4 6.7 0.19
2 8 -4 6.8 0.27
-2 -8 4 7 0.21
-2 -8 4 6.88 0.27
1 8 -4 56.57 1.11
1 8 -4 57.15 1.48
-1 -8 4 57.44 1.45
-1 -8 4 56.87 1.33
0 8 -4 1.01 0.11
0 -8 4 0.89 0.1
0 -8 4 0.79 0.07
0 -8 4 0.93 0.22
-1 8 -4 97.86 2.45
-1 8 -4 98.8 2.54
1 -8 4 103.81 2.56
1 -8 4 101.17 2.65
-2 8 -4 13.67 0.38
-2 8 -4 13.81 0.43
2 -8 4 13.82 0.41
2 -8 4 14.04 0.36
-3 8 -4 12.67 0.34
3 -8 4 12.62 0.35
5 7 -4 0.91 0.06
5 7 -4 1.01 0.18
4 7 -4 6.74 0.18
4 7 -4 6.66 0.27
3 7 -4 2.4 0.12
3 7 -4 2.46 0.18
-3 -7 4 2.3 0.19
2 7 -4 10.92 0.34
2 7 -4 12.1 0.4
2 7 -4 11.21 0.26
-2 -7 4 11.37 0.32
-2 -7 4 11.26 0.37
1 7 -4 33.2 0.66
1 7 -4 32.83 0.88
-1 -7 4 33.06 0.85
-1 -7 4 31.9 0.77
0 7 -4 74.85 1.87
0 7 -4 74.11 1.94
0 -7 4 78.56 1.97
0 -7 4 77.48 1.8
0 -7 4 78.32 2.06
-1 7 -4 3.17 0.2
-1 7 -4 3.03 0.17
1 -7 4 3.05 0.23
1 -7 4 3.03 0.18
1 -7 4 3.15 0.14
-2 7 -4 52.22 1.38
-2 7 -4 50.82 1.32
-2 7 -4 52.74 1.2
2 -7 4 57.56 1.41
2 -7 4 49.93 1.36
-3 7 -4 0.05 0.06
-3 7 -4 0.14 0.07
3 -7 4 0.22 0.08
3 -7 4 0.19 0.09
5 6 -4 19.57 0.61
5 6 -4 20.17 0.4
4 6 -4 3.69 0.21
4 6 -4 3.64 0.14
3 6 -4 7.11 0.2
3 6 -4 7.39 0.29
2 6 -4 111.45 3.24
2 6 -4 115.34 2.19
2 6 -4 115.84 2.93
-2 -6 4 115.11 2.93
-2 -6 4 118.85 2.68
1 6 -4 7.99 0.27
1 6 -4 7.65 0.21
-1 -6 4 7.93 0.24
-1 -6 4 8.06 0.29
0 6 -4 60.53 1.17
0 6 -4 59.99 1.56
0 6 -4 58.97 1.51
0 -6 4 60.83 1.41
0 -6 4 60.48 1.63
0 -6 4 62.08 1.55
-1 6 -4 11.08 0.37
-1 6 -4 11.45 0.34
-1 6 -4 10.89 0.29
1 -6 4 11.55 0.34
1 -6 4 11.11 0.29
1 -6 4 11.28 0.38
-2 6 -4 18.35 0.45
-2 6 -4 18.43 0.57
-2 6 -4 18.43 0.51
2 -6 4 18.62 0.54
2 -6 4 18.66 0.51
-3 6 -4 1.32 0.1
-3 6 -4 1.19 0.1
3 -6 4 1.21 0.11
3 -6 4 1.45 0.14
-4 6 -4 1.39 0.08
-4 6 -4 1.18 0.11
4 -6 4 1.33 0.1
4 -6 4 1.42 0.1
5 5 -4 36.07 1.07
5 5 -4 37.26 0.72
3 5 -4 35.15 0.69
3 5 -4 34.04 1.02
2 5 -4 13.37 0.3
2 5 -4 13.46 0.39
1 5 -4 233.17 4.41
1 5 -4 230.05 5.91
-1 -5 4 235.31 5.29
-1 -5 4 229.83 5.76
0 5 -4 21.8 0.6
0 5 -4 22.08 0.47
0 5 -4 22.25 0.61
0 -5 4 22.33 0.54
0 -5 4 22.1 0.6
-1 5 -4 33.41 0.78
-1 5 -4 33.55 0.86
-1 5 -4 33.14 0.91
1 -5 4 34.34 0.9
1 -5 4 35.47 0.81
1 -5 4 33.83 0.94
-2 5 -4 49.34 1.34
-2 5 -4 51.13 1.16
-2 5 -4 49.64 1.27
2 -5 4 51.84 1.31
2 -5 4 51.19 1.36
-3 5 -4 16.14 0.4
-3 5 -4 15.9 0.45
3 -5 4 15.81 0.46
3 -5 4 16.19 0.4
-4 5 -4 28.15 0.66
-4 5 -4 27.74 0.73
4 -5 4 29.03 0.65
4 -5 4 28.51 0.76
5 4 -4 6.12 0.17
5 4 -4 5.84 0.29
4 4 -4 2.34 0.15
4 4 -4 2.47 0.19
4 4 -4 2.28 0.13
3 4 -4 0.17 0.11
3 4 -4 0.18 0.07
2 4 -4 100.91 2.62
2 4 -4 101.99 1.96
2 4 -4 104.45 2.91
1 4 -4 64.51 1.66
1 4 -4 63.8 1.24
-1 -4 4 56.28 2.26
-1 -4 4 58.58 1.81
0 4 -4 116.38 2.83
0 4 -4 107.3 4.31
0 4 -4 111.24 2.12
0 4 -4 107.84 4.31
0 4 -4 108.28 2.75
0 -4 4 115.1 2.84
0 -4 4 117.6 4.46
0 -4 4 114.87 2.6
0 -4 4 110.56 3.52
0 -4 4 111.31 4.45
-1 4 -4 112.88 4.67
-1 4 -4 122.1 3.06
-1 4 -4 120.3 2.96
-1 4 -4 120.36 2.71
1 -4 4 114.82 4.7
1 -4 4 124.75 2.73
1 -4 4 115.27 4.7
1 -4 4 121.81 2.98
1 -4 4 120.99 3.08
-2 4 -4 7.96 0.39
-2 4 -4 8.27 0.26
-2 4 -4 7.45 0.22
2 -4 4 8.39 0.29
2 -4 4 8.11 0.28
-3 4 -4 0.14 0.09
-3 4 -4 0.05 0.06
3 -4 4 0.05 0.09
3 -4 4 -0.03 0.09
-4 4 -4 22.21 0.54
-4 4 -4 22.52 0.6
4 -4 4 22.96 0.62
4 -4 4 23.18 0.54
-5 4 -4 18.75 0.45
-5 4 -4 19.16 0.51
5 -4 4 19.03 0.44
5 3 -4 0.18 0.09
5 3 -4 0.33 0.16
5 3 -4 -0.12 0.12
4 3 -4 18.23 0.47
4 3 -4 18.78 0.59
4 3 -4 19.14 0.4
3 3 -4 0.61 0.11
3 3 -4 0.46 0.08
2 3 -4 28.18 0.57
-2 -3 4 26.82 0.88
-2 -3 4 27.46 1.06
-2 -3 4 26.38 1.06
1 3 -4 11.44 0.48
1 3 -4 10.63 0.47
-1 -3 4 10.54 0.39
-1 -3 4 11.5 0.48
-1 -3 4 10.68 0.47
0 3 -4 32.97 1.32
0 3 -4 34.08 1.32
0 3 -4 31.85 1.06
0 -3 4 33.54 1.35
0 -3 4 33.68 1.07
0 -3 4 34.26 1.35
-1 3 -4 288.35 10.68
-1 3 -4 271.94 8.83
-1 3 -4 274.33 6.26
-1 3 -4 276.94 10.67
-1 3 -4 266.09 6.81
1 -3 4 281.41 10.61
1 -3 4 280.33 10.61
1 -3 4 266.88 6.22
1 -3 4 266.69 6.78
1 -3 4 274.68 8.39
-2 3 -4 69.4 1.86
-2 3 -4 69.78 1.62
-2 3 -4 72.28 1.77
2 -3 4 72.43 1.85
2 -3 4 70.09 1.79
-3 3 -4 65.57 1.52
-3 3 -4 66.4 1.67
3 -3 4 69.12 1.51
3 -3 4 68.37 1.78
3 -3 4 68.08 1.78
-4 3 -4 8.45 0.24
-4 3 -4 8.44 0.29
4 -3 4 8.78 0.27
4 -3 4 9.14 0.25
4 -3 4 8.14 0.32
-5 3 -4 47.39 1.2
-5 3 -4 47.06 1.09
5 -3 4 48.04 1.06
5 2 -4 9.86 0.33
5 2 -4 9.93 0.39
5 2 -4 9.52 0.29
4 2 -4 20.34 0.63
4 2 -4 19.72 0.5
4 2 -4 19.9 0.58
4 2 -4 20.61 0.43
3 2 -4 3.26 0.2
3 2 -4 3.13 0.15
2 2 -4 5.31 0.18
2 2 -4 5.58 0.26
-2 -2 4 5.32 0.25
1 2 -4 52.97 1.99
1 2 -4 49.15 1.99
-1 -2 4 51.29 2.01
-1 -2 4 51.65 1.6
-1 -2 4 51.64 2.01
0 2 -4 48.56 1.62
0 2 -4 51.06 1.97
0 2 -4 51.72 1.97
0 -2 4 51.6 1.58
0 -2 4 51.95 1.99
0 -2 4 49.13 1.99
-1 2 -4 164.15 6.1
-1 2 -4 154.56 5.05
-1 2 -4 152.9 6.1
1 -2 4 151.4 4.74
1 -2 4 154.92 6
1 -2 4 157.5 6
-2 2 -4 44.28 1.76
-2 2 -4 42.62 1.44
-2 2 -4 45.6 1.11
-2 2 -4 44.44 1.01
-2 2 -4 40.8 1.76
2 -2 4 42.54 1.09
-3 2 -4 79.26 2
-3 2 -4 79.75 1.83
3 -2 4 79.8 2.05
3 -2 4 78.44 2.06
3 -2 4 81 1.75
-4 2 -4 11.16 0.36
-4 2 -4 11.53 0.3
4 -2 4 11.66 0.31
4 -2 4 11.8 0.35
4 -2 4 11.82 0.37
-5 2 -4 13.8 0.35
-5 2 -4 14.38 0.42
5 -2 4 14.58 0.41
5 -2 4 13.97 0.35
6 1 -4 4.6 0.21
5 1 -4 28.85 0.77
5 1 -4 28.7 0.66
5 1 -4 27.73 0.86
4 1 -4 37.95 0.75
4 1 -4 36.02 1.09
4 1 -4 38.01 0.99
4 1 -4 36.72 0.85
3 1 -4 66.88 1.28
3 1 -4 66.45 1.88
3 1 -4 64.54 1.71
-3 -1 4 65.25 2.05
-2 -1 4 67.21 2.1
-2 -1 4 67.79 2.18
1 1 -4 2.94 0.14
1 1 -4 2.62 0.14
-1 -1 4 2.86 0.15
-1 -1 4 2.71 0.14
0 1 -4 500.26 16.02
0 1 -4 476.98 19.36
0 1 -4 522.47 19.38
0 -1 4 480.47 19.12
0 -1 4 506.76 19.13
-1 1 -4 268.98 10.12
-1 1 -4 254.25 10.11
1 -1 4 275.55 10.31
1 -1 4 257.6 10.31
-2 1 -4 120.48 4.51
-2 1 -4 112.29 4.5
-2 1 -4 114.25 3.73
2 -1 4 114.04 4.36
2 -1 4 111.89 3.42
2 -1 4 113.61 4.36
2 -1 4 110.05 2.87
2 -1 4 109.7 3.42
-3 1 -4 0.38 0.08
-3 1 -4 0.42 0.12
3 -1 4 0.33 0.11
3 -1 4 0.46 0.09
3 -1 4 0.59 0.13
-4 1 -4 27.04 0.65
-4 1 -4 26.41 0.72
4 -1 4 27.19 0.72
4 -1 4 26.85 0.73
4 -1 4 26.76 0.63
-5 1 -4 5.65 0.19
-5 1 -4 5.68 0.26
5 -1 4 5.8 0.23
5 -1 4 5.98 0.2
6 0 -4 3.53 0.16
5 0 -4 16.43 0.54
5 0 -4 16.51 0.41
5 0 -4 15.81 0.46
4 0 -4 63.41 1.43
4 0 -4 66.57 1.85
4 0 -4 63.57 1.67
3 0 -4 95.01 2.16
3 0 -4 101.35 2.53
3 0 -4 100.45 2.81
-2 0 4 1.3 0.12
1 0 -4 90.7 3.51
1 0 -4 90.51 2.91
1 0 -4 91.04 3.52
-1 0 4 92.51 3.58
-1 0 4 91.9 2.97
-1 0 4 93.21 3.59
0 0 -4 39.2 1.58
0 0 -4 41.64 1.31
0 0 -4 40.72 1.59
0 0 4 40.23 1.57
0 0 4 40.19 1.57
-1 0 -4 460.67 18.28
-1 0 -4 481.86 18.28
1 0 4 476.33 18.3
1 0 4 467.35 18.31
-2 0 -4 104.51 4.14
-2 0 -4 108.28 4.14
2 0 4 109.5 4.21
2 0 4 108.76 3.32
2 0 4 106.76 4.21
-3 0 -4 21.44 0.53
-3 0 -4 21.73 0.6
3 0 4 21.75 0.62
3 0 4 22.73 0.61
3 0 4 22.58 0.53
-4 0 -4 150.78 3.45
-4 0 -4 150.97 3.76
4 0 4 152.76 3.33
4 0 4 153.56 3.9
4 0 4 152.88 3.91
-5 0 -4 35.17 0.95
-5 0 -4 36.36 0.84
5 0 4 37.31 0.84
5 0 4 36.9 0.98
-6 0 -4 3.9 0.14
6 0 4 4.13 0.14
6 0 4 4.21 0.16
5 -1 -4 0.35 0.1
5 -1 -4 0.37 0.1
5 -1 -4 -0.05 0.18
4 -1 -4 72.56 2.1
4 -1 -4 72.04 1.61
4 -1 -4 75.21 1.89
3 -1 -4 14.52 0.4
3 -1 -4 14.92 0.49
3 -1 -4 15.39 0.44
-2 1 4 13.71 0.55
-2 1 4 13.82 0.48
-2 1 4 13.63 0.55
1 -1 -4 23.98 0.97
1 -1 -4 24.63 0.8
1 -1 -4 25.07 0.97
-1 1 4 25.56 0.99
-1 1 4 25.12 0.99
-1 1 4 24.73 0.82
0 -1 -4 394.75 15.68
0 -1 -4 418.68 15.69
0 -1 -4 400.87 13
0 1 4 405.74 16.12
0 1 4 426.47 16.13
-1 -1 -4 278.29 11.26
-1 -1 -4 303.53 11.3
1 1 4 291.33 9.17
1 1 4 303.3 11.59
1 1 4 303.14 11.63
-2 -1 -4 0.02 0.08
-2 -1 -4 0.02 0.08
2 1 4 0.05 0.08
2 1 4 0 0.09
2 1 4 0.08 0.05
-3 -1 -4 9.9 0.38
-3 -1 -4 9.77 0.31
3 1 4 10.29 0.29
3 1 4 10.37 0.33
3 1 4 10.41 0.31
-4 -1 -4 49.84 1.16
-4 -1 -4 48.68 1.27
4 1 4 52.52 1.35
4 1 4 50.72 1.16
4 1 4 52.37 1.35
-5 -1 -4 85.48 2.13
-5 -1 -4 82.24 1.93
5 1 4 91.23 2.32
5 1 4 89.48 1.98
-6 -1 -4 2.79 0.13
6 1 4 3.12 0.14
6 1 4 3.1 0.12
5 -2 -4 2.15 0.15
5 -2 -4 2.3 0.15
4 -2 -4 13.7 0.35
4 -2 -4 13.75 0.41
4 -2 -4 13.12 0.46
3 -2 -4 156.72 3.4
3 -2 -4 156.98 3.99
3 -2 -4 156.19 4.42
2 -2 -4 366.81 14.19
2 -2 -4 360.92 10.31
2 -2 -4 380.74 11.78
2 -2 -4 361.82 14.19
-2 2 4 401.34 11.69
-2 2 4 373.74 14.76
-2 2 4 374.51 14.76
-2 2 4 379.25 12.25
1 -2 -4 273.94 10.47
1 -2 -4 266.03 8.65
-1 2 4 285.27 11.03
-1 2 4 266.2 9.15
-1 2 4 294.6 8.77
-1 2 4 296.55 11.08
0 -2 -4 25.34 0.82
0 -2 -4 23.84 0.98
0 -2 -4 25.45 0.98
0 2 4 25.41 0.99
0 2 4 25.88 0.79
0 2 4 24.27 0.99
-1 -2 -4 45.46 1.63
-1 -2 -4 35.69 1.35
-1 -2 -4 43.36 1.62
1 2 4 46.88 1.45
1 2 4 46.34 1.83
1 2 4 47.41 1.83
-2 -2 -4 352.11 13.63
-2 -2 -4 353.21 13.63
2 2 4 357.14 14.67
2 2 4 401.74 11.65
2 2 4 380.5 14.67
-3 -2 -4 77.66 1.97
3 2 4 83 2.13
3 2 4 84.02 2.14
3 2 4 82.39 1.82
-4 -2 -4 0 0.13
-4 -2 -4 0.11 0.18
4 2 4 -0.03 0.08
4 2 4 0.03 0.08
4 2 4 0.19 0.1
-5 -2 -4 47.99 1.12
5 2 4 49.53 1.1
5 2 4 49.09 0.93
5 2 4 48.72 0.97
5 2 4 49.5 1.28
-6 -2 -4 0.2 0.09
6 2 4 0.11 0.06
6 2 4 0.17 0.07
5 -3 -4 0.87 0.09
5 -3 -4 0.88 0.09
4 -3 -4 101.44 2.91
4 -3 -4 103.42 2.63
4 -3 -4 102.14 2.24
3 -3 -4 102.85 2.31
3 -3 -4 105.7 2.7
3 -3 -4 106.6 3
3 -3 -4 107.41 2.71
2 -3 -4 150.91 3.87
2 -3 -4 151.58 4.27
-2 3 4 161.93 4.88
-2 3 4 155.51 5.12
1 -3 -4 605.13 23.93
1 -3 -4 631.2 19.83
-1 3 4 609.5 18.48
-1 3 4 594.67 19.35
-1 3 4 594.36 23.33
-1 3 4 611.74 23.32
0 -3 -4 60.11 1.92
0 -3 -4 58.83 2.31
0 -3 -4 58.77 2.31
0 3 4 58.45 1.85
0 3 4 60.44 1.94
0 3 4 60.78 2.34
0 3 4 60.06 2.34
-1 -3 -4 3.84 0.2
-1 -3 -4 3.73 0.19
1 3 4 4.12 0.16
1 3 4 3.93 0.21
-2 -3 -4 1.4 0.15
-2 -3 -4 1.39 0.16
2 3 4 1.85 0.13
2 3 4 1.48 0.16
2 3 4 1.95 0.17
-3 -3 -4 161.57 4.03
3 3 4 175.93 4.53
3 3 4 181.23 3.84
3 3 4 175 4.5
-4 -3 -4 0.37 0.14
-4 -3 -4 0.34 0.2
4 3 4 0.34 0.09
4 3 4 0.21 0.09
4 3 4 0.26 0.08
-5 -3 -4 9.51 0.3
5 3 4 10.19 0.25
5 3 4 10.47 0.32
5 3 4 10.43 0.28
5 3 4 10.15 0.26
-6 -3 -4 2.48 0.17
6 3 4 2.48 0.13
6 3 4 2.36 0.12
5 -4 -4 -0.18 0.08
5 -4 -4 0.04 0.07
-5 4 4 0.23 0.11
4 -4 -4 0.54 0.09
4 -4 -4 0.72 0.11
4 -4 -4 0.63 0.15
-4 4 4 0.56 0.13
3 -4 -4 60.05 1.55
3 -4 -4 61.08 1.33
3 -4 -4 59.83 1.56
3 -4 -4 59.36 1.73
-3 4 4 61.86 1.6
-3 4 4 63.67 1.47
2 -4 -4 495.95 12.34
2 -4 -4 474.08 13.59
-2 4 4 525.13 13.01
-2 4 4 528.8 11.96
1 -4 -4 292.27 9.16
1 -4 -4 273.32 11.04
1 -4 -4 291.04 11.05
-1 4 4 283.8 9.3
-1 4 4 303.98 11.22
-1 4 4 296.84 8.88
-1 4 4 275.59 11.22
0 -4 -4 62.78 2.47
0 -4 -4 63.76 2.48
0 4 4 61.11 2.52
0 4 4 64.61 2.52
0 4 4 65.35 2.09
0 4 4 67.09 2
-1 -4 -4 157.75 5.05
-1 -4 -4 152.19 6.09
-1 -4 -4 161.5 6.09
1 4 4 160.69 4.94
1 4 4 164.63 6.24
1 4 4 157.62 6.24
-2 -4 -4 25.5 0.85
-2 -4 -4 25.84 1.01
-2 -4 -4 23.46 1
2 4 4 25.73 1.04
2 4 4 25.21 0.82
2 4 4 25.72 1.03
-3 -4 -4 1.2 0.16
-3 -4 -4 1.09 0.18
3 4 4 1.3 0.11
3 4 4 1.17 0.1
3 4 4 1.36 0.1
-4 -4 -4 10.73 0.34
-4 -4 -4 10.32 0.43
4 4 4 10.85 0.34
4 4 4 11.2 0.28
4 4 4 11.17 0.3
4 4 4 11.05 0.33
4 4 4 11.3 0.26
4 4 4 11.14 0.32
-5 -4 -4 31.47 0.76
5 4 4 35.56 0.92
5 4 4 34.7 0.7
5 4 4 34.12 0.67
5 4 4 34.84 0.79
-6 -4 -4 22.56 0.55
6 4 4 24.12 0.54
6 4 4 23.8 0.46
6 4 4 24.34 0.64
6 4 4 23.55 0.48
5 -5 -4 3.15 0.17
5 -5 -4 3.16 0.14
-5 5 4 3.2 0.14
4 -5 -4 56.43 1.45
4 -5 -4 55.08 1.23
-4 5 4 57.12 1.33
-4 5 4 57.23 1.46
3 -5 -4 17.63 0.51
3 -5 -4 17.45 0.49
3 -5 -4 17.76 0.57
-3 5 4 17.4 0.5
-3 5 4 17.29 0.44
2 -5 -4 219.07 5.57
2 -5 -4 216.71 6.14
-2 5 4 224.35 5.51
-2 5 4 220.36 5.06
1 -5 -4 13.54 0.46
1 -5 -4 13.77 0.41
-1 5 4 14.2 0.36
-1 5 4 14 0.41
-1 5 4 13.67 0.52
0 -5 -4 2.55 0.26
0 -5 -4 2.85 0.23
0 -5 -4 2.91 0.22
0 5 4 2.61 0.19
0 5 4 2.25 0.21
0 5 4 2.46 0.19
0 5 4 2.49 0.25
-1 -5 -4 5.11 0.3
-1 -5 -4 5.2 0.32
-1 -5 -4 5.37 0.26
1 5 4 5.34 0.3
1 5 4 5.62 0.26
1 5 4 5.5 0.31
-2 -5 -4 42.67 1.73
-2 -5 -4 45.6 1.74
-2 -5 -4 41.95 1.37
2 5 4 43.81 1.1
2 5 4 42.11 1.1
2 5 4 42.23 0.94
2 5 4 39.81 1.67
-3 -5 -4 31.06 0.75
-3 -5 -4 30.71 0.83
3 5 4 33.71 0.9
3 5 4 34.42 0.77
3 5 4 34.08 0.9
-4 -5 -4 5.79 0.33
-4 -5 -4 5.69 0.24
4 5 4 5.95 0.2
4 5 4 5.52 0.22
4 5 4 5.97 0.19
4 5 4 5.6 0.23
4 5 4 6.2 0.22
-5 -5 -4 42.74 1.01
5 5 4 43.38 0.98
5 5 4 42.69 1.14
5 5 4 44.48 0.87
5 5 4 44.16 0.83
6 5 4 0.62 0.07
6 5 4 0.71 0.06
6 5 4 0.74 0.08
6 5 4 0.71 0.07
4 -6 -4 0.64 0.08
4 -6 -4 0.52 0.09
-4 6 4 0.78 0.13
-4 6 4 0.64 0.07
3 -6 -4 23.33 0.72
3 -6 -4 22.93 0.65
3 -6 -4 23.51 0.63
-3 6 4 23.14 0.57
-3 6 4 23.54 0.63
2 -6 -4 7.69 0.27
2 -6 -4 7.98 0.32
-2 6 4 8.34 0.24
-2 6 4 8.28 0.28
1 -6 -4 53.83 1.52
1 -6 -4 51.46 1.34
1 -6 -4 52.32 1.38
-1 6 4 54.55 1.39
-1 6 4 55.06 1.27
0 -6 -4 1.01 0.22
0 -6 -4 0.9 0.13
0 -6 -4 0.83 0.22
0 -6 -4 0.76 0.12
0 -6 -4 0.68 0.14
0 6 4 0.87 0.2
0 6 4 0.98 0.08
0 6 4 0.81 0.2
0 6 4 0.97 0.1
-1 -6 -4 19.6 0.89
-1 -6 -4 20.86 0.5
-1 -6 -4 20.65 0.57
-1 -6 -4 20.86 0.93
1 6 4 21.26 0.52
1 6 4 21.6 0.57
1 6 4 20.4 0.91
1 6 4 22.96 0.5
1 6 4 20.91 0.6
1 6 4 21.27 0.94
-2 -6 -4 284.48 6.48
-2 -6 -4 285.69 7.06
2 6 4 282.62 6.22
2 6 4 294.51 7.35
2 6 4 287.44 7.29
-3 -6 -4 50.85 1.31
-3 -6 -4 49.72 1.18
3 6 4 52.35 1.32
3 6 4 50.42 1.12
3 6 4 50.53 0.95
3 6 4 50.19 1.16
3 6 4 49.22 0.99
3 6 4 50.88 1.32
-4 -6 -4 37.31 0.89
-4 -6 -4 37.74 1.02
4 6 4 41.64 1.08
4 6 4 41.29 0.82
4 6 4 40.65 1.07
4 6 4 41.68 0.92
4 6 4 39.94 0.96
4 6 4 40.99 0.79
-5 -6 -4 -0.02 0.12
5 6 4 0.17 0.08
5 6 4 0.04 0.07
5 6 4 -0.07 0.09
5 6 4 0.01 0.07
-6 -6 -4 2.66 0.18
6 6 4 2.96 0.11
6 6 4 2.98 0.11
6 6 4 2.9 0.14
6 6 4 2.94 0.12
4 -7 -4 9.45 0.24
4 -7 -4 9.12 0.28
-4 7 4 8.95 0.29
-4 7 4 9.58 0.24
3 -7 -4 4.86 0.18
3 -7 -4 4.87 0.22
3 -7 -4 5.04 0.19
-3 7 4 5.17 0.21
-3 7 4 5.07 0.17
2 -7 -4 117.39 3.04
2 -7 -4 118.66 3.02
-2 7 4 121.94 2.78
-2 7 4 121.2 3.03
1 -7 -4 74.23 1.92
1 -7 -4 73.52 1.86
-1 7 4 73.94 1.89
-1 7 4 76.2 1.73
0 -7 -4 81.91 2.15
0 -7 -4 83.3 1.9
0 -7 -4 83.11 2.08
0 7 4 85.54 1.96
0 7 4 86.07 2.14
0 7 4 84.45 2.22
-1 -7 -4 99.75 2.63
-1 -7 -4 103.7 2.32
-1 -7 -4 100.12 2.53
1 7 4 106.53 2.63
1 7 4 104.16 2.41
1 7 4 106.52 2.3
1 7 4 105.07 2.72
-2 -7 -4 18.75 0.54
-2 -7 -4 18.76 0.46
2 7 4 19.58 0.43
2 7 4 19.34 0.41
2 7 4 18.88 0.51
2 7 4 19.96 0.55
2 7 4 19.85 0.46
-3 -7 -4 219.88 5.07
-3 -7 -4 225.05 5.53
3 7 4 230.11 4.14
3 7 4 226.52 5.75
3 7 4 230.97 5.05
3 7 4 221.66 5.79
3 7 4 220.18 4.9
3 7 4 230.45 4.32
-4 -7 -4 1.58 0.11
-4 -7 -4 1.87 0.2
4 7 4 1.76 0.15
4 7 4 1.69 0.1
4 7 4 1.89 0.13
4 7 4 1.95 0.16
4 7 4 1.73 0.1
-5 -7 -4 57.44 1.33
5 7 4 62.43 1.38
5 7 4 62.88 1.17
5 7 4 62.46 1.22
5 7 4 63.07 1.62
-6 -7 -4 12.09 0.33
6 7 4 13.5 0.28
6 7 4 13.2 0.31
3 -8 -4 13.72 0.38
3 -8 -4 13.49 0.4
3 -8 -4 13.76 0.34
-3 8 4 13.67 0.34
-3 8 4 13.83 0.38
2 -8 -4 5.75 0.22
2 -8 -4 5.71 0.23
-2 8 4 6.12 0.22
-2 8 4 5.91 0.18
1 -8 -4 122.36 3.13
1 -8 -4 120.89 3.03
-1 8 4 129.97 2.96
-1 8 4 127.93 3.35
-1 8 4 130.33 3.23
0 -8 -4 258.15 6.4
0 -8 -4 258.74 5.87
0 8 4 273.48 6.89
0 8 4 262.3 6.67
0 8 4 272.64 6.12
-1 -8 -4 1.27 0.12
-1 -8 -4 1.39 0.18
-1 -8 -4 1.56 0.11
1 8 4 1.33 0.11
1 8 4 1.36 0.13
-2 -8 -4 32.67 0.87
-2 -8 -4 32.7 0.77
2 8 4 34.54 0.91
2 8 4 33.49 0.69
2 8 4 33.77 0.66
2 8 4 33.64 0.76
-3 -8 -4 2.21 0.22
-3 -8 -4 2.25 0.14
3 8 4 2.25 0.14
3 8 4 2.43 0.15
3 8 4 2.03 0.16
3 8 4 2.16 0.13
-4 -8 -4 41.82 1
-4 -8 -4 43.09 1.11
4 8 4 45.03 1
4 8 4 44.84 0.85
4 8 4 45.28 0.89
4 8 4 43.98 1.16
-5 -8 -4 10.01 0.28
-5 -8 -4 10.56 0.41
5 8 4 10.43 0.27
5 8 4 10.67 0.25
5 8 4 10.72 0.23
3 -9 -4 19.43 0.55
3 -9 -4 20.49 0.46
-3 9 4 20.93 0.54
-3 9 4 20.96 0.49
2 -9 -4 10.6 0.32
2 -9 -4 10.17 0.33
-2 9 4 10.76 0.31
-2 9 4 10.6 0.27
1 -9 -4 28.36 0.78
1 -9 -4 29.19 0.79
-1 9 4 28.61 0.67
-1 9 4 26.92 0.82
-1 9 4 28.7 0.74
0 -9 -4 0.25 0.1
0 -9 -4 0.19 0.12
0 9 4 0.21 0.07
0 9 4 0.4 0.12
0 9 4 0.11 0.08
-1 -9 -4 13.76 0.35
-1 -9 -4 13.84 0.47
-1 -9 -4 13.29 0.4
1 9 4 14.25 0.4
1 9 4 14.03 0.43
-2 -9 -4 3.02 0.14
-2 -9 -4 3.21 0.2
2 9 4 3.66 0.19
-3 -9 -4 184.42 4.22
-3 -9 -4 185.63 4.6
3 9 4 188.28 4.78
3 9 4 189.51 3.57
3 9 4 182.33 4.05
3 9 4 187.79 3.42
-4 -9 -4 6.48 0.28
-4 -9 -4 6.2 0.2
4 9 4 6.42 0.19
4 9 4 6.81 0.2
4 9 4 6.54 0.18
4 9 4 6.49 0.22
-5 -9 -4 0.07 0.07
-5 -9 -4 0.15 0.18
5 9 4 0.08 0.06
5 9 4 -0.02 0.05
5 9 4 0.06 0.05
2 -10 -4 7.07 0.22
-2 10 4 7.2 0.19
-2 10 4 7.5 0.23
1 -10 -4 2.74 0.25
1 -10 -4 2.57 0.17
-1 10 4 3.1 0.23
-1 10 4 2.91 0.15
-1 10 4 2.65 0.12
0 -10 -4 68.68 1.75
0 -10 -4 71.01 1.83
0 10 4 66.78 1.8
0 10 4 70.76 1.73
-1 -10 -4 0.17 0.09
-1 -10 -4 0.24 0.06
-1 -10 -4 0.04 0.16
1 10 4 0.13 0.1
1 10 4 0.15 0.09
-2 -10 -4 18.08 0.51
-2 -10 -4 18.1 0.44
2 10 4 18.67 0.53
-3 -10 -4 3.82 0.21
-3 -10 -4 3.82 0.15
3 10 4 4.25 0.18
3 10 4 4.08 0.2
-4 -10 -4 0.58 0.11
-4 -10 -4 0.42 0.07
4 10 4 0.38 0.06
4 10 4 0.37 0.08
-5 -10 -4 7.39 0.2
5 10 4 7.63 0.18
1 -11 -4 1.12 0.1
-1 11 4 1.6 0.22
-1 11 4 1.29 0.11
0 -11 -4 5.15 0.22
0 -11 -4 4.84 0.21
0 11 4 5.19 0.19
0 11 4 4.83 0.22
-1 -11 -4 11.15 0.33
-1 -11 -4 11.34 0.4
1 11 4 10.86 0.34
-2 -11 -4 0.55 0.1
-2 -11 -4 0.48 0.06
2 11 4 0.73 0.09
-3 -11 -4 16.19 0.4
-3 -11 -4 16.61 0.45
3 11 4 17.3 0.47
-4 -11 -4 4.2 0.13
-4 -11 -4 4.05 0.18
0 -12 -4 1.14 0.11
0 12 4 1.37 0.12
-1 -12 -4 14.93 0.48
-1 -12 -4 14.69 0.4
1 12 4 15.29 0.43
-2 -12 -4 0.14 0.07
2 12 4 0.01 0.07
-3 -12 -4 0.08 0.05
-3 -12 -4 0.15 0.07
3 12 4 0.02 0.07
2 10 -5 31.76 0.92
-2 -10 5 32.31 0.75
-2 -10 5 32.17 0.82
1 10 -5 17.25 0.52
1 10 -5 17.27 0.46
-1 -10 5 17.43 0.45
-1 -10 5 16.65 0.4
0 10 -5 9.62 0.34
0 10 -5 10.06 0.28
0 -10 5 10.15 0.28
4 9 -5 0.73 0.06
4 9 -5 0.82 0.09
-4 -9 5 1 0.08
3 9 -5 36.12 0.71
3 9 -5 36.85 1.05
-3 -9 5 36.7 0.95
-3 -9 5 37.09 0.86
2 9 -5 1.47 0.12
2 9 -5 1.5 0.1
2 9 -5 1.41 0.14
-2 -9 5 1.55 0.15
-2 -9 5 1.58 0.1
1 9 -5 3.48 0.18
1 9 -5 3.51 0.16
-1 -9 5 3.39 0.17
-1 -9 5 3.54 0.13
0 9 -5 21.96 0.65
0 9 -5 21.66 0.59
0 -9 5 22.02 0.52
0 -9 5 22.14 0.58
-1 9 -5 56.28 1.46
1 -9 5 83.73 2.08
4 8 -5 123.83 3.48
4 8 -5 123.07 2.35
-4 -8 5 120.51 2.75
3 8 -5 22.45 0.67
3 8 -5 21.89 0.45
-3 -8 5 21.6 0.6
-3 -8 5 21.42 0.52
2 8 -5 0.7 0.08
2 8 -5 0.74 0.09
2 8 -5 0.44 0.1
-2 -8 5 0.7 0.12
-2 -8 5 0.65 0.08
1 8 -5 1.35 0.13
1 8 -5 1.49 0.12
1 8 -5 1.24 0.13
-1 -8 5 1.46 0.12
-1 -8 5 1.66 0.11
0 8 -5 73.85 1.92
0 -8 5 87.17 2.27
0 -8 5 93.83 2.07
-1 8 -5 19.41 0.6
-1 8 -5 19.13 0.54
-1 8 -5 18.39 0.53
1 -8 5 19.01 0.51
1 -8 5 19.12 0.56
-2 8 -5 2 0.16
-2 8 -5 1.83 0.14
2 -8 5 2.53 0.16
5 7 -5 5.53 0.14
4 7 -5 0.14 0.1
4 7 -5 0.15 0.06
3 7 -5 39.13 1.15
3 7 -5 39.21 0.77
-3 -7 5 39.7 0.94
2 7 -5 134.82 3.52
2 7 -5 139.63 2.63
2 7 -5 138.54 3.9
-2 -7 5 133.67 3.11
-2 -7 5 137.97 3.39
1 7 -5 10.09 0.32
1 7 -5 10.24 0.25
-1 -7 5 10.89 0.34
-1 -7 5 10.57 0.29
0 7 -5 25.84 0.71
0 -7 5 25.63 0.68
0 -7 5 25.16 0.61
-1 7 -5 1.06 0.12
-1 7 -5 1.02 0.11
1 -7 5 1.02 0.14
1 -7 5 1 0.08
1 -7 5 0.92 0.1
-2 7 -5 22.89 0.61
-2 7 -5 22.91 0.65
2 -7 5 22.98 0.61
2 -7 5 20.6 0.59
-3 7 -5 9.4 0.27
3 -7 5 8.9 0.27
5 6 -5 1.37 0.09
5 6 -5 1.52 0.14
4 6 -5 11.94 0.41
4 6 -5 12.74 0.28
3 6 -5 64.67 1.26
3 6 -5 65.55 1.87
2 6 -5 259.23 6.47
2 6 -5 252.92 7.14
2 6 -5 249.05 4.83
-2 -6 5 270.45 6.63
-2 -6 5 264.51 6.09
1 6 -5 24.9 0.67
1 6 -5 24.36 0.5
-1 -6 5 24.63 0.6
-1 -6 5 24.97 0.67
0 6 -5 1.01 0.14
0 6 -5 1.18 0.12
0 6 -5 1.29 0.12
0 -6 5 1.14 0.08
0 -6 5 1.26 0.12
-1 6 -5 5.26 0.21
-1 6 -5 4.75 0.23
1 -6 5 5.08 0.17
1 -6 5 5.16 0.22
1 -6 5 4.99 0.26
-2 6 -5 68.56 1.58
-2 6 -5 68.9 1.8
-2 6 -5 68.89 1.73
2 -6 5 73.52 1.87
2 -6 5 70.87 1.8
2 -6 5 70.36 1.58
-3 6 -5 0.17 0.06
-3 6 -5 0.2 0.08
3 -6 5 0.09 0.08
3 -6 5 0.37 0.12
-4 6 -5 7.74 0.23
4 -6 5 7.85 0.23
5 5 -5 0.08 0.06
5 5 -5 -0.2 0.12
4 5 -5 9.71 0.34
4 5 -5 9.8 0.23
3 5 -5 17.93 0.38
3 5 -5 17.29 0.56
2 5 -5 40.05 0.78
2 5 -5 39.21 1.16
2 5 -5 39.18 1.03
-2 -5 5 39.65 1.07
-2 -5 5 41.45 0.97
1 5 -5 0.01 0.07
1 5 -5 0.02 0.09
-1 -5 5 0.03 0.08
-1 -5 5 -0.01 0.12
0 5 -5 8.48 0.23
0 5 -5 8.67 0.29
0 5 -5 8.45 0.3
0 -5 5 8.19 0.23
0 -5 5 8.39 0.28
-1 5 -5 5.37 0.18
-1 5 -5 4.93 0.21
-1 5 -5 5.21 0.24
1 -5 5 5.09 0.17
1 -5 5 5.47 0.22
1 -5 5 5.43 0.27
-2 5 -5 81.66 1.87
-2 5 -5 81.99 2.05
-2 5 -5 81.48 2.13
2 -5 5 84.87 2.13
2 -5 5 85.42 2.21
-3 5 -5 0.23 0.06
-3 5 -5 0.01 0.08
3 -5 5 0.12 0.08
3 -5 5 -0.13 0.11
-4 5 -5 2.77 0.11
-4 5 -5 2.84 0.15
4 -5 5 2.91 0.13
4 -5 5 3.12 0.19
5 4 -5 20.2 0.41
5 4 -5 20.17 0.62
4 4 -5 10.22 0.36
4 4 -5 9.8 0.24
3 4 -5 0.42 0.07
3 4 -5 0.49 0.11
2 4 -5 96.09 2.7
2 4 -5 93.93 2.44
2 4 -5 95.04 1.83
1 4 -5 -0.05 0.07
1 4 -5 0.05 0.09
-1 -4 5 -0.01 0.15
-1 -4 5 -0.13 0.11
0 4 -5 13.18 0.41
0 4 -5 13.61 0.31
0 4 -5 13.68 0.4
0 -4 5 13.47 0.34
0 -4 5 13.53 0.39
-1 4 -5 61.26 1.61
-1 4 -5 61.52 1.42
-1 4 -5 62.14 1.56
1 -4 5 63.91 1.58
1 -4 5 61.05 1.64
1 -4 5 62.4 1.44
-2 4 -5 8.85 0.24
-2 4 -5 8.84 0.29
-2 4 -5 8.9 0.37
2 -4 5 8.94 0.31
2 -4 5 9.36 0.3
-3 4 -5 73.38 1.7
-3 4 -5 73.83 1.86
3 -4 5 74.73 1.65
3 -4 5 75.31 1.95
-4 4 -5 7.6 0.25
-4 4 -5 7.12 0.2
4 -4 5 7.84 0.24
4 -4 5 7.66 0.24
5 3 -5 127.35 3.57
5 3 -5 125.21 2.41
4 3 -5 1.19 0.08
4 3 -5 1.16 0.13
3 3 -5 1.78 0.12
3 3 -5 1.64 0.17
2 3 -5 0.63 0.11
2 3 -5 0.79 0.12
2 3 -5 0.62 0.07
1 3 -5 5.47 0.26
1 3 -5 5.48 0.22
-1 -3 5 4.99 0.3
-1 -3 5 4.72 0.28
0 3 -5 9.55 0.32
0 3 -5 9.91 0.49
0 3 -5 9.62 0.24
0 3 -5 9.43 0.49
0 -3 5 10.34 0.51
0 -3 5 9.55 0.27
0 -3 5 10.03 0.33
0 -3 5 9.75 0.49
0 -3 5 9.5 0.38
-1 3 -5 22.71 0.52
-1 3 -5 21.02 0.99
-1 3 -5 22.04 0.59
-1 3 -5 21.35 0.47
-1 3 -5 21.46 0.99
-1 3 -5 22.23 0.62
1 -3 5 22.01 1.02
1 -3 5 20.97 0.99
1 -3 5 22.72 0.59
1 -3 5 21.89 0.74
1 -3 5 22.42 0.53
1 -3 5 22.67 0.64
-2 3 -5 39.44 1.01
-2 3 -5 38.64 1.08
-2 3 -5 39.78 0.92
2 -3 5 40.1 1.07
2 -3 5 40.76 1.04
-3 3 -5 4.82 0.16
-3 3 -5 4.77 0.21
3 -3 5 4.89 0.21
3 -3 5 5.16 0.21
-4 3 -5 49.7 1.27
-4 3 -5 50.05 1.16
4 -3 5 51.66 1.34
4 -3 5 50.97 1.14
-5 3 -5 19.93 0.52
-5 3 -5 19.26 0.46
5 -3 5 19.05 0.45
5 2 -5 6.81 0.29
4 2 -5 110.8 3.14
4 2 -5 110.29 2.12
3 2 -5 2.85 0.14
3 2 -5 3.37 0.19
2 2 -5 21.12 0.44
2 2 -5 21.11 0.64
-2 -2 5 21.22 0.8
-2 -2 5 19.46 0.69
-2 -2 5 19.08 0.8
1 2 -5 486.23 18.38
1 2 -5 465.95 18.38
-1 -2 5 524.13 19.25
-1 -2 5 475.57 19.25
-1 -2 5 495.75 15.25
0 2 -5 524.15 20.3
0 2 -5 548.68 16.82
0 2 -5 533.04 16.82
0 2 -5 495.96 20.29
0 -2 5 538.85 20.12
0 -2 5 504.13 20.12
0 -2 5 519.69 15.93
-1 2 -5 4.41 0.16
-1 2 -5 4.7 0.21
-1 2 -5 3.64 0.2
-1 2 -5 4.58 0.32
1 -2 5 4.67 0.33
1 -2 5 4.76 0.16
1 -2 5 4.6 0.22
1 -2 5 4.83 0.33
1 -2 5 4.57 0.22
-2 2 -5 0.09 0.06
-2 2 -5 0.01 0.19
-2 2 -5 0 0.09
2 -2 5 0.13 0.1
2 -2 5 0.2 0.11
2 -2 5 0.1 0.16
-3 2 -5 107.28 2.74
-3 2 -5 111.63 2.51
3 -2 5 114.82 2.92
3 -2 5 113.25 2.9
3 -2 5 111.9 2.47
-4 2 -5 13.44 0.4
-4 2 -5 13.55 0.35
4 -2 5 13.53 0.35
4 -2 5 13.48 0.39
4 -2 5 13.6 0.42
-5 2 -5 0.07 0.1
-5 2 -5 0.12 0.05
5 -2 5 0.15 0.08
5 1 -5 34.3 0.91
5 1 -5 34.68 1.02
4 1 -5 25.26 0.53
4 1 -5 26.46 0.72
4 1 -5 26 0.78
3 1 -5 3.71 0.26
3 1 -5 3.91 0.17
3 1 -5 4.09 0.21
2 1 -5 191.05 5.38
2 1 -5 191.41 3.64
-2 -1 5 193.87 5.96
1 1 -5 8.65 0.36
1 1 -5 8 0.36
-1 -1 5 8.48 0.42
-1 -1 5 11.45 0.42
0 1 -5 820.91 31.86
0 1 -5 816.02 26.35
0 1 -5 831.72 31.85
0 -1 5 812.98 31.43
0 -1 5 810.84 31.45
-1 1 -5 46.63 1.84
1 -1 5 49.71 1.79
1 -1 5 40.61 1.78
-2 1 -5 8.91 0.3
-2 1 -5 8.75 0.51
-2 1 -5 10.02 0.53
-2 1 -5 8.71 0.39
-2 1 -5 9.37 0.25
2 -1 5 9.27 0.49
2 -1 5 8.93 0.3
2 -1 5 8.92 0.31
-3 1 -5 7.21 0.21
-3 1 -5 6.92 0.27
3 -1 5 7.08 0.25
3 -1 5 7.12 0.25
3 -1 5 7.47 0.29
-4 1 -5 174.93 4
-4 1 -5 175.55 4.36
4 -1 5 180.92 4.61
4 -1 5 185.1 3.94
4 -1 5 178.22 4.64
-5 1 -5 1.08 0.13
-5 1 -5 1.03 0.08
5 -1 5 1.51 0.1
5 -1 5 1.26 0.12
5 0 -5 6.19 0.29
5 0 -5 6.38 0.24
4 0 -5 89.51 2.24
4 0 -5 84.66 2.48
3 0 -5 5.47 0.21
3 0 -5 6.16 0.25
3 0 -5 5.95 0.26
-2 0 5 53.32 1.7
-2 0 5 51.68 2.04
1 0 -5 234.34 7.48
1 0 -5 231.53 9.03
1 0 -5 234.64 9.03
-1 0 5 232.99 8.99
-1 0 5 232.05 8.99
0 0 -5 47.14 1.91
0 0 -5 53.05 1.58
0 0 -5 46.61 1.91
-1 0 -5 1.45 0.14
-1 0 -5 1.31 0.14
1 0 5 1.48 0.15
1 0 5 1.31 0.15
-2 0 -5 31.82 1.21
-2 0 -5 28.88 0.78
-2 0 -5 28.4 1.2
-2 0 -5 29.32 0.7
2 0 5 29.17 1.24
2 0 5 31.94 1.25
2 0 5 30.66 0.82
2 0 5 30.67 0.96
-3 0 -5 36.69 0.85
-3 0 -5 35.49 0.94
3 0 5 36.97 0.97
3 0 5 36.74 0.84
3 0 5 36.35 0.97
-4 0 -5 3.95 0.16
-4 0 -5 3.82 0.22
4 0 5 3.69 0.18
4 0 5 4 0.2
4 0 5 4.1 0.18
-5 0 -5 27.38 0.73
-5 0 -5 27.01 0.65
5 0 5 27.56 0.74
5 0 5 27.54 0.63
-6 0 -5 11.78 0.29
6 0 5 10.98 0.27
5 -1 -5 4.5 0.19
5 -1 -5 4.54 0.26
4 -1 -5 19.94 0.63
4 -1 -5 19.92 0.49
4 -1 -5 19.89 0.56
3 -1 -5 2.01 0.18
3 -1 -5 2.13 0.19
2 -1 -5 51.99 1.49
-2 1 5 56.98 2.2
-2 1 5 56.64 1.84
-2 1 5 55.99 2.2
1 -1 -5 58.38 2.31
1 -1 -5 58.21 2.31
1 -1 -5 61.4 1.92
-1 1 5 59.32 1.95
-1 1 5 59.69 2.35
-1 1 5 61.58 2.35
0 -1 -5 116.36 4.41
0 -1 -5 109.86 4.41
0 -1 -5 115.2 3.65
0 1 5 117.62 4.66
0 1 5 123.05 4.66
-1 -1 -5 1.45 0.14
-1 -1 -5 1.82 0.15
1 1 5 1.89 0.15
1 1 5 1.46 0.14
1 1 5 1.62 0.1
-2 -1 -5 1.05 0.15
-2 -1 -5 0.9 0.14
2 1 5 0.81 0.15
2 1 5 1.01 0.13
2 1 5 1.18 0.15
-3 -1 -5 11.76 0.32
-3 -1 -5 12.35 0.38
3 1 5 11.98 0.34
3 1 5 12.07 0.37
3 1 5 11.96 0.36
-4 -1 -5 4.65 0.26
-4 -1 -5 4.99 0.19
4 1 5 4.87 0.21
4 1 5 4.94 0.19
4 1 5 4.7 0.19
-5 -1 -5 11.32 0.4
-5 -1 -5 12.19 0.32
-6 -1 -5 7.95 0.21
6 1 5 8.73 0.26
6 1 5 8.55 0.22
5 -2 -5 17.99 0.48
5 -2 -5 16.78 0.56
4 -2 -5 16.31 0.52
4 -2 -5 16.1 0.41
4 -2 -5 15.97 0.47
3 -2 -5 0.28 0.13
3 -2 -5 0.31 0.11
3 -2 -5 0.29 0.11
2 -2 -5 27.06 0.93
2 -2 -5 26.23 0.71
2 -2 -5 26.15 0.79
-2 2 5 25.6 1.07
-2 2 5 27.03 0.92
-2 2 5 27.93 0.88
1 -2 -5 123.98 4.65
1 -2 -5 115.73 4.64
-1 2 5 118.16 4.8
-1 2 5 128.69 4.8
-1 2 5 124.78 3.98
0 -2 -5 61 2.46
0 -2 -5 63.34 2.47
0 -2 -5 65.54 2.05
0 2 5 66.19 2.56
0 2 5 65 2.56
-1 -2 -5 60.31 2.31
-1 -2 -5 58.12 2.31
1 2 5 61.59 2.35
1 2 5 61.27 1.86
1 2 5 57.25 2.35
-2 -2 -5 68.71 2.77
-2 -2 -5 72.7 2.77
2 2 5 72.62 2.85
2 2 5 75.24 2.25
2 2 5 70.66 2.85
-3 -2 -5 1.02 0.11
-3 -2 -5 0.76 0.14
3 2 5 0.75 0.11
3 2 5 0.82 0.09
3 2 5 1.07 0.12
-4 -2 -5 -0.01 0.09
-4 -2 -5 0.11 0.14
4 2 5 0.22 0.09
4 2 5 0.01 0.08
4 2 5 -0.08 0.09
-5 -2 -5 8.23 0.25
-5 -2 -5 7.98 0.35
5 2 5 8.2 0.23
5 2 5 7.95 0.29
5 2 5 8.45 0.28
5 2 5 8.51 0.24
5 2 5 8.35 0.25
-6 -2 -5 10.48 0.27
6 2 5 11.22 0.32
6 2 5 11.04 0.27
5 -3 -5 17.24 0.47
4 -3 -5 0.11 0.12
4 -3 -5 0.11 0.1
4 -3 -5 0.37 0.11
3 -3 -5 0.07 0.09
3 -3 -5 0.23 0.11
3 -3 -5 -0.14 0.12
2 -3 -5 26.9 0.79
2 -3 -5 25.76 0.71
-2 3 5 26.68 0.9
1 -3 -5 64.03 2.05
1 -3 -5 60.73 2.46
1 -3 -5 63.91 2.46
-1 3 5 63.84 2.1
-1 3 5 67.28 2.53
-1 3 5 62.35 2.53
-1 3 5 64.97 2
0 -3 -5 3.81 0.22
0 -3 -5 3.66 0.2
0 3 5 3.89 0.18
0 3 5 4.01 0.22
0 3 5 3.86 0.21
-1 -3 -5 0.03 0.07
-1 -3 -5 0.04 0.09
-1 -3 -5 0.07 0.09
1 3 5 0.03 0.07
1 3 5 0.08 0.08
1 3 5 0.15 0.08
-2 -3 -5 43.89 1.79
-2 -3 -5 46.7 1.5
-2 -3 -5 44.83 1.79
2 3 5 45.16 1.39
2 3 5 42.09 1.17
2 3 5 46.18 1.76
2 3 5 43.73 1.76
-3 -3 -5 21.47 0.54
-3 -3 -5 21.61 0.61
3 3 5 22.29 0.61
3 3 5 22.22 0.53
3 3 5 22.6 0.61
-4 -3 -5 6.09 0.3
-4 -3 -5 6 0.22
4 3 5 5.87 0.23
4 3 5 5.77 0.21
4 3 5 6.06 0.22
-5 -3 -5 10.9 0.32
-5 -3 -5 12.34 0.43
5 3 5 11.26 0.28
5 3 5 11.47 0.27
5 3 5 11.71 0.33
5 3 5 11.92 0.31
5 3 5 12.04 0.35
-6 -3 -5 1.38 0.12
6 3 5 1.49 0.11
6 3 5 1.4 0.1
5 -4 -5 2.65 0.13
-5 4 5 2.67 0.19
4 -4 -5 -0.08 0.13
4 -4 -5 -0.05 0.11
4 -4 -5 0.01 0.09
-4 4 5 0.05 0.13
3 -4 -5 37.54 0.99
3 -4 -5 36.77 1.11
3 -4 -5 37.95 1
3 -4 -5 38.58 0.86
-3 4 5 39.84 0.95
2 -4 -5 21.54 0.67
2 -4 -5 22.06 0.6
-2 4 5 22.42 0.63
-2 4 5 22.62 0.57
1 -4 -5 57.03 1.44
1 -4 -5 53.39 2.17
-1 4 5 63.44 2.35
-1 4 5 55.76 2.34
-1 4 5 60.2 1.85
-1 4 5 58.1 1.95
0 -4 -5 32.52 1.09
0 -4 -5 33.59 1.32
0 -4 -5 32.32 1.31
0 4 5 34.47 1.34
0 4 5 33.24 1.06
0 4 5 32.79 1.34
-1 -4 -5 23.96 0.95
-1 -4 -5 23.6 0.79
-1 -4 -5 22.28 0.94
1 4 5 24.78 1
1 4 5 24.47 0.79
-2 -4 -5 184.88 6.69
-2 -4 -5 164.75 6.68
-2 -4 -5 168.74 3.92
-2 -4 -5 170.54 4.28
2 4 5 181.07 5.48
2 4 5 173.94 6.92
2 4 5 178.88 4.56
2 4 5 180.44 6.92
2 4 5 177.05 4.52
-3 -4 -5 30.93 0.74
-3 -4 -5 30.56 0.82
3 4 5 32.25 0.75
3 4 5 32.75 0.87
3 4 5 33.54 0.87
-4 -4 -5 31.32 0.86
-4 -4 -5 32.38 0.77
4 4 5 33.47 0.89
4 4 5 33.4 0.9
4 4 5 34.34 0.77
-5 -4 -5 41.25 0.97
-5 -4 -5 40.95 1.09
5 4 5 44.51 0.97
5 4 5 43.38 1.01
5 4 5 43.01 0.82
5 4 5 43.84 1.14
5 4 5 42.64 0.86
-6 -4 -5 0.74 0.08
6 4 5 0.74 0.09
6 4 5 0.93 0.08
6 4 5 0.85 0.07
6 4 5 0.8 0.07
4 -5 -5 7 0.25
4 -5 -5 6.66 0.29
4 -5 -5 6.93 0.23
-4 5 5 7.68 0.24
3 -5 -5 143.21 3.97
3 -5 -5 139.84 3.05
3 -5 -5 141.53 3.58
3 -5 -5 135.81 3.58
-3 5 5 150.43 3.73
-3 5 5 149.5 3.43
2 -5 -5 189.45 4.92
2 -5 -5 195.73 5.43
-2 5 5 191.42 4.34
-2 5 5 188.95 4.72
1 -5 -5 45.03 1.18
1 -5 -5 44.49 1.3
-1 5 5 46.37 1.2
-1 5 5 47.44 1.09
0 -5 -5 1.2 0.15
0 -5 -5 1.06 0.2
0 -5 -5 0.84 0.14
0 -5 -5 0.87 0.18
0 -5 -5 0.97 0.16
0 5 5 1.31 0.18
0 5 5 0.84 0.12
0 5 5 1.19 0.19
0 5 5 1.39 0.12
0 5 5 1.11 0.11
-1 -5 -5 271.4 10.13
-1 -5 -5 254.63 10.12
-1 -5 -5 258.26 5.94
1 5 5 267.33 6.01
1 5 5 269.36 10.26
1 5 5 268.66 10.25
1 5 5 272.49 6.55
1 5 5 245.76 6.76
-2 -5 -5 0.62 0.15
-2 -5 -5 1.16 0.09
-2 -5 -5 0.96 0.11
2 5 5 1.62 0.12
2 5 5 1.36 0.12
2 5 5 1.49 0.14
2 5 5 1.07 0.1
-3 -5 -5 1.1 0.14
-3 -5 -5 1.27 0.11
3 5 5 1.27 0.1
3 5 5 1.05 0.1
-4 -5 -5 10.76 0.38
-4 -5 -5 10.93 0.31
4 5 5 11.55 0.34
4 5 5 11.46 0.28
4 5 5 11.52 0.33
4 5 5 11.23 0.35
4 5 5 11.23 0.27
4 5 5 11.34 0.31
-5 -5 -5 0.06 0.09
-5 -5 -5 -0.3 0.22
5 5 5 0.01 0.08
5 5 5 0.07 0.08
5 5 5 0.07 0.08
5 5 5 0.17 0.07
6 5 5 24.42 0.55
6 5 5 24.27 0.47
6 5 5 24.55 0.64
6 5 5 24.37 0.49
4 -6 -5 0.41 0.1
4 -6 -5 0.43 0.09
-4 6 5 0.5 0.07
-4 6 5 0.27 0.14
3 -6 -5 54.12 1.4
3 -6 -5 53.4 1.19
3 -6 -5 52.25 1.55
3 -6 -5 54.51 1.39
-3 6 5 54.5 1.27
-3 6 5 54.88 1.39
2 -6 -5 11.1 0.33
2 -6 -5 10.47 0.39
-2 6 5 11.65 0.31
-2 6 5 11.11 0.35
1 -6 -5 2.29 0.17
1 -6 -5 2.93 0.22
-1 6 5 3.69 0.15
-1 6 5 3.45 0.19
0 -6 -5 77.83 1.78
0 -6 -5 76.95 1.96
0 -6 -5 78.67 2.23
0 -6 -5 78.25 2.02
0 6 5 83.32 1.88
0 6 5 82.7 2.05
0 6 5 79.21 2.14
-1 -6 -5 11.17 0.71
-1 -6 -5 11.24 0.36
-1 -6 -5 11.83 0.3
-1 -6 -5 11.57 0.44
-1 -6 -5 11.09 0.64
1 6 5 11.96 0.35
1 6 5 11.63 0.31
1 6 5 12.22 0.3
1 6 5 11.13 0.61
-2 -6 -5 59.98 1.53
-2 -6 -5 59.81 1.38
2 6 5 62.42 1.33
2 6 5 60.82 1.57
2 6 5 58.11 1.52
-3 -6 -5 26.53 0.63
-3 -6 -5 25.75 0.73
3 6 5 27.65 0.63
3 6 5 27.15 0.74
3 6 5 27.58 0.74
-4 -6 -5 242.2 5.56
-4 -6 -5 246.45 6.07
4 6 5 253.79 5.59
4 6 5 249.54 4.59
4 6 5 251.03 4.78
4 6 5 255.61 5.43
4 6 5 247.62 6.4
4 6 5 247.74 6.36
-5 -6 -5 7.01 0.23
-5 -6 -5 6.75 0.39
5 6 5 7.32 0.25
5 6 5 7.54 0.22
5 6 5 7.43 0.21
5 6 5 7.48 0.19
-6 -6 -5 5.55 0.18
6 6 5 6.37 0.17
6 6 5 5.79 0.15
6 6 5 6.06 0.19
6 6 5 5.93 0.15
4 -7 -5 0.19 0.1
4 -7 -5 0.19 0.07
-4 7 5 0.05 0.11
-4 7 5 0.13 0.05
3 -7 -5 37.9 0.85
3 -7 -5 38.01 1
-3 7 5 38.46 0.9
-3 7 5 38.43 0.99
2 -7 -5 42.17 1.12
2 -7 -5 42.46 1.12
-2 7 5 43.17 1.01
-2 7 5 42.8 1.1
1 -7 -5 114.73 3.27
1 -7 -5 115.32 2.96
-1 7 5 124.49 2.84
-1 7 5 124.2 3.1
0 -7 -5 8.85 0.3
0 -7 -5 7.4 0.31
0 -7 -5 9.17 0.25
0 7 5 9.74 0.26
0 7 5 9.62 0.38
0 7 5 9.86 0.3
-1 -7 -5 4.1 0.15
-1 -7 -5 4.16 0.22
-1 -7 -5 3.5 0.29
1 7 5 4.63 0.17
1 7 5 4.5 0.19
1 7 5 4.38 0.22
-2 -7 -5 56.1 1.31
-2 -7 -5 57.22 1.45
2 7 5 59.66 1.1
2 7 5 58.69 1.15
2 7 5 58.87 1.34
2 7 5 58.33 1.53
2 7 5 57.32 1.48
2 7 5 58.37 1.29
-3 -7 -5 61.75 1.43
-3 -7 -5 61.24 1.57
3 7 5 63.68 1.68
3 7 5 64.56 1.48
3 7 5 64.21 1.43
3 7 5 65.63 1.27
3 7 5 65.23 1.21
3 7 5 65.96 1.69
-4 -7 -5 60.73 1.57
-4 -7 -5 61.35 1.42
4 7 5 64.81 1.45
4 7 5 66.4 1.7
4 7 5 66.62 1.23
4 7 5 64.38 1.7
4 7 5 65.89 1.28
4 7 5 65.58 1.5
-5 -7 -5 22.39 0.66
-5 -7 -5 23.26 0.55
5 7 5 24.21 0.66
5 7 5 24.59 0.5
5 7 5 24.47 0.48
5 7 5 24.26 0.56
-6 -7 -5 8.64 0.24
6 7 5 9.54 0.23
6 7 5 9.37 0.21
6 7 5 9.44 0.2
3 -8 -5 8.87 0.28
3 -8 -5 8.66 0.24
3 -8 -5 8.76 0.26
-3 8 5 8.84 0.27
-3 8 5 9.15 0.24
2 -8 -5 2.74 0.18
2 -8 -5 2.69 0.15
-2 8 5 3.05 0.16
-2 8 5 2.76 0.13
1 -8 -5 90.07 2.33
-1 8 5 90.25 2.11
-1 8 5 93.69 2.31
0 -8 -5 32.34 0.89
0 -8 -5 32.61 0.85
0 8 5 34.72 0.88
0 8 5 33.75 0.8
0 8 5 33.78 0.94
-1 -8 -5 0.08 0.06
-1 -8 -5 0.01 0.15
-1 -8 -5 0.19 0.11
1 8 5 0.17 0.11
1 8 5 0.05 0.09
1 8 5 0.05 0.09
-2 -8 -5 6.17 0.26
-2 -8 -5 6.04 0.19
2 8 5 6.39 0.25
2 8 5 6.56 0.23
2 8 5 6.34 0.25
2 8 5 6.02 0.28
2 8 5 6.41 0.2
-3 -8 -5 169.92 4.23
-3 -8 -5 169.62 3.87
3 8 5 175.47 3.17
3 8 5 174.24 3.31
3 8 5 171.42 3.76
3 8 5 171.8 4.44
-4 -8 -5 35.46 0.94
-4 -8 -5 35.47 0.84
4 8 5 37.58 0.83
4 8 5 36 0.73
4 8 5 36.76 0.97
4 8 5 36.69 0.7
-5 -8 -5 0.48 0.08
-5 -8 -5 0.72 0.16
5 8 5 0.59 0.07
5 8 5 0.46 0.06
5 8 5 0.61 0.07
3 -9 -5 7.01 0.24
3 -9 -5 7.07 0.2
-3 9 5 7.61 0.19
-3 9 5 7.4 0.23
2 -9 -5 1.64 0.13
2 -9 -5 1.8 0.14
-2 9 5 1.62 0.1
-2 9 5 1.64 0.13
1 -9 -5 8.5 0.29
-1 9 5 8.5 0.27
-1 9 5 8.42 0.23
0 -9 -5 6.67 0.28
0 -9 -5 7.08 0.25
0 9 5 6.81 0.23
0 9 5 6.85 0.2
0 9 5 6.57 0.29
-1 -9 -5 7.71 0.27
-1 -9 -5 7.86 0.22
-1 -9 -5 7.46 0.33
1 9 5 8.18 0.3
1 9 5 8.01 0.27
-2 -9 -5 0.5 0.07
-2 -9 -5 0.48 0.11
2 9 5 0.53 0.11
-3 -9 -5 1.94 0.13
-3 -9 -5 2.14 0.19
3 9 5 1.98 0.12
3 9 5 2.28 0.13
3 9 5 2.29 0.15
3 9 5 2.03 0.15
-4 -9 -5 9.53 0.26
-4 -9 -5 9.62 0.33
4 9 5 10.61 0.27
4 9 5 10.49 0.31
4 9 5 10.35 0.24
4 9 5 10.35 0.25
-5 -9 -5 1.04 0.15
-5 -9 -5 0.94 0.07
5 9 5 1.01 0.07
5 9 5 0.98 0.06
5 9 5 0.9 0.07
2 -10 -5 38.42 1.02
2 -10 -5 39.8 1.02
-2 10 5 42.05 1.05
-2 10 5 40.87 0.95
1 -10 -5 61.65 1.59
1 -10 -5 60.88 1.58
-1 10 5 64.6 1.46
-1 10 5 63.04 1.6
0 -10 -5 -0.03 0.1
0 -10 -5 -0.02 0.11
0 10 5 0.01 0.14
0 10 5 0.1 0.08
-1 -10 -5 1.99 0.12
-1 -10 -5 1.69 0.16
-1 -10 -5 1.93 0.18
1 10 5 2.16 0.17
1 10 5 2.21 0.16
-2 -10 -5 15.16 0.43
-2 -10 -5 15.05 0.38
2 10 5 16.21 0.47
-3 -10 -5 7.87 0.23
-3 -10 -5 8.56 0.29
3 10 5 8.07 0.26
3 10 5 7.89 0.25
3 10 5 7.94 0.23
-4 -10 -5 0.04 0.1
-4 -10 -5 0.16 0.06
4 10 5 0.13 0.06
4 10 5 0.05 0.07
4 10 5 0.16 0.07
4 10 5 0.1 0.07
-5 -10 -5 0.5 0.14
-5 -10 -5 0.53 0.06
5 10 5 0.43 0.06
1 -11 -5 3.61 0.16
-1 11 5 3.63 0.15
0 -11 -5 2.1 0.15
0 -11 -5 2.31 0.16
0 11 5 2.16 0.14
0 11 5 2.47 0.19
-1 -11 -5 0.06 0.14
-1 -11 -5 0.1 0.09
1 11 5 0 0.09
-2 -11 -5 19.15 0.46
-2 -11 -5 19.36 0.52
2 11 5 20.73 0.57
-3 -11 -5 0.01 0.05
-3 -11 -5 0.03 0.08
3 11 5 -0.02 0.07
-4 -11 -5 0.11 0.08
-4 -11 -5 0.09 0.05
0 -12 -5 5.73 0.21
0 12 5 5.9 0.24
-1 -12 -5 11.03 0.37
-1 -12 -5 10.84 0.31
1 12 5 12.12 0.35
-2 -12 -5 3.17 0.15
2 12 5 3.35 0.15
-3 -12 -5 9.96 0.28
-3 -12 -5 10 0.25
3 12 5 10.08 0.28
3 9 -6 9.11 0.21
3 9 -6 9.53 0.3
-3 -9 6 9.38 0.24
2 9 -6 10.48 0.33
2 9 -6 10.19 0.26
-2 -9 6 10.31 0.31
-2 -9 6 10.7 0.27
1 9 -6 0.06 0.07
1 9 -6 0.27 0.09
-1 -9 6 0.16 0.07
-1 -9 6 0.3 0.05
0 9 -6 3.07 0.2
0 9 -6 3.2 0.14
0 -9 6 3.25 0.14
-1 9 -6 29.8 0.78
4 8 -6 2.18 0.14
4 8 -6 2.18 0.09
-4 -8 6 1.79 0.15
3 8 -6 42.73 1.21
3 8 -6 41.43 0.82
-3 -8 6 40.99 0.94
-3 -8 6 40.06 1.05
2 8 -6 57.78 1.65
2 8 -6 57.5 1.12
2 8 -6 57.93 1.48
-2 -8 6 59.36 1.38
-2 -8 6 59.79 1.51
1 8 -6 4.09 0.18
1 8 -6 3.89 0.2
1 8 -6 3.94 0.17
-1 -8 6 3.87 0.14
-1 -8 6 3.91 0.19
0 8 -6 19.45 0.55
0 8 -6 20.13 0.6
0 -8 6 19.9 0.53
0 -8 6 19.64 0.47
-1 8 -6 4.36 0.19
1 -8 6 4.28 0.17
1 -8 6 4.5 0.25
-2 8 -6 23.25 0.63
2 -8 6 24.24 0.65
4 7 -6 30.42 0.6
4 7 -6 31.01 0.89
3 7 -6 3.63 0.13
3 7 -6 3.42 0.2
-3 -7 6 3.51 0.17
2 7 -6 5 0.16
2 7 -6 4.97 0.23
2 7 -6 5.3 0.19
-2 -7 6 5.16 0.18
-2 -7 6 5.06 0.24
1 7 -6 22.34 0.6
1 7 -6 21.23 0.67
1 7 -6 22.3 0.46
-1 -7 6 22.36 0.6
-1 -7 6 22.21 0.54
0 7 -6 0.2 0.12
0 7 -6 0.19 0.09
0 -7 6 0.15 0.09
0 -7 6 0.23 0.06
-1 7 -6 8.32 0.3
-1 7 -6 8.34 0.37
-1 7 -6 8.31 0.29
1 -7 6 8.06 0.27
1 -7 6 8.37 0.32
-2 7 -6 54.25 1.41
-2 7 -6 53.39 1.36
2 -7 6 54.73 1.43
-3 7 -6 0.17 0.09
3 -7 6 0.15 0.07
5 6 -6 63.84 1.21
5 6 -6 62.47 1.79
4 6 -6 6.73 0.26
4 6 -6 6.91 0.17
3 6 -6 5.38 0.16
3 6 -6 5.33 0.24
-3 -6 6 5.67 0.25
2 6 -6 2.22 0.18
2 6 -6 2.33 0.13
2 6 -6 2.51 0.15
-2 -6 6 2.45 0.15
-2 -6 6 2.42 0.23
1 6 -6 184.58 5.12
1 6 -6 180.87 4.64
1 6 -6 179.09 3.46
-1 -6 6 182.28 4.21
-1 -6 6 187.11 4.59
0 6 -6 21.2 0.59
0 6 -6 20.8 0.45
0 6 -6 20.76 0.65
0 -6 6 21.67 0.58
0 -6 6 20.78 0.52
-1 6 -6 89.09 2.53
-1 6 -6 89.71 2.3
-1 6 -6 87.43 2.22
1 -6 6 91.12 2.12
1 -6 6 93.51 2.4
1 -6 6 93.13 2.32
-2 6 -6 12.66 0.38
-2 6 -6 13.12 0.42
2 -6 6 13.53 0.4
2 -6 6 14 0.42
-3 6 -6 11.4 0.33
3 -6 6 11.63 0.34
5 5 -6 0.73 0.06
5 5 -6 0.84 0.12
4 5 -6 10.5 0.36
4 5 -6 10.18 0.24
3 5 -6 49.78 1.43
3 5 -6 48.89 0.97
2 5 -6 39.21 0.77
2 5 -6 38.73 1.02
2 5 -6 38.54 1.14
-2 -5 6 38.47 0.91
-2 -5 6 38.06 1.01
1 5 -6 4.44 0.15
1 5 -6 4.61 0.19
1 5 -6 4.6 0.23
-1 -5 6 4.65 0.18
-1 -5 6 4.41 0.23
0 5 -6 3.24 0.16
0 5 -6 3.27 0.18
0 -5 6 3.31 0.19
0 -5 6 3.4 0.14
-1 5 -6 26.94 0.71
-1 5 -6 26.44 0.74
1 -5 6 28.53 0.73
1 -5 6 27.66 0.78
1 -5 6 27.1 0.66
-2 5 -6 46.79 1.11
-2 5 -6 48.47 1.29
-2 5 -6 49.56 1.23
2 -5 6 47.51 1.26
-3 5 -6 0.59 0.06
-3 5 -6 0.44 0.09
3 -5 6 0.44 0.09
-4 5 -6 7.08 0.22
4 -5 6 7.03 0.21
5 4 -6 0.56 0.07
5 4 -6 0.52 0.11
4 4 -6 18.15 0.38
4 4 -6 17.52 0.56
3 4 -6 215.27 6.09
3 4 -6 217.05 4.12
2 4 -6 2.49 0.15
2 4 -6 2.88 0.12
2 4 -6 2.48 0.19
1 4 -6 27.84 0.87
1 4 -6 29.84 0.59
1 4 -6 30.63 0.79
-1 -4 6 30.59 0.73
-1 -4 6 30.08 0.8
0 4 -6 2.82 0.24
0 4 -6 2.91 0.18
0 4 -6 3.33 0.15
0 -4 6 2.19 0.17
-1 4 -6 195.76 4.42
-1 4 -6 194.55 4.82
-1 4 -6 192.25 4.97
1 -4 6 196.48 4.51
1 -4 6 199.72 5.08
1 -4 6 198.17 4.92
-2 4 -6 81.38 2.12
-2 4 -6 82.62 2.05
-2 4 -6 80.55 1.87
2 -4 6 83.55 2.06
2 -4 6 80.45 2.13
-3 4 -6 84.31 2.13
-3 4 -6 85.24 1.94
3 -4 6 90.52 1.99
3 -4 6 91.15 2.35
-4 4 -6 22.67 0.55
-4 4 -6 23.93 0.62
4 -4 6 24.18 0.64
5 3 -6 19.09 0.58
5 3 -6 18.58 0.39
4 3 -6 55.68 1.09
4 3 -6 56.67 1.62
3 3 -6 0.61 0.07
3 3 -6 0.51 0.11
2 3 -6 59.43 1.71
2 3 -6 59.43 1.54
2 3 -6 60.24 1.16
1 3 -6 24.77 0.51
1 3 -6 25.58 0.68
-1 -3 6 24.12 0.66
-1 -3 6 24.09 0.6
0 3 -6 37.5 0.98
0 3 -6 36.59 1.09
0 3 -6 38.1 0.73
0 3 -6 36.21 0.97
0 -3 6 38.13 0.98
0 -3 6 37.71 0.89
-1 3 -6 0.38 0.12
-1 3 -6 0.41 0.1
1 -3 6 0.65 0.16
1 -3 6 0.38 0.06
1 -3 6 0.58 0.1
-2 3 -6 8.95 0.24
-2 3 -6 8.87 0.29
-2 3 -6 9.14 0.36
2 -3 6 8.88 0.29
2 -3 6 8.8 0.3
-3 3 -6 229.32 5.64
-3 3 -6 225.32 5.17
3 -3 6 239.12 6.06
3 -3 6 234.92 5.13
-4 3 -6 106.31 2.45
-4 3 -6 107.99 2.68
4 -3 6 111.08 2.38
4 -3 6 107.68 2.81
-5 3 -6 3.03 0.1
-5 3 -6 2.99 0.16
5 2 -6 16.11 0.51
4 2 -6 7.47 0.29
4 2 -6 7.45 0.2
3 2 -6 3.39 0.2
3 2 -6 3.43 0.14
2 2 -6 4.79 0.2
2 2 -6 4.82 0.15
2 2 -6 4.75 0.22
1 2 -6 25.41 0.76
1 2 -6 25.62 0.51
1 2 -6 25.05 0.68
0 2 -6 218 8.56
0 2 -6 220 5.63
0 2 -6 223.04 4.19
0 -2 6 216.85 8.64
0 -2 6 225.95 5.52
0 -2 6 229.3 8.64
0 -2 6 221.38 5.07
0 -2 6 220.29 6.84
-1 2 -6 8.05 0.27
-1 2 -6 6.53 0.53
-1 2 -6 8.07 0.22
-1 2 -6 7.87 0.29
1 -2 6 7.37 0.32
1 -2 6 7.03 0.54
1 -2 6 8.09 0.21
1 -2 6 8.01 0.26
1 -2 6 7.47 0.36
1 -2 6 6.99 0.55
-2 2 -6 8.71 0.29
-2 2 -6 8.51 0.37
-2 2 -6 8.73 0.24
2 -2 6 8.87 0.25
2 -2 6 8.46 0.29
2 -2 6 8.17 0.28
-3 2 -6 16.47 0.41
-3 2 -6 16.06 0.46
3 -2 6 16.34 0.44
3 -2 6 16.8 0.48
-4 2 -6 0.43 0.1
-4 2 -6 0.28 0.06
4 -2 6 0.3 0.08
4 -2 6 0.4 0.13
-5 2 -6 1.32 0.11
-5 2 -6 1.26 0.09
5 1 -6 3.32 0.21
4 1 -6 95.21 1.88
4 1 -6 100.42 2.78
3 1 -6 0.12 0.08
3 1 -6 0.09 0.1
2 1 -6 24.09 0.48
2 1 -6 22.91 0.63
1 1 -6 15.46 0.43
1 1 -6 15.09 0.49
1 1 -6 15.28 0.64
1 1 -6 15.63 0.33
1 1 -6 15.27 0.65
-1 -1 6 15.52 0.67
-1 -1 6 15.98 0.67
0 1 -6 267.67 8.41
0 1 -6 265.9 10.17
0 1 -6 263.4 10.17
0 1 -6 254.43 6.7
0 -1 6 256.01 10.49
0 -1 6 286.4 10.5
-1 1 -6 85.5 3.37
-1 1 -6 89.78 3.37
-1 1 -6 83.73 2.15
-1 1 -6 82.73 2.22
-1 1 -6 87.19 1.96
1 -1 6 91.51 3.46
1 -1 6 89.01 3.46
1 -1 6 85.53 2.2
1 -1 6 86 2.01
-2 1 -6 50.55 1.17
-2 1 -6 49.27 1.36
-2 1 -6 51.95 1.29
2 -1 6 49.53 1.18
2 -1 6 51.52 1.34
2 -1 6 52.49 1.3
-3 1 -6 0.49 0.11
-3 1 -6 0.48 0.07
3 -1 6 0.45 0.09
3 -1 6 0.48 0.14
3 -1 6 0.72 0.17
-4 1 -6 15.84 0.46
4 -1 6 15.65 0.45
4 -1 6 15.64 0.4
4 -1 6 15.96 0.47
-5 1 -6 44.55 1.13
-5 1 -6 44.37 1.03
5 -1 6 44.13 1.16
5 -1 6 45.16 0.99
5 0 -6 13.45 0.43
5 0 -6 12.72 0.39
4 0 -6 42.18 1.23
4 0 -6 41.7 1.11
3 0 -6 51.52 1.02
3 0 -6 51.13 1.5
3 0 -6 53.47 1.36
2 0 -6 1.19 0.09
2 0 -6 1.13 0.12
2 0 -6 0.92 0.11
1 0 -6 46.22 1.85
1 0 -6 47.28 1.52
1 0 -6 47.59 1.85
-1 0 6 49.28 1.91
-1 0 6 47.83 1.91
0 0 -6 179.24 6.81
0 0 -6 176.18 5.63
0 0 -6 171.86 6.81
0 0 6 194.61 7.26
0 0 6 180.04 7.26
-1 0 -6 491.78 19
1 0 6 524.35 12.64
1 0 6 499.71 19.79
1 0 6 512.52 19.79
-2 0 -6 7.23 0.25
-2 0 -6 7.27 0.21
-2 0 -6 6.13 0.45
2 0 6 7.1 0.26
2 0 6 6.52 0.22
2 0 6 7.54 0.26
-3 0 -6 28.42 0.68
-3 0 -6 28.21 0.75
3 0 6 28.32 0.68
3 0 6 28.5 0.77
3 0 6 28.53 0.77
-4 0 -6 33.97 0.81
-4 0 -6 34.16 0.9
4 0 6 33.54 0.78
4 0 6 34.53 0.9
4 0 6 33.73 0.9
-5 0 -6 6.96 0.2
-5 0 -6 7 0.27
5 0 6 7.12 0.25
5 0 6 7.05 0.22
5 0 6 7.28 0.22
5 -1 -6 2.83 0.17
5 -1 -6 3.29 0.21
4 -1 -6 2.84 0.2
4 -1 -6 2.66 0.19
3 -1 -6 258.34 7.39
3 -1 -6 267.64 6.67
2 -1 -6 0.15 0.11
2 -1 -6 0.18 0.14
-2 1 6 0.32 0.18
1 -1 -6 18.96 0.63
1 -1 -6 18.36 0.76
1 -1 -6 18.79 0.77
-1 1 6 19.64 0.78
-1 1 6 18.41 0.78
0 -1 -6 22.91 0.96
0 -1 -6 23.9 0.96
0 -1 -6 25.03 0.79
0 1 6 27.26 1.03
0 1 6 24.02 1.03
-1 -1 -6 25.37 1.07
-1 -1 -6 26.76 1.07
-1 -1 -6 26.8 0.88
1 1 6 26.17 1.07
1 1 6 27.21 1.08
1 1 6 26.14 0.85
-2 -1 -6 137.59 5.58
-2 -1 -6 149.19 5.59
-2 -1 -6 144.56 3.27
-2 -1 -6 142.03 3.57
2 1 6 135.34 5.45
2 1 6 136.28 3.56
2 1 6 140.86 3.47
2 1 6 143.51 4.3
2 1 6 143.29 3.58
-3 -1 -6 5.33 0.23
-3 -1 -6 4.6 0.18
3 1 6 5.94 0.26
3 1 6 5.47 0.22
3 1 6 5.72 0.24
-4 -1 -6 26.36 0.71
-4 -1 -6 26.17 0.63
4 1 6 26.23 0.62
4 1 6 26.74 0.71
4 1 6 25.95 0.71
-5 -1 -6 198.13 4.52
-5 -1 -6 198.98 4.93
-6 -1 -6 11.92 0.29
5 -2 -6 4.23 0.24
5 -2 -6 4.44 0.18
4 -2 -6 82.27 2.39
4 -2 -6 85.07 2.15
3 -2 -6 50.21 1.31
3 -2 -6 49.46 1.44
2 -2 -6 103.1 2.72
2 -2 -6 109.47 3.01
-2 2 6 103.35 3.36
1 -2 -6 2.31 0.21
1 -2 -6 2.71 0.2
1 -2 -6 2.17 0.17
1 -2 -6 2.67 0.23
-1 2 6 2.58 0.2
-1 2 6 2.59 0.21
-1 2 6 2.5 0.24
0 -2 -6 0.55 0.11
0 -2 -6 0.37 0.09
0 2 6 0.41 0.1
0 2 6 0.34 0.1
0 2 6 0.55 0.1
-1 -2 -6 4.11 0.25
-1 -2 -6 3.97 0.26
-1 -2 -6 4.25 0.23
1 2 6 4.7 0.21
1 2 6 4.09 0.26
1 2 6 4.26 0.28
-2 -2 -6 160.04 6.52
-2 -2 -6 172.86 6.53
-2 -2 -6 170.62 3.82
2 2 6 168.54 4.27
2 2 6 169.54 4.24
2 2 6 166.37 6.48
2 2 6 169.66 5.12
2 2 6 161.63 4.14
2 2 6 164.61 6.48
-3 -2 -6 3.4 0.15
-3 -2 -6 2.83 0.21
3 2 6 3.51 0.19
3 2 6 3.5 0.22
3 2 6 3.31 0.17
-4 -2 -6 36.35 0.85
-4 -2 -6 35.27 0.94
4 2 6 36.92 0.98
4 2 6 37.08 0.97
4 2 6 36.62 0.84
-5 -2 -6 14.83 0.45
-5 -2 -6 14.53 0.37
5 2 6 15 0.42
5 2 6 15.54 0.44
5 2 6 15.45 0.33
5 2 6 15.26 0.41
5 2 6 15.69 0.35
5 2 6 15.14 0.38
-6 -2 -6 32.57 0.75
6 2 6 34.19 0.87
6 2 6 33.52 0.75
5 -3 -6 0.2 0.07
4 -3 -6 29.9 0.91
4 -3 -6 31.2 0.82
3 -3 -6 46.46 1.36
3 -3 -6 46.97 1.23
2 -3 -6 160.7 4.5
2 -3 -6 158.04 4.07
1 -3 -6 21.76 0.59
1 -3 -6 21.11 0.77
1 -3 -6 22.1 0.66
-1 3 6 19.64 0.9
-1 3 6 21.81 0.73
-1 3 6 23.15 0.91
-1 3 6 22.28 0.76
0 -3 -6 52.18 2.06
0 -3 -6 50.4 2.06
0 -3 -6 54.52 1.71
0 3 6 54.54 2.24
0 3 6 59.02 2.24
0 3 6 57.32 1.78
-1 -3 -6 290.99 11.53
-1 -3 -6 300.27 11.53
-1 -3 -6 302.71 9.56
1 3 6 303.26 11.59
1 3 6 300.73 9.18
1 3 6 294.61 11.59
-2 -3 -6 1.26 0.22
-2 -3 -6 1.18 0.12
-2 -3 -6 1.04 0.18
-2 -3 -6 1.32 0.12
2 3 6 1.34 0.17
2 3 6 1.45 0.12
2 3 6 1.23 0.13
2 3 6 1.22 0.12
2 3 6 1.26 0.19
-3 -3 -6 62.65 1.63
-3 -3 -6 65.36 1.48
3 3 6 66.04 1.7
3 3 6 65.09 1.46
3 3 6 67.17 1.72
-4 -3 -6 1.91 0.14
-4 -3 -6 1.85 0.16
4 3 6 1.9 0.16
4 3 6 1.69 0.12
4 3 6 1.75 0.15
-5 -3 -6 17.94 0.45
-5 -3 -6 18.38 0.53
5 3 6 18.6 0.48
5 3 6 18.75 0.41
5 3 6 18.97 0.39
5 3 6 19.32 0.45
5 3 6 19.01 0.53
-6 -3 -6 13.06 0.32
6 3 6 13.84 0.37
6 3 6 13.33 0.32
5 -4 -6 7.58 0.23
4 -4 -6 1.75 0.19
4 -4 -6 1.87 0.16
-4 4 6 2.09 0.15
3 -4 -6 6.32 0.23
3 -4 -6 6.35 0.25
3 -4 -6 7.82 0.29
-3 4 6 6.53 0.26
2 -4 -6 7.38 0.25
2 -4 -6 7.21 0.29
-2 4 6 7.51 0.27
-2 4 6 7.43 0.32
1 -4 -6 13.07 0.44
1 -4 -6 17.54 0.49
-1 4 6 13.29 0.41
-1 4 6 13.2 0.36
0 -4 -6 26.5 0.95
0 -4 -6 28.31 0.76
0 -4 -6 28.39 1.14
0 -4 -6 27.93 1.13
0 4 6 31.4 1.18
0 4 6 26.73 1.16
0 4 6 27.8 0.68
0 4 6 28.41 0.75
-1 -4 -6 124.91 3.23
-1 -4 -6 129.78 5.05
-1 -4 -6 134.47 5.05
1 4 6 145.12 5.4
1 4 6 135.06 3.45
1 4 6 135.28 3.16
1 4 6 139.4 5.4
-2 -4 -6 107.03 2.56
-2 -4 -6 106.72 2.34
-2 -4 -6 92.48 3.99
2 4 6 110.12 2.67
2 4 6 103.95 2.73
2 4 6 106.99 2.75
-3 -4 -6 1.72 0.14
-3 -4 -6 1.52 0.13
3 4 6 1.84 0.15
3 4 6 1.5 0.15
3 4 6 1.72 0.13
-4 -4 -6 9.66 0.28
-4 -4 -6 9.59 0.34
4 4 6 10.08 0.32
4 4 6 10.05 0.32
4 4 6 10.36 0.29
-5 -4 -6 14.05 0.44
-5 -4 -6 13.57 0.36
5 4 6 15.13 0.32
5 4 6 14.42 0.42
5 4 6 14.73 0.33
5 4 6 14.63 0.39
5 4 6 14.55 0.37
-6 -4 -6 0.69 0.07
6 4 6 0.73 0.09
6 4 6 0.81 0.07
6 4 6 0.9 0.08
6 4 6 0.66 0.07
4 -5 -6 28.49 0.86
4 -5 -6 29.15 0.77
-4 5 6 29.55 0.7
3 -5 -6 71.74 1.6
3 -5 -6 71.63 1.86
3 -5 -6 72.64 2.08
3 -5 -6 74.04 1.88
-3 5 6 75.11 1.92
-3 5 6 77.11 1.76
2 -5 -6 85.29 2.46
2 -5 -6 87.24 2.23
-2 5 6 92.64 2.11
-2 5 6 90.68 2.3
1 -5 -6 11.71 0.35
1 -5 -6 11.16 0.39
-1 5 6 12.38 0.33
-1 5 6 12.15 0.37
0 -5 -6 155.88 4.34
0 -5 -6 152.65 3.82
0 -5 -6 152.58 3.94
0 5 6 163.13 3.58
0 5 6 162.94 6.14
0 5 6 156.8 3.9
0 5 6 145.98 6.12
-1 -5 -6 3.69 0.14
-1 -5 -6 3.28 0.37
-1 -5 -6 3.58 0.22
-1 -5 -6 3.78 0.42
1 5 6 4.12 0.15
1 5 6 3.68 0.36
1 5 6 3.65 0.26
1 5 6 4.04 0.19
1 5 6 4.35 0.45
-2 -5 -6 44.09 1
-2 -5 -6 41.6 1.1
2 5 6 47.02 1.18
2 5 6 46.75 1.22
2 5 6 46.19 1.2
2 5 6 44.79 1.03
-3 -5 -6 0.39 0.12
-3 -5 -6 0.47 0.08
3 5 6 0.43 0.1
3 5 6 0.37 0.09
3 5 6 0.25 0.1
-4 -5 -6 0.49 0.09
-4 -5 -6 0.56 0.13
4 5 6 0.66 0.1
4 5 6 0.81 0.1
4 5 6 0.75 0.1
-5 -5 -6 14.97 0.38
5 5 6 15.45 0.37
5 5 6 14.86 0.4
5 5 6 15.33 0.43
5 5 6 15.03 0.34
5 5 6 14.83 0.32
6 5 6 9.73 0.21
6 5 6 9.88 0.28
6 5 6 9.98 0.24
6 5 6 9.73 0.22
4 -6 -6 0.03 0.08
-4 6 6 0.13 0.06
3 -6 -6 33.77 0.88
3 -6 -6 33.39 0.99
3 -6 -6 33.72 0.89
3 -6 -6 32.59 0.77
-3 6 6 34.54 0.92
-3 6 6 35.91 0.83
2 -6 -6 453.94 11.34
2 -6 -6 436.18 12.49
-2 6 6 461.05 11.44
-2 6 6 465.38 10.52
1 -6 -6 38.47 1.02
1 -6 -6 38.21 1.13
-1 6 6 39.88 0.94
-1 6 6 40.11 1.03
0 -6 -6 32.84 0.99
0 -6 -6 33.12 0.87
0 -6 -6 33.9 0.9
0 6 6 37.13 0.93
0 6 6 35.56 1.01
0 6 6 35.78 0.85
-1 -6 -6 -0.02 0.11
-1 -6 -6 0.17 0.16
-1 -6 -6 0.06 0.07
1 6 6 -0.11 0.09
1 6 6 -0.01 0.13
1 6 6 0.18 0.07
-2 -6 -6 17.31 0.43
-2 -6 -6 17.17 0.5
2 6 6 18.44 0.53
2 6 6 18.82 0.51
2 6 6 18.45 0.45
-3 -6 -6 157.53 3.91
-3 -6 -6 155.37 3.57
3 6 6 168.31 3.6
3 6 6 168.27 4.26
3 6 6 161.76 4.22
-4 -6 -6 7.27 0.23
-4 -6 -6 7.39 0.32
4 6 6 7.42 0.25
4 6 6 7.57 0.21
4 6 6 7.76 0.26
4 6 6 7.74 0.23
4 6 6 7.6 0.22
4 6 6 7.97 0.27
-5 -6 -6 1.74 0.18
-5 -6 -6 1.48 0.1
5 6 6 1.61 0.13
5 6 6 1.81 0.13
5 6 6 1.78 0.14
5 6 6 1.72 0.12
-6 -6 -6 1.63 0.11
6 6 6 1.69 0.09
6 6 6 1.69 0.1
6 6 6 1.97 0.1
4 -7 -6 5.64 0.19
3 -7 -6 0.35 0.08
3 -7 -6 0.18 0.11
3 -7 -6 0.19 0.09
-3 7 6 0.25 0.07
-3 7 6 0.25 0.1
2 -7 -6 22.88 0.71
2 -7 -6 22.84 0.63
2 -7 -6 22.82 0.63
-2 7 6 23.91 0.58
-2 7 6 24.02 0.64
1 -7 -6 302.14 7.86
1 -7 -6 313.49 8.66
-1 7 6 329.13 8.06
-1 7 6 322.66 7.41
0 -7 -6 102.07 2.57
0 -7 -6 103.02 2.65
0 7 6 105.26 2.75
0 7 6 106.47 2.43
0 7 6 106.42 2.65
-1 -7 -6 5.62 0.25
-1 -7 -6 5.95 0.29
-1 -7 -6 5.75 0.18
1 7 6 5.96 0.18
1 7 6 5.73 0.22
1 7 6 6.03 0.26
-2 -7 -6 19.6 0.56
-2 -7 -6 19.49 0.48
2 7 6 20.38 0.58
2 7 6 20.08 0.56
2 7 6 21.02 0.48
-3 -7 -6 154.82 3.53
-3 -7 -6 154.12 3.86
3 7 6 161.91 3.09
3 7 6 161.75 2.96
3 7 6 160.7 3.5
3 7 6 161.49 4.13
3 7 6 160.41 3.61
-4 -7 -6 26.27 0.62
-4 -7 -6 25.3 0.71
4 7 6 26.98 0.56
4 7 6 27.15 0.73
4 7 6 27.42 0.62
4 7 6 27.05 0.53
4 7 6 26.24 0.65
4 7 6 27.26 0.73
-5 -7 -6 33.65 0.89
-5 -7 -6 33.19 0.79
5 7 6 34.85 0.79
5 7 6 35.36 0.67
5 7 6 35.36 0.7
5 7 6 35.54 0.93
3 -8 -6 1.38 0.11
3 -8 -6 1.51 0.13
-3 8 6 1.67 0.09
-3 8 6 1.47 0.13
2 -8 -6 1.83 0.14
2 -8 -6 2.22 0.16
-2 8 6 2.53 0.16
-2 8 6 2.31 0.12
1 -8 -6 30.2 0.82
-1 8 6 32.31 0.76
-1 8 6 31.81 0.84
0 -8 -6 3.03 0.2
0 -8 -6 3.63 0.21
0 8 6 3.48 0.14
0 8 6 3.32 0.17
0 8 6 3.29 0.28
-1 -8 -6 9.82 0.36
-1 -8 -6 9.49 0.32
-1 -8 -6 9.8 0.26
1 8 6 10.42 0.35
1 8 6 10.56 0.32
1 8 6 10.25 0.28
-2 -8 -6 21.13 0.52
-2 -8 -6 21.68 0.6
2 8 6 22.49 0.62
2 8 6 22.92 0.48
2 8 6 22.87 0.59
2 8 6 22.45 0.53
2 8 6 23.69 0.64
2 8 6 22.59 0.5
-3 -8 -6 248.06 6.19
-3 -8 -6 250.1 5.67
3 8 6 259.23 6.71
3 8 6 266.56 5.84
3 8 6 266.04 4.79
3 8 6 266.24 5
3 8 6 254.69 5.67
-4 -8 -6 50.61 1.14
-4 -8 -6 46.93 1.26
4 8 6 55.22 1.2
4 8 6 53.28 1.06
4 8 6 54.83 1.41
4 8 6 53.74 1.02
-5 -8 -6 0.3 0.07
-5 -8 -6 0.43 0.13
5 8 6 0.33 0.06
5 8 6 0.34 0.07
5 8 6 0.22 0.06
3 -9 -6 0.54 0.09
-3 9 6 0.48 0.05
-3 9 6 0.5 0.07
2 -9 -6 37.5 0.98
2 -9 -6 36.89 0.98
-2 9 6 40.1 1.01
-2 9 6 38.92 0.92
1 -9 -6 2.25 0.16
-1 9 6 2.3 0.15
-1 9 6 2.21 0.11
0 -9 -6 132.68 3.33
0 -9 -6 134.96 3.45
0 9 6 139.98 3.19
0 9 6 141.39 3.48
0 9 6 138.58 3.61
-1 -9 -6 0.06 0.1
-1 -9 -6 0.06 0.15
-1 -9 -6 -0.04 0.07
1 9 6 0.09 0.09
1 9 6 0.04 0.11
-2 -9 -6 162.16 4.04
-2 -9 -6 162.34 3.7
2 9 6 173.26 4.44
-3 -9 -6 7.14 0.28
-3 -9 -6 7.33 0.21
3 9 6 7.62 0.22
3 9 6 7.5 0.23
3 9 6 7.42 0.21
3 9 6 7.96 0.26
-4 -9 -6 10.57 0.34
-4 -9 -6 10.71 0.28
4 9 6 11.68 0.33
4 9 6 11.61 0.27
4 9 6 11.2 0.29
4 9 6 11.37 0.25
-5 -9 -6 2.02 0.1
-5 -9 -6 1.98 0.19
5 9 6 1.93 0.09
5 9 6 1.9 0.1
5 9 6 2.04 0.1
2 -10 -6 19.49 0.53
2 -10 -6 19.76 0.46
-2 10 6 19.53 0.47
-2 10 6 20.47 0.52
1 -10 -6 -0.02 0.08
1 -10 -6 -0.03 0.1
-1 10 6 0.08 0.06
-1 10 6 0.07 0.07
0 -10 -6 19.04 0.54
0 -10 -6 18.79 0.52
0 10 6 20.34 0.55
0 10 6 20.38 0.6
-1 -10 -6 9.94 0.38
-1 -10 -6 11.23 0.33
1 10 6 10.68 0.33
1 10 6 11.98 0.36
-2 -10 -6 14 0.41
-2 -10 -6 13.89 0.35
2 10 6 14.65 0.43
-3 -10 -6 28.76 0.69
-3 -10 -6 29.45 0.77
3 10 6 30.92 0.83
-4 -10 -6 17.47 0.48
-4 -10 -6 17.42 0.42
4 10 6 17.74 0.36
4 10 6 18.03 0.48
4 10 6 18.14 0.38
-5 -10 -6 76.1 1.95
-5 -10 -6 80.8 1.79
5 10 6 84.48 1.61
1 -11 -6 10.05 0.29
-1 11 6 10.7 0.3
0 -11 -6 3.24 0.21
0 -11 -6 3.47 0.17
0 11 6 3.57 0.22
0 11 6 3.45 0.15
-1 -11 -6 40.55 1.1
-1 -11 -6 41.5 1.04
1 11 6 43.74 1.15
-2 -11 -6 6.79 0.19
-2 -11 -6 6.86 0.24
2 11 6 7.06 0.24
-3 -11 -6 -0.01 0.05
-3 -11 -6 0.05 0.08
3 11 6 0.05 0.07
-4 -11 -6 48.55 1.22
-4 -11 -6 48.62 1.12
0 -12 -6 9.06 0.28
0 12 6 9.17 0.32
-1 -12 -6 3.73 0.22
-1 -12 -6 3.53 0.18
1 12 6 4.28 0.18
-2 -12 -6 1 0.08
2 12 6 0.93 0.08
3 12 6 1.41 0.1
2 9 -7 6.79 0.23
-2 -9 7 6.49 0.22
-2 -9 7 7.11 0.18
1 9 -7 0.23 0.1
1 9 -7 0.25 0.07
-1 -9 7 0.21 0.05
-1 -9 7 0.25 0.07
0 9 -7 1.12 0.1
0 -9 7 1.17 0.11
3 8 -7 6.58 0.16
3 8 -7 7.04 0.24
-3 -8 7 6.43 0.18
2 8 -7 46.1 1.29
2 8 -7 43.81 0.87
-2 -8 7 45.8 1.06
-2 -8 7 45.61 1.16
1 8 -7 -0.01 0.09
1 8 -7 0.02 0.07
-1 -8 7 -0.01 0.08
-1 -8 7 0.02 0.05
0 8 -7 -0.04 0.14
0 8 -7 0.04 0.07
0 -8 7 0.06 0.06
0 -8 7 0.02 0.07
-1 8 -7 0.23 0.08
1 -8 7 0.65 0.18
4 7 -7 3.27 0.11
4 7 -7 3.34 0.16
3 7 -7 10.7 0.36
3 7 -7 11.09 0.24
-3 -7 7 11.01 0.29
2 7 -7 10.38 0.35
2 7 -7 10.12 0.29
2 7 -7 10.18 0.24
-2 -7 7 10.53 0.33
-2 -7 7 10.69 0.28
1 7 -7 1.38 0.13
1 7 -7 1.36 0.09
1 7 -7 1.36 0.13
-1 -7 7 1.37 0.12
-1 -7 7 1.53 0.11
0 7 -7 0.92 0.1
0 7 -7 0.78 0.14
0 -7 7 0.76 0.1
0 -7 7 0.8 0.07
-1 7 -7 4.55 0.2
1 -7 7 4.34 0.18
1 -7 7 4.48 0.27
-2 7 -7 12.2 0.37
2 -7 7 12.75 0.37
4 6 -7 4.48 0.13
4 6 -7 4.96 0.2
3 6 -7 6.9 0.27
3 6 -7 6.51 0.18
-3 -6 7 6.88 0.23
2 6 -7 0.77 0.07
2 6 -7 0.64 0.11
2 6 -7 0.76 0.09
-2 -6 7 0.87 0.09
-2 -6 7 0.83 0.13
1 6 -7 23.83 0.5
1 6 -7 24.75 0.73
1 6 -7 23.88 0.65
-1 -6 7 24.34 0.59
-1 -6 7 25.03 0.66
0 6 -7 6.97 0.29
0 6 -7 6.82 0.25
0 -6 7 7.15 0.21
0 -6 7 7.08 0.25
-1 6 -7 4.11 0.25
-1 6 -7 4.39 0.2
1 -6 7 4.94 0.29
1 -6 7 4.22 0.16
1 -6 7 4.41 0.19
-2 6 -7 4.12 0.23
-2 6 -7 4.65 0.2
2 -6 7 4.72 0.21
2 -6 7 4.71 0.21
-3 6 -7 2.71 0.15
3 -6 7 2.93 0.14
5 5 -7 30.8 0.6
5 5 -7 31.07 0.89
4 5 -7 0.26 0.09
4 5 -7 0.25 0.06
3 5 -7 17.82 0.38
3 5 -7 17.9 0.56
-3 -5 7 17.59 0.47
2 5 -7 68.38 1.34
2 5 -7 69.81 1.98
2 5 -7 68.87 1.78
-2 -5 7 69.46 1.59
-2 -5 7 68.01 1.74
1 5 -7 8.74 0.22
1 5 -7 8.8 0.28
1 5 -7 8.36 0.32
-1 -5 7 8.68 0.31
-1 -5 7 9.3 0.26
0 5 -7 68.63 1.96
0 5 -7 68.87 1.78
0 5 -7 68.12 1.33
0 -5 7 68.95 1.75
0 -5 7 69.12 1.59
-1 5 -7 7.34 0.27
-1 5 -7 7.14 0.27
1 -5 7 7.67 0.26
1 -5 7 7.55 0.33
1 -5 7 7.59 0.22
-2 5 -7 7.6 0.31
-2 5 -7 7.66 0.27
2 -5 7 7.67 0.26
2 -5 7 7.02 0.28
-3 5 -7 0.53 0.09
3 -5 7 0.45 0.08
5 4 -7 1.78 0.16
5 4 -7 1.79 0.1
4 4 -7 1.17 0.12
4 4 -7 1.16 0.08
3 4 -7 46.32 1.35
3 4 -7 46.75 0.91
2 4 -7 152.02 2.95
2 4 -7 156.64 4.37
2 4 -7 154.79 3.94
-2 -4 7 155.89 3.89
-2 -4 7 156.55 3.57
1 4 -7 55.82 1.11
1 4 -7 57.99 1.48
1 4 -7 57.27 1.64
-1 -4 7 58.91 1.48
-1 -4 7 57.51 1.35
0 4 -7 65.37 1.7
0 4 -7 64.89 1.87
0 4 -7 65.46 1.27
0 -4 7 69.83 1.75
0 -4 7 68.64 1.6
-1 4 -7 0.62 0.12
-1 4 -7 0.64 0.11
1 -4 7 1.09 0.16
1 -4 7 0.44 0.07
1 -4 7 0.52 0.1
-2 4 -7 4.98 0.21
-2 4 -7 4.86 0.16
-2 4 -7 4.83 0.26
2 -4 7 5.48 0.24
2 -4 7 4.95 0.21
-3 4 -7 7.42 0.41
-3 4 -7 6.37 0.19
-3 4 -7 6.81 0.25
3 -4 7 6.98 0.25
-4 4 -7 2.22 0.14
-4 4 -7 2.19 0.1
4 -4 7 2.3 0.12
5 3 -7 1.96 0.16
4 3 -7 24.62 0.73
4 3 -7 23.79 0.49
3 3 -7 139.05 2.67
3 3 -7 139.43 3.94
2 3 -7 107.76 2.82
2 3 -7 111.12 2.12
2 3 -7 112.07 3.13
1 3 -7 10.53 0.32
1 3 -7 10.86 0.37
-1 -3 7 10.99 0.31
-1 -3 7 10.59 0.36
0 3 -7 69.56 1.32
0 3 -7 65.71 1.94
0 3 -7 68.42 1.76
0 -3 7 70.99 1.78
0 -3 7 70.59 1.63
-1 3 -7 8.18 0.27
-1 3 -7 7.58 0.29
1 -3 7 8.42 0.35
1 -3 7 8.24 0.28
1 -3 7 8.39 0.23
-2 3 -7 0.33 0.09
-2 3 -7 0.31 0.07
-2 3 -7 0.4 0.14
2 -3 7 0.45 0.12
2 -3 7 0.33 0.1
-3 3 -7 0 0.09
-3 3 -7 0.24 0.06
3 -3 7 0.12 0.09
-4 3 -7 -0.06 0.05
-4 3 -7 0.04 0.08
4 -3 7 0.05 0.07
5 2 -7 16.9 0.52
4 2 -7 4.08 0.16
4 2 -7 3.86 0.21
3 2 -7 2.39 0.18
3 2 -7 2.21 0.13
2 2 -7 65.49 1.87
2 2 -7 64.39 1.68
2 2 -7 65.79 1.26
1 2 -7 26.88 0.8
1 2 -7 26.46 0.72
1 2 -7 27.24 0.54
-1 -2 7 26.38 0.65
-1 -2 7 26.54 0.72
0 2 -7 296.42 7.44
0 2 -7 306.73 8.44
0 2 -7 305.4 5.72
0 2 -7 294.37 7.67
0 -2 7 302.52 7.53
0 -2 7 306.42 6.92
-1 2 -7 5.51 0.23
-1 2 -7 5.41 0.19
-1 2 -7 6.06 0.24
1 -2 7 5.98 0.23
1 -2 7 5.63 0.3
1 -2 7 5.79 0.18
-2 2 -7 273.9 6.76
-2 2 -7 255.88 6.01
-2 2 -7 263.38 6.55
2 -2 7 273.13 6.71
2 -2 7 266.29 6.15
2 -2 7 273.5 6.92
-3 2 -7 45.52 1.17
-3 2 -7 45.24 1.06
3 -2 7 45.6 1.2
-4 2 -7 27.39 0.65
-4 2 -7 27.79 0.73
4 -2 7 29.25 0.78
-5 2 -7 0.63 0.05
-5 2 -7 0.7 0.09
5 1 -7 21.32 0.64
3 1 -7 12.76 0.3
3 1 -7 13.04 0.43
2 1 -7 37.75 1.08
2 1 -7 35.88 0.97
2 1 -7 37.52 0.73
1 1 -7 109.93 2.11
1 1 -7 111.62 2.82
1 1 -7 108.57 3.11
-1 -1 7 107.05 2.48
-1 -1 7 108.99 2.71
0 1 -7 192.56 4.82
0 1 -7 181.83 4.68
0 1 -7 183.62 5.32
0 1 -7 197.18 3.6
0 -1 7 204.35 4.67
0 -1 7 206.26 5.09
-1 1 -7 21.3 0.6
-1 1 -7 22.5 0.58
-1 1 -7 20.63 0.52
1 -1 7 21.57 0.51
1 -1 7 20.6 0.62
1 -1 7 21.22 0.57
-2 1 -7 345.14 7.88
-2 1 -7 345.98 8.58
-2 1 -7 349.24 8.85
2 -1 7 356.75 8.64
2 -1 7 348.67 7.93
2 -1 7 343.08 8.91
-3 1 -7 144.57 3.64
-3 1 -7 147.54 3.34
3 -1 7 150.29 3.86
-4 1 -7 18.17 0.52
-4 1 -7 18.71 0.45
4 -1 7 18.01 0.5
-5 1 -7 38.12 0.97
-5 1 -7 37.8 0.88
5 0 -7 13.38 0.42
3 0 -7 4.26 0.18
3 0 -7 4.16 0.22
2 0 -7 16.78 0.47
2 0 -7 17.04 0.53
2 0 -7 17.17 0.37
1 0 -7 16.35 0.35
1 0 -7 16.21 0.45
1 0 -7 16.14 0.51
-1 0 7 15.88 0.5
0 0 -7 24.48 0.82
0 0 -7 24.67 0.67
0 0 7 23.27 1.04
0 0 7 25.16 0.6
0 0 7 26.56 1.06
-1 0 -7 393.65 12.42
-1 0 -7 378.8 9.87
-1 0 -7 378.24 15
-1 0 -7 389.9 8.79
-1 0 -7 393.69 15.01
-1 0 -7 391.19 9.58
1 0 7 419.18 15.38
1 0 7 377.38 15.38
1 0 7 399.97 9.02
1 0 7 392.63 9.81
-2 0 -7 184.85 4.2
-2 0 -7 182.84 4.58
-2 0 -7 185.09 4.73
2 0 7 186.45 4.63
2 0 7 189.07 4.24
2 0 7 184.51 4.78
-3 0 -7 24.7 0.66
-3 0 -7 24.19 0.59
3 0 7 25.66 0.7
3 0 7 25.5 0.71
-4 0 -7 1.03 0.12
-4 0 -7 1.38 0.11
4 0 7 1.43 0.15
4 0 7 1.46 0.14
4 0 7 1.37 0.14
-5 0 -7 16.05 0.39
-5 0 -7 16.38 0.45
5 0 7 16.38 0.44
5 0 7 16.25 0.47
5 -1 -7 0.28 0.12
5 -1 -7 0.26 0.11
4 -1 -7 0.18 0.12
4 -1 -7 0.02 0.11
3 -1 -7 1.84 0.18
3 -1 -7 1.84 0.16
2 -1 -7 18.5 0.55
2 -1 -7 18.63 0.52
2 -1 -7 18.69 0.58
2 -1 -7 18.91 0.41
1 -1 -7 101.21 2.54
1 -1 -7 96.66 2.8
1 -1 -7 98.82 1.9
0 -1 -7 0.66 0.16
0 -1 -7 0.55 0.15
0 -1 -7 0.54 0.09
0 -1 -7 0.54 0.09
0 1 7 0.82 0.13
0 1 7 0.58 0.18
0 1 7 0.52 0.09
0 1 7 0.38 0.16
-1 -1 -7 8.76 0.49
-1 -1 -7 8.85 0.24
-1 -1 -7 8.98 0.41
-1 -1 -7 8.66 0.32
-1 -1 -7 8.94 0.5
-1 -1 -7 9.2 0.3
1 1 7 8.75 0.29
1 1 7 10.32 0.25
1 1 7 8.53 0.5
1 1 7 9.63 0.54
-2 -1 -7 0.01 0.1
-2 -1 -7 0.3 0.06
-2 -1 -7 -0.03 0.19
2 1 7 0.45 0.1
2 1 7 0.15 0.14
2 1 7 0.2 0.09
2 1 7 0.24 0.11
-3 -1 -7 1.09 0.08
-3 -1 -7 1.2 0.12
3 1 7 1.11 0.13
3 1 7 0.88 0.1
-4 -1 -7 42.07 1.09
-4 -1 -7 42.35 0.99
4 1 7 43.32 1.14
4 1 7 44.08 1.14
4 1 7 42.53 0.98
-5 -1 -7 0.05 0.11
-5 -1 -7 0.12 0.06
5 1 7 0.21 0.08
5 1 7 -0.01 0.11
5 1 7 0.21 0.12
5 1 7 0.06 0.1
5 1 7 -0.21 0.16
5 1 7 -0.03 0.11
5 -2 -7 41.54 1.2
5 -2 -7 41.6 1.07
4 -2 -7 1.77 0.19
4 -2 -7 2.49 0.18
3 -2 -7 0.25 0.11
3 -2 -7 0.43 0.12
2 -2 -7 0 0.1
2 -2 -7 0.03 0.1
1 -2 -7 0.19 0.19
1 -2 -7 0.16 0.13
1 -2 -7 0.15 0.12
1 -2 -7 0.1 0.09
-1 2 7 0.33 0.16
-1 2 7 0.13 0.12
0 -2 -7 118.62 4.7
0 -2 -7 118.78 4.7
0 -2 -7 124.7 3.89
0 -2 -7 120.09 3.09
0 2 7 129.14 3.16
0 2 7 119.44 4.94
0 2 7 126.01 2.9
0 2 7 132.68 4.94
-1 -2 -7 1.5 0.13
-1 -2 -7 1.43 0.22
-1 -2 -7 1.97 0.2
-1 -2 -7 1.77 0.13
-1 -2 -7 1.93 0.22
-1 -2 -7 2.35 0.16
1 2 7 2 0.3
1 2 7 1.94 0.17
1 2 7 1.58 0.23
1 2 7 1.73 0.12
-2 -2 -7 59.16 1.34
-2 -2 -7 56.48 1.54
2 2 7 58.83 1.54
2 2 7 59.07 1.5
2 2 7 61.45 1.56
2 2 7 58.98 1.37
-3 -2 -7 31.67 0.74
-3 -2 -7 30.89 0.83
3 2 7 32.9 0.87
3 2 7 32.21 0.87
-4 -2 -7 13.92 0.36
-4 -2 -7 13.71 0.42
4 2 7 13.92 0.38
4 2 7 14.43 0.41
4 2 7 14.07 0.42
-5 -2 -7 4.59 0.16
-5 -2 -7 4.48 0.22
5 2 7 4.99 0.18
5 2 7 4.86 0.19
5 2 7 4.8 0.2
5 2 7 4.36 0.22
5 2 7 4.42 0.17
5 2 7 4.94 0.18
5 -3 -7 8.78 0.26
4 -3 -7 38.8 1.15
4 -3 -7 40.24 1.04
3 -3 -7 7.59 0.27
3 -3 -7 7.31 0.29
2 -3 -7 57.3 1.66
2 -3 -7 57.74 1.49
-2 3 7 61.25 1.42
-2 3 7 60.67 1.56
1 -3 -7 2.23 0.16
1 -3 -7 2.03 0.2
-1 3 7 2.05 0.13
-1 3 7 1.89 0.16
0 -3 -7 54.9 2.05
0 -3 -7 54.57 1.35
0 -3 -7 52.51 1.71
0 -3 -7 44.61 1.33
0 3 7 54.07 2.34
0 3 7 61 1.37
0 3 7 60.42 1.5
0 3 7 60.89 2.35
-1 -3 -7 0.6 0.11
-1 -3 -7 0.5 0.17
-1 -3 -7 0.64 0.08
-1 -3 -7 0.39 0.13
-1 -3 -7 0.87 0.22
1 3 7 0.87 0.16
1 3 7 0.61 0.19
1 3 7 0.83 0.08
1 3 7 0.66 0.1
1 3 7 0.8 0.23
-2 -3 -7 46.14 1.31
-2 -3 -7 50.2 1.13
-2 -3 -7 49.14 1.24
2 3 7 53.83 1.36
2 3 7 51.93 1.32
2 3 7 49.43 1.2
2 3 7 52.51 1.35
-3 -3 -7 105.45 2.47
-3 -3 -7 110.12 2.7
3 3 7 110.24 2.84
3 3 7 110.2 2.82
-4 -3 -7 28.32 0.78
-4 -3 -7 29.55 0.69
4 3 7 29.14 0.69
4 3 7 29.98 0.8
4 3 7 30.03 0.8
-5 -3 -7 9.11 0.31
-5 -3 -7 9.37 0.25
5 3 7 9.59 0.29
5 3 7 9.88 0.23
5 3 7 9.81 0.29
5 3 7 9.67 0.3
5 3 7 10.08 0.27
5 3 7 9.83 0.25
-6 -3 -7 0.06 0.05
4 -4 -7 0.96 0.12
4 -4 -7 0.93 0.1
-4 4 7 1.43 0.13
3 -4 -7 22.04 0.59
3 -4 -7 20.26 0.65
-3 4 7 22.85 0.57
2 -4 -7 3.5 0.18
2 -4 -7 3.3 0.21
-2 4 7 3.84 0.2
-2 4 7 3.8 0.26
1 -4 -7 0.06 0.09
1 -4 -7 0.15 0.1
-1 4 7 0 0.12
-1 4 7 0.14 0.08
0 -4 -7 6.64 0.24
0 -4 -7 6.07 0.31
0 -4 -7 5.81 0.32
0 4 7 6.52 0.25
0 4 7 6.74 0.2
-1 -4 -7 36.19 1.58
-1 -4 -7 38.3 1.6
-1 -4 -7 39.91 0.9
-1 -4 -7 39.33 1.03
1 4 7 36.73 1.65
1 4 7 41.06 1.03
1 4 7 42.59 0.94
1 4 7 40.84 1.68
1 4 7 40.46 1.09
-2 -4 -7 14.69 0.42
-2 -4 -7 14.06 0.36
-2 -4 -7 14.31 0.52
2 4 7 15.46 0.44
2 4 7 14.54 0.45
2 4 7 15.65 0.43
-3 -4 -7 101.92 2.57
-3 -4 -7 102.61 2.35
3 4 7 104.73 2.69
3 4 7 106.95 2.71
3 4 7 103.6 2.3
-4 -4 -7 0.4 0.08
-4 -4 -7 0.26 0.11
4 4 7 0.71 0.11
4 4 7 0.44 0.09
4 4 7 0.52 0.1
-5 -4 -7 31.96 0.76
-5 -4 -7 32.01 0.84
5 4 7 34.06 0.91
5 4 7 33.51 0.9
5 4 7 33.9 0.78
5 4 7 35.85 0.82
5 4 7 35.49 0.7
5 4 7 36.03 0.67
-6 -4 -7 10.15 0.26
4 -5 -7 26.59 0.78
4 -5 -7 25.86 0.7
-4 5 7 28.47 0.67
3 -5 -7 14.74 0.48
3 -5 -7 14.7 0.43
-3 5 7 15.06 0.46
-3 5 7 15.53 0.4
2 -5 -7 26.51 0.81
2 -5 -7 27.13 0.72
-2 5 7 28.86 0.69
-2 5 7 28.7 0.77
1 -5 -7 2.61 0.2
1 -5 -7 2.66 0.17
-1 5 7 2.87 0.14
-1 5 7 2.16 0.18
0 -5 -7 277.57 6.81
0 -5 -7 274.41 7.02
0 -5 -7 273.44 7.73
0 5 7 297.65 7.3
0 5 7 292.7 6.71
-1 -5 -7 30.42 0.82
-1 -5 -7 30.76 0.85
-1 -5 -7 31.86 0.73
1 5 7 32.22 0.84
1 5 7 32.93 0.76
1 5 7 32.3 0.9
-2 -5 -7 21.02 0.69
-2 -5 -7 22.12 0.53
-2 -5 -7 22.29 0.59
2 5 7 23.67 0.63
2 5 7 23.81 0.66
-3 -5 -7 4.89 0.17
-3 -5 -7 4.99 0.23
3 5 7 5.2 0.23
3 5 7 5.19 0.22
3 5 7 4.99 0.21
-4 -5 -7 3.2 0.15
-4 -5 -7 3.36 0.21
4 5 7 3.6 0.18
4 5 7 3.34 0.18
4 5 7 3.35 0.18
-5 -5 -7 31.17 0.83
-5 -5 -7 31.02 0.74
5 5 7 33.09 0.63
5 5 7 32.47 0.74
5 5 7 32.75 0.87
5 5 7 32.92 0.77
5 5 7 32.81 0.66
-6 -5 -7 0.46 0.06
6 5 7 0.41 0.07
6 5 7 0.53 0.07
4 -6 -7 13.76 0.38
-4 6 7 13.51 0.33
3 -6 -7 26.74 0.83
3 -6 -7 28.65 0.75
-3 6 7 29.29 0.77
-3 6 7 29.25 0.7
2 -6 -7 24.39 0.76
2 -6 -7 24.94 0.67
-2 6 7 26.27 0.69
-2 6 7 25.23 0.62
1 -6 -7 46.66 1.24
1 -6 -7 47.36 1.37
-1 6 7 49.11 1.26
-1 6 7 49.9 1.15
0 -6 -7 22.79 0.72
0 -6 -7 23.33 0.63
0 -6 -7 22.99 0.64
0 6 7 24.98 0.77
0 6 7 25.62 0.68
0 6 7 25.93 0.61
-1 -6 -7 88.99 2.28
-1 -6 -7 84.25 2.21
-1 -6 -7 90.05 2.01
1 6 7 94 2.3
1 6 7 78.54 2.22
1 6 7 93.28 2.03
-2 -6 -7 21.04 0.59
-2 -6 -7 20.55 0.67
-2 -6 -7 21.53 0.51
2 6 7 22.08 0.6
2 6 7 23.05 0.63
2 6 7 22.38 0.54
-3 -6 -7 9.94 0.27
-3 -6 -7 9.57 0.35
3 6 7 10.88 0.34
3 6 7 11.07 0.34
3 6 7 10.43 0.3
-4 -6 -7 1.14 0.15
-4 -6 -7 1.19 0.09
4 6 7 1.39 0.1
4 6 7 1.76 0.15
4 6 7 1.31 0.09
4 6 7 1.11 0.11
4 6 7 1.43 0.11
4 6 7 1.59 0.15
-5 -6 -7 18.15 0.52
-5 -6 -7 18.03 0.45
5 6 7 18.53 0.5
5 6 7 18.37 0.43
5 6 7 17.84 0.39
5 6 7 18.41 0.37
3 -7 -7 38.43 1.01
-3 7 7 39.12 1
-3 7 7 39.45 0.92
2 -7 -7 38.19 1.02
2 -7 -7 37.82 1.01
2 -7 -7 38.82 1.13
-2 7 7 41.13 1.06
-2 7 7 40.98 0.96
1 -7 -7 71.66 1.89
1 -7 -7 73.92 2.09
-1 7 7 76.87 1.96
-1 7 7 79.13 1.8
0 -7 -7 9.79 0.33
0 -7 -7 9.62 0.33
0 7 7 10.53 0.27
0 7 7 10.26 0.43
0 7 7 9.85 0.32
-1 -7 -7 24.51 0.58
-1 -7 -7 24.3 0.7
-1 -7 -7 24.63 0.67
1 7 7 26.09 0.7
1 7 7 26.27 0.74
1 7 7 27.18 0.63
-2 -7 -7 67.76 1.82
-2 -7 -7 67.63 1.74
-2 -7 -7 69.73 1.58
2 7 7 72.9 1.89
2 7 7 73.11 1.82
2 7 7 71.2 1.59
-3 -7 -7 38.29 0.92
-3 -7 -7 40.37 1.04
3 7 7 41.73 1.1
3 7 7 41.44 0.93
-4 -7 -7 3.48 0.23
-4 -7 -7 3.29 0.14
4 7 7 3.57 0.15
4 7 7 3.69 0.18
4 7 7 3.54 0.16
4 7 7 3.78 0.16
4 7 7 3.71 0.17
-5 -7 -7 0.11 0.06
-5 -7 -7 0.08 0.13
5 7 7 0.05 0.06
5 7 7 0.06 0.06
5 7 7 0.1 0.07
3 -8 -7 45.94 1.19
-3 8 7 45.04 1.15
-3 8 7 46.3 1.05
2 -8 -7 59.91 1.55
2 -8 -7 60.17 1.56
-2 8 7 63.48 1.48
-2 8 7 64.61 1.61
1 -8 -7 51.84 1.36
-1 8 7 56.98 1.45
-1 8 7 57.04 1.32
0 -8 -7 29.65 0.81
0 -8 -7 29.81 0.79
0 8 7 31.81 0.9
0 8 7 31.96 0.83
0 8 7 31.82 0.75
-1 -8 -7 8.44 0.3
-1 -8 -7 8.88 0.33
-1 -8 -7 8.41 0.24
1 8 7 9.1 0.33
1 8 7 8.97 0.28
1 8 7 8.77 0.25
-2 -8 -7 101.61 2.56
-2 -8 -7 100.83 2.33
-2 -8 -7 102.76 2.65
2 8 7 108.53 2.68
2 8 7 107.52 2.07
2 8 7 107.04 2.42
2 8 7 107.53 2.78
2 8 7 107.21 1.99
-3 -8 -7 153.87 3.53
-3 -8 -7 155.52 3.86
3 8 7 161.47 3.6
3 8 7 159.34 3.08
3 8 7 160.46 2.95
3 8 7 158.49 3.49
3 8 7 165.32 4.13
-4 -8 -7 4.59 0.24
-4 -8 -7 4.21 0.16
4 8 7 4.49 0.17
4 8 7 4.55 0.16
4 8 7 4.73 0.19
4 8 7 4.98 0.17
-5 -8 -7 0.35 0.06
-5 -8 -7 0.41 0.12
5 8 7 0.46 0.07
5 8 7 0.38 0.06
5 8 7 0.33 0.06
2 -9 -7 41.95 1.09
2 -9 -7 42.09 1.09
-2 9 7 42.19 1
-2 9 7 44.28 1.1
1 -9 -7 40.47 1.07
-1 9 7 42.24 1.08
-1 9 7 42.63 0.99
0 -9 -7 24.73 0.68
0 -9 -7 24.27 0.65
0 9 7 26.47 0.69
0 9 7 25.6 0.75
0 9 7 26.5 0.62
-1 -9 -7 52.4 1.39
-1 -9 -7 53.08 1.34
-1 -9 -7 51.56 1.21
1 9 7 58.12 1.47
1 9 7 58.61 1.54
-2 -9 -7 1.3 0.1
-2 -9 -7 1.32 0.23
-2 -9 -7 1.03 0.12
2 9 7 0 0.11
-3 -9 -7 78.4 2.01
-3 -9 -7 80.57 1.83
3 9 7 84.87 2.2
3 9 7 85.7 1.58
3 9 7 85.16 1.65
-4 -9 -7 52.06 1.19
-4 -9 -7 51 1.31
4 9 7 54.49 1.21
4 9 7 55.61 1.03
4 9 7 55.19 1.43
4 9 7 55.88 1.08
-5 -9 -7 -0.07 0.1
-5 -9 -7 0 0.05
5 9 7 -0.03 0.05
5 9 7 0 0.05
2 -10 -7 34.02 0.88
2 -10 -7 34.02 0.88
-2 10 7 33.69 0.8
-2 10 7 35.93 0.88
1 -10 -7 6.28 0.21
1 -10 -7 6.23 0.22
-1 10 7 7.07 0.23
-1 10 7 7.75 0.2
0 -10 -7 27.66 0.75
0 10 7 28.71 0.8
0 10 7 28.86 0.75
-1 -10 -7 15.27 0.48
-1 -10 -7 15.49 0.44
1 10 7 15.72 0.47
1 10 7 15.89 0.44
-2 -10 -7 8.58 0.23
-2 -10 -7 8.99 0.42
-2 -10 -7 8.52 0.29
2 10 7 9.22 0.31
-3 -10 -7 0.07 0.06
-3 -10 -7 0.02 0.1
3 10 7 -0.02 0.08
-4 -10 -7 11.61 0.34
-4 -10 -7 11.7 0.29
4 10 7 12.47 0.28
4 10 7 12.48 0.35
4 10 7 12.42 0.26
1 -11 -7 56.92 1.48
1 -11 -7 58.52 1.49
-1 11 7 58.74 1.46
0 -11 -7 24.12 0.65
0 -11 -7 23.88 0.64
0 11 7 25.33 0.65
0 11 7 25.3 0.7
-1 -11 -7 65.3 1.69
-1 -11 -7 64.9 1.63
1 11 7 62.01 1.66
1 11 7 71.44 1.73
-2 -11 -7 8.63 0.27
2 11 7 8.93 0.28
-3 -11 -7 5.91 0.21
-3 -11 -7 5.96 0.17
3 11 7 6.36 0.21
-4 -11 -7 20.81 0.54
-4 -11 -7 20.5 0.48
0 -12 -7 0.1 0.08
-1 -12 -7 5.18 0.23
1 12 7 6.46 0.22
-2 -12 -7 10.22 0.29
2 12 7 10.83 0.31
-3 -12 -7 29.4 0.75
3 12 7 31.79 0.82
2 8 -8 23.72 0.69
-2 -8 8 26.94 0.67
-2 -8 8 25.06 0.61
1 8 -8 40.67 1.17
1 8 -8 41.06 1.05
-1 -8 8 44.48 1.02
-1 -8 8 44.11 1.12
0 8 -8 25.31 0.67
0 -8 8 25.56 0.65
3 7 -8 0.01 0.05
3 7 -8 0.1 0.08
-3 -7 8 0 0.06
2 7 -8 1.4 0.1
2 7 -8 1.38 0.14
-2 -7 8 1.28 0.11
-2 -7 8 1.29 0.1
1 7 -8 4.77 0.22
1 7 -8 4.75 0.17
-1 -7 8 4.69 0.15
-1 -7 8 4.75 0.19
0 7 -8 10.51 0.4
0 7 -8 10.64 0.31
0 -7 8 10.9 0.27
0 -7 8 10.73 0.31
-1 7 -8 3.97 0.17
1 -7 8 4.01 0.31
1 -7 8 4.09 0.16
-2 7 -8 0.87 0.11
2 -7 8 0.77 0.11
4 6 -8 11.48 0.36
4 6 -8 11.14 0.24
3 6 -8 16.29 0.34
3 6 -8 16.27 0.5
-3 -6 8 15.82 0.39
2 6 -8 14.98 0.33
2 6 -8 15.71 0.49
-2 -6 8 15.42 0.38
-2 -6 8 15.07 0.44
1 6 -8 0.86 0.09
1 6 -8 0.81 0.12
1 6 -8 0.85 0.08
-1 -6 8 0.81 0.11
-1 -6 8 0.84 0.08
0 6 -8 21.5 0.6
0 6 -8 22.35 0.68
0 -6 8 22.69 0.61
0 -6 8 23 0.55
-1 6 -8 0.26 0.09
1 -6 8 0.38 0.08
1 -6 8 0.92 0.18
-2 6 -8 4.18 0.2
2 -6 8 4.2 0.19
4 5 -8 12.85 0.27
4 5 -8 12.94 0.41
3 5 -8 46.83 1.35
3 5 -8 46.29 0.91
-3 -5 8 46.24 1.08
2 5 -8 8.09 0.3
2 5 -8 7.71 0.25
2 5 -8 7.77 0.2
-2 -5 8 8.68 0.31
-2 -5 8 8.02 0.24
1 5 -8 47.89 0.93
1 5 -8 46.32 1.23
1 5 -8 47.4 1.37
-1 -5 8 49.32 1.15
-1 -5 8 48.96 1.26
0 5 -8 17.99 0.51
0 5 -8 17.96 0.57
0 -5 8 18.42 0.46
0 -5 8 18.97 0.52
-1 5 -8 16.09 0.47
1 -5 8 16.63 0.41
1 -5 8 17.7 0.54
1 -5 8 16.42 0.47
-2 5 -8 5.91 0.25
-2 5 -8 6.02 0.23
2 -5 8 6 0.22
2 -5 8 6.02 0.24
-3 5 -8 0.1 0.08
-3 5 -8 0.17 0.21
3 -5 8 0.17 0.08
4 4 -8 34.27 1
4 4 -8 34.04 0.67
3 4 -8 2.74 0.12
3 4 -8 2.62 0.18
2 4 -8 1.57 0.13
2 4 -8 1.56 0.17
2 4 -8 1.69 0.11
-2 -4 8 1.6 0.11
-2 -4 8 1.64 0.16
1 4 -8 0.85 0.13
1 4 -8 0.82 0.09
1 4 -8 0.84 0.08
-1 -4 8 0.99 0.12
-1 -4 8 0.84 0.08
0 4 -8 1.7 0.17
0 4 -8 1.65 0.1
0 4 -8 1.76 0.15
0 -4 8 1.9 0.12
0 -4 8 1.8 0.16
-1 4 -8 38.64 1
-1 4 -8 38.68 1.03
1 -4 8 39.32 1.08
1 -4 8 40.69 1.03
1 -4 8 39.37 0.93
-2 4 -8 43.16 1.12
-2 4 -8 44.09 1.16
2 -4 8 46.33 1.18
2 -4 8 46.74 1.23
-3 4 -8 13.73 0.48
-3 4 -8 13.46 0.39
3 -4 8 13.66 0.39
-4 4 -8 4.69 0.17
4 -4 8 5.01 0.17
5 3 -8 13.75 0.42
4 3 -8 33.27 0.96
4 3 -8 32.31 0.65
3 3 -8 10.87 0.38
3 3 -8 11.17 0.26
2 3 -8 58.48 1.67
2 3 -8 58.08 1.13
2 3 -8 56.79 1.49
-2 -3 8 57.42 1.35
-2 -3 8 58.04 1.48
1 3 -8 46.99 1.35
1 3 -8 45.51 0.92
1 3 -8 47.11 1.22
-1 -3 8 48.08 1.22
-1 -3 8 47.1 1.11
0 3 -8 18.42 0.52
0 3 -8 17.87 0.59
0 3 -8 18.63 0.39
0 -3 8 18.62 0.46
0 -3 8 18.88 0.52
-1 3 -8 22.81 0.63
-1 3 -8 23.57 0.65
1 -3 8 22.9 0.67
1 -3 8 23.73 0.62
1 -3 8 22.49 0.55
-2 3 -8 21.39 0.61
-2 3 -8 21.68 0.58
-2 3 -8 21.22 0.51
2 -3 8 23.14 0.65
2 -3 8 22.75 0.61
-3 3 -8 0.55 0.1
-3 3 -8 0.67 0.07
-3 3 -8 0.7 0.21
3 -3 8 0.41 0.08
-4 3 -8 8.37 0.22
-4 3 -8 8.67 0.26
4 -3 8 9.14 0.27
5 2 -8 10.49 0.34
4 2 -8 128.79 3.63
4 2 -8 127.95 2.45
3 2 -8 210.57 3.97
3 2 -8 206.06 5.87
2 2 -8 68.35 1.96
2 2 -8 68.01 1.76
2 2 -8 69.29 1.33
-2 -2 8 71.85 1.67
1 2 -8 23.21 0.72
1 2 -8 23.42 0.48
1 2 -8 24.12 0.64
-1 -2 8 23.56 0.58
-1 -2 8 23.86 0.65
0 2 -8 52.65 1.54
0 2 -8 53.13 1.04
0 2 -8 53.75 1.39
0 -2 8 53.36 1.25
0 -2 8 54.41 1.37
-1 2 -8 5.16 0.23
-1 2 -8 5.18 0.23
1 -2 8 4.8 0.21
1 -2 8 5.43 0.3
1 -2 8 5.27 0.17
-2 2 -8 3.16 0.19
-2 2 -8 3.46 0.14
-2 2 -8 3.74 0.23
2 -2 8 3.55 0.21
2 -2 8 3.76 0.19
-3 2 -8 7.87 0.22
-3 2 -8 7.95 0.42
-3 2 -8 8.14 0.28
3 -2 8 8.55 0.28
-4 2 -8 2.97 0.12
-4 2 -8 2.91 0.17
4 -2 8 3.04 0.14
5 1 -8 5.25 0.21
4 1 -8 12.2 0.41
3 1 -8 122.38 2.34
3 1 -8 121.62 3.46
2 1 -8 2.21 0.13
2 1 -8 1.76 0.15
2 1 -8 1.96 0.17
1 1 -8 55.86 1.47
1 1 -8 57.62 1.1
1 1 -8 56.14 1.62
-1 -1 8 58.15 1.35
0 1 -8 20.22 0.55
0 1 -8 20.09 0.42
0 1 -8 19.54 0.64
0 -1 8 21.1 0.5
0 -1 8 20.27 0.56
-1 1 -8 81.51 2.07
-1 1 -8 81.04 2.01
-1 1 -8 76.98 1.83
1 -1 8 84.11 2.13
1 -1 8 84.07 2.21
1 -1 8 86.76 1.95
-2 1 -8 4.57 0.16
-2 1 -8 4.76 0.21
-2 1 -8 4.18 0.25
2 -1 8 5.01 0.23
2 -1 8 4.88 0.18
2 -1 8 4.73 0.21
-3 1 -8 33.93 0.96
-3 1 -8 33.57 0.89
-3 1 -8 34.42 0.8
3 -1 8 36.4 0.97
-4 1 -8 2.09 0.17
-4 1 -8 2.23 0.11
4 -1 8 2 0.14
-5 1 -8 8.88 0.23
-5 1 -8 9.27 0.27
5 0 -8 2.85 0.17
4 0 -8 0.14 0.11
3 0 -8 5.11 0.19
3 0 -8 4.92 0.24
2 0 -8 45.03 1.18
2 0 -8 45.59 1.32
2 0 -8 45.37 0.89
1 0 -8 178.53 4.58
1 0 -8 183.59 3.42
1 0 -8 176.16 5.05
-1 0 8 190.82 4.82
-1 0 8 197.76 4.43
0 0 -8 60.59 1.77
0 0 -8 61.94 1.6
0 0 -8 62.21 1.2
0 0 8 65.05 1.51
0 0 8 66.04 1.65
-1 0 -8 91.7 2.3
-1 0 -8 91.42 2.1
-1 0 -8 92.03 2.37
1 0 8 95.35 2.38
1 0 8 96.3 2.18
1 0 8 94.19 2.47
-2 0 -8 10.07 0.33
-2 0 -8 10.17 0.38
-2 0 -8 10.86 0.28
2 0 8 10.55 0.35
2 0 8 10.43 0.28
2 0 8 10.73 0.33
-3 0 -8 32.99 0.86
-3 0 -8 32.49 0.77
3 0 8 33.71 0.91
-4 0 -8 42.98 1.12
-4 0 -8 43.48 1.01
4 0 8 46.1 1.21
-5 0 -8 55.07 1.28
-5 0 -8 56.61 1.41
5 -1 -8 2.7 0.18
4 -1 -8 -0.04 0.11
4 -1 -8 -0.11 0.15
3 -1 -8 10.29 0.36
3 -1 -8 10.11 0.36
2 -1 -8 236.83 6.68
2 -1 -8 237.58 4.52
2 -1 -8 237.96 6.05
1 -1 -8 90.4 2.61
1 -1 -8 92.19 2.37
1 -1 -8 93.57 1.77
-1 1 8 95.64 2.39
-1 1 8 94.98 2.19
0 -1 -8 0.71 0.1
0 -1 -8 0.58 0.16
0 -1 -8 0.73 0.2
0 1 8 0.73 0.11
0 1 8 0.56 0.09
-1 -1 -8 46.38 1.22
-1 -1 -8 46.43 1.08
-1 -1 -8 46.58 1.19
1 1 8 48.6 1.09
1 1 8 43.83 1.25
1 1 8 48.64 1.2
-2 -1 -8 -0.05 0.1
-2 -1 -8 -0.01 0.06
-2 -1 -8 0.61 0.15
2 1 8 0.24 0.15
2 1 8 0.13 0.08
2 1 8 0.07 0.09
2 1 8 0.52 0.11
-3 -1 -8 34.09 0.9
-3 -1 -8 34.34 0.81
3 1 8 34.63 0.92
3 1 8 34 0.92
-4 -1 -8 8.88 0.3
-4 -1 -8 8.75 0.24
4 1 8 9.27 0.3
4 1 8 10.11 0.33
-5 -1 -8 2.68 0.17
-5 -1 -8 2.46 0.11
5 1 8 2.45 0.21
5 1 8 2.51 0.13
5 -2 -8 0.04 0.12
4 -2 -8 41.14 1.09
4 -2 -8 42.02 1.21
3 -2 -8 25.93 0.69
3 -2 -8 24.3 0.76
2 -2 -8 46.87 1.36
2 -2 -8 46.34 1.23
2 -2 -8 47.2 1.22
-2 2 8 50.04 1.17
-2 2 8 48.36 1.29
1 -2 -8 42.81 1.14
1 -2 -8 44.2 1.27
-1 2 8 43.29 1.11
-1 2 8 42.83 1.01
0 -2 -8 46.82 1.22
0 -2 -8 49.03 1.37
0 -2 -8 44.1 1.22
0 2 8 51.8 1.2
0 2 8 51.31 1.31
-1 -2 -8 8.74 0.3
-1 -2 -8 8.92 0.25
-1 -2 -8 8.98 0.31
1 2 8 9.24 0.29
1 2 8 8.82 0.35
1 2 8 9.39 0.25
-2 -2 -8 1.7 0.18
-2 -2 -8 1.5 0.12
-2 -2 -8 1.8 0.11
2 2 8 1.83 0.15
2 2 8 2.04 0.19
2 2 8 1.81 0.14
2 2 8 1.64 0.16
-3 -2 -8 104.4 2.39
-3 -2 -8 103.67 2.61
3 2 8 105.1 2.7
3 2 8 104.47 2.68
-4 -2 -8 17.72 0.5
-4 -2 -8 17.63 0.44
4 2 8 18.34 0.51
4 2 8 18.41 0.52
-5 -2 -8 0 0.1
-5 -2 -8 0.17 0.06
5 2 8 0.15 0.09
5 2 8 0.14 0.08
5 2 8 0.15 0.11
5 2 8 0.23 0.08
5 2 8 0.18 0.09
4 -3 -8 3.2 0.19
4 -3 -8 3.52 0.18
3 -3 -8 25.47 0.77
3 -3 -8 25.29 0.7
-3 3 8 26.06 0.65
2 -3 -8 0.89 0.1
2 -3 -8 0.58 0.11
-2 3 8 0.58 0.16
-2 3 8 0.86 0.12
1 -3 -8 19.35 0.59
1 -3 -8 18.33 0.52
-1 3 8 19.4 0.49
-1 3 8 19.38 0.54
0 -3 -8 33.97 0.93
0 -3 -8 35.52 0.92
0 -3 -8 34.48 1.04
0 3 8 38.79 1.01
0 3 8 39.56 0.92
-1 -3 -8 0.34 0.11
-1 -3 -8 0.47 0.11
-1 -3 -8 0.4 0.08
1 3 8 0.37 0.13
1 3 8 0.49 0.1
1 3 8 0.51 0.07
-2 -3 -8 34.53 0.92
-2 -3 -8 35.66 0.97
-2 -3 -8 36.04 0.83
2 3 8 37.34 0.87
2 3 8 38.59 0.98
2 3 8 37.39 0.96
2 3 8 35.69 1
-3 -3 -8 25.87 0.61
-3 -3 -8 25.19 0.69
3 3 8 26.34 0.73
3 3 8 27.85 0.74
-4 -3 -8 1.07 0.12
4 3 8 1.28 0.11
4 3 8 1.44 0.14
-5 -3 -8 0.61 0.06
-5 -3 -8 0.83 0.11
5 3 8 0.84 0.11
5 3 8 0.85 0.08
5 3 8 0.74 0.09
5 3 8 0.85 0.08
5 3 8 0.95 0.08
4 -4 -8 3.18 0.18
4 -4 -8 3.38 0.16
-4 4 8 3.29 0.19
3 -4 -8 15.68 0.46
3 -4 -8 11.9 0.41
-3 4 8 12.31 0.34
2 -4 -8 0.7 0.12
2 -4 -8 0.7 0.1
-2 4 8 0.68 0.1
-2 4 8 0.83 0.14
1 -4 -8 54.54 1.56
1 -4 -8 53.87 1.42
-1 4 8 55.05 1.29
-1 4 8 55.88 1.41
0 -4 -8 36.56 0.96
0 -4 -8 36.12 0.96
0 -4 -8 36 1.07
0 4 8 38.96 1
0 4 8 38.84 0.91
-1 -4 -8 0.91 0.13
-1 -4 -8 0.93 0.13
-1 -4 -8 1.35 0.09
1 4 8 0.93 0.1
1 4 8 1.01 0.08
1 4 8 1.03 0.18
-2 -4 -8 6.66 0.26
-2 -4 -8 6.64 0.2
-2 -4 -8 6.68 0.34
2 4 8 7.02 0.26
2 4 8 6.73 0.24
2 4 8 6.37 0.22
-3 -4 -8 1.92 0.12
-3 -4 -8 2.4 0.18
3 4 8 1.83 0.17
3 4 8 2.49 0.17
-4 -4 -8 20.72 0.51
-4 -4 -8 21 0.58
4 4 8 22.73 0.62
4 4 8 22.44 0.62
4 4 8 22.34 0.54
-5 -4 -8 20.77 0.56
-5 -4 -8 20.38 0.49
5 4 8 21.81 0.58
5 4 8 22.12 0.43
5 4 8 21.51 0.59
5 4 8 22.35 0.53
5 4 8 22.27 0.45
4 -5 -8 1.58 0.15
4 -5 -8 1.5 0.12
-4 5 8 1.6 0.12
3 -5 -8 10.59 0.34
3 -5 -8 11.31 0.38
-3 5 8 11.54 0.39
-3 5 8 12.03 0.32
2 -5 -8 27.45 0.72
2 -5 -8 26.26 0.81
-2 5 8 29.68 0.78
-2 5 8 29.08 0.7
1 -5 -8 0.88 0.13
1 -5 -8 0.91 0.11
-1 5 8 0.93 0.11
-1 5 8 0.91 0.08
0 -5 -8 25.23 0.69
0 -5 -8 24.84 0.69
0 -5 -8 24.94 0.77
0 5 8 26.46 0.71
0 5 8 27.16 0.64
-1 -5 -8 4.62 0.24
-1 -5 -8 4.29 0.24
-1 -5 -8 4.53 0.16
1 5 8 4.81 0.21
1 5 8 5.29 0.3
1 5 8 5.36 0.17
-2 -5 -8 29.73 0.84
2 5 8 34.05 0.91
2 5 8 33.25 0.87
-3 -5 -8 24.59 0.59
-3 -5 -8 23.7 0.66
3 5 8 26.43 0.71
3 5 8 26.37 0.73
-4 -5 -8 0 0.06
-4 -5 -8 0.12 0.1
4 5 8 -0.02 0.08
4 5 8 -0.06 0.12
4 5 8 -0.03 0.09
-5 -5 -8 23.36 0.56
-5 -5 -8 23.88 0.64
5 5 8 24.4 0.57
5 5 8 24.56 0.5
5 5 8 24.45 0.65
5 5 8 25.45 0.59
5 5 8 24.71 0.48
5 5 8 23.77 0.64
4 -6 -8 67.94 1.73
-4 6 8 71.26 1.63
3 -6 -8 26.69 0.7
3 -6 -8 25.42 0.78
-3 6 8 28.16 0.74
-3 6 8 28.52 0.67
2 -6 -8 41.31 1.07
2 -6 -8 40.33 1.2
-2 6 8 42.74 1.01
-2 6 8 43.28 1.11
1 -6 -8 35.85 0.94
1 -6 -8 34.58 1.05
-1 6 8 36.85 0.88
-1 6 8 38.17 0.97
0 -6 -8 56.47 1.65
0 -6 -8 57.52 1.46
0 -6 -8 57.27 1.5
0 6 8 61.82 1.44
0 6 8 62.56 1.58
-1 -6 -8 4.42 0.24
-1 -6 -8 4.47 0.17
-1 -6 -8 4.64 0.24
1 6 8 4.75 0.2
1 6 8 4.77 0.27
1 6 8 4.7 0.16
-2 -6 -8 42 1
-2 -6 -8 42.79 1.17
-2 -6 -8 43.64 1.12
2 6 8 46.24 1.23
2 6 8 46.26 1.18
-3 -6 -8 68.07 1.74
3 6 8 72.49 1.6
3 6 8 73.42 1.9
-4 -6 -8 24.37 0.67
-4 -6 -8 23.9 0.58
4 6 8 25.03 0.59
4 6 8 24.9 0.68
-5 -6 -8 9.21 0.32
-5 -6 -8 9.41 0.25
5 6 8 9.8 0.23
5 6 8 9.82 0.27
5 6 8 9.8 0.22
5 6 8 9.92 0.28
3 -7 -8 126.38 3.22
-3 7 8 128.48 2.9
-3 7 8 125.89 3.16
2 -7 -8 8.4 0.28
2 -7 -8 8.68 0.27
2 -7 -8 7.95 0.33
-2 7 8 8.72 0.27
-2 7 8 7.16 0.23
1 -7 -8 24.37 0.76
1 -7 -8 24.8 0.68
-1 7 8 25.66 0.69
-1 7 8 26.04 0.62
0 -7 -8 1.17 0.15
0 -7 -8 0.85 0.11
0 7 8 1.06 0.08
0 7 8 1.72 0.15
0 7 8 1.19 0.22
-1 -7 -8 76.87 2.01
-1 -7 -8 77.29 1.95
-1 -7 -8 77.18 1.77
1 7 8 82.86 1.9
1 7 8 82.42 2.15
1 7 8 82.76 2.08
-2 -7 -8 0.09 0.2
-2 -7 -8 -0.01 0.06
-2 -7 -8 0.1 0.11
2 7 8 0.04 0.1
2 7 8 0.16 0.1
-3 -7 -8 2.94 0.21
-3 -7 -8 2.99 0.14
3 7 8 3.14 0.18
3 7 8 2.84 0.19
-4 -7 -8 3.23 0.23
-4 -7 -8 3.23 0.14
4 7 8 3.04 0.18
4 7 8 3.76 0.17
4 7 8 3.35 0.18
4 7 8 3.48 0.15
4 7 8 3.23 0.15
-5 -7 -8 4.45 0.14
-5 -7 -8 4.26 0.22
5 7 8 4.68 0.14
5 7 8 4.67 0.13
5 7 8 4.1 0.19
3 -8 -8 23.86 0.63
-3 8 8 24.87 0.57
-3 8 8 24.32 0.63
2 -8 -8 0.68 0.09
2 -8 -8 0.55 0.08
-2 8 8 0.63 0.06
-2 8 8 0.56 0.09
1 -8 -8 0.02 0.08
-1 8 8 0.16 0.06
-1 8 8 -0.02 0.08
0 -8 -8 38.16 1.01
0 -8 -8 40.2 1.05
0 8 8 43.23 1
0 8 8 42.47 1.17
0 8 8 42.63 1.1
-1 -8 -8 6.87 0.29
-1 -8 -8 7.02 0.27
1 8 8 7.24 0.3
1 8 8 7.28 0.21
1 8 8 6.96 0.24
-2 -8 -8 0.57 0.07
-2 -8 -8 0.09 0.17
-2 -8 -8 0.51 0.11
2 8 8 0.32 0.11
2 8 8 0.52 0.12
2 8 8 0.12 0.16
2 8 8 0.15 0.1
2 8 8 0.18 0.13
-3 -8 -8 6.07 0.25
-3 -8 -8 5.94 0.19
3 8 8 6.72 0.24
3 8 8 6.59 0.19
3 8 8 6.56 0.2
3 8 8 6.32 0.22
3 8 8 6.63 0.24
-4 -8 -8 0.05 0.11
-4 -8 -8 0.09 0.06
4 8 8 0.13 0.07
4 8 8 0.08 0.09
4 8 8 0.08 0.07
4 8 8 0.14 0.08
4 8 8 0.05 0.09
-5 -8 -8 38.95 1
-5 -8 -8 39.09 0.9
5 8 8 41.46 0.77
5 8 8 41.55 0.81
2 -9 -8 5.42 0.18
2 -9 -8 5.24 0.19
-2 9 8 5.53 0.19
-2 9 8 5.38 0.16
1 -9 -8 3.23 0.17
-1 9 8 3.27 0.13
-1 9 8 3.21 0.16
0 -9 -8 0.13 0.1
0 9 8 0.11 0.08
0 9 8 0.11 0.19
0 9 8 0.17 0.07
-1 -9 -8 64.3 1.69
-1 -9 -8 64.71 1.63
1 9 8 70.7 1.82
1 9 8 68.03 1.74
-2 -9 -8 0.66 0.07
-2 -9 -8 0.76 0.2
-2 -9 -8 0.61 0.11
2 9 8 0.1 0.13
2 9 8 0.58 0.1
-3 -9 -8 8.81 0.24
-3 -9 -8 9.22 0.31
3 9 8 9.61 0.3
3 9 8 9.07 0.24
3 9 8 9.27 0.25
-4 -9 -8 36.03 0.93
-4 -9 -8 36.19 0.84
4 9 8 38.72 0.76
4 9 8 38.24 0.72
4 9 8 38.58 1.01
-5 -9 -8 18.91 0.51
-5 -9 -8 19.38 0.45
5 9 8 20.17 0.4
5 9 8 20.16 0.38
1 -10 -8 0.2 0.08
1 -10 -8 0.37 0.08
-1 10 8 0.38 0.07
-1 10 8 0.36 0.06
0 -10 -8 21.34 0.59
0 10 8 23.87 0.62
0 10 8 23.42 0.68
-1 -10 -8 0.22 0.12
-1 -10 -8 0.39 0.1
1 10 8 0.25 0.09
1 10 8 0.18 0.12
-2 -10 -8 48.72 1.15
-2 -10 -8 50.98 1.34
-2 -10 -8 50.7 1.28
2 10 8 53.44 1.4
-3 -10 -8 0.62 0.06
-3 -10 -8 0.76 0.1
3 10 8 0.88 0.09
-4 -10 -8 0.76 0.09
-4 -10 -8 0.91 0.08
4 10 8 0.79 0.09
4 10 8 0.96 0.1
4 10 8 0.9 0.07
1 -11 -8 29.62 0.76
1 -11 -8 28.34 0.76
-1 11 8 30.88 0.78
0 -11 -8 2.17 0.13
0 11 8 2.38 0.12
0 11 8 2.63 0.27
-1 -11 -8 13.59 0.4
-1 -11 -8 13.46 0.39
1 11 8 14.81 0.43
-2 -11 -8 18.16 0.48
-2 -11 -8 17.76 0.57
2 11 8 18.75 0.52
-3 -11 -8 14.59 0.4
3 11 8 14.68 0.41
-1 -12 -8 1.27 0.12
1 12 8 1.54 0.15
-2 -12 -8 2.65 0.15
2 12 8 3.01 0.14
2 7 -9 6.66 0.24
-2 -7 9 7.02 0.24
-2 -7 9 7.05 0.19
1 7 -9 2.21 0.12
1 7 -9 2.2 0.18
-1 -7 9 2.1 0.13
-1 -7 9 2.45 0.09
0 7 -9 23.81 0.63
0 -7 9 25.16 0.65
-1 7 -9 0.05 0.07
1 -7 9 -0.08 0.08
3 6 -9 20.46 0.41
3 6 -9 20.87 0.61
-3 -6 9 20.94 0.5
2 6 -9 0.52 0.06
2 6 -9 0.94 0.1
-2 -6 9 0.53 0.1
-2 -6 9 0.56 0.06
1 6 -9 1.28 0.11
1 6 -9 1.38 0.13
-1 -6 9 1.32 0.09
-1 -6 9 1.29 0.1
0 6 -9 6.1 0.21
0 -6 9 5.96 0.17
0 -6 9 5.95 0.2
-1 6 -9 7.89 0.25
1 -6 9 7.67 0.24
1 -6 9 8.18 0.39
-2 6 -9 21.29 0.57
2 -6 9 22.25 0.61
4 5 -9 12.96 0.27
4 5 -9 12.94 0.4
3 5 -9 2.05 0.15
3 5 -9 1.89 0.1
-3 -5 9 2.49 0.14
2 5 -9 1.63 0.11
2 5 -9 1.78 0.17
-2 -5 9 1.48 0.12
-2 -5 9 1.74 0.12
1 5 -9 1.13 0.13
1 5 -9 1.22 0.09
1 5 -9 1.14 0.1
-1 -5 9 1.17 0.11
-1 -5 9 1.19 0.11
0 5 -9 15.68 0.46
0 5 -9 16.39 0.54
0 -5 9 16.6 0.41
0 -5 9 16.6 0.46
-1 5 -9 0.19 0.09
1 -5 9 0.12 0.07
1 -5 9 0.04 0.08
1 -5 9 0.08 0.18
-2 5 -9 10.29 0.32
2 -5 9 9.9 0.31
2 -5 9 10.23 0.32
4 4 -9 24.19 0.48
4 4 -9 24.57 0.72
3 4 -9 3.82 0.19
3 4 -9 3.72 0.13
-3 -4 9 4.06 0.19
2 4 -9 28.96 0.86
2 4 -9 28.69 0.58
-2 -4 9 29.18 0.8
-2 -4 9 30.71 0.72
1 4 -9 2.72 0.19
1 4 -9 2.81 0.13
1 4 -9 2.61 0.15
-1 -4 9 2.68 0.18
-1 -4 9 2.74 0.13
0 4 -9 20.75 0.57
0 4 -9 20.64 0.65
0 -4 9 21.64 0.52
0 -4 9 21.52 0.58
-1 4 -9 19.19 0.54
1 -4 9 21.22 0.63
1 -4 9 20.04 0.49
1 -4 9 20.72 0.56
-2 4 -9 4.71 0.21
-2 4 -9 4.72 0.22
2 -4 9 4.73 0.2
2 -4 9 4.8 0.22
-3 4 -9 12.41 0.44
-3 4 -9 13.03 0.36
3 -4 9 13.79 0.39
4 3 -9 11.46 0.37
4 3 -9 11.41 0.25
3 3 -9 40.27 1.16
3 3 -9 39.6 0.79
-3 -3 9 40.97 0.97
2 3 -9 24.29 0.5
2 3 -9 23.69 0.64
2 3 -9 24.26 0.73
-2 -3 9 24.69 0.6
-2 -3 9 24.98 0.68
1 3 -9 40.59 1.05
1 3 -9 40.22 0.79
1 3 -9 39.12 1.17
-1 -3 9 41.4 1.05
-1 -3 9 40.1 0.96
0 3 -9 47.48 1.25
0 3 -9 46.9 1.38
0 3 -9 47.66 0.93
0 -3 9 51.1 1.17
0 -3 9 49.46 1.28
-1 3 -9 15.12 0.45
-1 3 -9 15.47 0.45
1 -3 9 15.25 0.51
1 -3 9 15.58 0.39
1 -3 9 15.87 0.44
-2 3 -9 20.48 0.61
-2 3 -9 22.94 0.59
2 -3 9 22.87 0.64
2 -3 9 23 0.61
-3 3 -9 3.01 0.28
-3 3 -9 3.3 0.17
3 -3 9 3.35 0.17
-4 3 -9 16.82 0.45
4 -3 9 17.12 0.46
4 2 -9 27.85 0.58
4 2 -9 29.63 0.85
3 2 -9 2.39 0.13
3 2 -9 2.79 0.19
2 2 -9 0.5 0.08
2 2 -9 0.78 0.12
2 2 -9 0.5 0.09
-2 -2 9 1.06 0.16
-2 -2 9 0.68 0.11
1 2 -9 84.24 1.65
1 2 -9 88.71 2.2
1 2 -9 82.71 2.42
-1 -2 9 83.97 1.93
-1 -2 9 83.66 2.11
0 2 -9 86.79 1.67
0 2 -9 85.92 2.46
0 2 -9 86.73 2.24
0 -2 9 90.54 2.11
0 -2 9 93.24 2.3
-1 2 -9 1.55 0.16
-1 2 -9 1.66 0.14
1 -2 9 1.65 0.15
1 -2 9 1.68 0.19
1 -2 9 1.67 0.11
-2 2 -9 14.64 0.45
-2 2 -9 14.4 0.42
2 -2 9 15.28 0.44
2 -2 9 15.71 0.46
-3 2 -9 38.57 1.05
-3 2 -9 37.79 0.89
-3 2 -9 38.99 0.99
3 -2 9 40.54 1.07
-4 2 -9 9.27 0.28
4 -2 9 9.51 0.28
4 1 -9 69.66 1.99
3 1 -9 12.94 0.3
3 1 -9 13.77 0.44
2 1 -9 4.22 0.19
2 1 -9 4.59 0.22
2 1 -9 4.49 0.16
-2 -1 9 4.37 0.3
-2 -1 9 4.5 0.22
1 1 -9 0.01 0.08
1 1 -9 0.06 0.11
1 1 -9 0.05 0.07
-1 -1 9 0 0.11
-1 -1 9 0.22 0.08
0 1 -9 320.23 6.17
0 1 -9 322.01 8.27
0 1 -9 331.12 9.11
0 -1 9 328.75 8.08
0 -1 9 324.28 7.42
-1 1 -9 65.84 1.67
-1 1 -9 66.16 1.72
1 -1 9 66.59 1.75
1 -1 9 64.23 1.53
1 -1 9 68.12 1.68
-2 1 -9 21.37 0.52
-2 1 -9 22.07 0.62
-2 1 -9 21.28 0.59
2 -1 9 22.34 0.61
2 -1 9 23.09 0.64
-3 1 -9 0.12 0.21
-3 1 -9 0.09 0.1
-3 1 -9 0.11 0.06
3 -1 9 0.24 0.1
-4 1 -9 22.02 0.52
-4 1 -9 21.82 0.58
4 -1 9 22.91 0.62
4 0 -9 75.3 2.14
3 0 -9 0.08 0.1
3 0 -9 0.07 0.1
2 0 -9 124.9 3.18
2 0 -9 125.22 2.38
2 0 -9 122.86 3.52
-2 0 9 129.18 3.22
-2 0 9 128.39 2.95
1 0 -9 18.66 0.39
1 0 -9 17.45 0.56
1 0 -9 17.79 0.5
-1 0 9 19.39 0.54
-1 0 9 19.17 0.48
0 0 -9 3.29 0.17
0 0 9 3.66 0.2
0 0 9 3.76 0.15
-1 0 -9 144.75 3.72
-1 0 -9 145.28 3.61
1 0 9 154.08 3.76
1 0 9 146.05 3.45
1 0 9 153.41 3.89
-2 0 -9 90.43 2.34
-2 0 -9 89.94 2.07
-2 0 -9 90.22 2.27
2 0 9 93.13 2.32
2 0 9 92.56 2.12
2 0 9 92.23 2.4
-3 0 -9 0.22 0.1
-3 0 -9 0.11 0.18
-3 0 -9 0.22 0.06
3 0 9 0.2 0.1
-4 0 -9 47.92 1.21
-4 0 -9 46.47 1.09
4 0 9 49 1.28
-5 0 -9 40.22 0.94
-5 0 -9 42.17 1.04
4 -1 -9 9.03 0.31
3 -1 -9 0.28 0.1
2 -1 -9 2.97 0.17
2 -1 -9 2.49 0.19
2 -1 -9 2.72 0.17
-2 1 9 2.92 0.2
-2 1 9 3.3 0.29
1 -1 -9 65.75 1.3
1 -1 -9 65.49 1.73
1 -1 -9 69.68 1.92
-1 1 9 69.71 1.59
-1 1 9 67.75 1.74
0 -1 -9 2.58 0.16
0 1 9 2.68 0.18
0 1 9 2.89 0.14
-1 -1 -9 17.15 0.49
-1 -1 -9 16.4 0.48
1 1 9 17.6 0.43
1 1 9 17.15 0.48
1 1 9 17.21 0.54
-2 -1 -9 117.47 2.92
-2 -1 -9 115.05 2.66
-2 -1 -9 117.09 3.01
2 1 9 119.35 2.98
2 1 9 119.17 2.72
2 1 9 119.61 3.08
-3 -1 -9 220.7 5.58
-3 -1 -9 216.55 5.41
-3 -1 -9 215.99 4.96
-4 -1 -9 1.01 0.12
-4 -1 -9 1.27 0.1
4 1 9 1.17 0.1
-5 -1 -9 2.82 0.15
-5 -1 -9 2.78 0.1
4 -2 -9 0.65 0.1
3 -2 -9 20.34 0.6
3 -2 -9 21.39 0.65
2 -2 -9 58.21 1.56
2 -2 -9 61.64 1.73
2 -2 -9 60.08 1.55
-2 2 9 62.12 1.59
-2 2 9 62.86 1.45
1 -2 -9 0.61 0.09
1 -2 -9 0.47 0.13
-1 2 9 0.51 0.12
-1 2 9 0.61 0.09
0 -2 -9 76.82 2.21
0 -2 -9 77.75 2
0 2 9 79.83 1.84
0 2 9 80.47 2.02
-1 -2 -9 8.36 0.29
1 2 9 8.74 0.24
1 2 9 7.98 0.36
1 2 9 8.59 0.28
-2 -2 -9 55.19 1.27
-2 -2 -9 54.97 1.45
-2 -2 -9 54.51 1.4
2 2 9 58.2 1.51
2 2 9 57.21 1.33
2 2 9 57.19 1.46
-3 -2 -9 36.66 0.97
-3 -2 -9 38.31 0.88
-3 -2 -9 36.62 1.04
-4 -2 -9 5.84 0.24
-4 -2 -9 5.71 0.18
4 2 9 5.74 0.25
4 2 9 6.19 0.22
-5 -2 -9 0.44 0.05
-5 -2 -9 0.36 0.09
5 2 9 0.56 0.07
5 2 9 0.52 0.09
5 2 9 0.35 0.11
5 2 9 0.38 0.09
4 -3 -9 12.37 0.37
4 -3 -9 12.6 0.4
3 -3 -9 27.52 0.77
3 -3 -9 29.3 0.85
-3 3 9 29.88 0.73
2 -3 -9 76.87 1.98
2 -3 -9 78.57 1.98
2 -3 -9 75.2 2.2
-2 3 9 81.8 2.07
-2 3 9 82.55 1.9
1 -3 -9 0.63 0.1
1 -3 -9 0.34 0.13
-1 3 9 0.02 0.11
-1 3 9 0.07 0.08
0 -3 -9 0.14 0.19
0 -3 -9 0.08 0.09
0 3 9 0.15 0.1
0 3 9 0.18 0.07
-1 -3 -9 46.37 1.22
-1 -3 -9 47.56 1.11
-1 -3 -9 49.85 1.27
1 3 9 52.27 1.18
1 3 9 50.75 1.3
1 3 9 50.18 1.36
-2 -3 -9 83.53 2.16
-2 -3 -9 87.46 1.97
-2 -3 -9 86 2.23
2 3 9 87.84 2.04
2 3 9 88.47 2.23
2 3 9 91 2.31
-3 -3 -9 8.33 0.23
-3 -3 -9 8.07 0.29
3 3 9 8.41 0.29
-4 -3 -9 7.06 0.27
-4 -3 -9 8.27 0.22
4 3 9 9.55 0.3
4 3 9 8.96 0.3
-5 -3 -9 73.04 1.67
-5 -3 -9 72.91 1.83
5 3 9 78.4 1.44
5 3 9 79.16 1.75
5 3 9 77.5 1.5
5 3 9 77.09 1.99
4 -4 -9 2.78 0.16
4 -4 -9 2.89 0.16
-4 4 9 3.17 0.17
3 -4 -9 4.51 0.22
3 -4 -9 3.92 0.2
-3 4 9 4.51 0.19
2 -4 -9 13.83 0.39
2 -4 -9 13.31 0.41
2 -4 -9 13.76 0.46
-2 4 9 14.07 0.43
-2 4 9 14.25 0.37
1 -4 -9 0.02 0.11
1 -4 -9 0.04 0.09
-1 4 9 0.06 0.07
-1 4 9 0.13 0.1
0 -4 -9 9.68 0.3
0 -4 -9 7.97 0.37
0 4 9 8.62 0.29
0 4 9 8.66 0.24
-1 -4 -9 79.19 1.82
-1 -4 -9 80.02 2.06
-1 -4 -9 78.69 2
1 4 9 83.08 1.92
1 4 9 83.85 2.19
1 4 9 84.49 2.1
-2 -4 -9 0.1 0.1
-2 -4 -9 0.09 0.15
2 4 9 0.07 0.11
2 4 9 0.01 0.09
2 4 9 -0.03 0.09
-3 -4 -9 5.09 0.23
-3 -4 -9 5.01 0.17
3 4 9 5.68 0.23
-4 -4 -9 40.13 0.88
-4 -4 -9 34.9 0.98
4 4 9 43.06 1.12
4 4 9 41.72 1.11
-5 -4 -9 3.82 0.13
5 4 9 3.96 0.16
5 4 9 4.07 0.17
5 4 9 4.16 0.14
5 4 9 4.39 0.13
4 -5 -9 41.15 1.06
4 -5 -9 40.84 1.17
-4 5 9 42.68 0.99
3 -5 -9 14.92 0.48
3 -5 -9 15.06 0.43
-3 5 9 16.28 0.42
-3 5 9 17.11 0.49
2 -5 -9 0.31 0.12
2 -5 -9 0.46 0.09
-2 5 9 0.18 0.08
-2 5 9 0.27 0.11
1 -5 -9 3.65 0.22
1 -5 -9 3.43 0.18
-1 5 9 3.83 0.2
-1 5 9 3.9 0.16
0 -5 -9 0.49 0.17
0 -5 -9 0.49 0.17
0 -5 -9 0.64 0.11
0 5 9 0.64 0.1
0 5 9 0.68 0.07
-1 -5 -9 63.42 1.48
-1 -5 -9 65.72 1.69
-1 -5 -9 64.11 1.64
1 5 9 70.37 1.61
1 5 9 69.34 1.85
1 5 9 70.76 1.77
-2 -5 -9 89.07 2.27
-2 -5 -9 92.06 2.06
-2 -5 -9 88.76 2.34
2 5 9 94.76 2.38
2 5 9 95.54 2.47
-3 -5 -9 5.28 0.22
-3 -5 -9 5.04 0.18
3 5 9 5.54 0.24
-4 -5 -9 12.3 0.32
4 5 9 13.22 0.39
-5 -5 -9 10.43 0.33
5 5 9 10.68 0.28
5 5 9 10.3 0.24
5 5 9 10.2 0.22
3 -6 -9 7.99 0.26
3 -6 -9 7.48 0.28
-3 6 9 8.2 0.29
-3 6 9 8.37 0.23
2 -6 -9 131.66 3.68
2 -6 -9 124.11 3.32
2 -6 -9 133.57 3.31
-2 6 9 132.58 3.03
-2 6 9 132.55 3.3
1 -6 -9 0.43 0.13
1 -6 -9 0.09 0.09
-1 6 9 0.19 0.1
-1 6 9 0.15 0.07
0 -6 -9 5.04 0.23
0 -6 -9 4.52 0.32
0 -6 -9 5.18 0.29
0 6 9 5.56 0.18
0 6 9 5.84 0.23
-1 -6 -9 0.32 0.12
-1 -6 -9 0.51 0.13
1 6 9 0.31 0.07
1 6 9 0.53 0.16
1 6 9 0.26 0.09
-2 -6 -9 29.47 0.78
-2 -6 -9 28.19 0.81
-2 -6 -9 28.43 0.68
2 6 9 31.22 0.81
2 6 9 30.87 0.85
-3 -6 -9 45.82 1.18
-3 -6 -9 44.7 1.05
3 6 9 49.17 1.3
-4 -6 -9 3.2 0.14
-4 -6 -9 3.47 0.22
4 6 9 3.32 0.17
-5 -6 -9 2.76 0.18
-5 -6 -9 2.71 0.11
5 6 9 2.64 0.14
5 6 9 2.66 0.1
5 6 9 2.96 0.11
3 -7 -9 2.14 0.13
-3 7 9 2.33 0.1
-3 7 9 2.34 0.16
2 -7 -9 94.2 2.42
2 -7 -9 95.33 2.69
2 -7 -9 93.65 2.42
-2 7 9 98.88 2.49
-2 7 9 100.66 2.29
1 -7 -9 149.87 3.92
1 -7 -9 156.01 4.33
-1 7 9 155.78 3.61
-1 7 9 160.88 3.94
0 -7 -9 19.83 0.57
0 7 9 21.86 0.53
0 7 9 22 0.59
-1 -7 -9 0.18 0.11
-1 -7 -9 0.33 0.13
1 7 9 0.09 0.13
1 7 9 0.27 0.07
1 7 9 0.18 0.09
-2 -7 -9 5.47 0.25
-2 -7 -9 5.53 0.31
-2 -7 -9 5.66 0.18
2 7 9 5.92 0.23
2 7 9 6.21 0.26
-3 -7 -9 151.59 3.47
-3 -7 -9 152.79 3.8
3 7 9 160.64 4.12
-4 -7 -9 28.43 0.69
-4 -7 -9 30.27 0.78
4 7 9 31.15 0.73
4 7 9 30.9 0.62
4 7 9 31.03 0.59
4 7 9 29.99 0.82
-5 -7 -9 4.51 0.14
-5 -7 -9 4.38 0.2
5 7 9 4.57 0.13
5 7 9 4.67 0.12
2 -8 -9 1.78 0.13
2 -8 -9 1.54 0.12
-2 8 9 1.56 0.09
-2 8 9 1.63 0.13
1 -8 -9 2.56 0.15
-1 8 9 2.63 0.16
-1 8 9 2.87 0.12
0 -8 -9 12.23 0.38
0 8 9 13.15 0.33
0 8 9 13.42 0.38
0 8 9 12.75 0.51
-1 -8 -9 40.6 1.09
-1 -8 -9 40.56 1.05
1 8 9 42.94 1.14
1 8 9 42.67 1.09
1 8 9 41.61 0.98
-2 -8 -9 8.29 0.23
-2 -8 -9 8.39 0.29
-2 -8 -9 8.12 0.35
2 8 9 8.81 0.26
2 8 9 9.04 0.29
2 8 9 9.14 0.28
2 8 9 8.82 0.33
2 8 9 9.22 0.31
-3 -8 -9 0.14 0.07
-3 -8 -9 0.14 0.11
3 8 9 0.33 0.1
3 8 9 0.26 0.12
3 8 9 0.25 0.1
3 8 9 0.22 0.09
-4 -8 -9 25.88 0.68
-4 -8 -9 25.14 0.6
4 8 9 26.76 0.51
4 8 9 26.48 0.71
4 8 9 26.74 0.54
4 8 9 26.75 0.63
-5 -8 -9 6.83 0.23
-5 -8 -9 6.73 0.18
5 8 9 7.22 0.16
5 8 9 7.17 0.17
2 -9 -9 -0.11 0.07
-2 9 9 -0.04 0.06
-2 9 9 0.12 0.05
1 -9 -9 1.52 0.13
-1 9 9 1.86 0.13
-1 9 9 1.75 0.1
0 -9 -9 11.84 0.36
0 9 9 13.47 0.49
0 9 9 13.07 0.33
0 9 9 13 0.37
-1 -9 -9 93.24 2.39
-1 -9 -9 98.11 2.48
1 9 9 101.58 2.57
1 9 9 104.58 2.67
-2 -9 -9 9.15 0.31
-2 -9 -9 9.12 0.37
-2 -9 -9 8.82 0.25
2 9 9 9.65 0.33
-3 -9 -9 16.21 0.4
-3 -9 -9 16.74 0.47
3 9 9 17.52 0.39
3 9 9 17.62 0.49
3 9 9 17.46 0.37
-4 -9 -9 6.4 0.22
-4 -9 -9 6.29 0.18
4 9 9 6.67 0.18
4 9 9 7.18 0.22
4 9 9 6.67 0.17
1 -10 -9 9.46 0.27
1 -10 -9 9.2 0.27
-1 10 9 9.98 0.28
0 -10 -9 0.01 0.07
0 10 9 0.03 0.07
0 10 9 0.06 0.2
-1 -10 -9 28.54 0.75
-1 -10 -9 29.18 0.78
1 10 9 31.54 0.84
1 10 9 30.49 0.79
-2 -10 -9 100.13 2.55
-2 -10 -9 97.13 2.46
2 10 9 104.86 2.7
-3 -10 -9 47.51 1.19
-3 -10 -9 46.19 1.07
3 10 9 51.85 1.35
-4 -10 -9 4.83 0.14
-4 -10 -9 4.98 0.18
4 10 9 5.2 0.17
0 -11 -9 0.06 0.07
0 -11 -9 0.11 0.07
0 11 9 0 0.07
-1 -11 -9 1.65 0.16
1 11 9 1.86 0.17
-2 -11 -9 60.88 1.5
-2 -11 -9 59.46 1.58
2 11 9 66.74 1.72
-3 -11 -9 7.85 0.24
3 11 9 7.97 0.24
2 6 -10 6.86 0.25
-2 -6 10 7.44 0.25
-2 -6 10 7.5 0.2
1 6 -10 1.04 0.17
-1 -6 10 1.2 0.08
-1 -6 10 1.14 0.09
0 6 -10 0.79 0.07
0 -6 10 0.72 0.08
0 -6 10 0.85 0.06
-1 6 -10 9.57 0.28
1 -6 10 11.26 0.31
3 5 -10 0.04 0.05
3 5 -10 0.02 0.08
-3 -5 10 0.03 0.07
2 5 -10 1.66 0.15
2 5 -10 1.61 0.1
-2 -5 10 1.69 0.1
-2 -5 10 1.73 0.12
1 5 -10 14.99 0.48
1 5 -10 15.2 0.41
-1 -5 10 16.06 0.39
-1 -5 10 16.05 0.44
0 5 -10 0.42 0.08
0 -5 10 0.47 0.06
0 -5 10 0.41 0.08
-1 5 -10 5.45 0.2
1 -5 10 5.56 0.19
-2 5 -10 6.31 0.22
2 -5 10 6.21 0.25
3 4 -10 0.16 0.06
3 4 -10 0.15 0.08
-3 -4 10 0.27 0.08
2 4 -10 29.88 0.88
2 4 -10 29.98 0.6
-2 -4 10 30.73 0.72
-2 -4 10 30.42 0.8
1 4 -10 0.32 0.08
1 4 -10 0.37 0.07
1 4 -10 0.3 0.12
-1 -4 10 0.3 0.07
-1 -4 10 0.39 0.1
0 4 -10 4.98 0.2
0 -4 10 5.23 0.21
0 -4 10 5.13 0.16
-1 4 -10 0.13 0.08
1 -4 10 0.09 0.08
1 -4 10 0.05 0.06
1 -4 10 0.15 0.21
-2 4 -10 25.82 0.7
2 -4 10 26.55 0.69
2 -4 10 27.25 0.73
3 -4 10 5.58 0.19
4 3 -10 16.43 0.49
3 3 -10 31.22 0.62
3 3 -10 31.11 0.91
-3 -3 10 32.52 0.77
2 3 -10 -0.01 0.1
2 3 -10 0.05 0.07
-2 -3 10 0.04 0.08
-2 -3 10 0.18 0.13
1 3 -10 4.01 0.17
1 3 -10 3.84 0.22
1 3 -10 4.29 0.15
-1 -3 10 4.07 0.2
-1 -3 10 4.19 0.15
0 3 -10 2.13 0.14
0 -3 10 2.23 0.16
0 -3 10 2.35 0.12
-1 3 -10 3.67 0.18
1 -3 10 3.6 0.13
1 -3 10 3.15 0.33
1 -3 10 3.46 0.18
-2 3 -10 0.44 0.11
-2 3 -10 0.32 0.11
2 -3 10 0.27 0.11
2 -3 10 0.27 0.09
-3 3 -10 22.48 0.59
-3 3 -10 22.81 0.65
3 -3 10 24.28 0.65
4 2 -10 11.88 0.37
3 2 -10 37.69 1.1
3 2 -10 37.92 0.75
-3 -2 10 36.97 0.87
-2 -2 10 0.12 0.15
-2 -2 10 -0.02 0.08
1 2 -10 81.15 2.33
1 2 -10 82.19 1.58
1 2 -10 81.95 2.11
-1 -2 10 83.38 2.08
-1 -2 10 82.01 1.9
0 2 -10 75.59 1.96
0 -2 10 79.11 1.82
0 -2 10 79.05 1.99
1 -2 10 6.64 0.2
1 -2 10 6.87 0.24
1 -2 10 7.02 0.34
-2 2 -10 2.69 0.2
-2 2 -10 2.72 0.19
2 -2 10 2.8 0.21
2 -2 10 2.84 0.17
-3 2 -10 0.05 0.09
-3 2 -10 -0.08 0.16
3 -2 10 0.02 0.08
4 1 -10 16.32 0.5
3 1 -10 0.7 0.09
3 1 -10 0.84 0.12
-3 -1 10 0.67 0.13
2 1 -10 9.1 0.23
2 1 -10 9.35 0.34
-2 -1 10 9.25 0.28
-2 -1 10 9.39 0.35
1 1 -10 75.59 2.16
1 1 -10 75.68 1.96
1 1 -10 76.35 1.47
-1 -1 10 77.59 1.97
-1 -1 10 79.19 1.81
0 1 -10 94.43 2.44
0 -1 10 101.38 2.34
0 -1 10 102.73 2.56
-1 1 -10 4.13 0.2
-1 1 -10 4 0.24
1 -1 10 4.04 0.3
1 -1 10 3.86 0.19
1 -1 10 4.08 0.14
-2 1 -10 16.11 0.48
-2 1 -10 16.07 0.46
2 -1 10 16.3 0.48
2 -1 10 15.72 0.45
-3 1 -10 4.59 0.29
-3 1 -10 4.48 0.2
3 -1 10 4.74 0.2
-4 1 -10 16.25 0.44
4 -1 10 17.08 0.46
4 0 -10 0.11 0.08
3 0 -10 0.92 0.12
-3 0 10 0.93 0.13
2 0 -10 74.12 2.07
2 0 -10 72.19 1.4
2 0 -10 70.59 1.85
-2 0 10 71.22 1.66
-2 0 10 72.36 1.82
1 0 -10 20.91 0.65
1 0 -10 20.92 0.58
1 0 -10 21.45 0.44
-1 0 10 22.03 0.54
-1 0 10 22.35 0.61
0 0 -10 15.48 0.45
0 0 10 16.09 0.45
0 0 10 15.83 0.4
-1 0 -10 16.58 0.49
-1 0 -10 17.2 0.49
1 0 10 18.08 0.43
1 0 10 17.25 0.56
1 0 10 17.4 0.49
-2 0 -10 43.85 1.18
-2 0 -10 44.54 1.14
2 0 10 46.34 1.17
2 0 10 45.32 1.22
-3 0 -10 0.61 0.19
-3 0 -10 0.54 0.07
-3 0 -10 0.43 0.11
3 0 10 0.49 0.1
-4 0 -10 12.55 0.35
-4 0 -10 11.74 0.3
4 0 10 12.67 0.36
4 -1 -10 2.51 0.15
3 -1 -10 9.41 0.34
-3 1 10 9.15 0.3
2 -1 -10 51.09 1.34
2 -1 -10 52.28 1.5
-2 1 10 54.24 1.26
-2 1 10 54.21 1.39
1 -1 -10 52.07 1.5
1 -1 -10 51.4 1.35
-1 1 10 52.61 1.21
-1 1 10 51.48 1.33
0 -1 -10 42.88 1.13
0 1 10 45.93 1.17
0 1 10 45.54 1.07
-1 -1 -10 188.69 4.89
-1 -1 -10 193.07 4.74
1 1 10 202.65 5.05
1 1 10 195.74 4.89
1 1 10 192.16 4.48
-2 -1 -10 56.59 1.31
-2 -1 -10 56.63 1.44
-2 -1 -10 56.73 1.49
2 1 10 58.99 1.49
2 1 10 58.48 1.43
2 1 10 52.18 1.3
-3 -1 -10 18.42 0.58
-3 -1 -10 18.19 0.45
-3 -1 -10 18.64 0.51
3 1 10 19.68 0.56
-4 -1 -10 3.37 0.12
-4 -1 -10 3.66 0.17
4 1 10 3.83 0.16
4 -2 -10 0.02 0.08
3 -2 -10 0.42 0.11
-3 2 10 0.54 0.11
2 -2 -10 20.83 0.57
2 -2 -10 20.98 0.65
-2 2 10 21.45 0.53
-2 2 10 20.89 0.6
1 -2 -10 104.16 2.98
1 -2 -10 105.84 2.7
-1 2 10 106.95 2.44
-1 2 10 105.98 2.66
0 -2 -10 2.01 0.16
0 2 10 2.13 0.17
0 2 10 2.34 0.13
-1 -2 -10 0.18 0.09
-1 -2 -10 -0.01 0.11
1 2 10 0.14 0.06
1 2 10 0.09 0.09
1 2 10 0.33 0.18
-2 -2 -10 9.4 0.31
-2 -2 -10 9.43 0.34
2 2 10 10.22 0.34
2 2 10 9.52 0.31
2 2 10 9.73 0.27
-3 -2 -10 1.99 0.17
-3 -2 -10 2.17 0.12
-3 -2 -10 2.21 0.21
3 2 10 2.24 0.17
-4 -2 -10 9.59 0.25
-4 -2 -10 9.97 0.31
4 2 10 10.58 0.32
-5 -2 -10 7.6 0.23
-5 -2 -10 7.79 0.2
4 -3 -10 3.95 0.18
3 -3 -10 2.91 0.19
3 -3 -10 2.81 0.21
-3 3 10 3.04 0.17
2 -3 -10 6.04 0.26
2 -3 -10 6 0.21
2 -3 -10 5.68 0.26
-2 3 10 5.68 0.27
-2 3 10 6.49 0.21
1 -3 -10 9.91 0.38
1 -3 -10 10.77 0.33
-1 3 10 10.2 0.34
-1 3 10 10.73 0.29
0 -3 -10 10.68 0.34
0 3 10 11.16 0.3
0 3 10 11 0.34
-1 -3 -10 2.21 0.18
-1 -3 -10 2.49 0.23
1 3 10 2.67 0.17
1 3 10 3.13 0.22
1 3 10 2.69 0.13
-2 -3 -10 75.46 2.01
-2 -3 -10 77.82 1.76
-2 -3 -10 77.39 1.94
2 3 10 78.44 2
2 3 10 79.05 1.93
2 3 10 73.28 1.76
-3 -3 -10 0.2 0.1
-3 -3 -10 0.2 0.2
-3 -3 -10 0.19 0.07
3 3 10 0.19 0.1
-4 -3 -10 4.35 0.2
-4 -3 -10 4.32 0.15
4 3 10 5.48 0.21
-5 -3 -10 32.63 0.77
-5 -3 -10 33.8 0.85
5 3 10 33.44 0.76
5 3 10 33.05 0.65
5 3 10 33.69 0.63
4 -4 -10 2.49 0.15
3 -4 -10 6.63 0.25
3 -4 -10 6.59 0.26
-3 4 10 7.41 0.22
2 -4 -10 0.07 0.08
2 -4 -10 0.07 0.11
2 -4 -10 0.03 0.11
-2 4 10 0.46 0.12
-2 4 10 0.02 0.07
1 -4 -10 30.79 0.83
1 -4 -10 31.06 0.92
-1 4 10 31.88 0.76
-1 4 10 31.96 0.84
0 -4 -10 13.78 0.42
0 -4 -10 13.98 0.51
0 4 10 14.84 0.43
0 4 10 14.76 0.38
-1 -4 -10 158.71 3.94
-1 -4 -10 157.28 4.06
1 4 10 162.86 3.67
1 4 10 163.62 4.01
1 4 10 156.54 4.14
-2 -4 -10 4.06 0.16
-2 -4 -10 4.02 0.25
2 4 10 3.74 0.18
2 4 10 3.76 0.22
-3 -4 -10 6.86 0.37
-3 -4 -10 6.28 0.2
-3 -4 -10 6.33 0.25
3 4 10 6.69 0.26
-4 -4 -10 14.22 0.35
-4 -4 -10 13.67 0.4
4 4 10 14.84 0.43
-5 -4 -10 -0.03 0.09
-5 -4 -10 0.09 0.05
5 4 10 0.1 0.08
5 4 10 0.03 0.06
5 4 10 0.11 0.06
3 -5 -10 0.31 0.09
3 -5 -10 0.46 0.09
-3 5 10 0.51 0.07
-3 5 10 0.24 0.14
2 -5 -10 40.87 1.19
2 -5 -10 40.81 1.07
2 -5 -10 40.07 1.06
-2 5 10 43.47 1.01
-2 5 10 42.54 1.1
1 -5 -10 0.3 0.12
1 -5 -10 0.3 0.09
-1 5 10 0.37 0.1
-1 5 10 0.38 0.07
0 -5 -10 15.23 0.54
0 -5 -10 15.21 0.45
0 5 10 16.33 0.46
0 5 10 16.36 0.41
-1 -5 -10 0.56 0.12
-1 -5 -10 0.63 0.14
1 5 10 0.67 0.18
1 5 10 0.57 0.1
-2 -5 -10 1.53 0.17
-2 -5 -10 1.54 0.14
-2 -5 -10 1.79 0.12
2 5 10 1.56 0.15
2 5 10 1.7 0.15
-3 -5 -10 5.84 0.25
-3 -5 -10 5.27 0.17
-3 -5 -10 5.51 0.39
3 5 10 5.74 0.24
-4 -5 -10 101.47 2.5
-4 -5 -10 97.77 2.28
4 5 10 102.83 2.64
-5 -5 -10 1.7 0.15
-5 -5 -10 1.49 0.08
5 5 10 1.71 0.12
5 5 10 1.57 0.1
5 5 10 1.56 0.09
3 -6 -10 0.19 0.08
3 -6 -10 0.22 0.09
-3 6 10 0.63 0.06
-3 6 10 0.08 0.11
2 -6 -10 1.28 0.13
2 -6 -10 1.3 0.14
2 -6 -10 1.33 0.12
-2 6 10 1.37 0.11
-2 6 10 1.32 0.11
1 -6 -10 35.76 1.05
1 -6 -10 35.55 0.95
-1 6 10 38.32 1
-1 6 10 39.28 0.91
0 -6 -10 47.89 1.41
0 -6 -10 48.29 1.27
0 6 10 52.79 1.35
0 6 10 53.24 1.23
-1 -6 -10 6.61 0.27
-1 -6 -10 6.68 0.28
1 6 10 7.17 0.33
1 6 10 7.18 0.25
1 6 10 7.16 0.21
-2 -6 -10 20.78 0.5
-2 -6 -10 20.16 0.61
-2 -6 -10 21.13 0.58
2 6 10 23.42 0.66
2 6 10 22.95 0.62
-3 -6 -10 140.66 3.29
-3 -6 -10 147.09 3.74
-3 -6 -10 144.8 3.6
3 6 10 155.25 3.99
-4 -6 -10 1.08 0.12
-4 -6 -10 1.11 0.1
4 6 10 1.11 0.1
-5 -6 -10 7.41 0.19
-5 -6 -10 7.54 0.25
5 6 10 7.57 0.18
5 6 10 7.44 0.17
3 -7 -10 0.07 0.07
-3 7 10 0.05 0.05
2 -7 -10 18.72 0.5
2 -7 -10 18.69 0.58
2 -7 -10 18.9 0.52
-2 7 10 20.49 0.48
-2 7 10 19.87 0.54
1 -7 -10 40.2 1.17
1 -7 -10 39.51 1.05
-1 7 10 43.32 1.01
-1 7 10 43.02 1.1
0 -7 -10 2.24 0.16
0 7 10 3.03 0.16
0 7 10 2.81 0.13
-1 -7 -10 25.34 0.71
-1 -7 -10 25.34 0.68
1 7 10 27.36 0.72
1 7 10 27.21 0.64
1 7 10 27.15 0.77
-2 -7 -10 1.9 0.17
-2 -7 -10 1.75 0.13
-2 -7 -10 1.7 0.14
2 7 10 2.07 0.19
2 7 10 2.22 0.16
-3 -7 -10 53.97 1.26
-3 -7 -10 55.08 1.4
3 7 10 59.78 1.56
-4 -7 -10 13.48 0.4
-4 -7 -10 13.58 0.33
4 7 10 14.16 0.4
4 7 10 14.18 0.31
4 7 10 13.9 0.36
4 7 10 14.45 0.29
2 -8 -10 2.01 0.13
-2 8 10 1.98 0.09
-2 8 10 2.08 0.12
1 -8 -10 48.93 1.27
-1 8 10 52.17 1.2
-1 8 10 51.79 1.31
0 -8 -10 56.84 1.49
0 8 10 59.47 1.51
0 8 10 59.84 1.37
-1 -8 -10 2.18 0.21
-1 -8 -10 2.16 0.19
1 8 10 2.47 0.18
1 8 10 2.27 0.15
-2 -8 -10 1.07 0.18
-2 -8 -10 1.11 0.13
2 8 10 1.26 0.14
2 8 10 1.27 0.13
2 8 10 1.52 0.19
2 8 10 1.29 0.12
2 8 10 1.26 0.15
-3 -8 -10 22.03 0.6
-3 -8 -10 21.83 0.52
3 8 10 24.07 0.58
3 8 10 23.71 0.49
3 8 10 23.65 0.47
3 8 10 23.89 0.65
-4 -8 -10 9.58 0.3
-4 -8 -10 9.61 0.24
4 8 10 10.18 0.22
4 8 10 10.27 0.3
4 8 10 10.16 0.23
1 -9 -10 2.01 0.12
1 -9 -10 1.94 0.13
-1 9 10 2.08 0.1
-1 9 10 2.05 0.12
0 -9 -10 0.05 0.07
0 9 10 0.15 0.07
0 9 10 0 0.07
-1 -9 -10 22.39 0.62
-1 -9 -10 22.01 0.6
1 9 10 24.16 0.69
1 9 10 24.51 0.64
-2 -9 -10 27.94 0.73
-2 -9 -10 27.61 0.77
2 9 10 29.25 0.79
-3 -9 -10 4.31 0.19
-3 -9 -10 3.92 0.15
3 9 10 4.14 0.2
3 9 10 4.45 0.18
3 9 10 4.02 0.19
-4 -9 -10 67.23 1.58
-4 -9 -10 71.86 1.74
4 9 10 76.11 1.9
4 9 10 73.04 1.36
4 9 10 73.49 1.42
1 -10 -10 7.75 0.23
1 -10 -10 7.79 0.23
-1 10 10 8.34 0.24
0 -10 -10 0.23 0.08
0 10 10 0.31 0.07
-1 -10 -10 9.66 0.31
1 10 10 11.03 0.35
1 10 10 10.59 0.3
-2 -10 -10 4.82 0.19
-2 -10 -10 4.53 0.25
2 10 10 5.03 0.2
-3 -10 -10 1.98 0.13
3 10 10 2.2 0.13
-1 -11 -10 34.39 0.9
1 11 10 35.36 0.93
-2 -11 -10 -0.06 0.17
2 11 10 0.04 0.08
2 5 -11 7.32 0.28
-2 -5 11 7.54 0.27
-2 -5 11 8.08 0.2
-1 -5 11 0.15 0.07
-1 -5 11 0.08 0.05
0 5 -11 0.54 0.07
0 -5 11 0.6 0.06
0 -5 11 0.53 0.07
-1 5 -11 0.01 0.06
1 -5 11 0.06 0.07
3 4 -11 1.27 0.13
-3 -4 11 1.38 0.08
2 4 -11 1.86 0.16
-2 -4 11 1.97 0.1
-2 -4 11 1.83 0.18
1 4 -11 4.97 0.17
1 4 -11 4.99 0.29
-1 -4 11 5.38 0.16
-1 -4 11 5.28 0.2
0 4 -11 12.45 0.35
0 -4 11 13.27 0.33
0 -4 11 13.79 0.38
-1 4 -11 5.05 0.19
1 -4 11 5.32 0.19
-2 4 -11 25.55 0.68
2 -4 11 26.51 0.72
3 3 -11 0.13 0.08
-3 -3 11 0.11 0.08
2 3 -11 6.86 0.26
-2 -3 11 6.75 0.2
-2 -3 11 6.88 0.3
1 3 -11 0.53 0.15
1 3 -11 0.27 0.08
-1 -3 11 0.37 0.09
-1 -3 11 0.34 0.06
0 3 -11 10.26 0.31
0 -3 11 9.9 0.26
0 -3 11 10.66 0.31
-1 3 -11 0.26 0.09
1 -3 11 0.32 0.08
1 -3 11 0.36 0.07
-2 3 -11 3.91 0.18
2 -3 11 3.91 0.21
2 -3 11 3.88 0.18
3 2 -11 4.08 0.19
-3 -2 11 3.98 0.17
2 2 -11 2.87 0.19
-2 -2 11 2.76 0.13
-2 -2 11 2.56 0.22
1 2 -11 12.31 0.43
1 2 -11 11.96 0.35
-1 -2 11 12.33 0.32
-1 -2 11 12.28 0.37
0 2 -11 56.18 1.46
0 -2 11 56.1 1.44
0 -2 11 57.38 1.31
-1 2 -11 14.99 0.43
1 -2 11 15.67 0.38
1 -2 11 15.38 0.53
1 -2 11 15.34 0.43
-2 2 -11 2.35 0.23
-2 2 -11 3.02 0.18
2 -2 11 3.19 0.16
2 -2 11 3.05 0.2
-3 2 -11 0.2 0.15
-3 2 -11 -0.14 0.1
3 -2 11 -0.03 0.08
3 1 -11 8.53 0.3
-3 -1 11 8.48 0.25
2 1 -11 3.35 0.2
-2 -1 11 4.04 0.25
-2 -1 11 4.01 0.16
1 1 -11 15.44 0.41
1 1 -11 13.45 0.49
-1 -1 11 15.4 0.45
-1 -1 11 15.83 0.39
0 1 -11 17.83 0.5
0 -1 11 18.04 0.46
0 -1 11 19.28 0.51
-1 1 -11 49.51 1.3
1 -1 11 52.75 1.33
1 -1 11 51.92 1.21
1 -1 11 52.46 1.41
-2 1 -11 -0.05 0.11
-2 1 -11 0.03 0.1
2 -1 11 0 0.11
2 -1 11 -0.06 0.09
-3 1 -11 1.05 0.1
-3 1 -11 1.06 0.15
3 -1 11 0.86 0.1
4 0 -11 70.92 2
3 0 -11 60.7 1.73
-3 0 11 63.57 1.47
2 0 -11 0.42 0.12
-2 0 11 0.43 0.09
-2 0 11 0.65 0.14
1 0 -11 21.23 0.65
1 0 -11 20.31 0.57
-1 0 11 20.69 0.58
-1 0 11 21.4 0.51
0 0 -11 4.69 0.2
0 0 11 4.67 0.16
0 0 11 4.77 0.2
-1 0 -11 11.95 0.37
1 0 11 12.42 0.46
1 0 11 12.45 0.37
1 0 11 12.38 0.32
-2 0 -11 3.23 0.2
-2 0 -11 3.26 0.21
2 0 11 3.74 0.23
2 0 11 3.93 0.19
-3 0 -11 8.1 0.27
-3 0 -11 8.15 0.34
3 0 11 8.21 0.27
-4 0 -11 21.78 0.57
4 0 11 23.3 0.62
4 -1 -11 44.1 1.26
3 -1 -11 0.53 0.1
-3 1 11 0.66 0.1
2 -1 -11 30.12 0.9
-2 1 11 30.02 0.8
-2 1 11 29.95 0.72
1 -1 -11 0.09 0.09
1 -1 -11 -0.06 0.13
-1 1 11 0.18 0.07
-1 1 11 -0.05 0.1
0 -1 -11 78.3 2.03
0 1 11 82.78 2.09
0 1 11 83.13 1.91
-1 -1 -11 48.83 1.25
-1 -1 -11 45.36 1.22
1 1 11 48.91 1.25
1 1 11 48.81 1.32
1 1 11 49.25 1.14
-2 -1 -11 0.3 0.12
-2 -1 -11 0.12 0.11
2 1 11 0.11 0.09
2 1 11 0.21 0.12
-3 -1 -11 3.03 0.18
-3 -1 -11 2.8 0.27
3 1 11 3.22 0.18
-4 -1 -11 17.76 0.47
4 1 11 18.99 0.51
3 -2 -11 8.73 0.31
-3 2 11 8.89 0.25
2 -2 -11 37.77 1.11
-2 2 11 39.56 1.02
-2 2 11 38.76 0.92
1 -2 -11 17.16 0.48
1 -2 -11 16.89 0.55
-1 2 11 17.62 0.49
-1 2 11 17.45 0.44
0 -2 -11 51.66 1.36
0 2 11 51.98 1.35
0 2 11 53.5 1.23
-1 -2 -11 196.03 5.07
-1 -2 -11 200.32 4.92
1 2 11 202.02 4.6
1 2 11 205.79 5.02
1 2 11 198.97 5.19
-2 -2 -11 0.37 0.1
-2 -2 -11 0.58 0.13
2 2 11 0.6 0.1
2 2 11 0.75 0.13
-3 -2 -11 0.74 0.11
-3 -2 -11 0.74 0.09
-3 -2 -11 0.94 0.18
3 2 11 0.64 0.1
-4 -2 -11 5.05 0.19
-4 -2 -11 4.55 0.16
4 2 11 5.5 0.2
3 -3 -11 0.54 0.1
-3 3 11 0.6 0.08
2 -3 -11 5.01 0.24
-2 3 11 5.88 0.26
-2 3 11 5.69 0.19
1 -3 -11 9.63 0.3
1 -3 -11 9.2 0.35
-1 3 11 9.71 0.31
-1 3 11 9.69 0.27
0 -3 -11 196.12 5.02
0 3 11 216.04 5.26
0 3 11 207.99 4.83
-1 -3 -11 9.93 0.38
-1 -3 -11 10.32 0.34
1 3 11 10.39 0.32
1 3 11 10.82 0.42
1 3 11 10.33 0.28
-2 -3 -11 3.41 0.21
2 3 11 3.3 0.18
2 3 11 3.35 0.22
-3 -3 -11 4.64 0.32
-3 -3 -11 3.93 0.21
-3 -3 -11 4.38 0.16
3 3 11 4.49 0.22
-4 -3 -11 20.77 0.54
-4 -3 -11 20.08 0.48
4 3 11 21.97 0.59
3 -4 -11 4.02 0.19
-3 4 11 4.17 0.15
2 -4 -11 65.73 1.87
2 -4 -11 65.17 1.69
-2 4 11 70.9 1.65
-2 4 11 72.67 1.81
1 -4 -11 19.1 0.53
1 -4 -11 18.49 0.59
-1 4 11 20.42 0.56
-1 4 11 20.41 0.5
0 -4 -11 23.75 0.66
0 4 11 24.52 0.66
0 4 11 24.66 0.59
-1 -4 -11 22.2 0.62
-1 -4 -11 21.79 0.62
1 4 11 22.65 0.54
1 4 11 22.37 0.68
1 4 11 22.98 0.61
-2 -4 -11 10.08 0.34
-2 -4 -11 10.1 0.35
2 4 11 10.47 0.36
2 4 11 10.44 0.32
-3 -4 -11 6.86 0.36
-3 -4 -11 7.52 0.21
3 4 11 7.69 0.28
-4 -4 -11 4.95 0.15
-4 -4 -11 4.88 0.21
4 4 11 5.41 0.2
3 -5 -11 11.9 0.37
3 -5 -11 12.89 0.39
-3 5 11 13.65 0.34
2 -5 -11 71.88 1.85
2 -5 -11 72.43 2.06
-2 5 11 79.1 1.99
-2 5 11 80.08 1.83
1 -5 -11 17.66 0.5
1 -5 -11 17.8 0.57
-1 5 11 19.26 0.47
-1 5 11 19.45 0.53
0 -5 -11 -0.05 0.09
0 5 11 0.02 0.09
0 5 11 0.11 0.06
-1 -5 -11 4.89 0.23
-1 -5 -11 5.33 0.27
1 5 11 5.44 0.17
1 5 11 5.45 0.22
1 5 11 5.21 0.32
-2 -5 -11 6.09 0.27
-2 -5 -11 6.36 0.27
2 5 11 6.7 0.24
2 5 11 6.6 0.28
-3 -5 -11 0.66 0.21
-3 -5 -11 0.82 0.13
-3 -5 -11 0.65 0.08
3 5 11 0.83 0.12
-4 -5 -11 3.26 0.18
-4 -5 -11 2.93 0.12
4 5 11 3.31 0.15
3 -6 -11 0.84 0.1
-3 6 11 0.91 0.08
2 -6 -11 6.09 0.22
2 -6 -11 6.07 0.25
-2 6 11 6.68 0.23
-2 6 11 6.65 0.19
1 -6 -11 67.07 1.72
1 -6 -11 65.9 1.91
-1 6 11 69.62 1.64
-1 6 11 72.71 1.79
0 -6 -11 24.76 0.68
0 6 11 26.87 0.65
0 6 11 28.22 0.73
-1 -6 -11 0.84 0.12
-1 -6 -11 0.89 0.15
1 6 11 0.95 0.07
1 6 11 1 0.19
1 6 11 0.98 0.1
-2 -6 -11 0.43 0.12
-2 -6 -11 0.3 0.14
2 6 11 0.28 0.1
2 6 11 0.43 0.12
-3 -6 -11 66.62 1.75
-3 -6 -11 67.26 1.68
-3 -6 -11 64.34 1.51
3 6 11 70.25 1.83
-4 -6 -11 2.84 0.11
-4 -6 -11 2.94 0.17
4 6 11 2.98 0.12
4 6 11 3.01 0.15
4 6 11 3.25 0.15
4 6 11 3.17 0.12
2 -7 -11 3.45 0.16
-2 7 11 3.77 0.16
-2 7 11 3.49 0.12
1 -7 -11 48.49 1.26
-1 7 11 56.34 1.41
-1 7 11 55.44 1.29
0 -7 -11 2.85 0.17
0 7 11 3.09 0.16
0 7 11 2.89 0.13
-1 -7 -11 0.14 0.15
-1 -7 -11 0.22 0.12
1 7 11 0.02 0.09
1 7 11 0.16 0.08
1 7 11 0.01 0.18
-2 -7 -11 2.82 0.21
-2 -7 -11 3.06 0.24
2 7 11 2.95 0.21
2 7 11 3.24 0.18
-3 -7 -11 0.15 0.1
-3 -7 -11 0.21 0.08
-3 -7 -11 -0.37 0.24
3 7 11 -0.09 0.09
-4 -7 -11 10.67 0.31
-4 -7 -11 10.22 0.26
4 7 11 11.26 0.29
4 7 11 11.21 0.25
4 7 11 11.46 0.32
4 7 11 11.11 0.24
2 -8 -11 0.28 0.07
-2 8 11 0.16 0.07
-2 8 11 0.25 0.05
1 -8 -11 1.91 0.12
-1 8 11 1.99 0.1
-1 8 11 1.91 0.12
0 -8 -11 6.12 0.22
0 8 11 6.72 0.22
0 8 11 6.76 0.19
-1 -8 -11 4.66 0.22
1 8 11 4.62 0.28
1 8 11 4.79 0.19
-2 -8 -11 27.86 0.74
-2 -8 -11 28.57 0.78
2 8 11 29.65 0.77
2 8 11 29.94 0.81
-3 -8 -11 1.1 0.11
3 8 11 1.18 0.09
3 8 11 1.18 0.09
3 8 11 1.14 0.1
3 8 11 1.27 0.12
-4 -8 -11 14.18 0.39
4 8 11 14.96 0.4
4 8 11 14.47 0.31
4 8 11 15.03 0.3
1 -9 -11 1.46 0.11
1 -9 -11 1.24 0.11
-1 9 11 1.47 0.11
-1 9 11 1.72 0.09
0 -9 -11 1.26 0.12
0 9 11 1.54 0.11
-1 -9 -11 4.09 0.19
1 9 11 4.34 0.25
1 9 11 4.26 0.17
-2 -9 -11 0.45 0.13
-2 -9 -11 0.51 0.1
2 9 11 0.44 0.1
-3 -9 -11 1.64 0.14
3 9 11 2.07 0.13
0 -10 -11 0.65 0.08
0 10 11 0.58 0.07
-1 -10 -11 7.78 0.25
1 10 11 8.47 0.25
1 10 11 8.16 0.31
-2 -10 -11 0.88 0.13
2 10 11 1.06 0.1
-3 -10 -11 15.43 0.41
3 10 11 17.89 0.48
-1 -4 12 4.59 0.14
-1 -4 12 4.61 0.17
0 4 -12 20.18 0.53
0 -4 12 20.79 0.5
0 -4 12 21.9 0.55
-1 4 -12 1.67 0.11
1 -4 12 1.9 0.12
2 3 -12 2.54 0.21
-2 -3 12 2.69 0.19
-2 -3 12 2.49 0.11
-1 -3 12 32.87 0.82
-1 -3 12 31.57 0.75
0 3 -12 25.63 0.68
0 -3 12 26.43 0.68
0 -3 12 26.57 0.62
-1 3 -12 1.88 0.12
1 -3 12 1.8 0.12
-2 3 -12 24.28 0.64
3 2 -12 0.17 0.09
-3 -2 12 0.23 0.08
2 2 -12 2.59 0.19
-2 -2 12 2.9 0.2
-2 -2 12 2.87 0.12
1 2 -12 10.16 0.3
-1 -2 12 10.73 0.32
-1 -2 12 10.43 0.27
0 2 -12 17.67 0.49
0 -2 12 18.62 0.5
0 -2 12 18.79 0.45
-1 2 -12 83.56 2.15
1 -2 12 88.12 2.2
-2 2 -12 6.33 0.22
2 -2 12 6.55 0.23
2 -2 12 6.38 0.27
3 1 -12 23.49 0.69
-3 -1 12 23.4 0.55
2 1 -12 19.4 0.59
-2 -1 12 19.73 0.54
-2 -1 12 19.38 0.47
1 1 -12 2.72 0.21
1 1 -12 2.29 0.14
-1 -1 12 2.19 0.12
-1 -1 12 2.52 0.16
0 1 -12 16.96 0.47
0 -1 12 17.06 0.47
0 -1 12 16.96 0.42
-1 1 -12 0.07 0.09
1 -1 12 0.42 0.06
1 -1 12 0.07 0.08
-2 1 -12 6.39 0.23
2 -1 12 6.45 0.22
2 -1 12 6.34 0.26
-3 1 -12 6.27 0.28
3 -1 12 6.83 0.23
3 0 -12 0.06 0.08
-3 0 12 0.07 0.08
2 0 -12 36.97 1.07
-2 0 12 36.58 0.87
-2 0 12 37.95 0.96
1 0 -12 4.71 0.3
1 0 -12 4.66 0.19
-1 0 12 4.77 0.21
-1 0 12 4.88 0.16
0 0 -12 5.67 0.22
0 0 12 5.83 0.22
0 0 12 5.6 0.18
-1 0 -12 25.79 0.7
1 0 12 26.7 0.7
1 0 12 26.53 0.63
-2 0 -12 16.92 0.52
-2 0 -12 17.84 0.5
2 0 12 18.36 0.49
2 0 12 18.24 0.53
-3 0 -12 0.26 0.13
3 0 12 0.11 0.08
3 -1 -12 0.85 0.1
-3 1 12 0.79 0.08
2 -1 -12 33.7 0.99
-2 1 12 33.28 0.86
-2 1 12 33.28 0.78
1 -1 -12 33 0.87
1 -1 -12 32.98 0.99
-1 1 12 32.16 0.77
-1 1 12 32.97 0.85
0 -1 -12 1.31 0.11
0 1 12 1.36 0.11
0 1 12 1.38 0.1
-1 -1 -12 0.51 0.1
1 1 12 0.34 0.07
1 1 12 0.58 0.22
1 1 12 0.42 0.09
-2 -1 -12 0.99 0.15
-2 -1 -12 1.09 0.12
2 1 12 1.44 0.14
2 1 12 1.21 0.1
-3 -1 -12 8.1 0.32
3 1 12 8.54 0.28
3 -2 -12 12.21 0.38
-3 2 12 13.68 0.34
2 -2 -12 0.53 0.12
-2 2 12 0.37 0.12
-2 2 12 0.5 0.07
1 -2 -12 3.22 0.17
1 -2 -12 2.84 0.26
-1 2 12 3.57 0.15
-1 2 12 3.48 0.19
0 -2 -12 6.79 0.25
0 2 12 7.11 0.21
0 2 12 7 0.25
-1 -2 -12 25.2 0.69
1 2 12 26.19 0.62
1 2 12 25.42 0.79
1 2 12 26.21 0.69
-2 -2 -12 42.35 1.08
-2 -2 -12 41.07 1.11
2 2 12 44.12 1.12
2 2 12 44.1 1.17
-3 -2 -12 0.58 0.15
3 2 12 0.53 0.1
-4 -2 -12 1.14 0.1
4 2 12 0.95 0.08
3 -3 -12 20.75 0.62
-3 3 12 22.38 0.53
2 -3 -12 10.98 0.37
-2 3 12 8.77 0.29
-2 3 12 8.81 0.24
1 -3 -12 24.68 0.67
-1 3 12 24.5 0.59
-1 3 12 24.17 0.65
0 -3 -12 22.86 0.63
0 3 12 24.39 0.58
0 3 12 23.76 0.64
-1 -3 -12 180.94 4.64
1 3 12 181.81 4.56
1 3 12 174.35 4.4
1 3 12 175.8 4.04
-2 -3 -12 10.64 0.36
-2 -3 -12 10.54 0.36
2 3 12 10.94 0.37
2 3 12 10.96 0.33
-3 -3 -12 0.14 0.16
-3 -3 -12 0.09 0.11
3 3 12 0.15 0.09
-4 -3 -12 9.95 0.3
4 3 12 10.55 0.3
3 -4 -12 11.43 0.36
-3 4 12 12.53 0.31
2 -4 -12 12.5 0.41
-2 4 12 13.55 0.34
-2 4 12 13.45 0.39
1 -4 -12 17.39 0.48
1 -4 -12 16.83 0.56
-1 4 12 18.16 0.44
-1 4 12 18.06 0.5
0 -4 -12 18.93 0.53
0 4 12 19.86 0.48
0 4 12 19.47 0.54
-1 -4 -12 9.33 0.31
1 4 12 9.74 0.3
1 4 12 10.37 0.44
1 4 12 9.23 0.26
-2 -4 -12 36.28 0.99
-2 -4 -12 37.43 0.96
2 4 12 38.52 1
2 4 12 40 1.06
-3 -4 -12 0.9 0.12
-3 -4 -12 0.82 0.17
3 4 12 0.85 0.1
-4 -4 -12 28.05 0.73
4 4 12 28.8 0.76
2 -5 -12 12.16 0.39
2 -5 -12 13.19 0.41
-2 5 12 13.99 0.39
-2 5 12 14.04 0.34
1 -5 -12 141.39 3.89
1 -5 -12 135.8 3.53
1 -5 -12 136.26 3.5
-1 5 12 150.44 3.7
-1 5 12 147.18 3.39
0 -5 -12 0.06 0.1
0 5 12 0.07 0.09
0 5 12 0.05 0.06
-1 -5 -12 13.38 0.41
1 5 12 14.55 0.4
1 5 12 14.02 0.51
1 5 12 13.45 0.35
-2 -5 -12 1.77 0.15
-2 -5 -12 1.89 0.15
2 5 12 1.99 0.16
2 5 12 1.57 0.15
-3 -5 -12 50.85 1.3
-3 -5 -12 51.7 1.36
3 5 12 56.05 1.46
-4 -5 -12 14.33 0.4
4 5 12 14.72 0.4
4 5 12 14.73 0.29
4 5 12 14.78 0.36
4 5 12 14.76 0.31
2 -6 -12 0.33 0.11
-2 6 12 0.27 0.05
-2 6 12 0.26 0.08
1 -6 -12 38.31 1
1 -6 -12 38.21 1
-1 6 12 40.24 0.94
-1 6 12 40.74 1.03
0 -6 -12 3.33 0.18
0 6 12 3.95 0.18
0 6 12 3.61 0.14
-1 -6 -12 21.83 0.62
1 6 12 22.88 0.61
1 6 12 22.27 0.54
1 6 12 23.13 0.68
-2 -6 -12 39.82 1.04
-2 -6 -12 40.89 1.08
2 6 12 42.53 1.12
2 6 12 41.62 1.07
-3 -6 -12 0.33 0.11
-3 -6 -12 0.23 0.2
3 6 12 0.33 0.09
-4 -6 -12 17.19 0.46
4 6 12 17.5 0.35
4 6 12 17.32 0.36
4 6 12 18.55 0.48
4 6 12 17.87 0.42
2 -7 -12 10.06 0.3
-2 7 12 10.79 0.3
-2 7 12 10.84 0.26
1 -7 -12 2.57 0.13
1 -7 -12 2.6 0.14
-1 7 12 2.74 0.11
-1 7 12 2.88 0.14
0 -7 -12 73.81 1.91
0 7 12 80.08 1.87
0 7 12 83.14 2.04
-1 -7 -12 16.46 0.47
1 7 12 18.31 0.49
1 7 12 18.49 0.57
-2 -7 -12 1.38 0.14
-2 -7 -12 1.4 0.13
2 7 12 1.69 0.17
2 7 12 1.6 0.15
-3 -7 -12 41.97 1.16
-3 -7 -12 44.2 1.1
3 7 12 47.72 0.89
3 7 12 47.47 0.93
3 7 12 47.55 1.24
3 7 12 48.04 1.09
-4 -7 -12 4.27 0.17
4 7 12 4.51 0.13
4 7 12 4.56 0.16
4 7 12 4.67 0.16
4 7 12 4.66 0.14
1 -8 -12 0.28 0.07
1 -8 -12 0.17 0.07
-1 8 12 0.27 0.05
-1 8 12 0.32 0.06
0 -8 -12 0.43 0.08
0 8 12 0.55 0.07
0 8 12 0.42 0.07
-1 -8 -12 10.69 0.33
1 8 12 12.14 0.34
1 8 12 11.96 0.42
-2 -8 -12 0.06 0.12
-2 -8 -12 0.24 0.12
2 8 12 0.01 0.11
-3 -8 -12 1.18 0.1
3 8 12 1.44 0.13
3 8 12 1.41 0.11
3 8 12 1.34 0.11
0 -9 -12 0.45 0.07
0 9 12 0.42 0.07
-1 -9 -12 30.78 0.81
1 9 12 32.34 0.89
1 9 12 33.21 0.83
-2 -9 -12 0.13 0.11
2 9 12 -0.04 0.1
-3 -9 -12 0.07 0.1
3 9 12 0.01 0.07
0 -3 13 6.64 0.2
-1 -2 13 5.46 0.19
-1 -2 13 5.38 0.15
0 2 -13 20.77 0.55
0 -2 13 20.88 0.55
0 -2 13 21.13 0.49
-1 2 -13 22.66 0.6
1 -2 13 23.81 0.61
-2 -1 13 2.54 0.21
-2 -1 13 2.31 0.1
-1 -1 13 12.97 0.31
-1 -1 13 12.61 0.36
0 1 -13 1.49 0.12
0 -1 13 1.6 0.09
0 -1 13 1.64 0.13
-1 1 -13 23.15 0.62
1 -1 13 23.89 0.62
-2 1 -13 0.1 0.08
2 -1 13 0.13 0.16
2 0 -13 2.7 0.24
-2 0 13 2.49 0.2
-2 0 13 3.09 0.11
-1 0 13 0.42 0.09
-1 0 13 0.28 0.05
0 0 -13 22.13 0.6
0 0 13 23.61 0.61
0 0 13 22.62 0.55
-1 0 -13 0.1 0.08
1 0 13 0.04 0.07
-2 0 -13 21.84 0.59
2 0 13 22.87 0.59
2 0 13 22.53 0.63
2 -1 -13 62.25 1.77
-2 1 13 40.88 0.93
-2 1 13 39.84 1.03
1 -1 -13 5.31 0.19
-1 1 13 5.34 0.16
-1 1 13 5.3 0.2
0 -1 -13 2.48 0.15
0 1 13 2.85 0.16
0 1 13 2.72 0.11
-1 -1 -13 3.4 0.17
1 1 13 3.54 0.13
1 1 13 3.34 0.16
-2 -1 -13 9.79 0.31
2 1 13 9.82 0.34
2 1 13 9.86 0.29
-3 -1 -13 0.78 0.14
3 1 13 0.88 0.1
2 -2 -13 1.51 0.14
-2 2 13 1.61 0.12
-2 2 13 1.39 0.09
1 -2 -13 1.61 0.13
-1 2 13 1.19 0.1
-1 2 13 1.16 0.09
0 -2 -13 14.79 0.42
0 2 13 16.17 0.44
0 2 13 15.99 0.39
-1 -2 -13 0.06 0.09
1 2 13 0.04 0.08
1 2 13 -0.03 0.06
-2 -2 -13 0.52 0.1
2 2 13 0.7 0.09
2 2 13 0.84 0.14
-3 -2 -13 52.34 1.37
3 2 13 55.44 1.44
2 -3 -13 3.27 0.21
-2 3 13 3.9 0.13
-2 3 13 3.78 0.19
1 -3 -13 -0.06 0.07
-1 3 13 0.05 0.05
-1 3 13 -0.07 0.08
0 -3 -13 0.91 0.1
0 3 13 0.88 0.09
0 3 13 0.99 0.07
-1 -3 -13 1.98 0.16
1 3 13 1.78 0.14
1 3 13 1.86 0.11
-2 -3 -13 14.13 0.42
2 3 13 14.52 0.39
2 3 13 14.16 0.44
-3 -3 -13 9.41 0.34
-3 -3 -13 9.75 0.32
3 3 13 10.8 0.32
2 -4 -13 0.24 0.14
-2 4 13 0.29 0.1
-2 4 13 0.4 0.05
1 -4 -13 3.24 0.14
-1 4 13 3.62 0.13
-1 4 13 3.54 0.16
0 -4 -13 67.44 1.75
0 4 13 74.03 1.84
0 4 13 72.23 1.68
-1 -4 -13 41.52 1.1
1 4 13 42.97 0.99
1 4 13 42.74 1.09
-2 -4 -13 0.33 0.1
2 4 13 0.17 0.08
2 4 13 -0.02 0.12
-3 -4 -13 2.49 0.24
-3 -4 -13 2.33 0.19
3 4 13 2.67 0.15
-2 5 13 10.51 0.31
-2 5 13 10.89 0.26
1 -5 -13 0.41 0.07
-1 5 13 0.39 0.08
-1 5 13 0.4 0.06
0 -5 -13 172.08 4.4
0 5 13 182.92 4.57
0 5 13 185.56 4.19
-1 -5 -13 81.25 2.1
1 5 13 80.2 1.87
1 5 13 84.14 2.05
-2 -5 -13 7.77 0.28
2 5 13 8.05 0.3
2 5 13 8.57 0.26
-3 -5 -13 24.91 0.69
-3 -5 -13 23.97 0.64
3 5 13 25.29 0.68
1 -6 -13 73.37 1.88
-1 6 13 84.52 2.07
-1 6 13 82.02 1.9
0 -6 -13 3.47 0.16
0 6 13 3.85 0.16
0 6 13 3.87 0.13
-1 -6 -13 62.83 1.63
1 6 13 67.28 1.7
1 6 13 68.32 1.79
-2 -6 -13 -0.05 0.11
2 6 13 0.16 0.12
2 6 13 0.18 0.09
-3 -6 -13 0.36 0.11
-3 -6 -13 0.24 0.17
3 6 13 0.27 0.08
1 -7 -13 14.83 0.43
-1 7 13 18.45 0.44
-1 7 13 18.71 0.48
0 -7 -13 71.39 1.84
0 7 13 76.52 1.85
0 7 13 71.5 1.69
-1 -7 -13 0.13 0.08
1 7 13 0.08 0.07
-2 -7 -13 49.3 1.29
2 7 13 53.63 1.4
3 7 13 0 0.11
3 7 13 -0.01 0.08
3 7 13 0.08 0.09
3 7 13 -0.07 0.08
0 -8 -13 2.62 0.13
0 -8 -13 2.81 0.15
0 8 13 3.19 0.13
-1 -8 -13 0.26 0.08
1 8 13 0.45 0.07
-2 -8 -13 0.38 0.11
2 8 13 0.29 0.11
0 -1 14 -0.03 0.06
-1 0 14 1.32 0.08
-1 0 14 1.24 0.12
0 0 -14 3.42 0.14
0 0 14 4.03 0.15
0 0 14 3.85 0.12
-1 0 -14 5.43 0.18
1 0 14 6.04 0.19
-1 1 14 11.24 0.32
-1 1 14 11.38 0.28
0 -1 -14 1.33 0.11
0 1 14 1.19 0.08
0 1 14 1.16 0.11
-1 -1 -14 5.09 0.18
1 1 14 5.7 0.18
-2 -1 -14 1.12 0.09
-1 2 14 3.22 0.14
-1 2 14 3.21 0.11
0 -2 -14 3.57 0.15
0 2 14 3.54 0.15
0 2 14 3.59 0.12
-1 -2 -14 0.33 0.08
1 2 14 0.36 0.07
-2 -2 -14 1.63 0.14
2 2 14 1.38 0.17
-1 3 14 22.12 0.52
-1 3 14 22.18 0.57
0 -3 -14 9.24 0.28
0 3 14 9.89 0.28
0 3 14 9.72 0.25
-1 -3 -14 14.69 0.41
1 3 14 15.32 0.41
-2 -3 -14 6.93 0.24
2 3 14 6.69 0.24
2 3 14 7.09 0.29
-1 4 14 38.27 1
-1 4 14 41.3 0.92
0 -4 -14 22.76 0.61
0 4 14 23.92 0.62
0 4 14 24.22 0.56
-1 -4 -14 0.22 0.08
1 4 14 0.2 0.07
-2 -4 -14 1.07 0.1
2 4 14 1.18 0.12
2 4 14 1.1 0.14
-1 5 14 8.65 0.25
-1 5 14 8.97 0.22
0 -5 -14 16.95 0.46
0 5 14 17.28 0.42
0 5 14 18 0.46
-1 -5 -14 0.84 0.09
1 5 14 0.81 0.08
-2 -5 -14 22.66 0.61
2 5 14 25.43 0.69
0 -6 -14 32.27 0.84
0 6 14 36.65 0.92
-1 -6 -14 0.37 0.08
1 6 14 0.54 0.07
-2 -6 -14 2.04 0.15
2 6 14 1.97 0.2
-1 -7 -14 1.27 0.12
1 7 14 1.36 0.12
