#------------------------------------------------------------------------------
#$Date: 2017-06-04 13:26:07 +0300 (Sun, 04 Jun 2017) $
#$Revision: 197294 $
#$URL: file:///home/coder/svn-repositories/cod/cif/4/12/61/4126161.cif $
#------------------------------------------------------------------------------
#
# This file is available in the Crystallography Open Database (COD),
# http://www.crystallography.net/
#
# All data on this site have been placed in the public domain by the
# contributors.
#
data_4126161
loop_
_publ_author_name
'Tinoco, Antonio'
'Steck, Viktoria'
'Tyagi, Vikas'
'Fasan, Rudi'
_publ_section_title
;
 Highly Diastereo- and Enantioselective Synthesis of
 Trifluoromethyl-Substituted Cyclopropanes via Myoglobin-Catalyzed
 Transfer of Trifluoromethylcarbene.
;
_journal_issue                   15
_journal_name_full               'Journal of the American Chemical Society'
_journal_page_first              5293
_journal_page_last               5296
_journal_paper_doi               10.1021/jacs.7b00768
_journal_volume                  139
_journal_year                    2017
_chemical_absolute_configuration ad
_chemical_formula_moiety         'C10 H8 F3 N O2'
_chemical_formula_sum            'C10 H8 F3 N O2'
_chemical_formula_weight         231.17
_space_group_crystal_system      monoclinic
_space_group_IT_number           4
_space_group_name_Hall           'P 2yb'
_space_group_name_H-M_alt        'P 1 21 1'
_symmetry_space_group_name_Hall  'P 2yb'
_symmetry_space_group_name_H-M   'P 1 21 1'
_atom_sites_solution_hydrogens   geom
_atom_sites_solution_primary     direct
_audit_creation_date             2017-01-06
_audit_creation_method
;
Olex2 1.2-ac21
(compiled 2015.09.16 svn.r134, GUI svn.r4998)
;
_cell_angle_alpha                90
_cell_angle_beta                 110.999(4)
_cell_angle_gamma                90
_cell_formula_units_Z            2
_cell_length_a                   8.0948(3)
_cell_length_b                   6.72581(17)
_cell_length_c                   9.5368(3)
_cell_measurement_reflns_used    8120
_cell_measurement_temperature    100.00(10)
_cell_measurement_theta_max      76.6550
_cell_measurement_theta_min      9.5270
_cell_volume                     484.74(3)
_computing_cell_refinement       'CrysAlisPro 1.171.39.7f (Rigaku OD, 2015)'
_computing_data_collection       'CrysAlisPro 1.171.39.7f (Rigaku OD, 2015)'
_computing_data_reduction        'CrysAlisPro 1.171.39.7f (Rigaku OD, 2015)'
_computing_molecular_graphics    'Olex2 (Dolomanov et al., 2009)'
_computing_publication_material  'Olex2 (Dolomanov et al., 2009)'
_computing_structure_refinement  'ShelXL (Sheldrick, 2008)'
_computing_structure_solution    'ShelXT (Sheldrick, 2015)'
_diffrn_ambient_environment      N~2~
_diffrn_ambient_temperature      100.00(10)
_diffrn_detector                 'CCD plate'
_diffrn_detector_type            HyPix
_diffrn_measured_fraction_theta_full 0.994
_diffrn_measured_fraction_theta_max 0.994
_diffrn_measurement_details
;
List of Runs (angles in degrees, time in seconds):

  # Type    Start    End  Width  t~exp~   \w     \q     \k     \f   Frames
--------------------------------------------------------------------------
  1  \w    -95.00 -12.00   0.50    7.00    --  -84.25 125.00  30.00  166
  2  \w     92.00 177.00   0.50    7.00    --  105.75  61.00-150.00  170
  3  \w     97.00 178.00   0.50    7.00    --  105.75  45.00 -90.00  162
  4  \w     97.00 178.00   0.50    7.00    --  105.75  45.00-120.00  162
  5  \w     85.00 178.00   0.50    7.00    --  105.75  77.00-180.00  186
  6  \w     98.00 178.00   0.50    7.00    --  105.75  15.00-180.00  160
  7  \w     98.00 178.00   0.50    7.00    --  105.75  30.00 -30.00  160
  8  \w     98.00 178.00   0.50    7.00    --  105.75  30.00   0.00  160
  9  \w     98.00 178.00   0.50    7.00    --  105.75  30.00  30.00  160
 10  \w     98.00 178.00   0.50    7.00    --  105.75  30.00 150.00  160
 11  \w    -67.00  13.00   0.50    3.00    --    5.92 -19.00   0.00  160
 12  \w     34.00  80.00   0.50    7.00    --  105.75 -45.00-150.00   92
 13  \w    -62.00 -12.00   0.50    7.00    --  -84.25  15.00-150.00  100
 14  \w    -86.00 -12.00   0.50    7.00    --  -84.25  45.00-180.00  148
 15  \w    -63.00 -12.00   0.50    7.00    --  -84.25  30.00  30.00  102
 16  \w    -86.00 -12.00   0.50    7.00    --  -84.25  45.00 -60.00  148
 17  \w    -66.00  14.00   0.50    3.00    --    5.92 -37.00 150.00  160
 18  \w    -67.00  13.00   0.50    3.00    --    5.92 -19.00-180.00  160
 19  \w     34.00  80.00   0.50    7.00    --  105.75 -45.00-120.00   92
 20  \w     34.00 127.00   0.50    7.00    --  105.75 -77.00  30.00  186
 21  \w     34.00 120.00   0.50    7.00    --  105.75 -61.00 150.00  172
 22  \w     98.00 178.00   0.50    7.00    --  105.75  30.00  90.00  160
 23  \w     -7.00  77.00   0.50    3.00    --    5.92  57.00  90.00  168
 24  \w     -2.00  78.00   0.50    3.00    --    5.92  37.00  30.00  160
 25  \w     -7.00  77.00   0.50    3.00    --    5.92  57.00 120.00  168
 26  \w     -7.00  77.00   0.50    3.00    --    5.92  57.00 -60.00  168
 27  \w    -26.00  66.00   0.50    3.00    --   -5.92  77.00   0.00  184
 28  \w    -26.00  66.00   0.50    3.00    --   -5.92  77.00-150.00  184
 29  \w     -1.00  79.00   0.50    3.00    --    5.92  19.00 -90.00  160
 30  \w     -2.00  78.00   0.50    3.00    --    5.92  37.00-180.00  160
 31  \w    -66.00  54.00   0.50    3.00    --    5.92   0.00-180.00  240
 32  \w   -156.00 -63.00   0.50    7.00    --  -84.25 -77.00  30.00  186
 33  \w   -156.00 -70.00   0.50    7.00    --  -84.25 -61.00 150.00  172
 34  \w   -156.00 -63.00   0.50    7.00    --  -84.25 -77.00 -30.00  186
 35  \w   -156.00 -75.00   0.50    7.00    --  -84.25 -45.00 -90.00  162
 36  \w   -156.00 -63.00   0.50    7.00    --  -84.25 -77.00-150.00  186
 37  \w   -156.00 -63.00   0.50    7.00    --  -84.25 -77.00-120.00  186
 38  \w   -156.00 -63.00   0.50    7.00    --  -84.25 -77.00 -90.00  186
 39  \w   -156.00 -63.00   0.50    7.00    --  -84.25 -77.00   0.00  186
 40  \w   -156.00 -75.00   0.50    7.00    --  -84.25 -45.00  30.00  162
 41  \w   -156.00 -63.00   0.50    7.00    --  -84.25 -77.00  90.00  186
 42  \w   -156.00 -70.00   0.50    7.00    --  -84.25 -61.00 120.00  172
 43  \w   -156.00 -63.00   0.50    7.00    --  -84.25 -77.00 150.00  186
 44  \w   -156.00 -75.00   0.50    7.00    --  -84.25 -45.00 150.00  162
 45  \w   -156.00 -63.00   0.50    7.00    --  -84.25 -77.00  60.00  186
 46  \w   -156.00 -75.00   0.50    7.00    --  -84.25 -45.00  90.00  162
 47  \w   -155.00 -65.00   0.50    7.00    --  -84.25 -73.00 -24.00  180
 48  \w   -156.00 -63.00   0.50    7.00    --  -84.25 -77.00 -60.00  186
 49  \w   -156.00 -75.00   0.50    7.00    --  -84.25 -45.00 -30.00  162
 50  \w    -78.00   2.00   0.50    3.00    --   -5.92 -37.00 150.00  160
 51  \w    -77.00   7.00   0.50    3.00    --   -5.92 -57.00 150.00  168
 52  \w   -156.00 -70.00   0.50    7.00    --  -84.25 -61.00 -60.00  172
 53  \w   -156.00 -70.00   0.50    7.00    --  -84.25 -61.00 -90.00  172
 54  \w   -156.00 -70.00   0.50    7.00    --  -84.25 -61.00-120.00  172
 55  \w   -156.00 -76.00   0.50    7.00    --  -84.25 -30.00-180.00  160
 56  \w   -156.00 -63.00   0.50    7.00    --  -84.25 -77.00 120.00  186
 57  \w   -156.00 -63.00   0.50    7.00    --  -84.25 -77.00-180.00  186
 58  \w   -156.00 -76.00   0.50    7.00    --  -84.25 -30.00 150.00  160
 59  \w     34.00 120.00   0.50    7.00    --  105.75-125.00   0.00  172
 60  \w     35.00 108.00   0.50    7.00    --  105.75 -94.00 150.00  146
 61  \w     35.00 108.00   0.50    7.00    --  105.75 -94.00 -30.00  146
 62  \w     34.00 120.00   0.50    7.00    --  105.75-125.00-120.00  172
 63  \w     35.00 108.00   0.50    7.00    --  105.75 -94.00  30.00  146
 64  \w     35.00 108.00   0.50    7.00    --  105.75 -94.00-150.00  146
;
_diffrn_measurement_device       'four-circle diffractometer'
_diffrn_measurement_device_type  'XtaLAB Synergy, Dualflex, HyPix'
_diffrn_measurement_method       '\w scans'
_diffrn_orient_matrix_type
'CrysAlisPro convention (1999,Acta A55,543-557)'
_diffrn_orient_matrix_UB_11      0.1196310000
_diffrn_orient_matrix_UB_12      0.1555213000
_diffrn_orient_matrix_UB_13      0.1077722000
_diffrn_orient_matrix_UB_21      0.1217247000
_diffrn_orient_matrix_UB_22      -0.1674956000
_diffrn_orient_matrix_UB_23      0.0904361000
_diffrn_orient_matrix_UB_31      0.1115276000
_diffrn_orient_matrix_UB_32      0.0160662000
_diffrn_orient_matrix_UB_33      -0.1006970000
_diffrn_radiation_monochromator  mirror
_diffrn_radiation_probe          x-ray
_diffrn_radiation_type           CuK\a
_diffrn_radiation_wavelength     1.54184
_diffrn_reflns_av_R_equivalents  0.0722
_diffrn_reflns_av_unetI/netI     0.0270
_diffrn_reflns_Laue_measured_fraction_full 0.994
_diffrn_reflns_Laue_measured_fraction_max 0.994
_diffrn_reflns_limit_h_max       9
_diffrn_reflns_limit_h_min       -9
_diffrn_reflns_limit_k_max       8
_diffrn_reflns_limit_k_min       -8
_diffrn_reflns_limit_l_max       11
_diffrn_reflns_limit_l_min       -11
_diffrn_reflns_number            16801
_diffrn_reflns_point_group_measured_fraction_full 0.994
_diffrn_reflns_point_group_measured_fraction_max 0.994
_diffrn_reflns_theta_full        66.598
_diffrn_reflns_theta_max         66.598
_diffrn_reflns_theta_min         9.044
_diffrn_source                   'micro-focus sealed X-ray tube'
_diffrn_source_type              'PhotonJet (Cu) X-ray Source'
_exptl_absorpt_coefficient_mu    1.312
_exptl_absorpt_correction_T_max  1.000
_exptl_absorpt_correction_T_min  0.868
_exptl_absorpt_correction_type   gaussian
_exptl_absorpt_process_details
;
CrysAlisPro 1.171.39.7f (Rigaku Oxford Diffraction, 2015)
Numerical absorption correction based on gaussian integration over
            a multifaceted crystal model
Empirical absorption correction using spherical harmonics,
 implemented in SCALE3 ABSPACK scaling algorithm.
;
_exptl_crystal_colour            colourless
_exptl_crystal_colour_primary    colourless
_exptl_crystal_density_diffrn    1.584
_exptl_crystal_description       plate
_exptl_crystal_F_000             236
_exptl_crystal_size_max          0.104
_exptl_crystal_size_mid          0.081
_exptl_crystal_size_min          0.055
_refine_diff_density_max         0.169
_refine_diff_density_min         -0.198
_refine_diff_density_rms         0.040
_refine_ls_abs_structure_details
;
 Flack x determined using 714 quotients [(I+)-(I-)]/[(I+)+(I-)]
 (Parsons, Flack and Wagner, Acta Cryst. B69 (2013) 249-259).
;
_refine_ls_abs_structure_Flack   -0.03(9)
_refine_ls_extinction_method     none
_refine_ls_goodness_of_fit_ref   1.065
_refine_ls_hydrogen_treatment    constr
_refine_ls_matrix_type           full
_refine_ls_number_parameters     145
_refine_ls_number_reflns         1694
_refine_ls_number_restraints     1
_refine_ls_restrained_S_all      1.065
_refine_ls_R_factor_all          0.0303
_refine_ls_R_factor_gt           0.0294
_refine_ls_shift/su_max          0.000
_refine_ls_shift/su_mean         0.000
_refine_ls_structure_factor_coef Fsqd
_refine_ls_weighting_details
'w=1/[\s^2^(Fo^2^)+(0.0540P)^2^+0.0469P] where P=(Fo^2^+2Fc^2^)/3'
_refine_ls_weighting_scheme      calc
_refine_ls_wR_factor_gt          0.0791
_refine_ls_wR_factor_ref         0.0796
_reflns_Friedel_coverage         0.829
_reflns_Friedel_fraction_full    0.994
_reflns_Friedel_fraction_max     0.994
_reflns_number_gt                1645
_reflns_number_total             1694
_reflns_threshold_expression     'I > 2\s(I)'
_cod_data_source_file            ja7b00768_si_002.cif
_cod_data_source_block           rochester_as
_cod_database_code               4126161
_chemical_oxdiff_formula         'C10 H8 F3 N O2'
_shelx_space_group_comment
;
The symmetry employed for this shelxl refinement is uniquely defined
by the following loop, which should always be used as a source of
symmetry information in preference to the above space-group names.
They are only intended as comments.
;
_diffrn_oxdiff_ac3_digest_frames
;
01b08f904702f3a328193bdf910fb3fc171057685ef
;
_diffrn_oxdiff_ac3_digest_hkl
;
010a8a395086b1f8b7c3ad0d181818d9baf840
;
_reflns_odcompleteness_completeness 99.25
_reflns_odcompleteness_iscentric 1
_reflns_odcompleteness_theta     66.49
_olex2_refinement_description
;
1. Fixed Uiso
 At 1.2 times of:
  All C(H) groups, All C(H,H) groups
2.a Ternary CH refined with riding coordinates:
 C2(H2), C4(H4)
2.b Secondary CH2 refined with riding coordinates:
 C3(H3A,H3B)
2.c Aromatic/amide H refined with riding coordinates:
 C7(H7), C10(H10), C6(H6), C9(H9)
;
_shelx_res_file
;
    rochester_as.res created by SHELXL-2014/7

TITL rochester_as_a.res in P2(1)
REM Old TITL Rochester_AS in P21/m #11
REM SHELXT solution in P2(1)
REM R1 0.091, Rweak 0.021, Alpha 0.004, Orientation as input
REM Flack x = 0.161 ( 0.096 ) from Parsons' quotients
REM Formula found by SHELXT: C11 O2 F3
CELL 1.54184 8.094771 6.725815 9.536782 90 110.9991 90
ZERR 2 0.00029 0.000168 0.00032 0 0.0038 0
LATT -1
SYMM -X,0.5+Y,-Z
SFAC C H F N O
UNIT 20 16 6 2 4

L.S. 4 0 0
PLAN  20
BOND $H
MORE -1
CONF
fmap 2 53
ACTA
SHEL 8 0.84
REM <olex2.extras>
REM <HklSrc "%.\\Rochester_AS.hkl">
REM </olex2.extras>

WGHT    0.054000    0.046900
FVAR       4.43561
F3    3    0.894506    0.765407    0.136815    11.00000    0.04483    0.02344 =
         0.03849   -0.00475    0.02651   -0.00541
F2    3    0.830214    0.591589   -0.064834    11.00000    0.03675    0.03821 =
         0.02188    0.00035    0.01413   -0.00728
F1    3    1.045721    0.503393    0.134796    11.00000    0.02561    0.03881 =
         0.03577    0.00591    0.01672    0.00356
O2    5    0.467088    0.335299    0.785244    11.00000    0.03419    0.03295 =
         0.02658   -0.00062    0.01782   -0.00154
O1    5    0.229028    0.344296    0.586164    11.00000    0.02332    0.03783 =
         0.03818    0.00385    0.01655    0.00088
N1    4    0.390457    0.339848    0.648063    11.00000    0.02598    0.01833 =
         0.02965    0.00015    0.01526   -0.00040
C1    1    0.880135    0.577590    0.086103    11.00000    0.02497    0.02400 =
         0.01995   -0.00106    0.01050    0.00127
C7    1    0.681405    0.343630    0.621774    11.00000    0.02696    0.02072 =
         0.02304    0.00041    0.01158    0.00204
AFIX  43
H7    2    0.734712    0.342836    0.725880    11.00000   -1.20000
AFIX   0
C8    1    0.499349    0.339721    0.553564    11.00000    0.02680    0.01598 =
         0.02788    0.00146    0.01718    0.00049
C10   1    0.519519    0.344098    0.309965    11.00000    0.02678    0.02163 =
         0.02344    0.00059    0.01030   -0.00138
AFIX  43
H10   2    0.465670    0.342229    0.205910    11.00000   -1.20000
AFIX   0
C2    1    0.755456    0.456807    0.131163    11.00000    0.02424    0.02533 =
         0.02155   -0.00037    0.01157    0.00006
AFIX  13
H2    2    0.633496    0.506210    0.096433    11.00000   -1.20000
AFIX   0
C6    1    0.782656    0.348752    0.531762    11.00000    0.02314    0.02522 =
         0.02610    0.00035    0.01239    0.00019
AFIX  43
H6    2    0.905382    0.350762    0.576156    11.00000   -1.20000
AFIX   0
C9    1    0.415075    0.339995    0.398505    11.00000    0.02085    0.01960 =
         0.02932    0.00167    0.01169   -0.00074
AFIX  43
H9    2    0.292279    0.337506    0.354989    11.00000   -1.20000
AFIX   0
C5    1    0.703444    0.350960    0.374914    11.00000    0.02586    0.01620 =
         0.02587    0.00082    0.01341    0.00092
C4    1    0.818407    0.356670    0.283653    11.00000    0.02476    0.02619 =
         0.02572    0.00055    0.01368    0.00109
AFIX  13
H4    2    0.945131    0.370895    0.341563    11.00000   -1.20000
AFIX   0
C3    1    0.774338    0.235915    0.141511    11.00000    0.04170    0.02424 =
         0.03905   -0.00381    0.02873   -0.00446
AFIX  23
H3A   2    0.871735    0.176874    0.119611    11.00000   -1.20000
H3B   2    0.666923    0.157005    0.110608    11.00000   -1.20000
AFIX   0
HKLF 4

REM  rochester_as_a.res in P2(1)
REM R1 =  0.0294 for    1645 Fo > 4sig(Fo)  and  0.0303 for all    1694 data
REM    145 parameters refined using      1 restraints

END

WGHT      0.0540      0.0473

REM Highest difference peak  0.169,  deepest hole -0.198,  1-sigma level  0.040
Q1    1   0.6025  0.3346  0.8592  11.00000  0.05    0.16
Q2    1   0.8181  0.5281  0.1197  11.00000  0.05    0.16
Q3    1   0.6883  0.5611 -0.1448  11.00000  0.05    0.15
Q4    1   0.6432  0.2950  0.3557  11.00000  0.05    0.14
Q5    1   0.7760  0.7750  0.0596  11.00000  0.05    0.13
Q6    1   0.5910  0.3258  0.5799  11.00000  0.05    0.13
Q7    1   1.1872  0.5166  0.2196  11.00000  0.05    0.13
Q8    1   1.0356  0.3056  0.1261  11.00000  0.05    0.12
Q9    1   0.7996  0.4344  0.2220  11.00000  0.05    0.12
Q10   1   0.9799  0.5183 -0.0147  11.00000  0.05    0.12
Q11   1   0.8246  0.5171  0.2555  11.00000  0.05    0.12
Q12   1   0.0825  0.3299  0.4942  11.00000  0.05    0.11
Q13   1   0.8009  0.6424  0.1388  11.00000  0.05    0.11
Q14   1   0.8197  0.2828  0.2428  11.00000  0.05    0.11
Q15   1   0.9826  0.6336  0.0134  11.00000  0.05    0.11
Q16   1   1.0236  0.6421  0.1611  11.00000  0.05    0.11
Q17   1   0.7249  0.2747  0.5842  11.00000  0.05    0.10
Q18   1   0.4196  0.3991  0.1557  11.00000  0.05    0.10
Q19   1   0.4672  0.4091  0.3667  11.00000  0.05    0.10
Q20   1   0.4699  0.2852  0.3636  11.00000  0.05    0.10
;
_shelx_res_checksum              69629
_shelx_hkl_file
;
   0  -8   0 8591.13 274.118   7
   0  -8   0 5766.17 269.749   3
   0  -7   0-50.2694 121.593  34
   0  -7   0 25.9151 44.6057   3
   0  -7   0 17.1562 78.5769  39
   0  -7   0-4.47059 45.1475   7
   0  -7   0 6.66567 90.0566  49
   0  -7   0 15.2113 28.8410  13
   0  -7   0 20.3580 61.3927  35
   0  -7   0-16.7756 73.1088  52
   0  -7  -1 303.229 109.923  47
   0  -7   1 392.696 83.8792  35
   0  -7  -1 310.342 123.167  34
   0  -7   1 365.563 91.9128  49
   0  -7   1 339.992 51.7418   3
   0  -7   1 245.676 107.323  47
   0  -7  -1 230.470 91.6943  39
   0  -7  -1 369.197 39.3937  13
   0  -7  -1 379.857 51.0548   7
   0  -7   1 435.669 72.5421  39
   0  -7   1 224.687 64.9224  48
   0  -7  -1 345.162 94.3566  49
   0  -7   1 357.699 37.4685  13
   0  -7   1 282.446 90.1531  52
   0  -7  -1 311.030 53.7380   3
   0  -7   1 365.279 49.4663   7
   0  -7  -2 615.440 63.5846   3
   0  -7   2 796.110 103.084  52
   0  -7  -2 714.871 105.399  39
   0  -7   2 805.147 62.3499   3
   0  -7   2 774.420 100.395  35
   0  -7   2 675.703 133.959  34
   0  -7  -2 724.081 115.733  34
   0  -7  -2 730.522 57.8133   7
   0  -7   2 546.008 82.9643  48
   0  -7  -2 604.987 47.0316  14
   0  -7  -2 644.015 100.218  49
   0  -7  -2 761.833 111.555  47
   0  -7  -2 700.894 49.5328  13
   0  -7   2 432.375 109.116  47
   0  -7   2 591.838 91.2328  49
   0  -7   3 84.8934 39.2354   3
   0  -7  -3 149.357 43.5998   7
   0  -7   3 111.277 78.3037  47
   0  -7  -3 103.354 70.8993  49
   0  -7   3 129.945 80.6633  52
   0  -7  -3 91.6529 28.3820  13
   0  -7  -3 102.015 30.2332  14
   0  -7   3 18.6782 104.095  34
   0  -7   3 31.2398 74.1047  35
   0  -7   3 95.7841 44.1326  53
   0  -7  -3 45.4483 77.3080  47
   0  -7   3 59.0296 64.4149  48
   0  -7   3 123.643 58.6363  49
   0  -7  -4 341.299 37.4322  14
   0  -7   4 570.730 46.3368   3
   0  -7  -4 451.091 47.3719   7
   0  -7  -4 318.624 65.2294  49
   0  -7   4 430.867 70.0653  48
   0  -7   4 352.211 86.8922  34
   0  -7   4 491.972 54.5876  53
   0  -7  -4 390.978 78.2860  39
   0  -7   4 420.486 76.2935  35
   0  -7   5 788.761 74.4549  35
   0  -7   5 666.904 70.4249  52
   0  -7   5 763.441 71.0354  48
   0  -7   5 920.887 47.7344   3
   0  -7  -5 711.682 48.8788   7
   0  -7  -5 595.942 40.8401  13
   0  -6   0 7524.47 305.082   3
   0  -6   0 5960.06 319.823  48
   0  -6   0 7089.23 338.184  39
   0  -6   0 6863.90 293.351  14
   0  -6   0 7508.94 342.680  52
   0  -6   0 7945.17 367.480  34
   0  -6   0 8341.44 299.257  13
   0  -6  -1 10954.0 491.636  34
   0  -6  -1 10829.0 483.983  39
   0  -6   1 11289.0 488.715  52
   0  -6  -1 11010.3 447.630   3
   0  -6  -1 11220.2 494.973  47
   0  -6  -1 12445.0 443.309  13
   0  -6   1 11037.3 494.150  47
   0  -6  -1 9757.22 467.274  52
   0  -6   1 11322.4 447.341   3
   0  -6   1 10468.8 477.877  48
   0  -6  -1 10930.0 440.181  14
   0  -6   1 9707.59 466.527  39
   0  -6  -1 10766.4 436.606   7
   0  -6   1 11752.2 494.630  49
   0  -6  -1 11795.7 500.693  49
   0  -6   1 11816.6 439.605  13
   0  -6   2 243.137 67.2144  39
   0  -6   2 289.694 67.1627  53
   0  -6   2 327.324 52.4503   3
   0  -6   2 444.465 115.030  47
   0  -6  -2 86.5078 113.120  47
   0  -6  -2 255.379 40.8200  14
   0  -6   2 357.341 94.5537  49
   0  -6   2 374.662 105.991  35
   0  -6  -2 321.640 55.3553   3
   0  -6   2 308.811 111.814  52
   0  -6  -2 246.453 56.3362  32
   0  -6   2 332.318 37.5438  13
   0  -6   2 239.243 93.0129  48
   0  -6  -2 319.251 48.1536   7
   0  -6  -2 320.663 103.787  49
   0  -6  -2 330.656 43.6390  13
   0  -6  -2 450.252 127.914  34
   0  -6   2 171.825 145.845  34
   0  -6   3 1069.77 152.571  34
   0  -6   3 1245.30 78.4257   3
   0  -6  -3 903.771 79.2658   3
   0  -6  -3 911.229 121.144  47
   0  -6   3 1097.47 97.1533  53
   0  -6  -3 994.648 120.227  49
   0  -6   3 872.673 68.4628  38
   0  -6  -3 1094.79 71.5611  14
   0  -6  -3 983.253 133.020  39
   0  -6   3 934.982 121.408  47
   0  -6  -3 1140.86 86.8467  32
   0  -6   3 1064.79 123.400  48
   0  -6  -3 1086.39 120.456  34
   0  -6  -3 1055.50 71.3158   7
   0  -6   3 982.710 126.215  35
   0  -6   3 1056.33 106.806  49
   0  -6  -4 128.085 62.4799  32
   0  -6   4 69.5706 95.9790  52
   0  -6   4 88.4541 74.8630  47
   0  -6   4 44.6221 86.7044  48
   0  -6   4 94.0024 46.1002   3
   0  -6   4 28.1079 91.5197  35
   0  -6   4 7.31580 107.176  34
   0  -6  -4 75.2194 38.7164  14
   0  -6   4 35.1267 63.2678  53
   0  -6  -4 80.7499 91.9696  39
   0  -6   4 95.5946 41.2691  38
   0  -6  -4 130.788 76.3265  49
   0  -6  -4 99.9708 36.2841   8
   0  -6  -4 123.428 47.4285   7
   0  -6  -4 69.2250 34.8704  13
   0  -6   4 32.5368 58.1991  49
   0  -6  -4 24.8186 73.7541  47
   0  -6  -5 1652.61 98.5473  32
   0  -6   5 1682.02 87.2131   3
   0  -6   5 1373.77 117.864  52
   0  -6   5 1245.35 83.2745  38
   0  -6  -5 1331.23 75.8082  13
   0  -6   5 901.102 113.308  34
   0  -6  -5 1424.27 81.3899   7
   0  -6   5 1331.17 102.871  53
   0  -6  -5 1342.63 81.3537  14
   0  -6  -5 1288.91 116.677  39
   0  -6   6 39.7214 59.4461  48
   0  -6  -6-16.7574 54.1549  39
   0  -6  -6 4.77231 23.2931  13
   0  -6  -6-32.2757 38.6137   7
   0  -6   6 9.87756 30.9174  38
   0  -6   6 34.4619 35.0953   3
   0  -6   6 37.2528 58.3459  52
   0  -6  -6 22.2588 47.3291  32
   0  -6   6 46.9458 45.0710  53
   0  -6   6 34.8955 62.4836  35
   0  -6  -7 41.6976 20.3743  14
   0  -6   7 30.5783 23.9153   3
   0  -6  -7 1.43696 28.2467  21
   0  -5   0 7.91552 28.3840  13
   0  -5   0-0.87882 24.3504  14
   0  -5   0 104.219 130.256  34
   0  -5   0-33.7843 80.6753  39
   0  -5   0 37.9474 64.6099  48
   0  -5   0-42.8342 83.2714  52
   0  -5   0 52.9495 35.3140   3
   0  -5   0 5.09821 30.1427   4
   0  -5   1 104.794 23.7137  14
   0  -5  -1 108.913 38.4860   3
   0  -5   1 75.2709 88.2613  52
   0  -5   1 186.356 76.0565  48
   0  -5   1 254.683 82.6640  49
   0  -5   1 138.025 28.5282  13
   0  -5  -1 82.9112 101.663  47
   0  -5  -1 58.5422 82.4957  49
   0  -5   1 103.209 37.2663   3
   0  -5   1 52.9381 73.6026  39
   0  -5  -1 106.099 31.4085  13
   0  -5  -1 56.8503 117.869  34
   0  -5  -1 37.0516 46.1357  32
   0  -5  -1 120.726 92.0131  39
   0  -5   1 122.852 31.6494   4
   0  -5  -1 34.5208 74.0525  52
   0  -5  -1 97.6001 30.6032  14
   0  -5   1 67.9117 99.5404  47
   0  -5  -1 115.731 53.4835  48
   0  -5  -2 720.927 125.815  34
   0  -5   2 806.025 105.324  48
   0  -5  -2 539.505 100.205  49
   0  -5   2 620.775 77.8753  39
   0  -5   2 629.712 110.202  52
   0  -5  -2 593.717 111.262  47
   0  -5   2 729.323 94.4065  49
   0  -5  -2 613.057 59.1031   3
   0  -5  -2 653.646 80.4156  52
   0  -5   2 670.287 49.0135   4
   0  -5   2 728.540 58.2338   3
   0  -5   2 708.125 46.8131  13
   0  -5   2 734.779 137.909  34
   0  -5   2 696.310 110.165  47
   0  -5  -2 705.464 69.6081  32
   0  -5  -2 669.600 51.4285   7
   0  -5   3 852.755 66.8012   3
   0  -5  -3 892.666 60.3749   7
   0  -5  -3 1019.24 114.564  47
   0  -5  -3 824.151 69.9590   3
   0  -5   3 820.703 109.300  47
   0  -5   3 927.884 139.492  34
   0  -5  -3 1020.46 114.522  49
   0  -5  -3 1040.92 86.4449  32
   0  -5  -3 794.437 114.740  34
   0  -5  -3 809.748 118.935  39
   0  -5   3 1026.92 122.171  48
   0  -5   3 804.921 95.0089  49
   0  -5   4 2760.72 143.455  38
   0  -5  -4 2852.27 178.143  39
   0  -5   4 2766.13 179.099  52
   0  -5  -4 3429.52 156.034  32
   0  -5  -4 2541.08 168.836  49
   0  -5  -4 2740.92 125.916   7
   0  -5  -4 2583.84 137.798   3
   0  -5  -4 2386.04 157.617  47
   0  -5  -4 2600.24 121.986   8
   0  -5   4 2221.73 149.111  49
   0  -5   4 2236.48 155.175  47
   0  -5   4 2561.21 177.477  34
   0  -5   4 3120.82 138.010   3
   0  -5   4 3115.23 168.981  53
   0  -5   5 456.263 97.2872  34
   0  -5   5 427.861 57.3729   3
   0  -5   5 453.690 63.1748  38
   0  -5   5 306.107 96.2886  52
   0  -5  -5 497.942 81.7496  32
   0  -5  -5 362.869 54.8614   7
   0  -5  -5 392.949 93.0096  39
   0  -5  -5 378.896 44.0666   8
   0  -5   5 287.241 103.360  35
   0  -5   5 427.900 82.7211  53
   0  -5   5 398.047 102.178  48
   0  -5  -5 330.388 73.8227  49
   0  -5   6 22.2196 80.7724  35
   0  -5   6 101.277 47.2133   3
   0  -5   6 81.5496 76.4496  48
   0  -5  -6 59.8437 30.1283  62
   0  -5  -6 136.164 66.8643  39
   0  -5   6 63.6090 70.8189  52
   0  -5  -6 102.197 32.3705  13
   0  -5  -6 123.126 48.0854   7
   0  -5   6 136.431 51.2918  38
   0  -5   7 126.306 42.9604   3
   0  -5   7 141.906 52.7771  53
   0  -5  -7 98.8126 27.2874  13
   0  -5  -7 113.708 43.3005  21
   0  -5   7 35.8747 55.6456  48
   0  -5  -7 112.465 41.6075   7
   0  -5  -7 185.747 55.9808  32
   0  -5   7 148.015 64.2232  35
   0  -5   7 170.253 41.9938  38
   0  -5  -7 111.242 29.0902  62
   0  -5   7 95.2455 25.9737  37
   0  -5  -8 754.708 47.4924  21
   0  -5  -8 634.694 46.7789   7
   0  -5   8 763.731 53.8216  54
   0  -5   8 745.023 57.0686  53
   0  -5  -8 604.280 44.1188  14
   0  -5  -8 839.612 57.1025  32
   0  -5   8 749.567 51.8101  38
   0  -5  -8 566.982 42.1357  62
   0  -5   8 991.556 54.1933   3
   0  -4   0 48367.9 1817.66  39
   0  -4   0 45231.0 1793.85  32
   0  -4   0 44782.4 1817.00  52
   0  -4   0 48881.5 1792.77  13
   0  -4   0 45433.3 1820.77  34
   0  -4   0 47808.2 1816.55  48
   0  -4  -1 18948.6 763.806  52
   0  -4   1 17028.7 767.045  52
   0  -4   1 19146.4 762.606  39
   0  -4   1 20517.4 741.198  13
   0  -4   1 19799.8 772.050  49
   0  -4  -1 20608.4 768.591  24
   0  -4  -1 19933.1 776.839  49
   0  -4   1 23975.2 790.946  24
   0  -4  -1 19007.7 770.928  47
   0  -4   1 20994.2 774.777  48
   0  -4  -1 18657.0 771.309  34
   0  -4  -1 19209.0 747.898  32
   0  -4  -1 19964.7 771.172  39
   0  -4  -1 19796.8 748.894  40
   0  -4   1 18909.0 739.235  14
   0  -4  -1 16293.4 758.503  48
   0  -4  -1 19723.6 741.985  13
   0  -4   1 18869.2 769.411  47
   0  -4  -2 640.069 49.7104   3
   0  -4  -2 697.006 64.7009  40
   0  -4   2 744.420 42.2802  13
   0  -4   2 830.552 90.4702  48
   0  -4  -2 633.956 69.8763  52
   0  -4  -2 707.485 108.367  34
   0  -4  -2 612.800 42.5362   7
   0  -4   2 591.208 111.268  34
   0  -4  -2 654.968 58.7712  24
   0  -4  -2 641.435 95.1343  47
   0  -4   2 642.171 49.5647   3
   0  -4   2 730.078 79.6257  49
   0  -4  -2 745.125 86.9234  49
   0  -4   2 667.970 66.1405  39
   0  -4   2 720.819 91.7122  47
   0  -4  -2 717.555 65.8046  32
   0  -4  -2 670.045 93.4600  39
   0  -4  -3 11089.0 487.067  47
   0  -4  -3 11269.4 465.445   3
   0  -4  -3 12166.7 496.655  39
   0  -4   3 12058.6 493.285  34
   0  -4  -3 10842.5 455.995   7
   0  -4   3 11145.5 482.681  47
   0  -4  -3 12604.6 474.776  40
   0  -4   3 12536.2 466.616   3
   0  -4   3 11952.1 494.341  52
   0  -4  -3 12205.4 460.932  45
   0  -4  -3 12972.9 476.113  32
   0  -4   3 11304.1 483.504  49
   0  -4  -3 12652.0 499.089  49
   0  -4  -3 12027.6 474.340  20
   0  -4   4 2107.12 95.1413   4
   0  -4  -4 1934.26 93.3567   7
   0  -4   4 1989.72 139.668  34
   0  -4  -4 2334.71 101.854  45
   0  -4   4 1668.21 112.525  49
   0  -4  -4 1810.42 127.960  49
   0  -4   4 1623.73 116.234  47
   0  -4   4 1896.23 139.628  48
   0  -4   4 1815.26 135.636  52
   0  -4  -4 1941.57 104.163   3
   0  -4  -4 1773.22 120.428  47
   0  -4  -4 1794.43 90.1240   8
   0  -4   4 1964.59 141.918  35
   0  -4  -4 1987.44 139.225  39
   0  -4   5 1272.05 111.380  34
   0  -4   5 1435.46 128.688  35
   0  -4  -5 1300.51 78.5192   7
   0  -4  -5 1519.71 86.6648  45
   0  -4   5 1364.27 123.318  48
   0  -4  -5 1537.21 108.928  40
   0  -4  -5 1312.85 73.3453   8
   0  -4   5 1516.69 78.3821   4
   0  -4  -5 1778.15 113.648  32
   0  -4   5 1303.31 116.682  52
   0  -4  -5 1060.55 100.840  49
   0  -4  -5 1323.52 116.584  39
   0  -4  -6 2730.57 123.196   8
   0  -4   6 2507.50 166.852  48
   0  -4  -6 2427.52 152.117  39
   0  -4   6 2300.97 153.496  52
   0  -4   6 2641.29 159.240  53
   0  -4   6 2883.54 129.405   4
   0  -4  -6 2945.36 139.105  45
   0  -4  -6 3205.29 157.065  40
   0  -4   6 3146.19 151.591  38
   0  -4  -6 2605.23 130.767   7
   0  -4  -6 3151.46 156.355  32
   0  -4   6 2621.59 173.004  35
   0  -4  -7 3966.22 181.916  40
   0  -4  -7 3841.59 180.315  32
   0  -4  -7 4115.43 171.677  45
   0  -4  -7 4122.72 170.670  62
   0  -4  -7 3883.20 163.314   7
   0  -4   7 3603.32 159.774   4
   0  -4  -7 3372.71 162.239  21
   0  -4   7 3365.51 186.191  53
   0  -4   7 3038.28 183.774  48
   0  -4   7 2883.80 191.068  35
   0  -4   8 1472.69 88.6268  38
   0  -4  -8 1748.69 94.2650  32
   0  -4   8 1388.16 93.6303  53
   0  -4   8 1260.97 96.6523  35
   0  -4   8 1504.07 81.8512  37
   0  -4  -8 1498.36 81.3404  21
   0  -4  -8 1582.42 83.3542  62
   0  -4   8 1557.42 95.6698  54
   0  -4  -8 1516.49 82.6900   7
   0  -4   9 220.839 26.6424  37
   0  -4  -9 226.701 28.0550  62
   0  -4  -9 165.187 32.8342  64
   0  -4   9 210.293 29.9024  38
   0  -4  -9 261.301 29.8753  21
   0  -4   9 299.203 37.2247   3
   0  -3   0 57.2484 55.9653  39
   0  -3   0 20.8649 53.1697  23
   0  -3   0-8.90786 33.7307  24
   0  -3   0-6.20974 32.9717  40
   0  -3   0-4.60852 16.0662  27
   0  -3   0-6.60258 17.3470  13
   0  -3   0-47.2557 79.9911  34
   0  -3   0-13.8395 39.7226  30
   0  -3  -1 13885.5 540.837  30
   0  -3  -1 11484.7 533.139  34
   0  -3  -1 13921.9 530.415  24
   0  -3  -1 14534.9 537.881  31
   0  -3   1 13665.1 511.292  13
   0  -3  -1 14243.0 517.347  27
   0  -3   1 14648.8 536.411  31
   0  -3   1 14897.7 562.135  25
   0  -3  -1 12531.7 517.279  40
   0  -3  -1 13015.4 517.661  32
   0  -3   1 13180.7 532.462  49
   0  -3  -1 15330.6 544.303  23
   0  -3  -1 12684.8 533.735  49
   0  -3  -1 11773.2 530.658  47
   0  -3   1 16356.7 559.315  26
   0  -3  -1 12889.0 545.146  50
   0  -3   1 12314.6 530.076  47
   0  -3   1 13066.6 526.131  39
   0  -3  -1 14386.3 565.915  25
   0  -3   1 13251.4 520.477  27
   0  -3  -2 6694.03 313.242  47
   0  -3  -2 7921.49 309.743  24
   0  -3   2 8064.31 308.899  27
   0  -3   2 7727.90 335.532  25
   0  -3  -2 7752.36 317.881  39
   0  -3   2 6952.74 311.038  47
   0  -3  -2 7846.79 346.871  25
   0  -3  -2 9178.77 323.657  23
   0  -3   2 6860.98 316.844  34
   0  -3  -2 7376.30 302.200  32
   0  -3   2 7487.73 290.453  13
   0  -3  -2 7400.01 301.185  40
   0  -3   2 9896.48 349.982  26
   0  -3  -2 7819.36 306.678  17
   0  -3   2 7465.04 311.523  49
   0  -3  -2 7139.87 292.673  45
   0  -3  -2 7434.53 317.331  49
   0  -3  -2 6813.75 314.434  34
   0  -3   3 9081.59 415.413  47
   0  -3  -3 10658.4 428.489  49
   0  -3   3 10103.1 425.990  52
   0  -3   3 11735.2 433.487  48
   0  -3   3 9641.33 439.968  25
   0  -3  -3 10528.3 416.502  17
   0  -3  -3 9730.87 424.882  18
   0  -3   3 9696.85 417.237  49
   0  -3  -3 10706.9 405.800  45
   0  -3  -3 9526.71 420.952  47
   0  -3  -3 12359.2 426.006  23
   0  -3  -3 10907.6 428.812  39
   0  -3  -3 9608.84 418.641  24
   0  -3  -4 8845.56 329.268  45
   0  -3  -4 7496.37 344.282  49
   0  -3  -4 7674.08 350.691  18
   0  -3  -4 8301.97 334.682  20
   0  -3  -4 8755.73 350.450  39
   0  -3  -4 9326.82 340.375  32
   0  -3   4 8800.19 356.640  48
   0  -3   4 7889.42 346.467  52
   0  -3   4 8279.02 355.932  35
   0  -3  -4 7658.30 320.142   7
   0  -3  -4 8690.97 338.018  40
   0  -3  -4 7667.10 328.588   3
   0  -3   5 90.1720 64.9207  52
   0  -3  -5 16.1701 61.1146  39
   0  -3  -5 94.4108 62.4116  32
   0  -3  -5 81.6442 61.9309  40
   0  -3   5 73.3889 30.5697   4
   0  -3  -5 68.5905 29.6417   8
   0  -3  -5 60.1912 46.2267  45
   0  -3  -5 65.8397 37.2001   7
   0  -3   5 81.4812 52.2680  53
   0  -3   5 53.5263 70.5230  35
   0  -3   5 50.6992 63.8335  48
   0  -3  -6 372.065 40.4912   8
   0  -3  -6 423.422 73.0118  32
   0  -3  -6 435.644 74.9276  40
   0  -3  -6 440.006 51.4624   7
   0  -3   6 311.056 78.1947  35
   0  -3   6 411.975 75.2554  48
   0  -3   6 386.540 67.4900  53
   0  -3   6 345.501 44.5431   4
   0  -3  -6 402.384 59.5897  45
   0  -3   6 361.386 66.9389  52
   0  -3  -7 28.3117 47.3294  21
   0  -3   7-2.65429 62.2073  35
   0  -3  -7 19.3910 61.5063  40
   0  -3  -7 98.3205 61.6900  32
   0  -3   7 3.73522 36.3455   4
   0  -3   7 20.1970 48.3906  38
   0  -3   7 15.5193 53.6351  53
   0  -3  -7 21.8558 33.5960   8
   0  -3   7 118.666 55.0540  48
   0  -3  -7 34.7101 45.2885   7
   0  -3  -8 1278.77 77.5998  62
   0  -3   8 970.596 85.2272  35
   0  -3   8 1222.12 72.2606   4
   0  -3  -8 1062.50 72.0846  21
   0  -3  -8 1228.29 83.9436  40
   0  -3  -8 1251.24 81.8379  32
   0  -3   8 1091.74 85.2593  54
   0  -3  -8 1109.38 73.6680   7
   0  -3   8 1165.41 74.9177  37
   0  -3   8 1009.61 80.1939  53
   0  -3   8 1043.15 79.2759  38
   0  -3  -9 1168.19 63.6252  21
   0  -3   9 1051.11 73.7375  54
   0  -3   9 1245.79 68.5251  37
   0  -3   9 1045.63 68.2068  38
   0  -3   9 1230.38 63.5322   4
   0  -2   0 130688. 4725.63  30
   0  -2   0 123439. 4714.16  27
   0  -2  -1 110601. 3955.58  25
   0  -2   1 107049. 3937.09  31
   0  -2  -1 98139.1 3926.97  27
   0  -2  -1 104933. 3939.83  31
   0  -2  -2 7726.93 317.940  25
   0  -2   2 7415.54 297.474  18
   0  -2   2 7457.81 299.951  31
   0  -2  -2 6590.91 292.220  24
   0  -2  -2 6812.92 306.101  30
   0  -2   2 7700.17 309.557  25
   0  -2   2 7722.75 303.679  23
   0  -2   2 7869.89 299.359  27
   0  -2  -3 1478.69 72.2525  45
   0  -2   3 1308.85 86.9491  25
   0  -2  -3 1319.07 84.8307  28
   0  -2   3 1321.61 88.3276  52
   0  -2  -3 1261.49 92.3164  18
   0  -2  -3 1348.34 93.4122  51
   0  -2   3 1581.98 91.6859  31
   0  -2  -3 1374.72 80.1884  32
   0  -2   3 1462.76 88.6394  18
   0  -2  -3 1433.96 77.3373  23
   0  -2  -3 1392.17 66.7243  41
   0  -2   3 1605.15 89.9741  23
   0  -2  -3 1419.60 101.712  25
   0  -2  -3 1326.16 78.8463  40
   0  -2  -3 1584.64 94.4023  30
   0  -2  -3 1374.77 87.8897  39
   0  -2  -3 1285.88 90.8171  50
   0  -2  -3 1378.73 78.1033  17
   0  -2  -3 1409.73 78.5104  24
   0  -2   4 1887.18 106.860  48
   0  -2  -4 1908.90 109.024  28
   0  -2  -4 1767.37 110.086  18
   0  -2  -4 1649.20 111.536  31
   0  -2  -4 1780.36 98.1647  40
   0  -2   4 1656.34 102.397  52
   0  -2   4 1760.07 103.078  23
   0  -2   4 1752.84 110.112  35
   0  -2  -4 1970.38 92.6633  45
   0  -2  -4 1787.79 101.256  39
   0  -2  -4 1834.55 97.9324  17
   0  -2  -4 1845.56 86.3082  41
   0  -2  -4 2076.20 115.861  25
   0  -2   4 2251.79 133.281  26
   0  -2  -4 1871.31 99.5268  32
   0  -2  -5 5267.52 303.547  31
   0  -2   5 6179.58 291.340  52
   0  -2  -5 7663.81 293.567  40
   0  -2   5 7041.29 301.876  48
   0  -2   5 6832.48 298.748  53
   0  -2  -5 8150.75 285.816  41
   0  -2  -5 7218.85 280.188   7
   0  -2  -5 7989.26 294.582  32
   0  -2  -5 6250.46 302.422  18
   0  -2   5 6734.88 305.194  35
   0  -2  -6 469.814 62.5782  32
   0  -2   6 353.806 58.2844  53
   0  -2   6 434.900 52.4389   2
   0  -2   6 389.280 54.1012  38
   0  -2  -6 464.536 48.6794   7
   0  -2   6 343.625 59.6036  48
   0  -2   6 349.738 68.1962  35
   0  -2  -6 548.243 66.4004  40
   0  -2  -6 516.242 60.2626  45
   0  -2  -6 457.864 51.0143  41
   0  -2  -6 417.221 40.3151   8
   0  -2   7 703.971 71.4931  53
   0  -2  -7 862.449 54.6608   8
   0  -2  -7 745.048 64.0210   7
   0  -2  -7 820.159 71.4676  32
   0  -2   7 736.026 78.8115  35
   0  -2  -7 832.187 76.2072  40
   0  -2  -7 881.907 74.0849  45
   0  -2   7 748.857 67.8064   2
   0  -2   7 768.777 67.2814  38
   0  -2  -7 718.276 61.7754  21
   0  -2  -8 710.309 59.1469  21
   0  -2   8 854.510 63.9608  37
   0  -2  -8 815.060 63.3063  32
   0  -2  -8 719.154 64.9291  40
   0  -2  -8 692.903 54.1064   8
   0  -2   8 727.600 72.9047  54
   0  -2   8 618.109 62.8126   2
   0  -2   8 719.706 63.1271  53
   0  -2  -8 808.409 62.8667  62
   0  -2  -8 876.218 71.1111  45
   0  -2  -8 753.500 63.2554   7
   0  -2   8 662.544 62.2655  38
   0  -2  -9 151.840 41.9224  64
   0  -2  -9 137.361 43.0147  45
   0  -2  -9 108.604 36.8774  21
   0  -2  -9 97.8852 32.5966  62
   0  -2   9 97.7677 31.5092  38
   0  -2   9 74.3114 39.6693  54
   0  -2   9 158.372 39.9017   4
   0  -2 -10 117.792 23.6024  62
   0  -2  10 120.805 24.3160   4
   0  -2  10 72.1444 24.9339  54
   0  -2 -10 149.627 25.4045  21
   0  -2  10 39.7755 26.4570  36
   0  -2 -10 117.958 28.4601  64
   0  -1   2 10546.0 402.625  23
   0  -1   2 9598.90 402.459  18
   0  -1   2 10749.7 403.291  25
   0  -1  -2 10072.8 404.818  28
   0  -1  -2 10672.6 408.804  25
   0  -1  -2 10161.9 406.946  30
   0  -1   2 10604.1 405.588  31
   0  -1   3 3251.36 138.480  23
   0  -1  -3 3214.02 148.602  28
   0  -1   3 3118.24 147.918  31
   0  -1  -3 2953.64 145.056  30
   0  -1   3 3054.96 144.937  18
   0  -1  -3 3002.09 148.226  31
   0  -1  -3 3185.78 142.582  25
   0  -1   4 18149.2 669.660  28
   0  -1  -4 16022.0 662.047  31
   0  -1  -4 16784.7 650.831  17
   0  -1   4 16033.9 648.606  23
   0  -1   4 20294.2 666.914  29
   0  -1  -4 15932.4 643.844  41
   0  -1  -4 17699.6 668.157  28
   0  -1  -4 17016.3 646.084  32
   0  -1   4 19770.4 691.386  26
   0  -1   4 17415.6 653.631  17
   0  -1  -4 16098.2 648.149  25
   0  -1  -4 16987.5 664.630  30
   0  -1   4 17906.0 665.036  18
   0  -1  -4 16253.0 644.896  45
   0  -1   4 15884.6 654.575  35
   0  -1  -4 17203.0 658.350  18
   0  -1  -4 16620.9 646.913  40
   0  -1   4 15787.5 669.072  31
   0  -1   5 7189.83 341.336  48
   0  -1  -5 8805.99 340.718  32
   0  -1  -5 8734.12 341.452  45
   0  -1  -5 8620.40 342.287  40
   0  -1   5 10311.6 368.232  29
   0  -1  -5 7765.65 356.967  31
   0  -1   5 7749.05 349.534  35
   0  -1  -5 8069.06 352.648  18
   0  -1   5 11029.4 388.948  50
   0  -1  -5 9549.92 341.545  41
   0  -1  -5 8191.24 366.180  28
   0  -1   5 8064.53 345.219  53
   0  -1   5 9704.04 397.553  26
   0  -1   6 4103.30 209.543  35
   0  -1  -6 4693.43 203.678  40
   0  -1  -6 5056.95 204.903  45
   0  -1  -6 4984.30 197.512   7
   0  -1   6 4341.03 202.598  38
   0  -1  -6 4911.22 201.562  32
   0  -1  -6 5055.97 204.134  41
   0  -1  -6 4809.87 193.384   8
   0  -1   6 4384.60 205.988  53
   0  -1  -6 4675.98 195.506  21
   0  -1  -7 1125.57 63.0518   8
   0  -1   7 955.465 68.7354  38
   0  -1  -7 1061.97 67.2453  32
   0  -1  -7 1003.17 72.8117  40
   0  -1  -7 1085.35 76.5158  45
   0  -1  -7 957.821 66.2160  21
   0  -1   7 978.609 79.5087  54
   0  -1  -7 937.222 53.1417  60
   0  -1  -7 1044.07 69.9685   7
   0  -1   7 963.629 69.7845  53
   0  -1   8 2072.71 118.924   2
   0  -1   8 1762.90 100.139  38
   0  -1  -8 2025.75 104.880  62
   0  -1  -8 1952.34 98.2183  21
   0  -1  -8 1939.82 97.1093   8
   0  -1   8 1973.00 113.255  54
   0  -1  -8 2123.69 108.844  45
   0  -1   8 1974.42 105.711  37
   0  -1   9 349.289 56.8434   2
   0  -1   9 305.562 43.8415  54
   0  -1   9 227.326 32.3139  38
   0  -1  -9 315.436 39.8734   8
   0  -1   9 302.778 40.1188  37
   0  -1  -9 294.406 37.7527  62
   0  -1  -9 286.377 41.0522  21
   0  -1  -9 344.547 47.2079  45
   0  -1  -9 247.372 42.5046  64
   0  -1  10 171.667 44.0261  55
   0  -1 -10 249.782 27.6773  62
   0  -1  10 204.940 29.0669  54
   0  -1  10 218.738 37.0934   2
   0  -1  10 273.312 31.1600  37
   0  -1 -10 285.693 33.3974  64
   0  -1  10 209.992 37.1624  36
   0  -1 -10 290.527 30.6924  21
   0  -1  10 292.210 38.1394   4
   0   0  -2 17.4288 44.3777  28
   0   0  -2 6.12361 31.3198  30
   0   0  -2 41.3898 30.3008  29
   0   0   2 9.02880 24.9335  23
   0   0   2-19.3573 46.4828  31
   0   0  -2 15.0549 29.4382  11
   0   0   2 10.9893 52.3351  18
   0   0   3 4179.11 175.557  11
   0   0  -3 4384.17 181.245  29
   0   0   3 4094.02 182.859  24
   0   0  -3 4287.63 181.046  30
   0   0  -3 4486.05 190.194  28
   0   0   3 4009.51 188.726  18
   0   0   4 52493.6 2047.77  18
   0   0   4 60069.7 2072.94  26
   0   0  -4 58422.6 2054.70  28
   0   0  -4 52080.9 2040.84  18
   0   0  -4 52254.3 2042.87  30
   0   0   4 57106.7 2036.42  11
   0   0   4 54897.1 2040.44  17
   0   0  -4 52952.8 2043.92  29
   0   0  -4 52788.4 2031.66  46
   0   0   4 52762.1 2052.60  28
   0   0  -4 54047.7 2035.33  56
   0   0  -4 51693.2 2031.05  45
   0   0  -4 51296.4 2032.42  41
   0   0  -4 54832.1 2045.67  31
   0   0   4 62451.6 2050.17  29
   0   0   4 47558.1 2045.11  24
   0   0   4 61785.8 2062.64  51
   0   0  -5 837.224 60.2029  56
   0   0   5 687.793 47.6664  38
   0   0   5 820.099 85.4873  50
   0   0  -5 790.725 58.5167  46
   0   0   5 684.801 48.1323  53
   0   0   5 917.890 69.1334  29
   0   0  -5 554.966 57.5593  30
   0   0  -5 752.785 55.1310  40
   0   0   5 834.681 54.2659  11
   0   0  -5 776.531 66.3466  31
   0   0  -5 812.047 69.8222  18
   0   0   5 757.413 87.3513  26
   0   0  -5 813.428 55.9185  45
   0   0  -5 800.304 58.2981  41
   0   0  -5 765.299 72.3167  28
   0   0   5 947.405 91.1476  51
   0   0  -6 1388.77 81.7082  56
   0   0  -6 1192.80 58.9056  60
   0   0  -6 1366.16 67.6473  62
   0   0   6 1093.34 65.1558  38
   0   0  -6 1252.58 66.1665   8
   0   0  -6 1235.64 73.2977  45
   0   0   6 1112.51 73.0537  54
   0   0  -6 1151.84 65.8456  21
   0   0  -6 1291.56 76.7443  46
   0   0  -6 1339.88 77.7094  41
   0   0  -7 379.099 54.6553  41
   0   0  -7 315.171 41.6977   8
   0   0   7 254.031 34.4764  38
   0   0  -7 321.165 44.7024   9
   0   0  -7 382.672 38.4364  62
   0   0  -7 286.276 28.2594  60
   0   0  -7 339.067 43.7414  64
   0   0   7 333.781 42.0262  37
   0   0   7 283.692 46.9874  54
   0   0  -7 305.510 48.8097  45
   0   0  -7 287.808 41.4741  21
   0   0  -8 525.371 50.4951   8
   0   0  -8 444.659 34.5529  60
   0   0  -8 501.124 52.1041  64
   0   0   8 446.335 49.1336  37
   0   0  -8 465.417 48.6728  21
   0   0  -8 493.858 43.9785  62
   0   0  -8 552.516 52.9043  45
   0   0   8 532.872 53.8893  54
   0   0  -8 599.109 63.3120  41
   0   0  -9 55.8681 33.2625  64
   0   0  -9 33.5124 24.9625  62
   0   0  -9 23.0845 32.7994  16
   0   0   9 47.3107 40.7844   5
   0   0  -9 36.3961 34.2963  21
   0   0   9 29.1750 44.6830  36
   0   0   9 17.8518 29.1083  37
   0   0  -9 63.5753 32.7878  45
   0   0   9 6.73441 51.1655  55
   0   0   9 32.0890 29.2762  54
   0   0  10 89.8895 23.8658  37
   0   0  10 79.9138 44.2069   2
   0   0  10 67.9192 32.1312  36
   0   0 -10 68.0629 19.5953  16
   0   0 -10 63.9649 17.9355  62
   0   0 -10 109.973 25.4480  21
   0   0 -10 82.5628 24.1600  64
   0   0  10 111.320 38.6589  55
   0   1  -2 10206.3 386.247  29
   0   1   2 9636.84 396.218  51
   0   1  -2 9239.64 380.026  11
   0   1  -2 10443.9 388.655  28
   0   1   2 9910.33 383.122  27
   0   1   2 9028.21 383.359  24
   0   1   3 2824.19 134.566  24
   0   1   3 2842.38 135.137  11
   0   1   3 3139.31 157.683  51
   0   1  -3 2858.83 130.178  11
   0   1  -3 3630.90 148.716  28
   0   1  -3 3271.79 136.906  29
   0   1  -3 3348.90 140.667  31
   0   1   3 3142.73 135.055  27
   0   1  -4 19527.6 685.920  28
   0   1   4 16967.4 660.914  54
   0   1  -4 16424.2 655.868  16
   0   1   4 18984.1 698.521  51
   0   1   4 16619.3 682.021  28
   0   1  -4 17694.1 663.042  46
   0   1  -4 19186.6 671.247  42
   0   1   4 15750.3 672.283  24
   0   1   4 17892.5 670.661  11
   0   1  -4 17510.6 663.567  41
   0   1   4 16530.6 658.669  37
   0   1  -4 16037.5 665.817  30
   0   1  -4 16096.7 663.765  11
   0   1  -4 19431.0 675.832  43
   0   1   4 17127.2 672.364  27
   0   1  -4 18635.6 676.645  31
   0   1  -4 17939.2 673.539  29
   0   1   4 18186.2 677.052  29
   0   1   5 8998.45 355.592  11
   0   1  -5 9284.99 347.655  46
   0   1   5 8741.83 389.371  51
   0   1  -5 8241.40 359.676  31
   0   1  -5 9265.44 373.360  28
   0   1  -5 10062.9 357.650  42
   0   1  -5 9064.09 348.410  41
   0   1   5 7754.82 356.217  27
   0   1  -5 8639.42 341.130  45
   0   1   5 8305.68 344.257  54
   0   1  -5 8426.06 338.272  16
   0   1   5 8381.69 384.992  50
   0   1   5 8608.69 342.319  37
   0   1   5 8832.61 364.619  29
   0   1   6 4598.69 198.033  37
   0   1  -6 5311.19 192.836  60
   0   1  -6 4436.50 198.262  64
   0   1  -6 5275.09 205.975  46
   0   1  -6 4370.14 193.581  62
   0   1  -6 5225.16 207.355  41
   0   1   6 4679.11 200.869  54
   0   1  -6 4898.47 197.127   8
   0   1  -6 4596.78 197.970   9
   0   1  -6 4589.67 194.317  16
   0   1  -6 4639.73 192.802  21
   0   1  -6 4622.15 196.384  45
   0   1  -7 1083.72 56.1758  60
   0   1  -7 926.062 57.4291  62
   0   1  -7 1099.31 85.5359  56
   0   1  -7 1023.21 63.4709  45
   0   1  -7 1008.28 66.6772  16
   0   1  -7 1016.52 62.6768  21
   0   1  -7 1088.61 67.5580   8
   0   1   7 1029.88 64.7766  37
   0   1  -7 1088.28 69.3727   9
   0   1  -7 1132.86 77.0921  46
   0   1  -7 1201.36 77.8762  41
   0   1  -7 927.017 63.7978  64
   0   1   7 1073.81 66.0874  54
   0   1   8 1843.95 95.8987  37
   0   1   8 1826.04 96.3002  54
   0   1  -8 1803.97 96.4221  64
   0   1   8 1867.10 124.774  55
   0   1  -8 1985.75 92.6749  21
   0   1  -8 1918.13 98.3452   9
   0   1  -8 1743.87 89.6198  62
   0   1  -8 1806.72 95.7254  16
   0   1  -9 270.481 34.6346  64
   0   1   9 312.583 35.0344  37
   0   1  -9 311.415 36.2169  21
   0   1   9 331.158 58.4042  55
   0   1  -9 274.339 27.4336  62
   0   1  -9 312.353 40.1311  16
   0   1  -9 416.795 48.4171  41
   0   1 -10 216.493 22.7252  64
   0   1  10 232.007 24.3941  37
   0   1  10 272.006 53.5045   2
   0   1 -10 227.983 23.9252  16
   0   1 -10 272.620 25.8228  21
   0   1  10 177.694 49.4898  57
   0   1  10 159.452 39.7331  55
   0   1  10 137.703 34.4186   5
   0   1 -10 172.367 26.7710  12
   0   2   0 119560. 4487.94  27
   0   2  -1 104983. 3622.27  28
   0   2   1 94222.5 3623.10  28
   0   2   1 104824. 3640.07  26
   0   2   1 101646. 3647.04  51
   0   2   2 6298.29 281.920  24
   0   2  -2 6765.43 276.876  11
   0   2  -2 7428.91 284.615  29
   0   2  -2 7481.38 281.554  30
   0   2  -2 7610.32 282.901  28
   0   2   2 7214.20 286.729  28
   0   2   2 6821.36 276.772  27
   0   2   2 7071.45 308.768  51
   0   2  -3 1367.80 85.9409  42
   0   2   3 1460.93 113.813  51
   0   2   3 1444.50 70.9507  36
   0   2  -3 1374.58 71.9135  30
   0   2  -3 1398.85 73.7478  46
   0   2  -3 1654.38 84.1942  28
   0   2  -3 1474.26 85.4167  56
   0   2   3 1261.92 69.3140  27
   0   2  -3 1567.94 84.3918  31
   0   2   3 1398.06 83.9690  28
   0   2  -3 1223.07 76.0885  57
   0   2   3 1392.49 76.8597  24
   0   2  -3 1541.60 78.5958  29
   0   2   3 1181.23 74.0371  55
   0   2   3 1266.98 80.1236  29
   0   2   3 1257.94 88.0966  30
   0   2  -3 1373.12 69.0347  11
   0   2  -3 1446.19 81.0995  44
   0   2   4 1809.20 101.781  29
   0   2  -4 2029.81 104.097  31
   0   2   4 1834.46 80.2501  37
   0   2  -4 1627.58 87.3585  30
   0   2  -4 2045.15 107.198  28
   0   2  -4 1805.72 90.8500  46
   0   2   4 1987.94 136.456  51
   0   2   4 1728.01 80.7616  54
   0   2  -4 1999.98 104.426  56
   0   2  -4 1876.56 89.7634  41
   0   2  -4 1796.79 89.1129  11
   0   2   4 1756.14 98.3522  11
   0   2  -4 1995.09 105.345  42
   0   2   4 1823.31 92.2077  36
   0   2   4 1707.70 91.3958  27
   0   2   4 1789.30 97.9766  24
   0   2  -4 2075.08 116.534  43
   0   2   4 1779.05 97.7779  55
   0   2   5 7346.60 297.488  37
   0   2  -5 7508.17 294.974  21
   0   2   5 6614.80 311.982  27
   0   2  -5 8231.37 318.556  42
   0   2  -5 7839.12 305.415  41
   0   2   5 6774.05 297.280  54
   0   2  -5 8899.43 297.617  60
   0   2   5 7880.49 312.136  36
   0   2  -5 7408.80 301.372   9
   0   2  -5 8001.55 324.692  43
   0   2   5 6999.16 316.037  55
   0   2   5 7286.80 317.017  11
   0   2  -5 8419.53 319.767  56
   0   2  -5 7029.40 324.911  28
   0   2  -5 8098.65 306.554  46
   0   2  -5 7029.79 319.493  31
   0   2  -5 7174.92 296.414  16
   0   2  -6 553.593 71.1043  42
   0   2  -6 467.495 51.9315   9
   0   2   6 414.187 62.1799  55
   0   2  -6 502.924 53.1433  41
   0   2   6 414.015 36.8754  54
   0   2  -6 452.389 39.8604  21
   0   2  -6 435.685 45.6322  16
   0   2  -6 491.463 52.5507  46
   0   2   6 457.070 43.5688   6
   0   2   6 406.535 54.6737  36
   0   2  -6 363.849 36.0993  64
   0   2   6 494.832 37.7229  37
   0   2  -6 465.960 68.8010  56
   0   2  -7 935.381 66.4168  41
   0   2   7 694.632 49.5563  37
   0   2  -7 768.274 66.4361  46
   0   2   7 811.869 54.6974   6
   0   2  -7 720.032 58.3790  16
   0   2   7 812.303 73.6769  36
   0   2  -7 746.879 50.6526  21
   0   2  -7 695.210 50.7258  64
   0   2  -7 893.735 65.0498   9
   0   2   7 696.690 80.2062  55
   0   2  -8 867.454 61.8051  41
   0   2  -8 659.059 55.1278  16
   0   2  -8 804.047 50.7224  21
   0   2  -8 579.638 45.5590  64
   0   2  -8 740.259 61.4185   9
   0   2   8 725.423 70.8679  36
   0   2   8 717.433 76.9165  55
   0   2   8 656.956 47.1534  37
   0   2   9 71.5953 61.4734  57
   0   2   9 88.7907 45.8429  55
   0   2  -9 70.3349 19.8981  64
   0   2   9 105.453 41.6240  36
   0   2  -9 91.8323 32.3001  16
   0   2  -9 108.507 34.5787  41
   0   2  -9 150.013 29.1959  21
   0   2 -10 139.873 19.9746  21
   0   2 -10 92.0767 22.0133  12
   0   2  10 115.513 42.5134  57
   0   2  10 88.6833 27.9720  36
   0   2 -10 87.9051 20.4160  16
   0   2  10 112.844 41.8235  58
   0   2  10 14.3914 35.8120   5
   0   3   0-22.9131 60.0202  44
   0   3   0 15.8654 22.4322  28
   0   3   0 39.6933 72.2327  43
   0   3   0 8.72490 74.0962  33
   0   3   0 3.51629 28.8146  55
   0   3   0 4.22673 31.3482  58
   0   3   0 25.9476 38.9932  30
   0   3   0 4.39887 38.4740  57
   0   3  -1 13635.4 528.274  42
   0   3   1 13650.1 526.581  57
   0   3  -1 13813.4 515.488  28
   0   3   1 12267.3 514.058  27
   0   3   1 13357.7 532.143  33
   0   3   1 13224.5 517.768  28
   0   3   1 13326.4 519.341  55
   0   3   1 13520.8 535.279  30
   0   3  -1 13111.0 531.964  43
   0   3  -1 12929.5 523.597  57
   0   3  -1 14351.6 529.596  30
   0   3  -1 13019.2 521.966  44
   0   3   1 12590.4 511.313  36
   0   3  -1 14066.3 526.451  56
   0   3   1 15360.8 514.118  15
   0   3  -1 12951.2 528.868  33
   0   3  -1 13224.9 517.780  58
   0   3   1 13819.3 532.797  43
   0   3  -1 12917.4 508.579  15
   0   3  -2 7832.18 302.494  28
   0   3   2 7461.03 348.930  51
   0   3  -2 8433.37 311.871  30
   0   3   2 7066.80 299.152  27
   0   3   2 7796.19 310.855  28
   0   3  -2 7626.92 307.357  44
   0   3  -2 8197.39 317.821  42
   0   3  -2 7167.66 300.888  46
   0   3  -2 7441.44 310.746  29
   0   3  -2 7934.70 314.234  56
   0   3  -2 8167.18 321.109  31
   0   3   2 7447.64 298.178  36
   0   3  -2 8753.10 305.606  58
   0   3   2 7103.30 304.730  55
   0   3  -2 6934.74 307.052  57
   0   3  -2 7126.24 302.782  11
   0   3   2 7403.29 321.702  30
   0   3   3 9791.81 424.857  28
   0   3  -3 10919.1 416.921  30
   0   3  -3 10527.1 402.449  15
   0   3   3 9548.33 410.488  27
   0   3  -3 12253.5 435.561  31
   0   3  -3 11226.7 415.495  58
   0   3   3 9940.81 417.206  55
   0   3  -3 9554.53 411.419  11
   0   3  -3 10707.6 406.733  41
   0   3  -3 9487.15 417.494  57
   0   3   3 9749.12 460.455  51
   0   3  -3 10777.2 418.191  28
   0   3  -3 10535.5 412.468  46
   0   3   3 10858.4 411.264  36
   0   3  -3 10986.5 426.904  42
   0   3  -3 10954.1 416.824  44
   0   3  -3 11977.8 427.709  56
   0   3   3 9579.64 420.000  58
   0   3  -4 8568.10 338.770   9
   0   3   4 9207.16 367.593  57
   0   3  -4 7987.31 351.758  28
   0   3  -4 8444.35 341.814  46
   0   3  -4 9343.58 350.929  44
   0   3  -4 9287.99 360.843  42
   0   3   4 7132.60 341.593  27
   0   3  -4 8578.93 337.445  41
   0   3   4 8827.49 344.213  36
   0   3  -4 9263.59 355.235  56
   0   3   4 8078.95 350.777  55
   0   3  -4 8860.98 362.471  31
   0   3  -5 63.7712 40.1803  46
   0   3  -5 76.8086 35.6215  16
   0   3  -5 101.431 57.0695  56
   0   3  -5 68.5464 43.8238   9
   0   3  -5 112.699 81.2945  43
   0   3   5 35.1596 34.6298   6
   0   3  -5 55.6809 35.6355  41
   0   3   5 36.2617 45.0205  55
   0   3   5 91.7101 37.1165  36
   0   3  -5 52.3595 56.3726  42
   0   3  -5 56.9907 45.7434  22
   0   3   5 56.8206 24.4880  10
   0   3  -6 413.591 47.3934  41
   0   3  -6 344.001 46.0216  16
   0   3  -6 455.991 95.1333  43
   0   3  -6 474.901 70.1811  42
   0   3  -6 398.615 55.9734   9
   0   3   6 398.445 47.0851   6
   0   3  -6 410.920 51.1964  46
   0   3   6 315.771 51.3190  36
   0   3  -6 491.949 70.6486  56
   0   3   6 379.040 62.0827  55
   0   3  -7 17.1750 35.5374  41
   0   3  -7 57.4742 58.6600  56
   0   3   7 62.2972 39.0571   6
   0   3   7-2.23915 52.2635  55
   0   3  -7 10.3569 49.5561   9
   0   3   7 8.79393 43.6247  36
   0   3  -7 17.7769 30.1062  21
   0   3   7 45.2643 76.5460  57
   0   3  -7 48.2790 39.0742  46
   0   3  -7 5.35177 60.3999  42
   0   3  -7 25.1688 41.0852  16
   0   3  -8 1033.41 64.4194  41
   0   3  -8 1259.20 59.0987  21
   0   3  -8 1122.87 66.5957  16
   0   3  -8 1021.09 65.8976  12
   0   3   8 946.781 98.2989  58
   0   3  -8 1185.29 85.8914  56
   0   3   8 1068.07 78.4689  36
   0   3   8 1129.03 107.831  57
   0   3   8 978.010 61.1180   6
   0   3   8 1046.15 85.4885  55
   0   3   9 898.996 83.1320  58
   0   3   9 1200.48 93.0964  57
   0   3  -9 1354.21 55.6508  21
   0   3   9 985.161 68.2945  36
   0   3  -9 1038.51 60.1437  12
   0   3  -9 1038.35 58.0349  16
   0   3   9 890.735 71.0743  55
   0   4   0 50716.6 1836.90  58
   0   4   0 49760.3 1841.36  56
   0   4   0 52731.5 1825.45  15
   0   4   0 49467.2 1855.04  30
   0   4   0 50090.9 1844.82  57
   0   4   0 46518.6 1836.06  55
   0   4   0 43775.2 1824.05  36
   0   4   0 47000.5 1849.62  43
   0   4   0 49888.7 1845.10  42
   0   4   0 46572.8 1847.63  33
   0   4   0 46492.1 1839.14  44
   0   4  -1 20902.1 746.035  15
   0   4   1 19839.9 777.385  43
   0   4   1 20330.9 761.519  55
   0   4   1 18242.9 748.526  36
   0   4  -1 19190.0 776.237  43
   0   4  -1 18853.3 748.228  36
   0   4  -1 20303.9 771.101  42
   0   4  -1 21314.0 759.062  58
   0   4   1 20043.8 770.264  57
   0   4  -1 18119.0 771.430  33
   0   4  -1 20569.0 767.331  56
   0   4  -1 19142.4 765.565  57
   0   4   1 20019.9 767.871  44
   0   4   1 19032.2 780.232  30
   0   4  -1 20454.5 775.156  30
   0   4  -1 19113.7 761.158  44
   0   4   1 19612.1 776.861  33
   0   4   1 19483.2 763.858  56
   0   4  -1 17649.3 758.682  55
   0   4   2 736.725 108.297  43
   0   4   2 609.046 45.9549  36
   0   4  -2 778.060 83.2213  42
   0   4  -2 639.714 64.9347  22
   0   4   2 908.718 50.2251  15
   0   4  -2 723.577 76.4059  56
   0   4  -2 781.589 41.2871  15
   0   4  -2 694.697 59.5789  46
   0   4  -2 704.266 100.165  43
   0   4   2 685.826 61.7297  55
   0   4   2 693.876 73.7233  57
   0   4  -2 641.993 41.4541  12
   0   4  -2 754.841 58.6295  58
   0   4  -2 725.441 77.8453  44
   0   4  -2 782.685 67.6525  57
   0   4   2 741.143 113.457  33
   0   4  -3 12310.7 480.785  42
   0   4  -3 13883.1 471.153  58
   0   4  -3 9835.45 449.740  12
   0   4  -3 11069.6 470.023  57
   0   4  -3 11123.0 458.095  22
   0   4  -3 12620.6 468.972  44
   0   4   3 11748.3 459.150  36
   0   4   3 11277.1 455.231  22
   0   4   3 11990.1 472.246  55
   0   4  -3 11311.1 460.896  46
   0   4  -3 12810.9 479.434  56
   0   4   3 10566.9 453.717  10
   0   4   3 12704.6 498.014  43
   0   4   3 13901.5 459.837  15
   0   4   3 13726.8 506.848  33
   0   4   4 2200.46 119.000  55
   0   4   4 2396.02 101.247  15
   0   4   4 1826.26 96.9957  10
   0   4  -4 1974.33 96.8415  12
   0   4  -4 1988.20 110.157  22
   0   4   4 2104.05 105.805  36
   0   4  -4 2206.51 124.674  56
   0   4  -4 2103.74 107.279  46
   0   4  -4 2249.29 123.441  44
   0   4   4 1946.66 125.256  58
   0   4  -4 2140.81 130.835  42
   0   4  -4 2098.29 117.771  57
   0   4  -5 1396.43 100.156  56
   0   4   5 1186.48 70.2627  10
   0   4  -5 1437.91 100.086  42
   0   4   5 1346.88 80.2365   6
   0   4  -5 1393.77 82.3655  46
   0   4   5 1367.45 83.3758  36
   0   4  -5 1370.16 74.0269  12
   0   4   5 1449.11 97.2065  55
   0   4   5 1547.23 122.339  57
   0   4  -5 994.733 96.5555  59
   0   4   5 1290.62 106.115  58
   0   4  -5 1355.41 90.3274  22
   0   4   5 1469.64 73.6814  15
   0   4   6 2983.34 171.916  57
   0   4   6 2555.72 131.894  36
   0   4  -6 2423.98 122.430  46
   0   4  -6 3074.84 170.645  43
   0   4  -6 3075.71 148.091  42
   0   4   6 2587.54 145.032  55
   0   4  -6 2708.02 128.154  22
   0   4   6 2166.16 112.286  10
   0   4   6 2677.12 156.668  58
   0   4  -6 2738.86 121.743  16
   0   4  -6 2939.78 147.118  56
   0   4   6 2870.89 126.186   6
   0   4   7 3484.15 183.934  58
   0   4   7 3711.15 151.042   6
   0   4   7 3568.08 162.021  36
   0   4  -7 3588.03 148.064  16
   0   4   7 3578.09 172.766  55
   0   4  -7 4019.39 174.718  42
   0   4  -7 3838.00 169.924  56
   0   4   7 3940.32 199.662  57
   0   4   8 1336.43 90.3822  55
   0   4  -8 1579.46 90.5141  56
   0   4  -8 1566.60 75.9962  16
   0   4   8 1504.33 74.2534   6
   0   4   8 1322.42 102.967  58
   0   4   8 1273.60 108.233  57
   0   4  -8 1730.22 71.0196  21
   0   4   8 1365.38 83.3897  36
   0   4  -9 335.020 21.9611  21
   0   4   9 52.0911 75.7715  33
   0   4  -9 187.107 24.6911  12
   0   4   9 271.227 47.4584  57
   0   4   9 215.629 43.0659  58
   0   4  -9 130.034 22.2819  19
   0   4  -9 248.389 24.6300  16
   0   5   0 7.28503 108.527  33
   0   5   0 4.46123 57.6855  57
   0   5   0 3.02289 17.2193  19
   0   5   0-21.6733 62.4258  22
   0   5   0 33.3375 105.489  43
   0   5   0-7.28454 46.1380  55
   0   5   0-4.77358 21.1817  36
   0   5   0-41.1486 75.4862  42
   0   5   0-8.98594 56.5174  56
   0   5   0-23.2194 48.0500  58
   0   5   0 67.7904 85.0357  44
   0   5   0 3.86030 19.0050  15
   0   5  -1 162.187 60.9171  56
   0   5  -1 82.9587 45.9122  58
   0   5  -1 121.898 83.4637  44
   0   5   1 135.374 107.533  43
   0   5  -1 89.9442 22.8535  19
   0   5  -1 144.806 50.3029  46
   0   5   1 71.8190 57.9187  57
   0   5  -1 124.067 23.5410  12
   0   5   1 90.6398 27.1034  36
   0   5   1 135.258 47.8477  55
   0   5   1 162.150 59.0466  56
   0   5  -1 127.493 77.8771  42
   0   5   1 91.2361 92.2684  44
   0   5  -1 53.8803 102.534  43
   0   5   1 108.758 25.6082  15
   0   5  -1 100.540 20.9043  15
   0   5   1 73.9001 74.6769  42
   0   5   1 126.789 62.6420  22
   0   5   1 72.3628 17.8269  19
   0   5   1 40.7354 116.581  33
   0   5  -1 106.921 56.5276  57
   0   5  -1 189.481 108.908  33
   0   5  -2 682.752 87.9040  44
   0   5  -2 524.594 45.5063  19
   0   5  -2 782.641 91.3831  42
   0   5  -2 719.172 62.9131  46
   0   5   2 692.581 85.2059  57
   0   5   2 527.975 46.0639  36
   0   5  -2 651.060 42.6199  12
   0   5   2 737.557 46.6607  15
   0   5  -2 806.370 117.068  33
   0   5  -2 666.949 118.880  43
   0   5  -2 626.860 70.4557  57
   0   5   2 711.746 123.627  43
   0   5  -2 824.612 67.8778  58
   0   5  -2 747.415 41.6860  15
   0   5   2 598.514 112.570  44
   0   5   2 614.526 72.6187  22
   0   5  -2 640.614 74.4494  56
   0   5  -2 581.985 76.6703  22
   0   5   2 716.687 68.9775  55
   0   5   2 845.709 135.385  33
   0   5  -3 925.902 93.5431  44
   0   5  -3 906.385 86.5309  22
   0   5   3 737.026 60.4228  10
   0   5  -3 943.777 96.3351  42
   0   5   3 751.448 128.979  43
   0   5  -3 1033.06 77.1164  58
   0   5  -3 825.921 83.1069  56
   0   5  -3 860.557 65.7721  46
   0   5   3 879.344 59.0609  36
   0   5  -3 640.771 72.1598  57
   0   5   3 891.002 77.9838  22
   0   5   3 832.409 96.8349  57
   0   5  -3 895.049 52.5297  12
   0   5   3 848.551 75.9525  55
   0   5   3 1053.66 149.534  33
   0   5   4 3186.79 214.780  33
   0   5  -4 3034.39 157.863  44
   0   5   4 2975.98 150.895  55
   0   5  -4 3002.19 155.783  42
   0   5  -4 3014.81 151.787  56
   0   5   4 2656.20 132.782   6
   0   5  -4 3105.93 145.940  22
   0   5   4 2570.96 156.196  58
   0   5   4 2619.57 127.919  10
   0   5  -4 2685.90 123.338  12
   0   5   4 2639.71 190.694  43
   0   5   4 2606.33 130.890  36
   0   5  -5 332.719 70.0708  59
   0   5  -5 346.218 67.6490  42
   0   5  -5 526.135 73.2343  22
   0   5   5 380.526 42.9519  10
   0   5   5 420.909 144.803  33
   0   5   5 429.688 64.1518  55
   0   5  -5 475.509 42.4270  12
   0   5   5 477.719 80.3779  58
   0   5  -5 526.495 68.0269  56
   0   5   5 469.045 57.4480   6
   0   5   5 418.167 46.7987  36
   0   5   5 423.709 117.896  43
   0   5   6 97.9323 27.6562  10
   0   5   6 124.703 48.1664  55
   0   5   6-3.02054 127.569  33
   0   5  -6 109.822 38.2678  16
   0   5  -6 103.912 32.1802  12
   0   5  -6 82.2808 82.5860  43
   0   5   6 84.6520 72.8385  57
   0   5  -6 88.1779 53.8918  42
   0   5   6 126.014 45.2847   6
   0   5   6 201.714 103.308  43
   0   5  -6 125.110 52.2059  56
   0   5   6 123.126 34.9093  36
   0   5  -6 81.5772 57.7245  22
   0   5   6 105.162 63.6484  58
   0   5   7 137.086 110.064  33
   0   5  -7 209.867 46.9912  42
   0   5  -7 99.8036 42.3072  56
   0   5   7 146.440 56.0333  58
   0   5   7 111.275 30.1532  36
   0   5  -7 146.538 28.5174  12
   0   5  -7 121.930 31.6089  16
   0   5   7 130.657 40.7417  55
   0   5   7 133.888 24.2615  10
   0   5   7 4.75998 58.9232  57
   0   5   7 119.110 36.7860   6
   0   5   8 674.970 65.1834  57
   0   5   8 706.341 38.8227   6
   0   5  -8 817.650 41.1411  16
   0   5  -8 613.267 42.1827  19
   0   5   8 617.436 58.4968  58
   0   6   0 7171.62 298.029  10
   0   6   0 7026.85 325.552  57
   0   6   0 7428.53 349.689  43
   0   6   0 7988.83 315.745  58
   0   6   0 7024.97 325.721  42
   0   6   0 7100.44 306.640  22
   0   6   0 7043.54 288.396  19
   0   6   0 7758.19 330.442  44
   0   6   0 6763.93 301.126  46
   0   6   0 7571.61 347.395  33
   0   6   0 7616.60 289.640  15
   0   6  -1 10609.8 462.667  33
   0   6  -1 10246.1 419.169  10
   0   6  -1 9408.84 412.860  19
   0   6   1 10105.6 451.344  57
   0   6   1 10416.1 426.882  22
   0   6   1 11117.4 473.564  33
   0   6   1 10787.1 454.422  44
   0   6   1 10729.3 470.525  43
   0   6  -1 11637.4 447.040  44
   0   6   1 10367.3 441.467  55
   0   6   1 10752.9 412.195  15
   0   6  -1 10885.3 467.577  43
   0   6   1 10324.4 449.363  42
   0   6  -1 12585.0 441.278  58
   0   6   1 10747.8 421.933  10
   0   6  -1 11546.5 413.367  15
   0   6  -1 9211.04 440.603  57
   0   6  -1 9677.68 445.148  42
   0   6  -2 323.907 84.8859  22
   0   6  -2 342.221 115.233  33
   0   6   2 319.012 29.2936  15
   0   6  -2 222.085 72.9429  42
   0   6  -2 275.394 40.3537  10
   0   6  -2 275.521 60.1719  57
   0   6   2 250.166 132.883  33
   0   6   2 286.200 79.1898  57
   0   6   2 282.385 108.468  44
   0   6  -2 191.914 54.3187  56
   0   6  -2 252.206 33.2790  19
   0   6   2 336.066 50.4387  10
   0   6  -2 261.917 87.4582  44
   0   6  -2 275.702 58.4331  58
   0   6   2 282.615 81.1657  42
   0   6   2 307.751 74.6954  22
   0   6  -2 310.062 113.022  43
   0   6   2 230.798 58.2020  55
   0   6   2 343.579 121.658  43
   0   6   3 984.533 84.1410  55
   0   6   3 988.576 137.947  43
   0   6  -3 910.845 76.9535  56
   0   6  -3 1086.30 94.0519  42
   0   6   3 1162.05 131.569  44
   0   6  -3 873.081 60.1462  19
   0   6  -3 1164.99 98.1342  22
   0   6  -3 1127.64 58.3569  12
   0   6  -3 831.958 79.1107  57
   0   6   3 900.409 100.011  42
   0   6  -3 1228.46 126.570  33
   0   6   3 1180.01 153.137  33
   0   6  -3 1157.57 100.236  44
   0   6   3 1008.63 104.448  57
   0   6   3 992.960 53.6564  15
   0   6  -3 1059.36 126.963  43
   0   6  -4 124.660 46.3036  56
   0   6   4 42.5328 49.9181   6
   0   6   4 31.2773 55.7725  58
   0   6   4 33.3464 69.1152  42
   0   6   4 37.9270 122.875  33
   0   6   4 11.1436 71.6136  57
   0   6  -4 85.4446 29.1957  19
   0   6   4 93.0666 38.3050  10
   0   6  -4 80.6004 56.7762  42
   0   6   4 55.3589 48.8377  55
   0   6  -4 65.3343 72.8743  22
   0   6   4 114.144 106.203  43
   0   6   4 133.656 103.087  44
   0   6  -4 72.1713 26.8161  12
   0   6   5 1101.46 66.5813  10
   0   6  -5 1540.10 92.4645  22
   0   6  -5 1355.40 71.1144  16
   0   6   5 1415.37 80.1060   6
   0   6  -5 1281.29 72.8029  19
   0   6   5 1318.42 87.7920  55
   0   6   5 1149.08 91.6025  58
   0   6  -5 1076.61 79.4001  56
   0   6   5 1270.02 126.098  43
   0   6  -5 1228.63 84.5634  42
   0   6   5 1351.83 145.016  33
   0   6  -5 1659.71 69.8069  12
   0   6   6 45.5950 35.5251   6
   0   6  -6 16.7447 21.6389  12
   0   6   6 57.2841 42.6553  58
   0   6  -6 29.7316 26.6828  16
   0   6   6 69.4828 90.5805  33
   0   6   6 39.5793 33.5880  55
   0   6  -6 73.2126 35.9125  42
   0   6  -6-7.22354 22.7323  19
   0   6  -6 36.6014 30.4551  56
   0   6   7 29.6237 22.9437   6
   0   6  -7 14.0399 15.6904  12
   0   7   0 6.49312 44.4877  58
   0   7   0-8.39115 71.8765  44
   0   7   0 25.7582 75.9008  22
   0   7   0-19.2194 36.5907  10
   0   7   0-15.2392 93.3565  43
   0   7   0 28.2581 96.6113  33
   0   7   0-18.8683 50.1204  57
   0   7  -1 297.535 74.7838  44
   0   7  -1 279.370 51.9524  58
   0   7   1 300.143 82.2754  44
   0   7   1 293.201 24.2901  15
   0   7   1 210.959 101.990  33
   0   7   1 254.231 75.8327  22
   0   7   1 252.025 60.7262  57
   0   7  -1 301.794 40.6011  10
   0   7  -1 295.643 98.5274  33
   0   7  -1 288.244 98.9832  43
   0   7  -1 325.057 26.6793  19
   0   7   1 366.569 44.5648  10
   0   7   1 326.278 99.8238  43
   0   7  -1 232.907 53.2005  57
   0   7   2 497.363 86.8531  44
   0   7   2 589.413 74.9864  57
   0   7   2 578.476 33.1551  15
   0   7  -2 751.537 77.0155  44
   0   7   2 665.903 53.5235  10
   0   7  -2 637.899 84.2812  22
   0   7  -2 621.028 38.9076  19
   0   7   2 653.520 59.4932   6
   0   7   2 546.144 111.668  33
   0   7   2 402.393 103.448  43
   0   7  -2 538.108 96.5822  43
   0   7  -2 388.724 58.0247  57
   0   7  -2 719.831 97.2206  33
   0   7  -3 114.106 74.3576  43
   0   7  -3 124.328 72.2743  33
   0   7   3 106.476 45.0967   6
   0   7   3 52.0719 73.4507  44
   0   7  -3 156.655 70.4045  22
   0   7  -3 83.7885 21.0887  19
   0   7   3 194.871 55.6816  57
   0   7   3 61.0733 90.7827  33
   0   7   3-23.1962 86.3588  43
   0   7   4 354.072 47.7380  58
   0   7  -4 503.732 71.2960  43
   0   7   4 348.680 72.4233  44
   0   7   4 382.050 34.4768  10
   0   7   4 429.008 89.5358  33
   0   7  -4 489.300 65.1675  22
   0   7  -4 569.990 73.0794  33
   0   7   4 364.923 76.0550  43
   0   7  -4 183.538 63.7200  59
   0   7  -4 465.554 32.5297  19
   0   7   4 470.081 60.7344  57
   0   7   5 577.038 51.3585  58
   0   7   5 808.468 49.1823   6
   0   7   5 471.265 65.1232  44
   0   7   5 600.040 61.5827  57
   0   7  -5 1019.27 58.0711  22
   0   7  -5 836.556 42.1353  16
   0   7  -5 822.199 41.8664  19
   0   8   0 5804.24 233.988  10
   0   8   0 6313.38 237.115   6
  -1  -7   5 258.035 56.7968  48
  -1  -7   5 332.915 63.0983  52
   1  -7  -5 201.985 61.0216  39
   1  -7  -5 281.852 27.4572  13
  -1  -7   5 293.139 46.9219  53
   1  -7  -5 306.583 32.5040  14
  -1  -7   4 300.088 100.103  34
   1  -7  -4 408.468 39.1147  14
  -1  -7   4 424.444 74.0692  48
   1  -7  -4 204.430 34.0314  60
  -1  -7   4 406.149 57.7045  53
  -1  -7   4 242.373 68.8576  47
  -1  -7   4 488.132 81.7792  35
   1  -7  -4 251.092 65.9408  49
   1  -7  -4 367.951 34.6683  13
   1  -7  -4 424.930 44.0360   7
   1  -7  -4 381.301 80.1121  39
  -1  -7   3 30.2692 66.6229  48
   1  -7  -3-26.4742 49.7302   3
  -1  -7   3 106.562 47.6101  53
  -1  -7   3 108.875 84.7666  47
  -1  -7   3 65.2650 76.0453  35
  -1  -7   3 65.2899 33.5249   3
  -1  -7   3 17.2418 110.504  34
  -1  -7   3 77.1896 61.6504  49
   1  -7  -3 32.9795 37.6624   7
  -1  -7   3-46.4751 82.9736  52
   1  -7  -3 63.1056 82.7168  47
   1  -7  -3 30.3782 28.3159  14
   1  -7  -3 16.9589 73.1938  49
  -1  -7   2 213.989 91.4182  52
   1  -7  -2 218.294 54.5020   3
   1  -7  -2 228.670 42.2773   7
   1  -7  -2 302.733 37.3921  13
  -1  -7   2 275.305 84.5401  35
   1  -7  -2 341.212 111.597  34
   1  -7  -2 259.975 87.4258  49
   1  -7  -2 263.241 35.9416  14
  -1  -7   2 266.564 42.0498   3
  -1  -7   2 228.184 102.895  47
   1  -7  -2 271.908 90.1614  39
  -1  -7   2 211.145 68.6859  48
   1  -7  -2 281.585 102.069  47
  -1  -7   2 130.901 78.4926  49
   1  -7  -1 700.728 108.973  49
  -1  -7   1 798.166 106.005  52
   1  -7  -1 878.269 137.588  34
   1  -7  -1 782.766 124.804  47
  -1  -7   1 681.688 87.2854  39
   1  -7  -1 565.996 98.7181  39
  -1  -7   1 1017.94 147.818  34
  -1  -7   1 823.358 60.1434   3
   1  -7  -1 666.367 51.1165  14
   1  -7  -1 842.979 55.0634  13
  -1  -7   1 895.590 107.910  49
  -1  -7   1 861.757 50.9754  13
   1  -7  -1 839.739 58.6552   7
   1  -7  -1 789.129 69.7830   3
  -1  -7   0 350.136 36.2431  13
  -1  -7   0 255.605 80.0517  52
  -1  -7   0 317.556 127.555  34
   1  -7   0 352.859 45.3411   7
   1  -7   0 239.927 94.5895  49
   1  -7   0 261.464 81.2213  52
   1  -7   0 330.783 54.3852   3
  -1  -7   0 306.055 92.0197  49
  -1  -7   0 182.965 85.0898  39
  -1  -7   0 339.885 47.2616   3
   1  -7   0 311.923 127.539  34
   1  -7   0 248.998 74.4128  39
   1  -7   0 307.387 38.0411  13
  -1  -7   0 268.956 109.159  47
   1  -7   1 766.320 86.2027  48
   1  -7   1 815.502 121.356  47
   1  -7   1 939.293 109.475  49
   1  -7   1 1216.27 68.6317   7
  -1  -7  -1 1134.99 62.6356  13
  -1  -7  -1 967.936 128.807  34
  -1  -7  -1 958.863 115.853  49
   1  -7   1 943.778 100.053  35
  -1  -7  -1 1105.18 128.625  47
  -1  -7  -1 1019.71 114.640  39
  -1  -7  -1 930.772 70.7285   3
  -1  -7  -1 1280.03 73.7021   7
   1  -7   1 945.425 109.441  52
   1  -7   1 1307.39 79.8721   3
   1  -7   2 412.422 98.8777  47
  -1  -7  -2 613.383 102.404  34
   1  -7   2 634.566 88.8365  35
   1  -7   2 757.635 61.4826   3
  -1  -7  -2 606.136 97.7378  49
  -1  -7  -2 623.661 46.2365  13
  -1  -7  -2 495.158 98.2091  47
   1  -7   2 505.633 78.5630  48
   1  -7   2 492.999 86.0301  49
   1  -7   2 545.121 92.2278  52
  -1  -7  -2 753.831 59.7335   7
   1  -7   2 597.135 121.041  34
  -1  -7  -2 685.539 53.3092   8
  -1  -7  -2 475.457 41.7952  14
   1  -7   3 71.5007 58.9829  48
  -1  -7  -3 35.1430 73.7159  39
  -1  -7  -3 36.8958 25.1730  14
  -1  -7  -3 72.8893 26.4933  13
  -1  -7  -3 126.106 64.8411  49
   1  -7   3 68.3256 41.2134   3
   1  -7   3-15.3866 68.5884  52
   1  -7   3 118.948 66.5801  35
  -1  -7  -3 102.716 36.3395   8
   1  -7   3 118.503 54.3238  49
   1  -7   3-20.1515 90.9311  34
   1  -7   3 17.0778 68.9324  47
  -1  -7  -3 55.2092 43.8396   7
  -1  -7  -3 55.3167 37.2213  32
   1  -7   4 261.855 40.0270   3
   1  -7   4 249.443 60.6365  52
  -1  -7  -4 259.780 41.7147   7
   1  -7   4 263.782 60.8124  35
  -1  -7  -4 180.042 28.3940  14
  -1  -7  -4 262.369 61.6590  39
   1  -7   4 217.851 38.7303  53
  -1  -7  -4 232.998 27.2577  13
   1  -7   4 200.892 53.6876  48
  -1  -6   7 135.086 53.7238  35
   1  -6  -7 205.289 38.5639  21
   1  -6  -7 155.801 28.0764  14
  -1  -6   7 125.622 50.8270  48
  -1  -6   7 169.825 32.3648  38
   1  -6  -6 437.105 75.4403  39
   1  -6  -6 411.177 37.1342  13
   1  -6  -6 466.805 61.7316  32
  -1  -6   6 410.330 78.5860  48
  -1  -6   6 419.871 82.8765  35
  -1  -6   6 483.833 67.4307  53
  -1  -6   6 529.740 44.6751   3
  -1  -6   6 311.133 74.4586  52
  -1  -6   6 380.550 50.4744  38
   1  -6  -5 737.264 60.0958  14
   1  -6  -5 880.694 61.5710   7
  -1  -6   5 609.769 109.090  35
  -1  -6   5 1068.52 63.9528   3
   1  -6  -5 917.548 81.1314  32
  -1  -6   5 864.827 69.6760  38
   1  -6  -5 568.234 53.2905  60
  -1  -6   5 852.309 88.7422  53
  -1  -6   5 593.563 110.100  34
  -1  -6   5 848.297 108.871  52
   1  -6  -5 824.015 107.090  39
   1  -6  -5 867.791 56.7533  13
  -1  -6   4 186.858 99.2726  35
   1  -6  -4 59.1810 60.3181  32
   1  -6  -4 19.7982 33.4231  13
  -1  -6   4 8.01935 115.795  34
   1  -6  -4 140.547 91.3419  47
  -1  -6   4 72.9337 90.9565  48
  -1  -6   4 62.6538 38.6321   3
  -1  -6   4 58.3440 84.8167  47
   1  -6  -4 71.2262 41.4618   7
   1  -6  -4 1.30568 37.4831  14
   1  -6  -4 27.2943 96.5297  39
   1  -6  -4 12.1420 53.7614   3
   1  -6  -4 91.8651 79.0263  49
  -1  -6   4-16.8604 60.3961  49
  -1  -6   4 25.0968 42.0663  38
  -1  -6   4 39.6075 101.934  52
   1  -6  -3 45.2200 54.6826  32
   1  -6  -3-13.6106 35.4908  13
  -1  -6   3 23.5770 89.7940  48
   1  -6  -3 42.0877 89.9933  49
  -1  -6   3-93.7686 99.7204  47
   1  -6  -3 10.6699 38.8568  14
   1  -6  -3-22.6513 104.627  34
   1  -6  -3 41.8152 54.1871   3
  -1  -6   3 109.582 140.258  34
  -1  -6   3 91.8521 40.5213   3
   1  -6  -3-30.8154 104.188  47
  -1  -6   3 86.3434 75.2601  49
  -1  -6   3 16.1616 105.798  52
   1  -6  -3 14.0442 38.4529   7
  -1  -6   2 1528.56 84.9994   3
  -1  -6   2 1356.28 128.794  49
  -1  -6   2 1438.49 147.323  52
   1  -6  -2 1352.34 157.275  34
   1  -6  -2 1471.89 140.738  49
   1  -6  -2 1091.34 83.6532  32
   1  -6  -2 1352.38 91.0739   3
  -1  -6   2 1414.71 147.580  47
  -1  -6   2 977.295 104.286  39
   1  -6  -2 1265.46 137.010  39
  -1  -6   2 1494.21 72.7666  13
   1  -6  -2 1308.08 76.3749   7
  -1  -6   2 1416.00 130.135  48
   1  -6  -2 1406.98 80.9230  14
   1  -6  -2 1392.55 152.173  47
  -1  -6   1 162.638 105.178  52
   1  -6  -1 130.634 101.234  49
   1  -6  -1 163.391 68.2609  35
   1  -6  -1 179.149 36.7247  14
  -1  -6   1 236.338 80.3942  48
  -1  -6   1 229.041 34.2006  13
   1  -6  -1 139.150 80.7094  52
  -1  -6   1 215.865 156.778  34
  -1  -6   1 82.0084 87.4516  39
   1  -6  -1 212.716 41.6652   7
   1  -6  -1 178.812 127.950  47
  -1  -6   1 257.414 45.4545   3
  -1  -6   1 182.774 94.0018  49
   1  -6  -1 201.998 39.8286  13
   1  -6  -1 203.642 53.1088   3
   1  -6  -1 220.171 98.5867  39
   1  -6  -1 36.8207 139.878  34
   1  -6   0 5529.71 284.376  35
  -1  -6   0 5901.91 305.552  47
   1  -6   0 5437.94 279.791  39
   1  -6   0 5585.19 242.038  14
   1  -6   0 6117.98 253.755   3
  -1  -6   0 5850.44 291.764  39
   1  -6   0 5716.87 286.404  52
  -1  -6   0 6876.55 245.689  13
   1  -6   0 6206.17 249.125   4
  -1  -6   0 6009.92 249.570   3
   1  -6   0 6065.39 317.400  34
   1  -6   0 6070.05 244.370  13
  -1  -6   0 5881.33 314.055  34
  -1  -6   0 5528.64 286.284  52
   1  -6   0 4669.23 266.872  48
  -1  -6   0 5104.64 266.395  48
  -1  -6  -1 262.779 49.7427  32
   1  -6   1 291.931 117.949  47
   1  -6   1 306.270 54.7685   3
   1  -6   1 266.840 100.962  52
  -1  -6  -1 265.326 107.834  49
   1  -6   1 287.476 40.4620  13
  -1  -6  -1 352.274 85.2369  52
  -1  -6  -1 306.387 107.592  39
  -1  -6  -1 314.812 50.1925   3
   1  -6   1 340.116 93.5385  35
  -1  -6  -1 355.699 121.480  47
   1  -6   1 328.711 46.6298   4
  -1  -6  -1 348.277 42.1289  13
  -1  -6  -1 236.533 35.7100  14
   1  -6   1 256.348 73.9921  39
  -1  -6  -1 180.362 133.171  34
   1  -6   1 255.744 81.6769  48
   1  -6   1 227.267 53.2215  53
   1  -6   1 297.283 97.4767  49
   1  -6   2 1032.51 66.7612   4
  -1  -6  -2 904.825 64.4500  14
   1  -6   2 986.110 115.382  48
  -1  -6  -2 1044.47 128.490  49
  -1  -6  -2 1038.32 65.7696  13
  -1  -6  -2 912.130 129.303  34
   1  -6   2 1099.23 77.7675   3
   1  -6   2 896.390 125.866  52
   1  -6   2 879.675 113.360  49
   1  -6   2 1032.98 123.649  35
  -1  -6  -2 827.464 124.953  47
  -1  -6  -2 1004.59 70.0787   7
  -1  -6  -2 896.424 79.0906  32
   1  -6   2 996.059 156.921  34
   1  -6   2 877.801 84.8498  53
  -1  -6  -2 927.659 73.5647   3
   1  -6   2 751.961 123.346  47
   1  -6   3 639.661 78.4875  53
  -1  -6  -3 473.402 100.485  49
  -1  -6  -3 639.710 52.6869  13
  -1  -6  -3 415.352 94.6519  47
   1  -6   3 606.628 50.1208   4
   1  -6   3 663.557 65.2255   3
  -1  -6  -3 531.062 113.150  39
  -1  -6  -3 597.411 60.8382   7
  -1  -6  -3 538.351 53.0606   8
   1  -6   3 298.722 93.9337  47
   1  -6   3 519.316 126.799  34
  -1  -6  -3 524.908 73.8361  32
   1  -6   3 459.339 85.8504  49
   1  -6   3 597.639 99.7607  48
   1  -6   3 529.733 103.665  35
   1  -6   3 429.029 47.9857  38
   1  -6   4 1651.68 132.441  48
  -1  -6  -4 1433.26 122.998  49
  -1  -6  -4 1826.63 109.091  32
   1  -6   4 1926.30 143.651  35
  -1  -6  -4 1597.19 86.4647   8
  -1  -6  -4 1617.85 135.607  39
   1  -6   4 1996.71 102.830   3
  -1  -6  -4 1798.39 94.0182   7
   1  -6   4 1794.00 86.6098   4
   1  -6   4 1672.17 114.252  53
   1  -6   4 1444.01 89.7903  38
   1  -6   4 1486.48 130.430  52
   1  -6   4 1115.08 131.222  34
   1  -6   5 81.9522 65.7397  48
  -1  -6  -5 45.2144 34.3129   8
  -1  -6  -5 62.9419 28.2431  13
   1  -6   5 53.1741 68.0667  52
  -1  -6  -5-62.7625 68.5462  39
   1  -6   5 80.1404 48.2098  53
   1  -6   5 15.7175 42.9775   3
  -1  -6  -5 20.4913 52.1278  32
  -1  -6  -5 65.6869 46.9591   7
   1  -6   5 61.6183 31.6011  38
   1  -6   6 842.162 79.2396  35
  -1  -6  -6 860.181 63.7099  32
  -1  -6  -6 734.221 47.3494  13
   1  -6   6 1155.33 62.1151   3
   1  -6   6 667.121 68.3213  52
  -1  -6  -6 707.169 52.2101  14
  -1  -6  -6 745.295 49.7527  21
   1  -6   6 991.265 67.8325  53
   1  -6   6 698.024 72.2119  48
   1  -6   6 862.260 53.5124  38
  -1  -6  -6 836.589 58.2285   7
  -1  -5   8 292.550 36.5124   3
   1  -5  -8 233.044 41.7144  21
  -1  -5   8 171.507 47.3737  48
  -1  -5   8 244.070 42.2196  54
   1  -5  -8 297.277 47.3366  32
  -1  -5   8 330.362 41.6657  38
   1  -5  -8 197.761 30.1231  14
  -1  -5   8 293.592 47.7316  53
  -1  -5   8 229.781 50.7206  35
  -1  -5   8 242.436 30.2454  37
   1  -5  -7 244.791 34.0774  62
   1  -5  -7 383.094 46.3861   7
  -1  -5   7 402.569 56.8189  38
   1  -5  -7 321.152 34.9910  13
   1  -5  -7 444.989 66.3183  32
  -1  -5   7 399.218 67.1407  53
  -1  -5   7 312.530 77.7251  35
  -1  -5   7 451.722 49.1348   3
  -1  -5   7 429.405 76.3199  48
   1  -5  -7 415.185 45.3086  14
  -1  -5   7 362.128 65.4998  52
  -1  -5   6 321.282 48.5587   3
   1  -5  -6 324.288 48.3184   7
  -1  -5   6 222.337 86.0017  48
  -1  -5   6 266.302 90.0053  35
  -1  -5   6 267.532 60.8766  38
   1  -5  -6 299.718 37.6662  13
   1  -5  -6 236.522 36.5261  60
   1  -5  -6 205.276 32.6418  62
  -1  -5   6 191.276 84.6094  52
   1  -5  -6 326.894 85.2620  39
  -1  -5   5 984.971 118.206  52
  -1  -5   5 1163.16 71.2327   3
   1  -5  -5 818.139 89.7366  49
  -1  -5   5 874.516 120.861  48
  -1  -5   5 813.461 115.166  34
   1  -5  -5 805.196 75.7818   3
   1  -5  -5 578.123 58.5700  60
   1  -5  -5 649.507 51.3919  62
   1  -5  -5 901.235 60.3621  13
  -1  -5   5 955.012 121.086  35
   1  -5  -5 946.822 115.450  39
   1  -5  -5 886.366 62.3208   7
   1  -5  -5 1131.11 93.9802  32
   1  -5  -4 98.4190 86.3271  34
   1  -5  -4 98.8112 31.7960   8
   1  -5  -4 99.1879 39.4025   7
  -1  -5   4 133.653 103.820  52
   1  -5  -4 139.960 66.7218  32
   1  -5  -4 177.670 81.3389  49
  -1  -5   4 136.672 117.602  34
   1  -5  -4 56.6312 88.8469  47
  -1  -5   4 217.375 105.235  48
  -1  -5   4 222.925 84.3051  47
   1  -5  -4 127.389 99.2181  39
  -1  -5   4 184.608 42.6612   3
   1  -5  -4 109.483 35.2272  13
   1  -5  -4 96.3557 52.3248   3
  -1  -5   4 177.181 61.6148  49
  -1  -5   3 311.085 98.0633  48
  -1  -5   3 430.995 81.3049  49
   1  -5  -3 469.297 68.0115  32
   1  -5  -3 381.657 59.6321  20
  -1  -5   3 378.921 100.160  47
  -1  -5   3 399.763 34.8515  13
  -1  -5   3 422.218 47.1465   3
   1  -5  -3 438.971 113.611  39
   1  -5  -3 286.439 111.650  34
  -1  -5   3 415.231 133.287  34
   1  -5  -3 504.776 50.8089  14
   1  -5  -3 347.267 41.5290   7
   1  -5  -3 321.970 106.179  47
   1  -5  -3 385.044 55.3848   3
   1  -5  -3 349.923 91.7952  49
   1  -5  -3 369.938 43.6218  13
  -1  -5   2 952.526 121.702  52
   1  -5  -2 1104.71 116.481  49
  -1  -5   2 1324.86 112.361  49
  -1  -5   2 1115.04 117.534  48
  -1  -5   2 1147.05 58.4299  13
  -1  -5   2 1025.60 65.9980   3
   1  -5  -2 921.756 92.1535  52
  -1  -5   2 887.767 93.9390  39
   1  -5  -2 1134.23 127.631  47
   1  -5  -2 913.782 59.6113   7
  -1  -5   2 944.236 121.598  47
   1  -5  -2 1192.54 68.0352  14
   1  -5  -2 1095.19 79.0933  32
   1  -5  -2 1064.05 75.8367  20
   1  -5  -2 948.715 137.241  34
   1  -5  -2 1010.43 71.8391   3
   1  -5  -1 1080.83 63.9870  14
   1  -5  -1 959.473 67.2440  32
   1  -5  -1 1014.01 67.8076  20
  -1  -5   1 1166.64 113.716  49
   1  -5  -1 1017.91 113.583  39
  -1  -5   1 1162.13 59.5469  13
   1  -5  -1 1071.19 104.481  52
  -1  -5   1 974.787 151.823  34
   1  -5  -1 977.819 129.313  47
  -1  -5   1 1061.50 65.3461   3
  -1  -5   1 956.073 103.813  39
   1  -5  -1 907.835 68.1136   3
   1  -5  -1 999.216 118.058  49
   1  -5  -1 1080.61 146.982  34
   1  -5  -1 695.891 80.1319  48
  -1  -5   1 973.581 104.952  48
   1  -5  -1 1049.67 66.9452   4
   1  -5   0 2993.38 157.350  53
  -1  -5   0 3684.31 144.680  13
   1  -5   0 3131.84 177.239  48
   1  -5   0 3446.32 213.861  34
   1  -5   0 3382.39 144.448  13
   1  -5   0 3309.54 144.316  14
  -1  -5   0 3618.88 218.240  34
   1  -5   0 3124.24 180.630  39
   1  -5   0 3231.03 147.407   4
   1  -5   0 3629.26 190.232  52
  -1  -5   0 3081.97 147.661  32
  -1  -5   0 3490.56 148.930   3
  -1  -5   0 3243.16 188.861  39
   1  -5   0 3266.33 151.393   3
  -1  -5   0 2689.39 174.428  48
  -1  -5   0 3230.96 199.139  47
   1  -5   1 3321.65 171.822  53
  -1  -5  -1 3572.88 206.259  49
  -1  -5  -1 3584.00 155.629   3
  -1  -5  -1 3189.83 201.203  47
   1  -5   1 3649.97 149.305  13
   1  -5   1 3303.01 198.594  52
   1  -5   1 3495.12 194.052  48
   1  -5   1 3578.79 198.262  49
  -1  -5  -1 3682.73 202.655  39
  -1  -5  -1 3776.44 150.531  13
   1  -5   1 3192.27 145.924  14
   1  -5   1 3137.20 197.586  47
  -1  -5  -1 2458.56 184.292  52
   1  -5   1 3415.42 152.028   4
   1  -5   1 3082.11 173.595  39
  -1  -5  -1 3468.45 215.975  34
   1  -5   1 3451.52 157.116   3
  -1  -5  -1 3360.39 159.698  32
  -1  -5  -2 907.851 122.874  39
   1  -5   2 933.077 88.8796  53
  -1  -5  -2 927.391 61.2172   7
  -1  -5  -2 883.338 127.829  34
   1  -5   2 911.682 70.0952   3
   1  -5   2 831.232 116.132  47
   1  -5   2 869.621 120.679  52
   1  -5   2 873.234 112.305  48
   1  -5   2 674.124 74.9900  39
  -1  -5  -2 980.504 117.019  49
  -1  -5  -2 963.007 82.5575  40
  -1  -5  -2 772.269 86.1088  52
   1  -5   2 912.541 101.717  49
   1  -5   2 847.358 65.4978  38
   1  -5   2 916.474 57.4789  13
   1  -5   2 1135.09 120.320  35
  -1  -5  -2 919.204 68.5698   3
  -1  -5  -2 826.331 119.388  47
   1  -5   2 1030.97 146.045  34
   1  -5   2 999.547 62.0479   4
  -1  -5  -2 994.456 83.4946  32
   1  -5   3 139.639 95.8087  35
   1  -5   3 87.0382 92.9492  48
   1  -5   3 180.427 37.4440   4
   1  -5   3 130.789 114.425  34
   1  -5   3 43.2370 86.7002  47
  -1  -5  -3 127.950 69.4118  40
  -1  -5  -3 100.981 48.3072   3
   1  -5   3 217.474 73.0224  49
   1  -5   3 193.649 69.3853  53
  -1  -5  -3 132.626 88.8377  34
  -1  -5  -3 130.488 46.1737   7
   1  -5   3 139.363 50.3737   3
  -1  -5  -3 145.791 87.4364  47
   1  -5   3 126.154 45.6418  38
  -1  -5  -3 53.5042 98.3673  39
  -1  -5  -3 117.363 69.3165  32
  -1  -5  -3 91.8978 85.2196  49
   1  -5   4 1155.10 111.608  47
  -1  -5  -4 2036.97 121.528  32
   1  -5   4 1691.59 143.077  52
   1  -5   4 1040.94 107.143  49
  -1  -5  -4 1573.86 86.5289   8
   1  -5   4 1889.16 102.472   3
   1  -5   4 1793.77 90.3667   4
  -1  -5  -4 1615.49 92.1181   7
   1  -5   4 1840.69 124.908  53
   1  -5   4 1518.39 100.189  38
  -1  -5  -4 1619.67 137.953  39
  -1  -5  -4 1850.21 118.496  40
   1  -5   4 1368.39 134.224  34
  -1  -5  -4 1551.26 130.118  49
   1  -5   5 389.291 90.8521  48
   1  -5   5 428.895 77.6774  53
  -1  -5  -5 434.977 47.9105   8
   1  -5   5 345.442 89.3391  52
   1  -5   5 461.208 61.4954   3
   1  -5   5 502.070 48.4206   4
  -1  -5  -5 342.164 57.6904   7
   1  -5   5 388.444 100.889  35
   1  -5   5 444.361 58.8551  38
  -1  -5  -5 337.633 71.7054  49
  -1  -5  -5 272.162 86.6531  39
   1  -5   6 49.1116 46.3692   3
   1  -5   6 80.2018 41.7851  38
  -1  -5  -6 25.3170 61.5055  40
   1  -5   6 42.7231 31.5784   4
  -1  -5  -6 47.3715 34.9009   8
  -1  -5  -6 20.3551 48.5132   7
   1  -5   6 31.6905 40.8435  54
  -1  -5  -6 139.037 62.1515  32
   1  -5   6-1.98006 61.1064  52
   1  -5   6 67.0336 67.5207  48
   1  -5   6 66.8388 75.5933  35
  -1  -5  -7 240.005 29.0980  13
   1  -5   7 240.596 47.2110  53
   1  -5   7 323.528 46.9451   3
  -1  -5  -7 208.780 35.6722  21
  -1  -5  -7 120.415 31.0847  62
   1  -5   7 276.776 49.8371  48
  -1  -5  -7 283.067 43.9445   7
  -1  -5  -7 304.848 51.3287  32
   1  -5   7 221.568 38.7327  54
   1  -5   7 345.167 40.5668  38
   1  -5   7 257.952 59.1026  35
  -1  -4   9 38.1686 24.1675  37
  -1  -4   9 23.9067 31.6845  54
   1  -4  -9 2.96898 33.6223  21
   1  -4  -9 43.3127 30.8181  64
   1  -4  -9 1.65475 24.0340  62
  -1  -4   9 37.5005 28.3681  38
  -1  -4   9 22.2297 28.2797  53
  -1  -4   9 52.3361 31.2529   3
  -1  -4   8 438.044 61.5422  53
   1  -4  -8 559.487 65.9513  32
   1  -4  -8 509.224 47.0876  62
  -1  -4   8 402.382 64.0061  48
  -1  -4   8 454.141 56.7114  38
   1  -4  -8 532.012 56.6956  21
   1  -4  -8 479.422 44.2243  14
  -1  -4   8 507.490 69.1669  35
   1  -4  -8 358.614 33.4567  13
   1  -4  -7 454.214 74.7079  32
   1  -4  -7 301.145 48.4696   7
  -1  -4   7 375.011 79.9941  35
  -1  -4   7 329.076 76.7837  48
  -1  -4   7 287.198 63.9864  52
   1  -4  -7 288.181 33.7435  60
   1  -4  -7 407.364 45.9444  62
  -1  -4   7 475.718 74.8307  53
   1  -4  -6 1815.97 93.8307   7
  -1  -4   6 1839.26 138.819  48
   1  -4  -6 1405.78 87.8925  60
  -1  -4   6 1612.26 136.642  35
   1  -4  -6 1766.90 125.209  39
   1  -4  -6 2188.40 99.4798  62
   1  -4  -6 2206.43 123.205  32
  -1  -4   6 1617.52 124.239  52
   1  -4  -5 1148.99 68.7826   7
   1  -4  -5 988.236 92.0162  49
  -1  -4   5 1133.83 110.667  52
  -1  -4   5 1201.55 116.267  34
   1  -4  -5 1295.39 114.562  39
   1  -4  -5 1391.97 101.227  40
  -1  -4   5 1372.38 122.705  48
   1  -4  -4 2687.45 132.007  32
   1  -4  -4 2351.98 141.096  49
   1  -4  -4 2260.14 121.773  20
   1  -4  -4 2206.48 104.956   7
  -1  -4   4 2040.75 125.224  49
  -1  -4   4 2282.13 149.671  52
   1  -4  -4 2197.87 140.292  47
  -1  -4   4 2250.20 135.249  47
  -1  -4   4 2554.79 114.007   3
  -1  -4   4 2501.98 161.200  34
   1  -4  -4 2571.64 154.958  39
   1  -4  -3 5267.74 212.776  32
   1  -4  -3 4476.51 202.497   3
   1  -4  -3 5362.89 212.152  20
   1  -4  -3 4998.80 198.066  13
  -1  -4   3 5106.23 193.022  13
  -1  -4   3 4194.44 207.357  39
  -1  -4   3 4836.65 227.261  47
   1  -4  -3 4665.09 232.376  34
  -1  -4   3 4627.04 222.014  49
   1  -4  -3 5352.57 236.658  49
   1  -4  -3 4596.81 230.302  47
  -1  -4   3 5064.64 201.099   3
  -1  -4   3 4981.15 241.276  34
   1  -4  -3 4163.49 191.812   7
   1  -4  -3 5402.15 240.364  39
  -1  -4   2 14099.9 572.841  47
  -1  -4   2 13431.7 562.116  39
   1  -4  -2 13179.6 546.937   3
   1  -4  -2 13778.5 576.776  49
   1  -4  -2 14513.5 544.457  13
   1  -4  -2 13240.3 546.493   4
  -1  -4   2 15125.7 540.971  13
   1  -4  -2 14525.4 561.529  24
   1  -4  -2 14202.6 576.267  47
  -1  -4   2 14258.6 578.612  34
  -1  -4   2 14273.1 572.488  49
   1  -4  -2 13203.6 559.961  52
   1  -4  -2 13906.7 573.610  34
   1  -4  -2 14860.2 552.563  32
   1  -4  -1 2952.98 158.708  48
   1  -4  -1 3091.96 143.604  32
   1  -4  -1 2731.52 176.800  47
   1  -4  -1 2982.75 172.708  49
   1  -4  -1 3088.64 167.569  52
   1  -4  -1 3358.18 156.903  17
   1  -4  -1 3379.04 140.669  14
   1  -4  -1 3218.66 157.304  24
  -1  -4   1 3832.92 158.432  17
  -1  -4   1 3835.00 179.319  24
  -1  -4   1 3282.42 168.314  39
   1  -4  -1 3043.46 186.008  34
  -1  -4   1 3561.15 175.769  49
  -1  -4   1 3475.79 137.289  13
   1  -4  -1 3073.98 171.767  39
  -1  -4   0 13997.6 520.614  13
   1  -4   0 13247.6 548.947  52
   1  -4   0 13465.3 521.533  14
  -1  -4   0 14362.3 540.378  17
   1  -4   0 12352.9 519.961  32
  -1  -4   0 15429.5 560.894  24
  -1  -4   0 12776.6 524.327  40
   1  -4   0 14415.0 550.437  48
   1  -4   0 14491.2 553.268  24
   1  -4   0 13138.3 543.916  39
   1  -4   0 15624.5 541.620  17
  -1  -4   0 12754.1 525.142  32
   1  -4   0 13624.9 520.904  13
  -1  -4   0 13126.1 552.083  47
  -1  -4   0 13413.6 557.435  34
  -1  -4   0 13952.1 551.895  39
  -1  -4  -1 4141.39 183.202  32
  -1  -4  -1 4652.46 215.448  49
   1  -4   1 3698.16 174.345   3
   1  -4   1 4042.05 204.414  49
  -1  -4  -1 4018.66 215.206  34
   1  -4   1 4134.31 208.596  52
   1  -4   1 4261.44 219.041  34
   1  -4   1 4179.40 170.099  13
   1  -4   1 3887.53 191.827  39
   1  -4   1 4365.80 171.463  14
  -1  -4  -1 4210.33 200.954  24
   1  -4   1 4504.69 209.599  48
   1  -4   1 4455.01 209.702  24
   1  -4   1 3988.13 177.457  38
  -1  -4  -1 4258.97 181.845  40
  -1  -4  -1 4243.58 210.194  47
   1  -4   1 4047.16 207.495  47
  -1  -4  -2 1084.70 107.857  39
  -1  -4  -2 1155.50 82.3398  40
   1  -4   2 1181.13 63.6453   4
  -1  -4  -2 1107.05 60.0295  45
   1  -4   2 1037.39 58.7849  14
  -1  -4  -2 1160.53 105.190  49
   1  -4   2 1041.31 101.126  47
   1  -4   2 1102.53 67.3978   3
   1  -4   2 1239.97 123.453  34
   1  -4   2 1129.82 72.7997  38
   1  -4   2 917.632 74.3189  39
   1  -4   2 1003.15 94.5028  49
   1  -4   2 1133.22 59.9619  13
   1  -4   2 1350.29 110.508  48
  -1  -4  -2 1186.45 84.7517  32
  -1  -4  -2 1057.78 66.0998   3
  -1  -4  -2 1112.62 108.037  47
  -1  -4  -3 761.758 92.5761  47
  -1  -4  -3 816.692 54.6543   7
  -1  -4  -3 923.219 83.5175  40
  -1  -4  -3 806.113 94.2595  49
  -1  -4  -3 803.651 63.2753   3
  -1  -4  -3 719.532 93.6010  34
   1  -4   3 946.108 87.8120  53
  -1  -4  -3 952.153 84.0504  32
   1  -4   3 860.591 105.605  52
   1  -4   3 822.055 62.7009   3
   1  -4   3 1040.31 107.032  35
   1  -4   3 819.175 113.991  34
  -1  -4  -3 873.630 58.9001  45
   1  -4   3 706.692 88.5161  47
   1  -4   3 951.077 57.8624   4
  -1  -4  -3 935.682 104.708  39
   1  -4   3 831.455 85.6633  49
   1  -4   3 838.079 69.1388  38
   1  -4   4 3123.29 181.104  34
  -1  -4  -4 2927.94 179.661  49
   1  -4   4 3475.07 180.436  53
  -1  -4  -4 3070.05 142.335   8
   1  -4   4 3457.15 164.653  38
   1  -4   4 2412.66 163.064  49
  -1  -4  -4 3302.62 146.119   7
  -1  -4  -4 3740.98 152.232  45
   1  -4   4 3112.85 184.442  52
   1  -4   4 3370.01 189.386  48
   1  -4   4 3656.41 150.566   4
  -1  -4  -4 3488.55 187.366  39
   1  -4   5 1214.69 124.674  35
  -1  -4  -5 1508.79 109.102  32
  -1  -4  -5 1219.37 78.9720   7
   1  -4   5 987.674 106.962  52
   1  -4   5 1239.63 115.827  48
   1  -4   5 1431.49 79.5044   4
  -1  -4  -5 784.267 92.3936  49
   1  -4   5 1237.57 92.0192  38
  -1  -4  -5 1258.31 110.169  39
  -1  -4  -5 1222.73 73.1649   8
  -1  -4  -5 1351.28 107.829  40
  -1  -4  -5 1400.97 84.6134  45
  -1  -4  -6 82.5959 38.9714   8
   1  -4   6 68.3466 39.0015   4
   1  -4   6 59.6904 78.3321  35
   1  -4   6 80.7634 64.8210  53
   1  -4   6 113.065 34.1129  37
   1  -4   6 95.8512 50.0382  38
  -1  -4  -6 21.1877 47.9947  45
   1  -4   6 25.0901 62.3933  52
   1  -4   6 78.8025 66.3738  48
  -1  -4  -6 37.0638 69.9101  32
  -1  -4  -6 100.825 73.3588  40
  -1  -4  -6 65.1999 49.5457   7
  -1  -4  -7 659.920 51.6043   8
   1  -4   7 610.190 65.2404  54
   1  -4   7 591.335 82.9022  35
   1  -4   7 683.557 53.3191   4
  -1  -4  -7 719.843 62.2959  45
  -1  -4  -7 597.936 53.9569  21
   1  -4   7 564.499 49.4453  37
  -1  -4  -7 818.301 77.2451  40
   1  -4   7 467.758 67.7732  48
   1  -4   7 518.987 68.5941  53
  -1  -4  -7 740.572 62.8480   7
  -1  -4  -7 779.222 73.7405  32
  -1  -4  -8 226.574 43.6593  32
   1  -4   8 237.170 43.6223   3
   1  -4   8 175.174 35.0955  38
   1  -4   8 223.951 29.5720   4
  -1  -4  -8 191.121 32.1169  21
  -1  -4  -8 156.909 32.8068  62
   1  -4   8 113.395 44.1943  35
   1  -4   8 139.460 37.9282  53
   1  -4   8 145.982 37.1064  54
   1  -4   8 202.393 28.0991  37
  -1  -4  -8 238.555 41.5014   7
   1  -3 -10 76.8528 23.2913  62
  -1  -3  10 44.5798 25.7403  54
   1  -3 -10 62.4095 27.8953  64
  -1  -3  10 80.7582 21.7955  37
   1  -3 -10 105.031 27.5461  21
   1  -3  -9 958.297 60.6809  62
   1  -3  -9 893.456 60.7764  21
  -1  -3   9 752.062 66.8430  54
   1  -3  -9 903.137 67.5691  64
  -1  -3   9 728.264 60.2270  38
  -1  -3   9 727.365 58.2320  53
  -1  -3   9 960.274 61.9888  37
   1  -3  -8 2355.79 108.847   7
  -1  -3   8 2220.61 122.683  38
   1  -3  -8 2914.25 120.294  62
   1  -3  -8 1859.07 95.8119  60
  -1  -3   8 1940.03 123.835  53
   1  -3  -8 2591.21 123.046  32
   1  -3  -7 1125.48 66.7402  60
   1  -3  -7 1495.87 96.6962  32
  -1  -3   7 1164.62 97.7596  53
   1  -3  -7 1321.66 75.2037   7
   1  -3  -7 1429.02 94.3872  40
  -1  -3   7 920.132 95.8183  48
   1  -3  -7 1492.76 82.9117  62
  -1  -3   7 1163.18 104.475  35
  -1  -3   6 3505.61 182.239  48
   1  -3  -6 3334.05 167.910  39
   1  -3  -6 4067.57 170.087  32
   1  -3  -6 2888.21 145.055  60
  -1  -3   6 3292.50 183.457  35
   1  -3  -6 3662.87 165.493  40
   1  -3  -6 3601.56 157.563  45
  -1  -3   6 2961.85 166.539  52
   1  -3  -6 3144.95 155.576  20
   1  -3  -6 3411.37 145.897   7
   1  -3  -5 223.430 37.0413  60
  -1  -3   5 210.031 67.7864  52
   1  -3  -5 426.446 67.2949  32
   1  -3  -5 318.669 69.5976  39
   1  -3  -5 374.805 63.7394  40
   1  -3  -5 298.839 37.5769   7
   1  -3  -5 316.786 49.2594  20
   1  -3  -5 357.855 49.7489  45
   1  -3  -4 448.964 52.5215  17
  -1  -3   4 428.078 60.8909  47
   1  -3  -4 419.568 63.1503  18
   1  -3  -4 402.934 64.0990  47
  -1  -3   4 696.111 88.0528  26
   1  -3  -4 591.800 49.0898  45
   1  -3  -4 540.138 64.4228  49
  -1  -3   4 506.212 83.8225  34
   1  -3  -4 540.497 61.4390  40
   1  -3  -4 486.003 50.2406  20
   1  -3  -4 566.779 76.3441  39
  -1  -3   3 715.665 70.4570  25
  -1  -3   3 621.878 58.4356  49
   1  -3  -3 593.807 60.5986  40
   1  -3  -3 719.387 63.4168  23
   1  -3  -3 707.717 61.3446  32
  -1  -3   3 614.016 69.0710  47
  -1  -3   3 658.562 35.0152  13
  -1  -3   3 717.287 92.0366  34
   1  -3  -3 790.309 80.7308  39
   1  -3  -3 580.666 44.8799  24
   1  -3  -3 633.707 57.6903  17
   1  -3  -3 640.812 69.8268  49
   1  -3  -3 667.179 45.9343  45
   1  -3  -3 559.146 80.8924  34
  -1  -3   3 914.481 91.1557  26
   1  -3  -3 591.264 75.8330  47
   1  -3  -2 2276.83 113.265  17
   1  -3  -2 2573.84 127.731  23
  -1  -3   2 3183.30 151.936  26
  -1  -3   2 2476.54 120.351  31
   1  -3  -2 2082.07 106.364  24
   1  -3  -2 2013.24 134.938  34
  -1  -3   2 2174.62 125.864  47
  -1  -3   2 2549.57 115.733  27
   1  -3  -2 2363.08 110.661  32
   1  -3  -2 2171.95 130.154  47
   1  -3  -2 2308.24 125.433  49
   1  -3  -2 2017.57 128.352  50
  -1  -3   2 2300.62 116.539  39
  -1  -3   2 2169.97 119.484  49
  -1  -3   2 2364.40 95.7865  13
   1  -3  -2 2385.31 130.583  39
   1  -3  -2 2215.25 120.881  31
  -1  -3   2 2486.74 142.821  25
  -1  -3   2 2706.60 163.744  51
   1  -3  -1 1506.68 77.3864  32
  -1  -3   1 1761.97 116.946  25
  -1  -3   1 1850.93 100.531  24
  -1  -3   1 1691.37 112.043  50
   1  -3  -1 1627.58 84.9819  17
   1  -3  -1 1428.15 97.1595  49
   1  -3  -1 1734.60 123.773  25
   1  -3  -1 1635.92 101.830  23
   1  -3  -1 1417.22 93.7415  52
  -1  -3   1 1656.43 80.6125  27
   1  -3  -1 1394.53 87.3427  48
   1  -3  -1 1587.51 83.5684  24
   1  -3  -1 1334.31 103.061  47
  -1  -3   1 1580.96 87.7977  30
  -1  -3   1 1735.01 120.846  51
   1  -3  -1 1327.97 110.513  51
  -1  -3   1 1568.98 66.9220  13
   1  -3  -1 1306.96 114.737  34
   1  -3  -1 1466.48 90.8982  31
  -1  -3   1 1475.06 94.4781  49
   1  -3  -1 1580.81 98.9707  39
   1  -3  -1 1371.57 68.6658  13
  -1  -3   1 1702.76 92.2917  31
  -1  -3   1 1522.52 93.7594  39
  -1  -3   1 1908.55 110.843  26
   1  -3  -1 1604.42 107.915  50
  -1  -3   0 240.387 40.5406  40
  -1  -3   0 282.043 29.3486  27
  -1  -3   0 195.386 40.3320  24
   1  -3   0 200.298 19.0023  27
   1  -3   0 230.820 23.9767  14
  -1  -3   0 260.724 45.7492  30
   1  -3   0 225.343 45.9428  31
   1  -3   0 207.412 55.9158  39
  -1  -3   0 252.833 40.3451  32
   1  -3   0 208.053 74.8455  25
   1  -3   0 289.227 61.3496  23
  -1  -3   0 240.196 62.0244  50
  -1  -3   0 309.234 48.3149  31
  -1  -3   0 232.365 69.6102  51
   1  -3   0 257.977 65.4475  50
  -1  -3   0 271.206 44.4445  17
   1  -3   0 258.466 76.9540  51
   1  -3   0 224.856 62.0702  52
   1  -3   0 202.850 54.3831  48
  -1  -3   0 235.306 61.7878  39
   1  -3   1 4187.00 208.629  34
   1  -3   1 5109.33 207.409  48
   1  -3   1 4362.39 183.122  27
   1  -3   1 5468.56 225.687  26
  -1  -3  -1 4523.43 199.587  24
   1  -3   1 4263.43 204.473  52
   1  -3   1 4623.85 228.421  25
   1  -3   1 4736.16 243.628  51
  -1  -3  -1 4342.95 204.217  39
   1  -3   1 4144.81 200.506  47
  -1  -3  -1 4501.45 212.539  50
   1  -3   1 4262.58 176.462  13
  -1  -3  -1 4898.30 193.258  17
  -1  -3  -1 4390.79 186.749  40
  -1  -3  -1 4720.85 215.423  51
  -1  -3  -1 4892.61 209.093  30
   1  -3   1 4027.67 190.472  39
   1  -3   1 4384.74 202.104  49
  -1  -3  -1 3988.53 204.140  47
  -1  -3  -1 4648.35 189.666  32
  -1  -3  -1 4732.28 188.034  27
   1  -3   1 4317.29 177.032  14
  -1  -3  -2 5176.76 212.480  32
   1  -3   2 4598.03 219.093  49
  -1  -3  -2 5448.94 215.428  17
  -1  -3  -2 5315.36 200.938  45
   1  -3   2 4865.54 226.784  34
  -1  -3  -2 5188.48 210.901  40
  -1  -3  -2 4005.88 224.205  34
   1  -3   2 5069.46 213.507  27
  -1  -3  -2 5265.71 222.742  24
   1  -3   2 4419.21 243.964  25
   1  -3   2 4695.70 197.303  14
  -1  -3  -2 4423.04 220.266  47
  -1  -3  -2 5335.68 227.769  39
   1  -3   2 4583.07 218.352  47
   1  -3   2 4770.89 196.481  13
   1  -3   3 4676.22 223.032  48
   1  -3   3 5311.67 217.840  53
  -1  -3  -3 4412.67 216.403  24
   1  -3   3 4366.81 211.434  49
   1  -3   3 4693.09 218.788  34
  -1  -3  -3 4490.26 219.366  49
  -1  -3  -3 4117.67 209.463  47
  -1  -3  -3 5130.11 198.230  45
   1  -3   3 3935.10 205.677  47
  -1  -3  -3 4985.75 208.799  17
   1  -3   3 4810.49 220.938  52
  -1  -3  -3 4731.97 223.152  18
  -1  -3  -3 4979.75 223.702  39
   1  -3   4 1801.06 123.503  49
  -1  -3  -4 2075.49 133.353  49
  -1  -3  -4 2712.62 133.666  32
   1  -3   4 2610.19 127.647  38
  -1  -3  -4 2816.46 121.528  45
  -1  -3  -4 2381.69 110.226   7
  -1  -3  -4 2637.34 139.963  39
   1  -3   4 2736.70 117.050   4
   1  -3   4 2221.63 140.177  52
   1  -3   4 2372.35 144.458  48
  -1  -3  -4 2787.26 135.602  40
   1  -3   4 2303.73 134.044  34
  -1  -3  -4 2252.81 107.632   8
   1  -3   4 2679.62 152.081  35
   1  -3   5 2845.84 165.976  48
  -1  -3  -5 3424.13 161.920  40
   1  -3   5 2891.34 177.909  35
   1  -3   5 3159.04 154.964  38
   1  -3   5 3179.81 143.728   4
  -1  -3  -5 2964.42 137.093   7
  -1  -3  -5 3460.78 161.112  32
  -1  -3  -5 2978.87 134.078   8
   1  -3   5 2997.44 164.003  53
   1  -3   5 2580.21 158.447  52
  -1  -3  -5 3395.27 149.138  45
  -1  -3  -5 2769.86 155.343  39
   1  -3   6 1351.43 107.361  48
  -1  -3  -6 1545.19 106.395  32
   1  -3   6 1573.02 90.7497   4
   1  -3   6 1454.78 108.123  53
  -1  -3  -6 1708.73 98.8779  45
   1  -3   6 1161.42 96.6404  52
  -1  -3  -6 1642.52 111.206  40
  -1  -3  -6 1369.05 81.4159   9
  -1  -3  -6 1658.59 91.3852   7
  -1  -3  -6 1583.47 82.3735   8
   1  -3   6 1370.39 121.299  35
   1  -3   7 1072.57 72.3336  37
  -1  -3  -7 1157.20 68.6061   8
  -1  -3  -7 1230.08 88.3624  32
   1  -3   7 1216.89 83.2622  38
  -1  -3  -7 1037.99 69.6537  21
   1  -3   7 1124.62 76.4439   4
   1  -3   7 1196.89 88.7705  54
   1  -3   7 981.056 85.1982  53
   1  -3   7 999.436 98.9075  35
  -1  -3  -7 1208.05 92.9922  40
  -1  -3  -7 1192.70 78.4962   7
   1  -3   7 879.359 80.7054  48
  -1  -3  -8 1390.21 86.6248  40
  -1  -3  -8 1482.31 81.7461   7
  -1  -3  -8 1298.16 80.6495  32
   1  -3   8 1446.71 78.0579  37
   1  -3   8 1473.74 80.2976   4
   1  -3   8 1055.10 87.1228  35
  -1  -3  -8 1406.21 72.5820  21
   1  -3   8 1297.05 84.8101  53
  -1  -3  -8 1352.29 72.0169   8
   1  -3   8 1204.82 81.0608  38
  -1  -3  -9 280.819 36.8692  64
   1  -3   9 324.026 32.4851  38
   1  -3   9 290.683 36.6617  54
   1  -3   9 378.302 34.0026   4
   1  -3   9 348.878 32.5412  37
  -1  -3  -9 334.782 27.9089  21
   1  -2 -10 222.630 33.7594  21
  -1  -2  10 131.736 28.5060  37
  -1  -2  10 175.958 33.3050  54
   1  -2 -10 227.029 31.8352  62
  -1  -2   9 240.281 39.7711   4
  -1  -2   9 216.346 38.8054  38
   1  -2  -9 166.172 21.9334  60
  -1  -2   9 228.640 41.1170  37
  -1  -2   9 196.600 46.1025  54
   1  -2  -8 123.381 47.0087  32
   1  -2  -8 119.771 26.8147  60
  -1  -2   8 131.596 42.4574  53
   1  -2  -8 160.891 31.6735  16
   1  -2  -8 137.943 53.2940  45
  -1  -2   8 86.2478 42.8995  38
   1  -2  -8 96.4681 41.7354   7
   1  -2  -7 2545.67 113.163  60
   1  -2  -7 2755.45 128.201  45
  -1  -2   7 1773.87 126.230  48
   1  -2  -7 2642.89 117.120   7
   1  -2  -7 2441.46 107.835  16
   1  -2  -7 2893.68 125.785  62
   1  -2  -7 2481.90 126.216  40
   1  -2  -7 2663.63 128.610  32
  -1  -2   7 2285.35 131.762  53
  -1  -2   7 2046.64 132.224  35
   1  -2  -6 493.752 43.7863   7
   1  -2  -6 445.096 37.8395  16
   1  -2  -6 547.740 61.5436  32
   1  -2  -6 445.154 39.1902  60
  -1  -2   6 386.509 61.2917  48
  -1  -2   6 393.548 64.6575  35
   1  -2  -6 485.904 59.3110  40
   1  -2  -6 390.528 46.3317  20
   1  -2  -6 466.544 56.1036  45
  -1  -2   5 990.043 89.5904  31
   1  -2  -5 1071.52 76.0693  17
   1  -2  -5 1370.29 84.2757  39
  -1  -2   5 1369.17 92.6570  35
   1  -2  -5 943.426 82.8362  31
  -1  -2   5 1083.44 81.2776  52
  -1  -2   5 1771.25 123.534  26
   1  -2  -5 1245.24 59.6607  16
   1  -2  -5 1353.48 79.5199  40
   1  -2  -5 1460.46 82.8340  32
   1  -2  -5 1226.95 86.1575  18
   1  -2  -4 635.561 57.0209  32
  -1  -2   4 760.685 64.3790  31
  -1  -2   4 691.339 59.1086  23
  -1  -2   4 811.154 80.8771  26
   1  -2  -4 572.728 34.1749  16
  -1  -2   4 718.574 66.9165  18
  -1  -2   4 609.755 50.0887  25
   1  -2  -4 683.050 65.1652  39
   1  -2  -4 650.045 70.2458  25
   1  -2  -4 583.715 52.9973  17
   1  -2  -4 636.882 67.5306  18
   1  -2  -4 633.736 56.9818  40
  -1  -2   3 4547.23 191.678  18
   1  -2  -3 4254.83 198.317  50
  -1  -2   3 5511.47 218.001  26
   1  -2  -3 4225.86 177.925  45
  -1  -2   3 5042.09 193.145  31
  -1  -2   3 5523.29 201.465  27
  -1  -2   3 5129.56 198.293  23
   1  -2  -3 4304.48 185.056  17
   1  -2  -3 4732.67 202.266  30
   1  -2  -3 3663.44 188.397  18
   1  -2  -3 3947.08 181.731  40
   1  -2  -3 4461.56 184.538  23
  -1  -2   3 4974.14 197.585  25
   1  -2  -3 4303.97 193.106  39
   1  -2  -3 4955.34 215.065  25
   1  -2  -3 4312.12 183.743  32
   1  -2  -3 4142.07 201.289  51
   1  -2  -3 4148.87 180.158  24
   1  -2  -3 3985.95 191.970  31
   1  -2  -2 2020.08 96.9890  24
  -1  -2   2 2451.06 108.043  31
   1  -2  -2 2190.23 109.944  31
   1  -2  -2 2362.76 118.290  30
  -1  -2   2 2650.84 124.116  25
   1  -2  -2 2358.22 111.788  23
   1  -2  -2 2465.66 135.336  25
   1  -2  -1 5855.08 260.229  24
   1  -2  -1 6452.25 267.303  31
  -1  -2   1 7514.16 286.125  25
   1  -2  -1 7108.36 274.497  23
   1  -2  -1 6940.69 291.725  25
  -1  -2   1 6588.12 263.461  30
  -1  -2   1 7005.11 267.571  31
  -1  -2   0 54580.2 1901.88  31
  -1  -2   0 53736.4 1898.99  30
   1  -2   0 53445.6 1898.54  31
   1  -2   0 55788.6 1906.22  23
  -1  -2  -1 16606.6 637.761  30
   1  -2   1 17432.1 653.436  25
  -1  -2  -1 15774.2 624.036  27
  -1  -2  -1 16054.4 621.409  28
   1  -2   1 16402.0 628.688  18
   1  -2   2 1931.97 110.418  48
  -1  -2  -2 2115.64 94.1644  45
   1  -2   2 1831.85 109.578  52
   1  -2   2 2145.69 115.896  23
  -1  -2  -2 2036.19 104.495  24
  -1  -2  -2 1900.28 113.371  51
   1  -2   2 2306.64 126.265  26
   1  -2   2 1822.44 122.191  25
   1  -2   2 2363.79 115.617  31
  -1  -2  -2 1847.84 109.087  39
   1  -2   2 2292.63 110.956  18
  -1  -2  -2 2106.18 103.233  28
  -1  -2  -2 2050.75 124.932  25
  -1  -2  -2 2047.39 116.086  50
   1  -2   3 156.742 53.6140  48
  -1  -2  -3 233.184 23.1632  16
   1  -2   3 253.985 58.4245  26
  -1  -2  -3 327.914 52.4795  32
   1  -2   3 196.974 56.9089  52
   1  -2   3 249.987 63.1025  35
  -1  -2  -3 250.722 63.6531  18
  -1  -2  -3 257.942 41.1882  45
  -1  -2  -3 238.790 47.5183  28
  -1  -2  -3 295.958 30.7302  41
  -1  -2  -3 196.166 52.9788  39
  -1  -2  -3 168.183 52.5334  25
   1  -2   3 196.203 43.4362  49
  -1  -2  -3 221.820 53.1543  40
  -1  -2  -3 254.836 44.2406  17
  -1  -2  -3 291.370 49.8407  23
   1  -2   3 261.544 54.6652  23
  -1  -2  -3 218.515 60.2386  31
  -1  -2  -3 174.681 51.7569  51
  -1  -2  -3 189.363 39.9642  24
   1  -2   4 3381.82 171.597  53
  -1  -2  -4 4110.41 164.363  45
   1  -2   4 3283.84 180.049  35
   1  -2   4 3944.39 201.767  26
  -1  -2  -4 3022.36 184.716  31
   1  -2   4 3255.88 169.851  52
  -1  -2  -4 3609.46 180.981  28
  -1  -2  -4 3330.47 166.066  17
  -1  -2  -4 3897.52 168.870  32
  -1  -2  -4 4023.81 149.657  16
  -1  -2  -4 3865.07 172.273  40
   1  -2   4 3575.38 176.851  48
  -1  -2  -4 3401.43 167.216  39
  -1  -2  -4 3923.70 156.636  41
  -1  -2  -4 3446.29 182.760  18
  -1  -2  -5 1021.01 78.1325  32
   1  -2   5 1012.48 70.5840   2
  -1  -2  -5 886.621 58.8852   9
   1  -2   5 753.633 73.0913  52
   1  -2   5 784.018 75.0345  53
   1  -2   5 686.571 83.5283  35
   1  -2   5 807.272 77.4954  48
  -1  -2  -5 920.757 56.0130   8
  -1  -2  -5 962.711 82.2994  40
   1  -2   5 892.718 70.4318  38
  -1  -2  -5 1089.06 63.6982  41
  -1  -2  -5 922.676 60.6130   7
  -1  -2  -5 1075.94 54.2341  16
   1  -2   6 799.241 75.4541  53
  -1  -2  -6 745.900 58.5920   9
   1  -2   6 774.361 85.6900  35
  -1  -2  -6 843.866 75.0194  32
   1  -2   6 736.712 70.0551   2
  -1  -2  -6 821.259 63.6229   7
  -1  -2  -6 913.733 64.2277  41
  -1  -2  -6 892.006 81.5912  40
  -1  -2  -6 740.824 58.2831  21
  -1  -2  -6 864.430 57.3251   8
   1  -2   6 809.126 69.5224  38
  -1  -2  -6 844.890 50.1310  16
   1  -2   6 626.871 69.6561  48
  -1  -2  -7 1366.03 65.8912  16
  -1  -2  -7 1254.94 85.6963  32
  -1  -2  -7 1439.47 81.6136  41
   1  -2   7 1200.44 85.8509   2
   1  -2   7 997.388 93.4462  35
  -1  -2  -7 1220.23 72.7221   8
   1  -2   7 1039.96 84.1604  53
  -1  -2  -7 1083.54 72.3367   9
  -1  -2  -7 1167.94 90.7637  40
  -1  -2  -7 1174.48 72.8739  21
   1  -2   7 1298.15 79.7109  37
  -1  -2  -7 1188.62 80.3193   7
  -1  -2  -7 1339.43 89.9389  45
   1  -2   7 1164.80 81.6660  38
   1  -2   8 1185.82 82.3787  53
   1  -2   8 1237.60 81.6004  38
  -1  -2  -8 1535.40 90.5883  45
   1  -2   8 1199.07 89.2132  54
   1  -2   8 1376.02 89.0902   2
   1  -2   8 1566.54 85.1361  37
  -1  -2  -8 1437.40 74.9711  21
  -1  -2  -8 1499.40 85.1122  62
  -1  -2  -8 1412.09 88.2333  40
  -1  -2  -8 1523.32 79.8705   8
   1  -2   8 1555.83 89.6177   4
   1  -2   9 199.920 36.5680   2
   1  -2   9 174.045 36.6162  54
  -1  -2  -9 225.571 38.8436  45
   1  -2   9 253.110 39.5139   4
  -1  -2  -9 216.284 30.0536  21
   1  -2   9 169.964 28.5020  38
  -1  -2  -9 159.135 35.3597  64
   1  -2   9 231.319 32.1295  37
   1  -2   9 136.226 32.6340  36
  -1  -2  -9 174.884 31.4058  62
   1  -1 -10 19.7415 24.7719  62
  -1  -1  10 36.3703 26.6245  54
  -1  -1  10 68.2003 27.2493  37
   1  -1 -10 63.0525 33.2670  64
  -1  -1  10 32.6377 38.9473  55
   1  -1 -10 62.1752 33.4651  21
   1  -1  -9 10.0681 39.1918  64
  -1  -1   9 49.4158 47.3197   2
  -1  -1   9 45.5674 33.5282  37
   1  -1  -9 10.1559 40.7688  45
   1  -1  -9 15.2004 29.4219  16
   1  -1  -9 59.9210 31.3499  62
  -1  -1   9 44.6433 27.7930  38
  -1  -1   9 6.22553 36.5310  54
   1  -1  -9 4.25158 19.6485  60
  -1  -1   8 411.346 46.3825  38
   1  -1  -8 514.494 57.1815  45
   1  -1  -8 401.500 45.5503  62
   1  -1  -8 368.169 33.8957  60
  -1  -1   8 440.260 55.9454  54
   1  -1  -8 448.075 55.2648  64
   1  -1  -8 365.431 39.9024  16
   1  -1  -8 343.989 40.3559   8
   1  -1  -7 2474.81 119.080  32
   1  -1  -7 2997.18 124.132  62
   1  -1  -7 2637.86 124.386  45
   1  -1  -7 2700.80 113.104  60
   1  -1  -7 2470.87 116.215   7
  -1  -1   7 1939.28 119.191  53
  -1  -1   7 2369.09 121.795  38
   1  -1  -7 2426.77 111.641  16
   1  -1  -7 2490.89 111.654   8
   1  -1  -6 8864.07 331.113  32
  -1  -1   6 8436.17 352.797  29
   1  -1  -6 7119.66 339.319  18
   1  -1  -6 9402.37 333.579  45
   1  -1  -6 7462.29 320.660  16
   1  -1  -6 8496.06 330.322  40
   1  -1  -6 8686.31 325.920  60
  -1  -1   6 7924.82 335.791  53
   1  -1  -5 7346.10 322.753  16
   1  -1  -5 8304.34 339.973  18
   1  -1  -5 7882.07 341.765  31
  -1  -1   5 6718.82 324.739  23
   1  -1  -5 8793.18 331.432  40
  -1  -1   5 9220.03 355.010  18
   1  -1  -5 8552.15 348.981  30
  -1  -1   5 8833.06 340.959  35
  -1  -1   5 10237.5 393.168  26
   1  -1  -5 9211.08 333.241  32
  -1  -1   5 10782.3 354.535  29
  -1  -1   5 11415.9 378.882  50
   1  -1  -5 9066.69 332.108  45
  -1  -1   4 1537.29 80.4707  17
  -1  -1   4 1742.25 83.2775  29
   1  -1  -4 1487.70 74.0998  32
   1  -1  -4 1589.70 85.2180  30
  -1  -1   4 1499.60 86.5015  28
   1  -1  -4 1145.53 76.3259  25
  -1  -1   4 1917.07 114.274  26
   1  -1  -4 1314.96 81.9404  31
  -1  -1   4 1452.69 89.7647  18
  -1  -1   4 1456.94 72.7229  23
   1  -1  -4 1399.59 70.2999  45
   1  -1  -4 1379.22 83.8896  18
   1  -1  -4 1169.99 62.5899  16
  -1  -1   4 1416.31 88.2655  31
   1  -1  -4 1392.35 76.4768  17
   1  -1  -3 3877.55 172.231  30
  -1  -1   3 3968.41 169.132  31
   1  -1  -3 4394.56 178.825  25
  -1  -1   3 3801.22 160.004  25
   1  -1  -3 3644.62 169.378  18
  -1  -1   3 4400.00 167.131  29
  -1  -1   3 3786.25 168.632  18
  -1  -1   3 4191.75 170.428  28
   1  -1  -2 16376.8 626.204  23
   1  -1  -2 14809.8 627.554  31
   1  -1  -2 18646.5 643.460  25
   1  -1  -2 15720.3 632.984  30
  -1  -1   2 17106.9 626.674  31
  -1  -1   2 15959.3 627.318  18
  -1  -1   2 17642.0 627.665  28
  -1  -1   1 22706.3 869.344  30
   1  -1  -1 24459.2 888.078  25
   1  -1   1 2946.86 139.005  18
   1  -1   1 3181.60 146.747  23
   1  -1   1 2700.01 152.440  25
   1  -1   2 827.888 71.3715  23
   1  -1   2 887.123 71.2536  31
  -1  -1  -2 898.272 67.9132  30
  -1  -1  -2 855.207 66.4761  23
  -1  -1  -2 946.164 66.5171  28
   1  -1   2 843.902 71.1236  18
  -1  -1  -3 899.125 78.2988  31
   1  -1   3 856.017 73.3010  35
  -1  -1  -3 1138.85 77.1612  28
   1  -1   3 939.341 72.1401  23
  -1  -1  -3 1076.27 61.8146  23
   1  -1   3 1093.29 63.8061  11
  -1  -1  -3 954.640 62.6629  32
  -1  -1  -3 860.543 48.3399  16
   1  -1   3 911.522 62.6302  53
  -1  -1  -3 972.495 67.8969  40
   1  -1   3 1154.62 74.1496  29
  -1  -1  -3 1037.91 57.3361  41
   1  -1   3 861.009 64.4371  17
   1  -1   3 1082.12 86.5735  26
  -1  -1  -3 1012.65 64.9863  17
  -1  -1  -3 1022.33 75.2207  30
   1  -1   3 905.068 57.5191  38
  -1  -1  -3 973.486 57.0642  46
   1  -1   3 851.834 81.4940  31
  -1  -1  -4 2268.04 103.087  32
   1  -1   4 1691.25 98.6590  52
  -1  -1  -4 2201.54 102.472  45
  -1  -1  -4 1981.75 119.633  31
  -1  -1  -4 1659.48 86.9277  23
   1  -1   4 2016.35 104.882  53
  -1  -1  -4 1894.86 105.640  25
   1  -1   4 1883.50 102.912  48
   1  -1   4 2294.13 106.243  11
   1  -1   4 2421.63 136.501  26
   1  -1   4 1844.89 111.032  23
   1  -1   4 1890.58 99.3913  38
  -1  -1  -4 2402.75 100.826  41
   1  -1   4 2383.26 120.091  29
   1  -1   4 1844.07 111.752  35
  -1  -1  -4 2150.23 118.587  18
  -1  -1  -4 2050.67 106.645  40
  -1  -1  -4 2119.17 89.7325  16
  -1  -1  -4 2263.03 100.913  46
  -1  -1  -4 2360.13 123.706  28
   1  -1   4 2416.21 133.850  50
  -1  -1  -5 4045.78 161.701  16
  -1  -1  -5 3961.53 162.303   8
   1  -1   5 3293.56 170.724  48
  -1  -1  -5 4038.43 171.681  32
   1  -1   5 3705.27 185.627  35
   1  -1   5 3794.49 171.810  38
  -1  -1  -5 3945.67 164.313   7
  -1  -1  -5 4140.27 171.388  41
  -1  -1  -5 3979.08 177.189  40
   1  -1   5 3645.90 176.154  53
  -1  -1  -5 4213.53 175.717  45
   1  -1   6 39.9845 29.5566   6
  -1  -1  -6 41.6230 40.1623   7
   1  -1   6 70.7765 43.9247  54
  -1  -1  -6 58.0148 42.1814  32
   1  -1   6 71.2943 36.6254  38
   1  -1   6 55.9908 51.0536  35
  -1  -1  -6 48.0940 34.4394   8
  -1  -1  -6 10.5945 51.6970  40
  -1  -1  -6 86.6469 35.1782  21
  -1  -1  -6 85.8161 46.8648  41
  -1  -1  -6 39.3295 38.5200   9
   1  -1   6 32.5824 33.9210  37
  -1  -1  -6 54.3114 49.5991  45
   1  -1   6 47.9024 39.2451  53
  -1  -1  -6 63.5679 34.1538  16
  -1  -1  -7 128.237 49.3477   7
   1  -1   7 132.968 40.3409  38
   1  -1   7 106.354 46.5204  54
  -1  -1  -7 147.792 51.3405  40
   1  -1   7 25.9126 58.8788   2
  -1  -1  -7 104.487 40.6732  21
   1  -1   7 131.892 48.7782  35
  -1  -1  -7 94.1678 52.8519  45
  -1  -1  -7 95.2974 39.2273  16
  -1  -1  -7 51.8600 41.8317   9
  -1  -1  -7 127.670 50.3158  41
   1  -1   7 89.7235 37.4540  53
  -1  -1  -7 117.207 39.7674   8
  -1  -1  -8 2748.31 113.525  16
  -1  -1  -8 2436.91 124.915  64
  -1  -1  -8 2667.41 127.885  45
  -1  -1  -8 2772.21 128.414  41
   1  -1   8 2408.97 131.019  54
  -1  -1  -8 2643.52 115.996  21
  -1  -1  -8 2275.67 117.747   9
  -1  -1  -8 2421.47 122.619  62
   1  -1   8 2590.21 138.210   2
   1  -1   8 2268.39 119.034  38
  -1  -1  -8 2651.80 120.258   8
  -1  -1  -9 881.353 50.1376  21
   1  -1   9 836.791 69.2205   2
  -1  -1  -9 782.816 53.5921  62
   1  -1   9 855.612 61.7801  54
  -1  -1  -9 893.522 60.4234  45
  -1  -1  -9 790.949 56.4157  64
   1  -1   9 811.814 64.3924  36
  -1  -1  -9 838.220 57.9931   8
   1  -1   9 868.942 58.5764  37
  -1  -1  -9 1029.67 48.6398  16
   1  -1  10 91.6306 25.8886   2
  -1  -1 -10 70.3235 16.6504  64
  -1  -1 -10 53.8535 14.3375  62
   1  -1  10 101.917 26.4314   4
  -1  -1 -10 102.262 15.7408  21
   1  -1  10 67.0160 19.1132  37
   1   0 -10 2294.25 100.129  62
   1   0 -10 2134.71 103.631  64
   1   0 -10 2293.86 94.9651  16
  -1   0  10 2044.66 115.211   2
  -1   0  10 2147.38 101.946  37
   1   0  -9 799.381 62.5832  64
  -1   0   9 815.531 78.4469  55
  -1   0   9 757.207 57.1071  54
   1   0  -9 760.297 54.2471  16
   1   0  -9 828.237 55.4703  62
  -1   0   9 809.034 57.1524  37
   1   0  -9 761.255 45.9250  60
  -1   0   8-1.45806 34.1672  54
   1   0  -8-10.2613 37.9017  16
  -1   0   8 19.4002 32.7677  37
   1   0  -8 31.5150 23.9055  60
   1   0  -8 30.7691 38.2142  45
   1   0  -8 8.63541 37.4283  64
   1   0  -8-36.6257 48.5334  41
   1   0  -8-12.8870 29.2288  62
   1   0  -8 7.69118 32.8073   8
  -1   0   7 8836.52 360.543  54
  -1   0   7 7772.29 350.534  38
   1   0  -7 8888.74 360.973  64
   1   0  -7 9733.27 355.300  45
   1   0  -7 10214.9 360.709  41
   1   0  -7 9257.89 347.772  60
   1   0  -7 7569.59 345.690  16
   1   0  -7 8771.19 348.461   8
   1   0  -7 10048.3 357.336  62
  -1   0   6 2255.21 111.396  38
   1   0  -6 2662.98 117.525  41
   1   0  -6 2416.28 107.131  60
   1   0  -6 2172.79 107.336  16
   1   0  -6 2651.50 114.102  45
  -1   0   6 2674.18 136.776  29
   1   0  -6 2203.08 125.067  18
   1   0  -6 2994.12 115.306  62
  -1   0   5 250.847 65.0528  26
   1   0  -5 166.525 31.3643  16
   1   0  -5 176.280 37.9846  31
   1   0  -5 247.738 51.2607  28
  -1   0   5 206.137 27.7179  11
  -1   0   5 176.301 35.5172  24
   1   0  -5 178.330 32.8178  30
  -1   0   5 232.719 63.0078  50
   1   0  -5 179.921 47.3626  18
  -1   0   5 296.649 42.7143  29
   1   0  -5 227.408 34.4467  45
   1   0  -5 179.789 36.7073  41
  -1   0   5 184.559 57.6134  18
  -1   0   4 2105.30 119.879  18
   1   0  -4 2016.25 95.9783  16
  -1   0   4 2565.67 136.235  51
   1   0  -4 2255.49 110.287  18
   1   0  -4 2293.37 100.467  46
  -1   0   4 2840.25 115.258  29
  -1   0   4 2356.40 120.215  28
   1   0  -4 2444.46 120.619  28
   1   0  -4 2254.03 101.480  41
  -1   0   4 2418.21 99.0707  11
   1   0  -4 2422.15 106.464  30
  -1   0   4 2450.73 111.375  17
   1   0  -4 2289.47 107.666  31
  -1   0   4 2703.30 134.075  50
   1   0  -3 18982.6 629.567  31
  -1   0   3 14000.0 618.741  23
  -1   0   3 13143.7 617.844  23
  -1   0   3 19533.6 631.282  17
  -1   0   3 20792.8 623.852  11
   1   0  -3 19538.8 640.247  28
  -1   0   3 18533.2 633.613  18
  -1   0   3 21418.6 649.638  51
  -1   0   3 22496.7 646.058  50
   1   0  -3 18948.3 628.843  18
  -1   0   3 21643.0 633.193  29
   1   0  -3 19810.1 629.161  30
   1   0  -2 761.547 37.2178  31
  -1   0   2 663.702 39.0759  30
  -1   0   2 725.637 44.3466  17
   1   0  -2 710.038 50.6736  28
   1   0  -2 691.530 40.1362  30
  -1   0   2 741.559 46.9844  25
  -1   0   2 717.775 32.0034  11
  -1   0   2 862.591 67.0209  51
  -1   0   2 690.447 49.6535  18
  -1   0  -2 9968.25 397.533  11
  -1   0  -2 10274.9 396.192  23
   1   0   2 10446.6 405.200  51
   1   0   2 10375.2 394.500  17
   1   0   2 11251.8 408.250  50
  -1   0  -3 6067.54 248.288  16
   1   0   3 5892.99 268.754  24
   1   0   3 7456.60 278.211  51
  -1   0  -3 6285.55 262.918  11
  -1   0  -3 6792.04 258.180  23
  -1   0  -3 5997.38 264.242  25
  -1   0  -3 6448.51 270.096  30
  -1   0  -3 6630.38 267.402  29
  -1   0  -3 6616.82 258.102  42
   1   0   3 6613.48 261.840  11
  -1   0  -3 6183.80 254.225  45
   1   0   3 7555.95 280.739  50
   1   0   3 6126.57 256.043  54
   1   0   3 6902.81 262.183  17
  -1   0  -4 6115.61 234.016  56
  -1   0  -4 3552.23 221.079  25
   1   0   4 5507.54 229.540  53
   1   0   4 5700.72 231.922  54
  -1   0  -4 5732.32 221.804  16
  -1   0  -4 5896.34 230.188  45
  -1   0  -4 5167.91 244.147  30
  -1   0  -4 6050.89 246.088  18
  -1   0  -4 5859.07 250.818  31
   1   0   4 6303.37 238.913  11
   1   0   4 6873.06 264.687  51
  -1   0  -4 5393.69 224.924  32
  -1   0  -4 5778.75 231.034  40
   1   0   4 5692.67 237.493  35
  -1   0  -4 6157.90 231.917  46
   1   0   4 5681.22 227.304  38
  -1   0  -4 6594.48 237.174  42
   1   0   4 6416.32 250.023  29
   1   0   4 5881.67 266.282  26
   1   0   4 7157.69 269.564  50
  -1   0  -5 28537.2 992.679  46
   1   0   5 23235.6 1034.98  26
  -1   0  -5 27150.7 990.471  45
   1   0   5 25032.1 989.917  53
  -1   0  -5 29086.0 995.357  56
  -1   0  -5 23899.0 1011.11  31
  -1   0  -5 25991.0 984.316   7
  -1   0  -5 25081.3 989.591  40
   1   0   5 25515.2 993.499  54
   1   0   5 25815.1 998.706  11
   1   0   5 24628.5 987.317  38
   1   0   5 24722.8 996.883  35
   1   0   5 26911.7 989.225  37
  -1   0  -5 26785.6 983.380   8
  -1   0  -5 24327.0 980.354  16
  -1   0  -6 2118.59 104.524   9
  -1   0  -6 2221.26 102.342   8
   1   0   6 2056.00 111.807  54
   1   0   6 2096.47 106.424  37
  -1   0  -6 2538.07 117.373  56
  -1   0  -6 2346.33 114.248  46
   1   0   6 2309.34 100.678   6
  -1   0  -6 2203.77 110.513  45
  -1   0  -6 1985.70 100.326  16
  -1   0  -6 2060.63 98.3351  21
   1   0   6 1994.60 112.863  35
  -1   0  -6 2003.06 109.531  40
   1   0   6 2188.56 104.324  38
   1   0   6 2019.43 104.663  53
  -1   0  -7 57.3353 39.5911  16
  -1   0  -7 43.9579 32.7926  64
  -1   0  -7 45.9990 45.7993  45
  -1   0  -7 20.4734 25.4638  62
   1   0   7 59.8616 41.1316  54
   1   0   7 71.6132 32.2692   6
  -1   0  -7 60.3789 44.9839   9
  -1   0  -7 49.1237 33.5336  21
   1   0   7 60.2733 36.2458  37
   1   0   7 55.3239 27.5423  38
  -1   0  -7 98.2444 41.1259   8
   1   0   8 1093.42 78.6621  54
  -1   0  -8 1047.37 71.8315  64
  -1   0  -8 1390.53 78.1925  45
   1   0   8 1312.17 79.7526   5
  -1   0  -8 1095.55 68.5166  62
  -1   0  -8 1299.91 77.4520   9
   1   0   8 1207.95 89.6009  36
   1   0   8 1281.01 76.3953  37
  -1   0  -8 1252.11 70.1706  16
  -1   0  -8 1281.61 76.2976   8
  -1   0  -8 1335.94 69.3178  21
   1   0   9 119.325 39.5280  36
  -1   0  -9 103.464 26.7428  64
   1   0   9 103.022 50.4743  55
  -1   0  -9 135.369 29.5175  21
   1   0   9 100.174 56.7301   2
  -1   0  -9 180.778 32.4801  45
   1   0   9 111.293 30.2129  54
   1   0   9 147.453 35.5651   5
  -1   0  -9 96.6135 22.0322  62
   1   0   9 110.191 30.1684  37
  -1   0  -9 111.773 26.8987  16
   1   0  10 129.290 30.0489   4
  -1   0 -10 110.861 15.8681  16
  -1   0 -10 96.8904 16.3355  21
   1   0  10 63.5307 23.4471  36
  -1   1  10 56.3195 37.2405  36
   1   1 -10 78.7215 25.5083  64
   1   1 -10 56.8333 25.6219  16
   1   1 -10 32.4871 17.2681  62
   1   1 -10 42.8415 22.9591  12
  -1   1  10 45.8258 39.6178   5
   1   1  -9 44.2258 35.1911  16
  -1   1   9 75.6996 46.3579  55
  -1   1   9 26.7520 46.3456  36
  -1   1   9 33.0415 25.4330  37
   1   1  -9 23.9134 22.3522  62
   1   1  -9-16.4402 31.4189  64
   1   1  -8 346.476 47.4646  16
  -1   1   8 517.337 66.4607  55
   1   1  -8 441.440 48.6932  64
   1   1  -8 453.207 37.0984  60
  -1   1   8 406.621 41.1338  37
   1   1  -8 402.249 37.8834  62
   1   1  -8 491.174 54.0042  41
   1   1  -7 2349.82 120.362  64
   1   1  -7 2364.09 111.806  45
   1   1  -7 2741.26 123.495  41
   1   1  -7 2784.81 112.452  60
  -1   1   7 2365.43 115.791  37
   1   1  -7 2432.33 113.584  62
  -1   1   7 2295.03 114.943  54
   1   1  -7 2430.26 114.239  16
  -1   1   6 8595.11 374.672  29
   1   1  -6 8231.26 345.555  16
   1   1  -6 9005.33 352.838  46
   1   1  -6 9842.00 364.339  56
   1   1  -6 10202.0 348.651  60
  -1   1   6 8149.29 349.803  54
   1   1  -6 8718.36 346.600  21
   1   1  -6 9416.69 354.907  41
   1   1  -6 8652.43 346.551  45
   1   1  -6 8517.85 353.784  64
  -1   1   5 7593.30 354.928  24
  -1   1   5 9120.93 391.367  50
   1   1  -5 8528.64 344.750  45
  -1   1   5 8190.22 347.416  54
   1   1  -5 10013.2 360.108  56
  -1   1   5 9564.80 356.754  11
   1   1  -5 9525.54 351.289  41
  -1   1   5 9728.00 368.912  29
   1   1  -5 8418.37 356.554  31
   1   1  -5 10912.1 362.949  42
   1   1  -5 9445.08 373.769  28
   1   1  -5 9013.23 349.825  46
   1   1  -5 8668.87 344.466  16
   1   1  -5 8504.82 360.232  29
  -1   1   4 1319.57 93.5622  50
   1   1  -4 1407.31 78.6622  28
  -1   1   4 1251.23 61.9776  24
   1   1  -4 1488.70 67.5234  31
  -1   1   4 1359.14 75.9086  30
  -1   1   4 1725.32 76.0590  29
   1   1  -4 1596.49 71.8607  42
   1   1  -4 1459.63 61.5072  41
   1   1  -4 1528.43 71.2549  56
  -1   1   4 1507.74 75.4251  17
  -1   1   4 1471.15 67.1598  11
   1   1  -4 1401.91 55.4898  16
   1   1  -4 1462.58 67.2279  29
   1   1  -3 3487.53 144.551  11
  -1   1   3 3770.16 157.303  17
   1   1  -3 4015.04 153.545  31
   1   1  -3 3998.08 153.301  29
  -1   1   3 3870.32 174.193  50
  -1   1   3 3826.77 178.715  51
  -1   1   3 3392.11 148.507  24
  -1   1   3 3650.47 161.130  30
   1   1  -3 3995.78 161.644  28
   1   1  -2 14603.2 569.109  11
   1   1  -2 16319.6 575.268  31
  -1   1   2 15723.6 590.379  51
  -1   1   2 14876.0 575.188  17
  -1   1   2 13172.2 570.209  24
   1   1  -2 16832.6 574.471  29
   1   1  -2 18354.1 591.181  26
  -1   1   2 15058.8 586.094  50
   1   1  -2 16127.0 576.316  28
  -1   1  -1 3010.68 128.843  28
   1   1   1 3206.29 135.559  51
   1   1   1 2952.29 120.145  17
   1   1   1 3276.46 137.778  50
  -1   1  -2 859.173 65.8568  28
   1   1   2 914.875 58.4406  17
  -1   1  -2 894.995 55.2550  11
   1   1   2 765.338 56.3378  24
   1   1   2 881.757 76.9536  51
   1   1   2 825.602 52.0216  27
   1   1   2 862.432 76.2064  50
  -1   1  -2 888.011 59.1208  29
  -1   1  -2 987.926 68.4574  25
  -1   1  -3 927.735 68.5605  42
  -1   1  -3 818.347 68.0045  56
  -1   1  -3 953.346 61.1559  41
  -1   1  -3 1067.63 75.2296  28
   1   1   3 1022.30 67.2717  17
   1   1   3 963.787 61.1249  27
  -1   1  -3 970.022 49.3498  16
  -1   1  -3 1075.24 66.8713  29
   1   1   3 949.399 52.9018  54
   1   1   3 1047.54 86.7881  50
   1   1   3 1021.42 89.0638  51
   1   1   3 942.640 74.5100  28
  -1   1  -3 913.432 61.4122  11
  -1   1  -3 1013.71 69.8322  23
  -1   1  -3 999.959 74.5089  31
   1   1   3 1007.14 67.1076  11
   1   1   3 928.153 65.4609  24
  -1   1  -3 1092.43 66.2825  25
  -1   1  -3 999.296 63.0217  46
   1   1   3 873.414 49.0462  37
  -1   1  -4 2186.31 105.912  56
   1   1   4 2353.89 134.641  51
   1   1   4 2148.02 96.3618  54
  -1   1  -4 1961.86 112.472  43
   1   1   4 2009.12 90.3928  53
  -1   1  -4 2026.59 100.333  46
  -1   1  -4 2170.09 95.3888  45
   1   1   4 2471.93 137.131  50
   1   1   4 2094.84 88.4198  38
  -1   1  -4 2254.07 117.155  31
  -1   1  -4 2010.56 103.748  11
  -1   1  -4 2428.16 124.929  28
   1   1   4 2066.80 106.637  27
  -1   1  -4 2042.41 95.6049  40
   1   1   4 2099.18 98.9747  35
   1   1   4 2361.41 110.571  11
  -1   1  -4 2400.38 117.367  18
  -1   1  -4 2129.19 108.434  42
  -1   1  -4 2221.60 103.024  41
   1   1   4 2224.12 92.7731  37
  -1   1  -4 2351.87 90.4431  16
   1   1   5 4134.86 175.564  54
  -1   1  -5 4660.23 187.968  42
  -1   1  -5 3900.10 164.572  21
  -1   1  -5 4246.34 185.147  56
  -1   1  -5 3552.79 193.618  31
  -1   1  -5 4231.03 172.909  45
   1   1   5 3718.59 184.719  11
  -1   1  -5 4199.28 167.220  16
  -1   1  -5 4364.79 178.620  46
  -1   1  -5 4166.20 179.612  41
  -1   1  -5 4008.76 171.787   9
   1   1   5 3740.71 165.271  38
  -1   1  -5 4143.76 169.408   8
   1   1   5 3918.71 171.175  37
  -1   1  -6 46.0505 37.3526  16
  -1   1  -6 72.2339 49.0748  41
  -1   1  -6 136.062 44.9366   9
  -1   1  -6 21.4812 37.3128   8
   1   1   6 98.7536 34.4365  54
  -1   1  -6 56.4756 48.7452  46
  -1   1  -6 37.5128 36.6150  45
  -1   1  -6 31.2492 19.7431  62
   1   1   6 61.9325 33.7965   6
  -1   1  -6 31.6297 54.1632  42
  -1   1  -6 41.6561 50.4333  56
  -1   1  -6 36.8967 24.1022  64
  -1   1  -6 38.1558 30.6357  21
   1   1   6 79.8143 29.2384  37
  -1   1  -7 81.2088 22.3116  62
  -1   1  -7 99.1060 32.5969  21
   1   1   7 101.271 63.8887  55
   1   1   7 99.2486 50.4485  36
   1   1   7 67.4855 34.3827   6
  -1   1  -7 90.4752 38.4244  45
  -1   1  -7 171.702 55.7068  56
  -1   1  -7 93.7910 52.3895  41
  -1   1  -7 111.939 45.1430   8
   1   1   7 52.3438 35.1903  54
  -1   1  -7 115.674 53.5458  46
  -1   1  -7 120.757 49.9892   9
  -1   1  -7 58.3529 27.8549  64
   1   1   7 116.413 35.1738  37
  -1   1  -7 63.7693 41.9680  16
   1   1   8 2459.83 117.552  54
  -1   1  -8 2781.43 124.198  41
   1   1   8 2387.32 143.213  55
  -1   1  -8 2157.82 108.068  45
   1   1   8 2127.97 125.612   5
   1   1   8 2360.54 114.473  37
  -1   1  -8 2654.04 106.124  21
   1   1   8 2160.50 106.423   6
  -1   1  -8 2739.49 119.347   9
  -1   1  -8 1976.20 106.491  64
  -1   1  -8 2230.34 108.920  16
   1   1   8 2663.13 133.877  36
   1   1   9 905.213 78.7786  55
   1   1   9 782.753 80.0876   2
   1   1   9 908.356 67.6291  36
   1   1   9 860.524 53.1398  37
   1   1   9 657.947 62.4047   5
  -1   1  -9 911.738 51.1802  16
  -1   1  -9 933.083 47.0437  21
   1   1   9 662.628 73.0662  57
   1   1   9 720.704 50.6055  54
  -1   1  -9 950.223 60.7274  41
  -1   1 -10 87.6212 15.8357  16
  -1   1 -10 40.3453 19.0216  12
  -1   1 -10 117.529 14.8544  21
   1   1  10 84.6612 37.5549   2
  -1   2  10 265.046 57.5425  57
  -1   2  10 139.595 34.3395  36
   1   2 -10 139.739 25.6171  12
   1   2 -10 165.755 20.9834  64
   1   2 -10 163.910 25.2699  16
  -1   2  10 133.609 45.7566  58
  -1   2   9 201.549 47.9908  36
   1   2  -9 227.181 37.6498  16
   1   2  -9 181.908 33.1139  12
  -1   2   9 155.413 45.6062  55
   1   2  -9 184.859 31.0240  64
  -1   2   8 120.165 47.8865  36
   1   2  -8 93.6246 40.6816  16
   1   2  -8 142.815 39.3924  41
  -1   2   8 138.486 49.5027  55
   1   2  -8 123.074 41.5018   9
   1   2  -8 108.105 31.1774  64
   1   2  -7 2457.78 112.807  16
   1   2  -7 2755.87 110.918  60
   1   2  -7 2152.50 106.676  62
  -1   2   7 2309.45 130.866  36
   1   2  -7 2326.20 115.535  64
   1   2  -7 2534.69 116.596   9
  -1   2   7 2451.64 134.713  55
   1   2  -7 2547.25 118.168  41
  -1   2   7 2250.66 108.642  37
   1   2  -7 2432.90 117.585  46
  -1   2   6 468.376 58.0346  55
   1   2  -6 523.141 44.2539  16
   1   2  -6 606.533 63.8708  56
   1   2  -6 476.655 47.5704   9
   1   2  -6 576.861 38.2013  60
   1   2  -6 436.849 39.9213  64
   1   2  -6 527.549 47.5669  46
   1   2  -6 463.316 38.6355  21
   1   2  -6 580.723 65.1774  42
   1   2  -6 520.855 47.6494  41
  -1   2   6 444.489 33.5806  37
   1   2  -6 413.195 32.5662  62
  -1   2   5 973.356 107.493  50
   1   2  -5 1520.94 70.8138  41
  -1   2   5 1314.39 79.0762  55
   1   2  -5 1485.11 83.8749  56
  -1   2   5 1322.30 84.9554  29
   1   2  -5 1281.87 77.6838  31
  -1   2   5 1131.10 70.6802  27
   1   2  -5 1261.01 68.5617  46
   1   2  -5 1507.54 84.6948  42
   1   2  -5 1284.46 64.1874  16
  -1   2   5 1342.29 79.1479  11
   1   2  -5 1161.83 81.9013  28
  -1   2   5 1127.32 58.7920  37
  -1   2   4 556.139 60.9598  30
   1   2  -4 680.621 45.2504  46
   1   2  -4 721.370 50.3362  29
  -1   2   4 718.109 57.7968  29
   1   2  -4 736.770 44.1433  41
   1   2  -4 778.128 82.4203  43
   1   2  -4 665.329 52.5639  31
   1   2  -4 640.448 57.4317  42
   1   2  -4 629.699 39.3335  11
  -1   2   4 601.370 51.4833  55
   1   2  -4 705.732 59.1993  56
  -1   2   4 575.066 82.5439  50
   1   2  -4 660.835 55.4354  28
  -1   2   4 532.767 41.1843  27
  -1   2   4 686.261 45.4426  24
   1   2  -4 695.554 76.6558  33
  -1   2   3 4819.47 159.942  17
   1   2  -3 4568.21 157.178  29
   1   2  -3 5131.73 165.122  31
   1   2  -3 4535.24 157.389  44
   1   2  -3 3956.70 146.068  11
   1   2  -3 4696.82 163.869  42
  -1   2   3 3849.76 147.480  27
   1   2  -3 5019.72 154.384  58
   1   2  -3 3824.37 155.818  28
   1   2  -3 4352.32 169.345  33
  -1   2   3 4071.18 170.788  30
   1   2  -3 4518.10 172.948  43
  -1   2   3 4011.85 186.551  50
   1   2  -3 4707.02 183.655  26
  -1   2   3 4272.44 168.913  28
   1   2  -3 4394.86 142.509  15
   1   2  -3 4433.96 159.683  56
  -1   2   2 1814.61 116.158  50
   1   2  -2 1763.32 82.0423  28
   1   2  -2 2196.01 100.198  31
  -1   2   2 1761.04 79.3663  27
   1   2  -2 2568.77 113.734  26
   1   2  -2 2527.30 88.0259  30
   1   2  -2 1972.90 91.4629  29
  -1   2   2 1922.38 130.100  51
   1   2  -1 6975.80 254.658  30
  -1   2   1 6153.14 280.401  51
   1   2  -1 5866.97 252.780  27
   1   2  -1 6698.51 264.844  26
  -1   2   1 5915.10 263.373  26
   1   2   0 49941.3 1757.57  27
  -1   2   0 45665.7 1766.90  26
   1   2   0 44061.0 1746.35  28
   1   2   1 14563.3 602.021  24
  -1   2  -1 12746.3 603.602  26
   1   2   1 17197.0 595.224  28
   1   2   1 16611.4 612.316  26
   1   2   1 14980.1 594.951  27
  -1   2  -1 15759.7 596.390  11
   1   2   1 16430.1 614.903  50
  -1   2  -1 14860.4 599.731  29
   1   2   1 16832.9 622.760  51
   1   2   2 2154.12 125.139  50
  -1   2  -2 1922.61 98.8121  46
   1   2   2 2048.55 102.652  28
  -1   2  -2 2255.97 103.316  29
  -1   2  -2 1673.36 109.598  33
   1   2   2 1940.11 92.0099  36
   1   2   2 1909.92 103.009  24
  -1   2  -2 2245.17 107.283  28
  -1   2  -2 2468.82 119.366  25
   1   2   2 2202.62 133.685  51
  -1   2  -2 1889.70 112.222  43
  -1   2  -2 1676.40 112.628  26
   1   2   2 2233.66 107.140  57
  -1   2  -2 1953.48 98.2267  44
   1   2   2 1871.85 95.2421  27
  -1   2  -2 1939.86 94.5748  41
  -1   2  -2 1992.49 95.4993  11
   1   2   2 2307.23 99.4342  17
  -1   2  -2 1901.47 106.908  56
   1   2   3 215.686 25.8554  54
   1   2   3 198.304 37.0048  24
   1   2   3 227.535 31.9829  27
   1   2   3 192.971 39.6604  29
  -1   2  -3 177.554 49.2210  44
  -1   2  -3 222.934 65.4209  33
  -1   2  -3 207.468 45.9362  46
   1   2   3 226.228 73.0966  51
  -1   2  -3 192.025 34.0345  11
  -1   2  -3 319.766 47.3458  28
   1   2   3 236.563 43.7583  28
   1   2   3 205.261 43.0233  11
   1   2   3 215.209 23.4395  37
  -1   2  -3 223.499 45.2013  25
   1   2   3 261.050 68.6799  50
  -1   2  -3 277.446 65.8125  43
  -1   2  -3 216.173 46.9608  31
  -1   2  -3 215.998 39.6302  41
   1   2   4 3528.08 173.711  55
  -1   2  -4 3917.62 165.428  41
   1   2   4 3787.79 207.111  51
  -1   2  -4 3875.55 153.489  16
  -1   2  -4 3684.33 180.368  31
  -1   2  -4 3834.39 183.479  33
  -1   2  -4 4061.03 184.948  28
   1   2   4 3415.24 168.451  27
  -1   2  -4 3931.42 167.554  46
   1   2   4 3613.35 154.674  37
   1   2   4 3607.52 174.138  11
   1   2   4 3759.45 157.668  54
  -1   2  -4 3474.85 176.885  43
   1   2   4 3633.58 203.061  50
  -1   2  -5 977.862 57.7975  16
   1   2   5 950.466 59.5803   6
  -1   2  -5 888.209 59.6942   8
  -1   2  -5 937.250 71.5230  46
   1   2   5 919.783 54.9702  37
  -1   2  -5 1034.17 67.6079   9
   1   2   5 910.947 57.6332  54
  -1   2  -5 959.782 52.1539  21
  -1   2  -5 873.104 90.8984  43
   1   2   5 954.568 80.3533  55
  -1   2  -5 984.526 71.1503  41
  -1   2  -6 948.230 51.7894  21
  -1   2  -6 813.496 70.8761  46
   1   2   6 795.778 55.0219  37
   1   2   6 921.832 59.5923   6
   1   2   6 737.088 81.3754  55
   1   2   6 667.529 48.5402  10
   1   2   6 792.113 55.7255  54
  -1   2  -6 867.374 67.9585   9
  -1   2  -6 870.667 69.9188  41
  -1   2  -6 820.765 58.7246  16
  -1   2  -7 1098.46 72.4552  16
  -1   2  -7 1337.70 84.5206  41
   1   2   7 1157.06 70.9595   6
  -1   2  -7 1274.32 65.0934  21
   1   2   7 1047.42 68.6327  54
  -1   2  -7 1193.43 83.8623  46
   1   2   7 1127.21 101.570  55
  -1   2  -7 1385.60 94.9733  56
  -1   2  -7 1315.45 82.6891   9
   1   2   7 1158.71 69.1443  37
   1   2   8 1310.56 102.735  55
  -1   2  -8 1644.39 96.4010  56
  -1   2  -8 1281.43 75.9113  16
  -1   2  -8 1513.82 70.7040  21
  -1   2  -8 1579.36 86.2997  41
   1   2   8 1344.46 74.1310   6
   1   2   8 1381.53 108.148  57
   1   2   8 1354.99 75.2911  37
  -1   2  -8 1540.18 86.8172   9
   1   2   9 207.403 45.7606  55
   1   2   9 209.446 50.4441  57
  -1   2  -9 269.663 24.8660  21
  -1   2  -9 167.671 33.8191  41
   1   2   9 159.513 23.2426  37
  -1   2  -9 198.330 29.6308  16
   1   3 -10 81.0977 19.8222  16
  -1   3  10 82.4859 70.9559  44
   1   3 -10 51.7852 18.6990  12
  -1   3  10 76.9409 41.2724  57
  -1   3   9 761.762 58.3489  36
  -1   3   9 913.508 92.0586  57
   1   3  -9 727.387 48.8022  16
   1   3  -9 779.637 50.2413  12
  -1   3   9 721.584 75.4406  58
   1   3  -9 679.825 41.1289  64
  -1   3   8 2529.66 147.591  58
  -1   3   8 2563.32 163.412  57
   1   3  -8 2429.90 114.785  12
  -1   3   8 2292.64 129.672  55
   1   3  -8 2233.83 107.581  64
  -1   3   8 2251.78 125.099  36
   1   3  -8 2382.53 111.429  16
   1   3  -7 1350.20 75.2140  16
  -1   3   7 1322.64 74.2318   6
   1   3  -7 1299.69 75.7456  12
   1   3  -7 1411.28 69.7995  21
  -1   3   7 1331.07 86.4823  36
   1   3  -7 1237.99 72.2273  41
   1   3  -7 1702.23 102.099  42
   1   3  -7 1270.56 71.4191  64
  -1   3   7 1339.91 92.9538  55
  -1   3   7 1365.94 110.240  58
   1   3  -7 1650.16 98.8791  56
   1   3  -6 3509.01 153.077  64
   1   3  -6 3492.61 152.503  16
   1   3  -6 4316.98 178.770  56
   1   3  -6 4268.05 178.506  42
  -1   3   6 3628.46 154.374   6
   1   3  -6 3718.12 159.939   9
  -1   3   6 3337.48 171.664  55
   1   3  -6 3466.53 147.617  21
  -1   3   6 3423.92 165.340  36
   1   3  -6 3272.79 154.787  12
   1   3  -5 265.132 88.0575  33
  -1   3   5 342.874 38.6947   6
   1   3  -5 418.049 60.2822  56
   1   3  -5 336.090 64.2191  59
   1   3  -5 299.696 33.7698  12
  -1   3   5 340.805 49.1890  55
  -1   3   5 278.929 30.2805  10
   1   3  -5 364.921 58.6626  42
   1   3  -5 359.183 46.2184   9
   1   3  -5 326.637 29.6785  21
   1   3  -5 269.822 30.2017  64
  -1   3   5 336.837 40.9523  36
   1   3  -4 542.547 56.4747  31
  -1   3   4 440.339 47.3754  55
   1   3  -4 607.222 62.4289  42
   1   3  -4 639.133 63.2964  44
  -1   3   4 343.744 79.9097  50
   1   3  -4 547.160 58.7185  57
  -1   3   4 500.753 60.2479  58
  -1   3   4 346.802 31.5459  27
   1   3  -4 639.085 83.5392  33
   1   3  -4 585.034 60.4978  56
   1   3  -4 546.045 84.3303  43
  -1   3   4 494.868 62.1984  30
  -1   3   4 518.831 55.1511  29
  -1   3   4 508.101 40.8824  36
  -1   3   3 572.620 39.8612  36
   1   3  -3 719.940 60.3831  56
  -1   3   3 538.745 48.1761  55
  -1   3   3 810.483 38.3061  15
   1   3  -3 700.766 84.4520  33
   1   3  -3 691.473 86.6679  43
   1   3  -3 389.353 33.2521  28
   1   3  -3 763.541 49.0092  58
   1   3  -3 736.990 50.9557  29
   1   3  -3 614.649 41.3829  11
  -1   3   3 465.304 32.5379  27
   1   3  -3 706.024 39.1466  30
   1   3  -3 655.386 64.0991  44
   1   3  -3 684.973 62.8980  42
  -1   3   3 639.055 65.1951  30
   1   3  -3 786.277 62.6224  57
  -1   3   3 708.459 66.2432  57
   1   3  -3 680.424 33.7900  15
  -1   3   3 568.861 55.9842  58
  -1   3   2 2097.97 107.961  55
  -1   3   2 2276.59 129.440  44
  -1   3   2 2118.07 112.398  58
   1   3  -2 2791.11 102.580  15
  -1   3   2 2245.57 115.358  28
   1   3  -2 2302.41 114.072  56
   1   3  -2 2407.55 112.681  55
   1   3  -2 2481.03 120.356  42
   1   3  -2 2459.08 104.763  36
   1   3  -2 2620.27 112.535  30
   1   3  -2 2065.92 110.385  29
   1   3  -2 2463.69 133.664  43
  -1   3   2 2190.05 159.770  51
   1   3  -2 2192.52 129.056  33
   1   3  -2 2637.68 109.410  58
  -1   3   2 2254.52 117.567  57
  -1   3   2 2255.48 126.920  30
   1   3  -2 2165.83 115.811  44
  -1   3   1 1503.74 79.3777  55
   1   3  -1 1710.45 81.5794  58
   1   3  -1 1586.56 93.0836  44
  -1   3   1 1446.99 81.4666  28
  -1   3   1 1348.45 109.719  33
   1   3  -1 1664.96 87.8766  30
   1   3  -1 1641.53 107.612  43
  -1   3   1 1364.17 100.059  26
   1   3  -1 1642.01 82.3299  55
   1   3  -1 1414.59 96.6839  26
   1   3  -1 1450.11 106.551  33
  -1   3   1 1793.57 70.4783  15
  -1   3   1 1587.85 96.7336  30
   1   3  -1 1588.40 74.7445  36
  -1   3   1 1607.63 86.7400  57
  -1   3   1 1331.43 80.6806  58
  -1   3   1 1540.95 97.8730  44
  -1   3   0 214.066 37.8936  58
  -1   3   0 221.106 35.1649  55
  -1   3   0 188.364 55.8412  56
   1   3   0 149.064 70.5688  43
  -1   3   0 237.601 77.0889  33
  -1   3   0 193.293 61.5113  44
  -1   3   0 284.453 48.9289  30
   1   3   0 260.520 80.6734  33
  -1   3   0 201.155 38.7069  57
  -1   3   0 250.532 20.3377  15
  -1   3   0 250.522 61.2109  25
   1   3   0 242.943 30.6798  27
  -1   3   0 191.077 46.9027  26
   1   3   0 244.297 45.5465  30
  -1   3   0 221.228 60.4192  42
   1   3   0 263.638 27.1477  15
   1   3   0 247.201 62.3664  44
   1   3   0 266.999 53.9308  26
   1   3   0 200.803 27.6008  36
   1   3   0 220.442 36.3666  55
   1   3   0 154.008 46.8473  57
   1   3   0 206.270 38.6217  58
   1   3   1 4875.35 187.456  58
   1   3   1 4299.59 173.829  54
   1   3   1 4740.34 194.701  57
   1   3   1 4022.85 169.549  37
   1   3   1 4419.72 176.861  28
   1   3   1 4535.20 201.274  30
   1   3   1 4830.50 205.894  33
  -1   3  -1 4363.43 188.347  44
  -1   3  -1 4310.82 196.698  42
  -1   3  -1 4008.43 179.753  58
   1   3   1 4304.66 181.869  27
  -1   3  -1 4682.33 196.873  30
  -1   3  -1 4292.26 201.574  43
  -1   3  -1 4216.17 184.385  11
  -1   3  -1 4393.14 169.510  15
   1   3   1 3408.66 199.501  26
   1   3   1 4359.32 177.172  36
  -1   3  -1 4550.33 188.086  28
   1   3   1 4674.46 202.113  43
  -1   3  -1 4506.59 196.168  56
  -1   3  -1 3282.56 195.421  26
  -1   3  -1 4828.94 215.887  25
  -1   3  -1 4108.71 177.296  41
  -1   3  -1 4669.16 198.336  31
   1   3   1 4631.48 198.954  44
  -1   3  -1 3828.63 181.512  57
  -1   3  -1 4394.23 198.154  33
   1   3   2 5655.48 263.300  51
  -1   3  -2 5086.94 224.255  56
   1   3   2 5687.81 227.309  57
   1   3   2 5114.56 206.948  36
  -1   3  -2 5345.09 218.640  28
   1   3   2 5097.09 213.480  28
  -1   3  -2 4706.37 227.626  43
  -1   3  -2 4750.36 211.252  46
   1   3   2 5591.79 218.442  58
  -1   3  -2 5547.81 225.448  30
  -1   3  -2 5004.37 214.077  44
  -1   3  -2 5202.88 207.567  41
  -1   3  -2 4985.38 225.047  42
   1   3   2 5055.77 244.429  50
   1   3   2 4883.05 210.888  27
  -1   3  -2 5803.75 230.818  31
   1   3   2 4660.06 197.303  37
  -1   3  -2 5258.13 226.639  33
  -1   3  -2 4196.00 207.919  57
   1   3   2 4933.00 201.046  54
   1   3   3 5025.14 206.606  36
  -1   3  -3 5384.61 229.796  31
   1   3   3 5443.13 267.557  51
   1   3   3 4759.80 220.618  11
  -1   3  -3 5264.86 214.793  44
   1   3   3 4500.11 246.507  50
  -1   3  -3 4996.34 218.666  28
  -1   3  -3 4931.13 218.735  30
   1   3   3 4610.71 218.918  29
   1   3   3 5660.58 230.216  57
   1   3   3 4522.13 209.589  27
  -1   3  -3 5155.32 205.492  41
   1   3   3 5016.79 215.826  55
  -1   3  -3 5071.85 226.026  42
  -1   3  -3 5489.04 225.334  33
  -1   3  -3 5127.35 228.716  43
  -1   3  -3 3810.83 205.789  57
  -1   3  -3 5232.99 223.174  56
   1   3   3 4675.99 194.681  37
   1   3   3 4843.48 198.026  54
  -1   3  -3 4807.25 210.457  46
   1   3   4 2764.68 126.646  36
   1   3   4 2480.34 110.974  37
  -1   3  -4 2520.30 148.669  43
   1   3   4 2359.72 134.707  55
   1   3   4 2597.34 117.536   6
   1   3   4 2447.20 113.502  54
   1   3   4 2176.42 110.277  10
  -1   3  -4 2871.88 142.948  56
  -1   3  -4 2554.32 127.470  46
  -1   3  -4 2619.93 146.460  42
  -1   3  -4 2556.56 122.706  22
  -1   3  -4 2683.31 123.264  41
  -1   3  -4 2691.33 107.751  21
  -1   3  -4 2695.94 121.425   9
  -1   3  -4 2585.20 149.494  33
   1   3   4 3048.52 151.725  57
  -1   3  -5 3063.29 160.479  42
   1   3   5 3077.49 161.838  55
  -1   3  -5 2876.45 140.600  22
   1   3   5 2698.71 133.661  54
  -1   3  -5 2778.34 170.431  43
  -1   3  -5 3212.90 144.494   9
   1   3   5 2476.23 127.754  10
   1   3   5 3195.55 139.318   6
  -1   3  -5 3234.75 149.750  46
  -1   3  -5 3186.49 135.078  16
  -1   3  -5 3605.84 130.894  21
   1   3   5 2990.89 132.704  37
  -1   3  -5 3428.68 166.853  56
   1   3   5 3401.33 178.478  57
  -1   3  -5 3338.52 146.108  41
   1   3   5 3245.70 150.903  36
   1   3   6 1535.97 122.540  57
  -1   3  -6 1309.54 87.0837  22
   1   3   6 1597.23 85.9147   6
   1   3   6 1541.85 96.8599  36
   1   3   6 1231.72 72.6311  10
   1   3   6 1225.78 104.546  55
   1   3   6 1361.78 74.7002  37
  -1   3  -6 1692.48 91.7380  41
  -1   3  -6 1610.70 109.117  42
  -1   3  -6 1648.81 72.6205  21
  -1   3  -6 1517.34 93.0288   9
  -1   3  -6 1539.34 92.2767  46
  -1   3  -6 1614.54 81.3917  16
   1   3   7 1066.41 80.8254  36
  -1   3  -7 1325.82 95.0815  42
   1   3   7 1079.58 106.139  57
  -1   3  -7 1105.84 67.5009  16
  -1   3  -7 1176.34 77.3401  46
  -1   3  -7 1152.64 81.0846   9
   1   3   7 1110.53 94.3605  55
   1   3   7 1131.54 69.4334   6
  -1   3  -7 1130.72 72.6294  41
  -1   3  -7 1229.04 58.5948  21
   1   3   7 992.165 58.9857  37
   1   3   8 1189.30 102.501  58
   1   3   8 1322.38 93.3643  55
   1   3   8 1337.00 70.3570   6
  -1   3  -8 1346.54 76.8225  46
  -1   3  -8 1549.13 65.4016  21
  -1   3  -8 1243.48 73.2832  41
   1   3   8 1234.99 102.548  57
  -1   3  -8 1468.97 83.8979   9
  -1   3  -8 1225.87 70.1440  16
   1   3   8 1165.12 81.6140  36
   1   3   9 295.684 51.6238  58
   1   3   9 229.478 34.9731  36
   1   3   9 307.304 48.2489  57
   1   3   9 292.852 42.4285  55
  -1   3  -9 481.788 25.2746  21
   1   3   9 102.317 45.8243   5
  -1   3  -9 300.426 28.1193  16
   1   4  -9 30.2682 23.3081  16
  -1   4   9 49.7922 46.8718  57
  -1   4   9 27.2634 92.6755  33
   1   4  -9 21.3156 22.6421  12
  -1   4   9 54.1207 82.2467  44
   1   4  -9 3.91537 18.8314  19
  -1   4   9 63.7963 74.1873  43
  -1   4   9 44.3440 39.8735  58
  -1   4   9 47.5211 23.1836  36
   1   4  -8 497.693 43.6610  16
  -1   4   8 503.268 71.6199  58
  -1   4   8 367.856 49.5978  55
  -1   4   8 515.610 121.439  44
   1   4  -8 510.658 43.2850  12
  -1   4   8 452.180 45.8401  36
   1   4  -8 537.839 37.8110  21
   1   4  -8 600.184 58.4816  56
  -1   4   7 399.826 74.0565  58
  -1   4   7 342.269 53.6881  55
   1   4  -7 431.926 43.7007  12
   1   4  -7 379.659 31.8506  64
  -1   4   7 311.702 44.6895   6
  -1   4   7 409.123 47.2225  36
  -1   4   7 520.996 130.640  44
   1   4  -7 480.065 63.6451  42
   1   4  -7 418.382 36.3173  21
   1   4  -7 398.256 45.4860  16
   1   4  -7 448.640 60.6950  56
  -1   4   6 1677.14 95.7772  36
   1   4  -6 1809.34 90.7466  16
   1   4  -6 1788.18 85.4173  64
  -1   4   6 1522.14 83.6171  10
   1   4  -6 2099.21 113.085  56
  -1   4   6 1771.91 107.778  55
  -1   4   6 1882.98 94.5961   6
   1   4  -6 1815.92 92.0635  12
   1   4  -6 1993.14 112.302  42
   1   4  -6 1463.33 116.813  59
  -1   4   6 1828.27 122.713  58
   1   4  -6 1928.12 83.8347  21
  -1   4   6 1878.21 139.508  57
  -1   4   5 1526.94 146.065  44
   1   4  -5 1193.76 105.000  59
  -1   4   5 1277.83 111.071  57
  -1   4   5 1247.19 86.0831  55
   1   4  -5 1418.70 91.9895  42
  -1   4   5 1237.93 99.4229  58
   1   4  -5 1415.83 128.654  43
  -1   4   5 1085.45 66.9332  10
   1   4  -5 1255.24 61.7629  21
   1   4  -5 1420.49 124.976  33
   1   4  -5 1311.75 90.8746  56
   1   4  -5 1178.49 83.5307  22
   1   4  -5 1313.78 65.5963  64
  -1   4   5 1245.01 73.4105  36
  -1   4   5 1245.03 74.4654   6
   1   4  -4 2535.84 131.981  57
  -1   4   4 2211.83 120.987  55
  -1   4   4 2166.69 128.694  58
  -1   4   4 2150.94 138.033  57
   1   4  -4 2811.19 129.926  44
   1   4  -4 2354.44 127.098  42
   1   4  -4 2480.01 156.307  43
   1   4  -4 2254.88 118.219  22
   1   4  -4 2472.91 104.593  64
   1   4  -4 2729.54 154.774  33
  -1   4   4 2063.26 106.470  10
   1   4  -4 2353.83 125.812  56
  -1   4   4 2490.41 163.510  44
   1   4  -4 2447.62 99.3770  21
  -1   4   4 2012.91 106.597  36
  -1   4   3 5084.44 229.273  57
  -1   4   3 4053.00 199.002  36
   1   4  -3 4758.26 199.026  12
   1   4  -3 5043.96 224.461  57
  -1   4   3 4412.81 217.762  58
  -1   4   3 4900.32 249.250  43
   1   4  -3 4947.16 240.050  43
   1   4  -3 5231.70 197.433  15
   1   4  -3 4711.95 208.351  22
   1   4  -3 5124.15 236.853  33
   1   4  -3 4699.74 216.222  56
   1   4  -3 5030.99 193.933  21
   1   4  -3 5953.66 215.067  58
   1   4  -3 5065.00 224.719  42
  -1   4   3 5142.36 237.442  44
   1   4  -3 5298.65 219.150  44
  -1   4   3 5009.31 215.645  55
  -1   4   2 13947.3 556.957  57
   1   4  -2 15458.7 546.438  58
  -1   4   2 13878.4 558.414  44
  -1   4   2 11050.2 531.685  36
  -1   4   2 13881.0 547.805  55
   1   4  -2 15095.6 541.323  36
   1   4  -2 13935.2 548.872  56
   1   4  -2 14038.8 554.466  42
  -1   4   2 16983.2 536.355  15
   1   4  -2 13534.2 532.421  12
  -1   4   2 13519.3 569.440  43
   1   4  -2 14073.5 548.976  44
   1   4  -2 13457.9 539.581  22
  -1   4   2 12812.2 548.395  58
   1   4  -2 13469.4 536.224  19
   1   4  -2 15070.8 559.694  57
   1   4  -2 13919.0 561.091  33
   1   4  -2 14880.4 568.485  43
   1   4  -1 3466.41 146.004  36
   1   4  -1 3347.26 179.159  33
  -1   4   1 3335.96 137.513  15
   1   4  -1 3482.47 164.272  30
   1   4  -1 3754.90 156.042  58
  -1   4   1 2978.47 179.048  43
   1   4  -1 3799.17 159.560  55
  -1   4   1 3058.76 170.848  30
   1   4  -1 3411.07 165.301  44
   1   4  -1 3364.19 179.580  43
  -1   4   1 3060.82 158.854  57
   1   4  -1 3331.28 161.974  42
  -1   4   1 3567.76 156.145  55
  -1   4   1 3006.64 167.595  44
  -1   4   1 3090.52 154.659  58
  -1   4   0 13600.9 538.361  42
  -1   4   0 13355.5 525.116  55
  -1   4   0 13418.1 506.936  15
   1   4   0 14239.4 542.595  33
   1   4   0 13343.0 529.695  44
   1   4   0 13059.3 539.672  30
  -1   4   0 11351.4 523.765  57
  -1   4   0 12984.0 527.989  44
   1   4   0 14584.1 543.845  43
   1   4   0 13583.8 527.948  42
   1   4   0 13764.2 515.782  36
  -1   4   0 13066.0 533.951  56
  -1   4   0 13607.5 544.234  30
  -1   4   0 12071.1 518.972  58
   1   4   0 13520.9 523.202  58
   1   4   1 4751.65 203.456  57
   1   4   1 4333.89 178.946  36
  -1   4  -1 4314.60 200.317  56
  -1   4  -1 4254.19 201.634  30
   1   4   1 3625.01 167.073  37
   1   4   1 4467.49 211.802  43
   1   4   1 3609.71 181.938  27
  -1   4  -1 4210.53 184.275  58
   1   4   1 5018.19 180.506  15
   1   4   1 4077.91 206.037  30
   1   4   1 4238.18 175.055  10
   1   4   1 4489.91 202.985  44
  -1   4  -1 4400.00 206.417  42
  -1   4  -1 4314.64 195.750  44
   1   4   1 4032.85 179.711  22
  -1   4  -1 4272.40 208.091  33
   1   4   1 4508.26 216.034  33
   1   4   1 4449.33 190.720  58
  -1   4  -1 4271.32 168.361  15
  -1   4  -1 3860.27 186.442  57
  -1   4  -2 1245.03 103.481  42
   1   4   2 1202.38 92.8052  57
  -1   4  -2 1220.89 95.3919  56
   1   4   2 1154.98 83.4568  58
  -1   4  -2 1092.23 81.7637  30
   1   4   2 1257.69 110.232  44
   1   4   2 1171.17 66.3879  36
  -1   4  -2 1085.46 86.0759  44
   1   4   2 903.356 63.9406  27
  -1   4  -2 1006.92 77.1954  46
  -1   4  -2 1136.20 108.564  33
   1   4   2 983.113 109.900  43
  -1   4  -2 1005.94 75.0493  22
  -1   4  -2 1110.17 113.936  43
   1   4   2 1174.89 76.4926  22
  -1   4  -2 1010.30 63.6363  41
  -1   4  -2 936.904 52.9182  12
   1   4   2 1054.91 121.583  33
  -1   4  -2 893.108 73.2510  57
  -1   4  -3 836.656 107.839  43
  -1   4  -3 985.438 107.287  33
   1   4   3 1002.77 135.249  33
  -1   4  -3 1046.11 98.1765  42
  -1   4  -3 1010.05 86.9293  44
   1   4   3 774.493 108.347  43
  -1   4  -3 865.176 75.1517  46
  -1   4  -3 795.555 51.4595  12
  -1   4  -3 619.545 63.6528  57
   1   4   3 892.843 64.1945  36
  -1   4  -3 933.246 90.3892  56
   1   4   3 908.035 57.1789  10
   1   4   3 895.535 74.6103  55
  -1   4  -3 856.322 75.1857  22
  -1   4  -3 942.214 61.8851  41
  -1   4  -3 1024.80 48.7432  21
  -1   4  -3 916.223 66.6425   9
   1   4   3 1098.81 118.887  44
   1   4   3 1013.81 85.1806  58
   1   4   3 984.823 96.2484  57
  -1   4  -4 3233.20 157.997  22
   1   4   4 3534.19 172.601  55
   1   4   4 4127.83 209.839  44
  -1   4  -4 3636.63 180.165  56
  -1   4  -4 3385.13 160.065  46
  -1   4  -4 3382.64 189.072  43
  -1   4  -4 2961.40 144.209  12
   1   4   4 3572.98 179.067  58
   1   4   4 3750.18 191.624  57
   1   4   4 2628.71 191.355  43
   1   4   4 2961.71 144.491  10
  -1   4  -4 3586.59 185.124  42
  -1   4  -4 3111.67 149.044  41
  -1   4  -4 4020.68 141.260  21
   1   4   4 3293.30 151.549   6
   1   4   4 3382.14 158.677  36
  -1   4  -4 3671.34 188.113  33
   1   4   5 1436.00 118.457  57
   1   4   5 991.620 64.2968  10
  -1   4  -5 1542.35 65.0029  21
  -1   4  -5 1294.83 105.443  56
  -1   4  -5 1259.55 85.2821  46
   1   4   5 1364.68 80.3779   6
  -1   4  -5 1212.63 73.9150  41
   1   4   5 1268.95 84.3986  36
   1   4   5 637.168 117.894  43
  -1   4  -5 1317.94 87.5896   9
  -1   4  -5 1355.32 119.503  43
   1   4   5 1269.13 99.3800  55
  -1   4  -5 1106.03 69.5667  12
  -1   4  -5 1276.82 101.762  42
  -1   4  -5 1321.22 90.6955  22
  -1   4  -5 1026.21 120.096  33
  -1   4  -6 102.221 60.4700  56
   1   4   6 43.5301 52.7226  55
   1   4   6 49.4750 44.9245   6
   1   4   6 106.002 72.2093  57
  -1   4  -6 84.6754 56.8683   9
  -1   4  -6 76.6920 62.9557  42
  -1   4  -6 104.050 42.5369  46
  -1   4  -6 100.162 81.7736  43
   1   4   6 30.2131 83.6043  43
   1   4   6 68.6999 41.1844  36
  -1   4  -6 110.495 57.0020  22
  -1   4  -6 61.3546 34.3404  41
  -1   4  -6 77.1621 27.8978  21
  -1   4  -6 55.8277 32.7435  12
   1   4   7 482.548 42.1277  10
  -1   4  -7 665.574 66.7385  56
  -1   4  -7 621.905 48.6990  12
   1   4   7 621.803 54.1869   6
   1   4   7 615.583 69.4516  55
  -1   4  -7 670.485 53.2106  46
   1   4   7 617.504 59.1073  36
  -1   4  -7 725.035 71.6994  42
  -1   4  -7 799.130 42.4303  21
   1   4   7 730.389 84.4026  57
   1   4   7 514.647 121.157  44
   1   4   8 26.9910 83.9445  33
   1   4   8 213.550 34.6910  36
  -1   4  -8 182.307 39.5321  56
  -1   4  -8 174.113 28.6437  12
   1   4   8 219.467 86.3470  44
   1   4   8 208.217 51.8463  58
   1   4   8 198.628 29.5829   6
   1   4   8 135.921 39.3551  55
  -1   4  -8 272.377 23.7598  21
  -1   4  -8 196.476 28.8211  16
   1   4   8 83.8796 49.6488   5
   1   4   8 238.154 53.0405  57
  -1   5   8 353.912 99.3831  33
  -1   5   8 248.254 46.4988  58
  -1   5   8 338.230 83.1201  44
   1   5  -8 311.741 29.3362  12
  -1   5   8 177.340 80.0389  43
   1   5  -8 207.303 28.3995  19
   1   5  -8 267.886 29.2000  16
  -1   5   7 400.995 64.1395  58
   1   5  -7 406.707 39.9225  16
  -1   5   7 388.056 76.0545  57
  -1   5   7 419.673 108.641  44
  -1   5   7 352.275 42.7418   6
  -1   5   7 341.650 46.0973  55
  -1   5   7 407.943 108.968  43
   1   5  -7 431.155 49.9371  56
  -1   5   7 281.312 125.159  33
   1   5  -7 295.741 37.8550  19
  -1   5   6 231.401 79.0894  57
   1   5  -6 208.676 67.3125  59
  -1   5   6 274.714 35.1574  10
  -1   5   6 182.147 118.598  43
  -1   5   6 402.900 119.509  44
  -1   5   6 180.735 32.7910  36
  -1   5   6 231.414 66.2964  58
   1   5  -6 217.321 38.1899  19
  -1   5   6 226.361 46.6926   6
   1   5  -6 251.444 49.6612  56
  -1   5   6 393.407 145.105  33
   1   5  -6 407.227 95.0914  43
   1   5  -6 292.855 54.4894  42
   1   5  -6 268.216 41.3044  16
  -1   5   6 282.464 50.2136  55
  -1   5   5 617.808 52.7190  36
  -1   5   5 799.052 85.9115  58
   1   5  -5 985.643 81.7355  22
   1   5  -5 1183.39 120.347  33
  -1   5   5 1021.02 137.252  44
   1   5  -5 920.633 71.8567  56
   1   5  -5 1014.61 116.888  43
   1   5  -5 836.021 99.8036  59
  -1   5   5 858.810 144.080  43
  -1   5   5 847.810 59.0388  10
   1   5  -5 1007.96 79.7853  42
  -1   5   5 1158.67 167.640  33
  -1   5   5 959.272 67.4911   6
  -1   5   5 894.045 103.317  57
  -1   5   5 857.872 73.3121  55
   1   5  -4 62.6616 55.4673  42
   1   5  -4 76.0074 49.6245  56
   1   5  -4 171.514 70.4422  22
   1   5  -4 188.678 98.5691  33
   1   5  -4 135.184 69.4831  44
  -1   5   4 154.168 39.9231  10
  -1   5   4 49.4016 123.684  43
  -1   5   4 125.063 113.545  44
   1   5  -4 88.8526 54.6092  57
   1   5  -4 135.135 103.818  43
  -1   5   4 108.796 70.4150  57
   1   5  -4 149.835 30.7115  12
  -1   5   4 100.775 62.0990  58
   1   5  -4 129.254 34.2065  19
  -1   5   4 120.638 49.3450  55
   1   5  -3 373.637 31.9061  15
  -1   5   3 437.811 58.4314  55
   1   5  -3 482.659 107.007  33
   1   5  -3 409.894 67.5548  57
   1   5  -3 474.017 76.7305  22
  -1   5   3 345.274 76.3678  57
  -1   5   3 302.745 109.088  44
   1   5  -3 445.405 36.7392  12
   1   5  -3 330.695 37.8764  19
  -1   5   3 402.627 29.3677  15
   1   5  -3 412.916 80.8240  44
   1   5  -3 473.280 109.483  43
  -1   5   3 419.764 130.536  43
   1   5  -3 349.375 54.7514  56
  -1   5   3 430.651 61.6163  22
  -1   5   3 368.123 46.3751  10
   1   5  -3 466.888 57.4417  58
   1   5  -3 363.937 66.7530  42
  -1   5   3 285.733 64.1731  58
  -1   5   2 1087.87 54.7713  15
  -1   5   2 947.544 82.5503  58
   1   5  -2 1278.50 80.1175  58
   1   5  -2 1040.33 87.7776  42
  -1   5   2 1068.11 82.3073  55
  -1   5   2 1061.49 92.7554  57
  -1   5   2 1197.87 121.594  44
   1   5  -2 839.353 86.8086  57
   1   5  -2 1086.86 99.7353  44
   1   5  -2 1092.30 57.9093  12
   1   5  -2 1054.45 123.348  33
  -1   5   2 1099.34 136.990  43
   1   5  -2 1016.37 61.0642  10
   1   5  -2 1180.18 125.114  43
   1   5  -2 918.972 59.1989  19
  -1   5   2 945.336 78.8940  22
   1   5  -2 1039.18 89.0318  22
  -1   5   2 978.447 98.7352  56
   1   5  -1 1145.26 77.9233  58
  -1   5   1 948.060 85.6241  57
  -1   5   1 995.149 79.1257  58
   1   5  -1 1071.33 125.694  43
   1   5  -1 1082.67 83.3273  55
   1   5  -1 1016.58 55.6156  15
  -1   5   1 1053.07 52.8943  15
   1   5  -1 1218.08 125.655  33
  -1   5   1 948.162 108.132  44
   1   5  -1 1044.44 102.151  44
  -1   5   1 928.351 97.8982  56
  -1   5   1 1175.97 135.117  43
  -1   5   1 1065.75 109.185  42
   1   5  -1 1043.29 93.3224  42
  -1   5   1 983.604 78.6286  55
  -1   5   1 1018.62 81.7214  22
   1   5  -1 1057.31 62.9496  10
   1   5  -1 1085.60 93.6403  57
   1   5  -1 965.147 62.4158  36
   1   5  -1 941.595 56.7569  19
  -1   5   0 3141.58 171.842  44
  -1   5   0 3139.77 173.244  56
   1   5   0 3534.14 193.820  43
  -1   5   0 3113.27 162.465  57
   1   5   0 3727.77 143.270  15
  -1   5   0 3688.72 136.347  15
   1   5   0 3445.30 177.384  44
   1   5   0 3293.16 145.772  36
  -1   5   0 3191.71 182.137  42
   1   5   0 3265.57 166.753  42
  -1   5   0 3130.22 153.193  22
   1   5   0 3275.98 143.450  10
  -1   5   0 2998.67 154.344  58
  -1   5   0 2454.23 132.091  19
   1   5   0 3214.84 193.139  33
   1   5   0 3219.81 136.413  19
   1   5   0 3433.72 159.007  58
   1   5   1 3588.01 167.068  58
  -1   5  -1 3221.31 159.909  46
   1   5   1 3912.59 207.260  33
   1   5   1 3047.05 169.093  42
  -1   5  -1 3441.37 187.018  42
  -1   5  -1 3904.78 141.021  15
   1   5   1 3611.13 189.001  44
  -1   5  -1 3184.99 137.700  12
   1   5   1 3465.23 151.426  36
   1   5   1 3498.52 199.859  43
   1   5   1 3273.11 159.096  22
   1   5   1 3587.68 149.486  10
  -1   5  -1 2936.47 161.639  57
  -1   5  -1 3462.48 175.374  44
  -1   5  -1 2566.61 138.955  19
   1   5   1 3368.73 139.870  19
  -1   5  -1 3464.44 180.308  56
   1   5   2 1061.01 83.5496  55
   1   5   2 1057.02 137.916  33
  -1   5  -2 750.532 70.1341  57
  -1   5  -2 921.869 79.9020  46
  -1   5  -2 874.071 90.3145  56
  -1   5  -2 947.161 119.785  33
   1   5   2 959.615 63.3186  10
   1   5   2 1054.22 119.849  44
  -1   5  -2 1069.30 98.6704  44
   1   5   2 931.541 124.522  43
   1   5   2 775.049 86.4819  42
  -1   5  -2 953.640 87.2846  22
   1   5   2 1085.15 91.1016  58
   1   5   2 959.647 84.1544  22
  -1   5  -2 924.437 108.013  42
  -1   5  -2 865.033 50.9688  12
   1   5   2 903.708 64.2089  36
   1   5   3 111.802 39.2595  36
   1   5   3 164.476 80.2920  57
   1   5   3 76.7556 65.1036  58
  -1   5  -3 124.456 99.9825  33
   1   5   3 145.671 57.9550  55
   1   5   3 96.5138 108.580  44
  -1   5  -3 98.0993 42.8833  57
  -1   5  -3 160.089 53.7414  46
  -1   5  -3 100.720 26.2903  12
   1   5   3 123.837 100.449  43
  -1   5  -3 130.381 106.117  43
  -1   5  -3 130.751 84.4597  42
  -1   5  -3 91.1444 73.1211  22
  -1   5  -3 161.732 70.1469  56
   1   5   3 94.1052 123.559  33
   1   5   3 188.371 36.2219  15
   1   5   4 1660.48 166.692  33
  -1   5  -4 1672.72 138.124  43
   1   5   4 1612.52 108.982  55
   1   5   4 1858.67 90.0791  15
   1   5   4 1666.72 120.095  58
   1   5   4 1881.61 155.627  44
  -1   5  -4 1534.14 111.894  56
  -1   5  -4 1509.97 80.4981  12
  -1   5  -4 1657.16 117.677  42
   1   5   4 1489.96 84.3224  10
  -1   5  -4 1774.74 109.058  22
   1   5   4 1230.34 134.315  43
  -1   5  -4 1584.95 96.6420  46
   1   5   4 1506.73 92.2482  36
   1   5   4 1719.14 132.589  57
  -1   5  -4 1724.65 135.593  33
   1   5   5 404.222 65.6314  55
  -1   5  -5 373.958 72.3496  22
  -1   5  -5 376.559 49.9482  46
  -1   5  -5 505.505 70.6150  56
   1   5   5 468.742 57.5874   6
  -1   5  -5 372.168 93.8235  43
   1   5   5 466.338 119.495  44
   1   5   5 378.499 39.8819  10
  -1   5  -5 474.530 72.9788  42
   1   5   5 446.010 41.3653  15
   1   5   5 323.418 124.169  33
   1   5   5 340.739 95.0229  43
  -1   5  -5 394.096 39.7142  12
   1   5   5 398.880 50.0613  36
   1   5   5 395.409 85.0970  57
  -1   5  -6-4.62673 46.1934  56
   1   5   6 60.6603 47.7731  55
   1   5   6 41.3862 63.3746  57
   1   5   6 26.5350 28.7062  10
  -1   5  -6 30.9548 27.0725  12
  -1   5  -6 47.4701 72.8712  43
   1   5   6 25.9797 100.667  44
   1   5   6 59.7588 34.4104  36
  -1   5  -6 34.3746 50.3701  42
  -1   5  -6 46.2228 55.5430  22
   1   5   6 66.7258 43.0958   6
   1   5   6 132.516 110.788  33
  -1   5  -7 273.334 31.5397  16
   1   5   7 190.304 55.8125  57
   1   5   7 188.578 41.7771  55
   1   5   7 291.427 81.7622  44
  -1   5  -7 247.177 27.8292  12
  -1   5  -7 234.489 41.8590  56
   1   5   7 286.633 36.9715   6
   1   5   7 180.889 25.2358  10
   1   5   7 239.221 33.2311  36
   1   5   7 98.7708 45.0872   5
  -1   5  -7 229.863 44.0163  42
   1   5   7 172.930 85.9687  33
  -1   6   7 142.545 66.6513  44
  -1   6   7 179.463 47.7040  57
  -1   6   7 258.257 29.3442   6
   1   6  -7 188.113 25.4920  19
  -1   6   7 176.702 37.0979  58
   1   6  -7 229.563 25.1678  16
   1   6  -6 577.561 37.6457  12
  -1   6   6 444.959 59.3660  58
  -1   6   6 256.571 110.710  33
   1   6  -6 403.133 37.2904  16
  -1   6   6 455.866 45.9929   6
   1   6  -6 519.673 77.4074  43
  -1   6   6 408.967 91.4281  44
  -1   6   6 460.730 103.481  43
  -1   6   6 346.078 32.4898  10
  -1   6   6 273.632 74.7975  42
  -1   6   6 380.649 68.3909  57
   1   6  -5 643.239 93.4652  59
  -1   6   5 814.938 68.6472  55
  -1   6   5 921.918 143.514  33
  -1   6   5 752.659 89.7865  57
   1   6  -5 1018.87 105.069  33
   1   6  -5 1078.32 81.5059  22
  -1   6   5 822.235 65.0145   6
   1   6  -5 905.810 58.1834  19
  -1   6   5 823.455 113.687  44
  -1   6   5 768.524 55.0930  10
  -1   6   5 792.259 128.148  43
   1   6  -5 1074.18 106.389  43
   1   6  -5 1081.72 55.5372  12
  -1   6   5 872.981 103.056  42
  -1   6   5 728.733 76.6960  58
  -1   6   4-27.9163 55.8014  58
  -1   6   4 51.0350 66.9497  57
   1   6  -4 63.2740 91.7676  33
   1   6  -4 63.0639 28.3368  12
  -1   6   4 41.8855 38.9908  10
  -1   6   4 136.835 130.189  33
   1   6  -4 45.3812 51.2800  57
   1   6  -4 70.9105 66.7883  44
  -1   6   4-3.03057 117.585  43
   1   6  -4 67.0887 92.9487  43
  -1   6   4 140.315 85.7533  42
   1   6  -4 59.9986 73.0667  22
  -1   6   4-26.4793 104.488  44
   1   6  -4 45.3406 30.6407  19
   1   6  -4-8.07591 81.3404  59
  -1   6   4 1.92064 42.8997  55
  -1   6   3 14.2518 56.6910  58
   1   6  -3 68.3037 47.0589  58
   1   6  -3-21.3226 97.2665  43
   1   6  -3 36.2771 55.1308  57
   1   6  -3 11.7714 98.7180  33
  -1   6   3 2.64804 62.3984  57
  -1   6   3 74.2696 60.7071  22
  -1   6   3-2.32745 100.498  44
  -1   6   3 35.3778 87.5722  42
  -1   6   3 52.7647 45.9877  55
   1   6  -3 74.0318 78.8178  22
  -1   6   3 11.5882 42.5859  10
   1   6  -3 18.5753 70.7821  44
   1   6  -3 23.9510 27.1347  19
  -1   6   3-12.4832 122.872  43
   1   6  -2 1463.05 67.2335  15
  -1   6   2 1217.21 95.4456  22
   1   6  -2 1223.80 103.834  57
  -1   6   2 1417.99 161.900  43
   1   6  -2 1320.19 133.849  33
  -1   6   2 1346.43 133.643  44
  -1   6   2 1320.36 62.8059  15
  -1   6   2 1092.97 102.618  57
  -1   6   2 1261.43 103.866  56
  -1   6   2 1225.66 94.2128  58
   1   6  -2 1327.70 109.767  44
   1   6  -2 1260.12 136.355  43
   1   6  -2 1453.34 106.983  22
   1   6  -2 1280.28 72.2256  10
  -1   6   2 1388.79 125.665  42
   1   6  -2 1414.87 91.3176  58
   1   6  -2 1226.43 71.1379  19
  -1   6   1 246.321 24.2370  15
   1   6  -1 279.139 71.4081  57
  -1   6   1 187.348 71.3230  56
  -1   6   1 83.6378 96.5038  44
  -1   6   1 169.314 61.2218  57
  -1   6   1 198.671 60.0357  58
   1   6  -1 195.492 111.960  33
   1   6  -1 222.896 41.0764  10
   1   6  -1 236.152 27.7441  15
   1   6  -1 257.417 88.2893  44
  -1   6   1 204.822 91.9338  42
  -1   6   1 257.249 76.3754  22
  -1   6   1 129.529 124.431  43
   1   6  -1 217.674 55.0743  58
   1   6  -1 243.944 105.939  43
   1   6  -1 216.762 29.0947  19
  -1   6   0 4445.12 249.058  57
   1   6   0 5870.35 284.607  33
   1   6   0 6378.39 253.848  58
   1   6   0 5499.31 267.762  57
   1   6   0 6228.67 268.044  44
  -1   6   0 4781.69 254.372  56
  -1   6   0 5267.86 245.064  46
   1   6   0 5651.40 284.083  43
  -1   6   0 5651.83 293.031  43
  -1   6   0 5518.91 273.540  42
   1   6   0 5629.39 247.038  22
  -1   6   0 5567.57 245.166  22
   1   6   0 5806.13 234.880  10
   1   6   0 4885.15 231.836  36
   1   6   0 6194.18 229.957  15
  -1   6   0 5219.05 247.562  58
  -1   6   0 5565.03 262.916  44
   1   6   0 5986.73 227.616  19
  -1   6  -1 209.347 54.6213  57
   1   6   1 275.404 61.9168  55
   1   6   1 351.302 103.256  44
   1   6   1 287.868 30.5967  15
   1   6   1 314.203 125.339  33
  -1   6  -1 232.331 58.8086  46
   1   6   1 268.994 46.0993  10
  -1   6  -1 360.746 70.5122  56
   1   6   1 225.715 104.073  43
  -1   6  -1 270.647 88.0615  42
   1   6   1 320.793 80.6570  22
   1   6   1 205.456 35.0027  36
  -1   6  -1 196.599 27.0733  19
   1   6   1 280.501 63.9314  58
   1   6   2 1061.04 87.6386  55
   1   6   2 1018.78 57.9396  15
   1   6   2 997.125 140.402  33
   1   6   2 887.059 69.5235   6
  -1   6  -2 811.107 85.0443  56
  -1   6  -2 880.072 73.2215  46
   1   6   2 790.973 59.3186  36
   1   6   2 825.273 120.027  43
   1   6   2 912.187 64.4874  10
  -1   6  -2 834.124 97.3559  42
  -1   6  -2 720.326 51.1249  19
   1   6   2 954.732 116.867  44
  -1   6  -2 587.135 66.1121  57
   1   6   2 895.732 84.9253  58
   1   6   3 585.582 43.0860  15
  -1   6  -3 602.308 84.4566  42
  -1   6  -3 601.475 87.0555  22
   1   6   3 475.329 47.4136  36
   1   6   3 646.840 73.6821  55
   1   6   3 613.152 63.2008   6
  -1   6  -3 513.840 72.0060  56
   1   6   3 577.262 128.717  33
  -1   6  -3 434.150 42.5912  19
  -1   6  -3 606.600 40.2234  12
  -1   6  -3 529.499 55.5857  46
  -1   6  -3 660.695 104.706  33
   1   6   3 499.781 105.006  43
   1   6   3 647.979 113.464  44
   1   6   3 646.815 77.0488  58
  -1   6  -4 1778.16 130.687  43
  -1   6  -4 1476.58 99.3378  56
   1   6   4 1710.50 124.195  57
   1   6   4 1331.24 77.6039  10
   1   6   4 1342.82 83.5654  36
   1   6   4 1582.54 76.8788  15
   1   6   4 1830.02 107.503  55
   1   6   4 1283.57 148.257  33
  -1   6  -4 1920.77 107.464  22
  -1   6  -4 1681.85 126.979  33
  -1   6  -4 1575.53 108.631  42
   1   6   4 1555.61 106.276  58
   1   6   4 1764.03 138.164  44
  -1   6  -4 1417.96 80.4321  19
  -1   6  -4 1804.82 77.0427  12
   1   6   5 72.3435 57.4217  57
  -1   6  -5 61.4125 41.9990  56
  -1   6  -5 49.5014 69.1232  43
   1   6   5 86.6083 44.1048  55
   1   6   5 126.704 94.8406  33
  -1   6  -5 47.7452 26.1280  19
   1   6   5 90.2334 42.9948   6
  -1   6  -5 72.7516 22.1550  12
   1   6   5 24.8704 25.8888  36
   1   6   5 117.420 84.7319  44
  -1   6  -5 76.1005 47.5426  42
  -1   6  -5 99.4745 61.5569  22
   1   6   6 540.488 91.1914  33
  -1   6  -6 1023.73 44.8954  12
   1   6   6 682.766 70.7216  57
   1   6   6 919.632 53.3353   6
  -1   6  -6 890.464 47.0216  16
  -1   6  -6 829.091 59.7509  42
   1   6   6 814.662 45.2630  10
  -1   6  -6 652.459 55.2637  56
   1   6   6 709.221 59.5903  55
  -1   6  -6 805.986 48.2285  19
   1   6   6 872.001 85.2522  44
   1   7  -5 125.036 50.7493  59
   1   7  -5 369.070 28.6288  16
  -1   7   5 310.192 72.2000  43
  -1   7   5 180.883 59.6650  44
  -1   7   5 234.497 47.7194  57
  -1   7   5 240.451 38.3981  58
   1   7  -5 403.036 56.3064  43
  -1   7   5 278.379 27.0378  10
   1   7  -5 361.648 27.1901  19
  -1   7   5 160.971 77.7554  33
  -1   7   5 354.802 37.4605   6
   1   7  -4 612.263 76.0202  33
   1   7  -4 204.357 70.4094  59
  -1   7   4 383.425 90.0697  43
  -1   7   4 310.012 48.0963  58
  -1   7   4 274.839 72.0168  44
  -1   7   4 372.289 46.6083   6
   1   7  -4 576.178 73.2856  43
  -1   7   4 351.569 38.1223  10
   1   7  -4 489.125 65.1944  22
  -1   7   4 230.471 95.2586  33
  -1   7   4 342.778 57.6789  57
   1   7  -4 467.489 32.8797  19
   1   7  -3-38.8940 78.4611  59
  -1   7   3 15.0493 40.1689  58
  -1   7   3 66.4670 98.6438  33
  -1   7   3-1.76346 73.8486  44
   1   7  -3 79.1683 70.8984  22
   1   7  -3 35.3489 73.0620  33
  -1   7   3-1.99819 47.8389  57
   1   7  -3 104.468 72.4139  43
   1   7  -3 1.29399 54.2373  44
  -1   7   3 28.7521 92.4955  43
  -1   7   3-43.9821 65.6644  42
   1   7  -3 24.2741 20.5908  19
   1   7  -3 33.5657 42.1858  57
  -1   7   2 142.615 75.5069  44
   1   7  -2 304.784 86.2612  33
   1   7  -2 239.889 64.4579  44
  -1   7   2 248.880 103.717  43
  -1   7   2 269.339 71.7059  42
  -1   7   2 211.245 63.8445  22
   1   7  -2 321.613 79.5515  22
  -1   7   2 242.769 45.2986  10
   1   7  -2 292.297 45.3913  58
   1   7  -2 160.829 51.7283  57
  -1   7   2 209.711 47.7631  58
  -1   7   2 183.455 54.4051  57
   1   7  -2 263.477 27.6554  19
   1   7  -2 208.758 85.4631  43
  -1   7   1 658.157 81.2270  22
   1   7  -1 772.024 105.264  33
   1   7  -1 796.705 43.3872  15
   1   7  -1 624.024 101.181  43
  -1   7   1 738.256 91.9756  44
   1   7  -1 721.984 83.2566  44
   1   7  -1 702.174 49.9037  10
  -1   7   1 578.046 112.904  43
  -1   7   1 722.316 58.6625  10
  -1   7   1 659.055 85.4427  42
  -1   7   1 489.834 66.7146  57
   1   7  -1 844.936 45.1492  19
   1   7  -1 785.369 65.8327  58
  -1   7   1 745.404 66.8941  58
   1   7  -1 705.181 76.4884  57
  -1   7   0 232.277 50.6500  58
   1   7   0 372.436 53.4431  58
  -1   7   0 338.158 77.1085  22
   1   7   0 289.909 63.7864  57
  -1   7   0 177.648 47.9907  57
   1   7   0 295.277 37.0364  10
  -1   7   0 317.892 75.6402  44
   1   7   0 330.538 97.8257  33
   1   7   0 303.497 77.8947  44
   1   7   0 303.656 79.7837  22
   1   7   0 188.540 87.5696  43
  -1   7   0 233.957 72.7121  42
  -1   7   0 301.657 43.3877  10
   1   7   0 308.484 25.8466  15
  -1   7   0 182.640 101.457  43
   1   7   1 916.275 86.0880  57
   1   7   1 938.765 112.423  33
   1   7   1 966.584 49.4613  15
   1   7   1 1099.62 67.8034   6
  -1   7  -1 1016.86 86.7302  44
   1   7   1 944.540 93.6796  44
   1   7   1 807.613 106.265  43
  -1   7  -1 794.618 109.674  43
   1   7   1 1019.74 59.9735  10
  -1   7  -1 879.085 88.1911  42
  -1   7  -1 1127.33 94.0227  22
  -1   7  -1 991.747 60.6992  10
   1   7   1 1068.70 75.2425  58
   1   7   2 548.296 73.3755  57
  -1   7  -2 669.841 72.0723  44
   1   7   2 505.261 100.640  33
   1   7   2 651.103 55.6179   6
  -1   7  -2 480.046 32.9362  19
   1   7   2 516.345 85.0687  44
   1   7   2 612.444 47.2187  10
  -1   7  -2 392.257 65.7624  42
   1   7   2 590.383 60.3597  58
   1   7   2 532.093 32.7922  15
  -1   7  -3 81.5395 67.3061  33
   1   7   3 88.4724 40.0300  58
   1   7   3 6.24931 66.0234  44
  -1   7  -3 49.0540 65.1889  22
   1   7   3 55.1521 28.1898  10
   1   7   3 69.8616 40.7308   6
   1   7   3 123.284 81.4677  33
  -1   7  -3-3.35978 58.9989  59
  -1   7  -3 40.0054 44.2589  42
  -1   7  -3 76.6850 18.1526  19
   1   7   4 213.063 69.8818  33
   1   7   4 157.067 57.3393  44
  -1   7  -4 294.539 56.0335  22
  -1   7  -4 232.201 57.6503  43
  -1   7  -4 190.273 20.9091  19
   1   7   4 162.037 36.8069  58
  -2  -7   5 107.611 41.9904  53
  -2  -7   5 106.112 60.2503  52
   2  -7  -5 114.464 26.6674  14
   2  -7  -5 142.200 56.8175  39
  -2  -7   5 87.2456 52.8668  48
   2  -7  -5 68.7601 20.5895  13
   2  -7  -5 73.6666 24.1809  60
  -2  -7   5 91.6861 32.7917   7
   2  -7  -4-77.0260 71.8290  47
  -2  -7   4-27.2341 69.6394  35
  -2  -7   4 29.9423 38.4254   7
   2  -7  -4 50.0818 29.4349  14
   2  -7  -4 25.8017 54.6029  49
  -2  -7   4-51.8864 65.5963  48
   2  -7  -4 10.2865 23.3157  13
   2  -7  -4 20.4851 45.3037   3
  -2  -7   4 70.3560 69.1165  47
   2  -7  -4-7.54409 33.6928  60
  -2  -7   4-4.23014 100.832  34
  -2  -7   4 34.9286 45.7007  53
  -2  -7   3 127.897 77.4845  35
   2  -7  -3 172.870 87.6091  34
  -2  -7   3 7.43303 111.388  34
  -2  -7   3 41.8121 46.6943  53
  -2  -7   3 101.739 42.7269   7
  -2  -7   3 97.8730 83.5775  52
   2  -7  -3 59.6888 31.0804  14
  -2  -7   3 71.2478 67.5229  48
  -2  -7   3 124.394 87.2398  47
   2  -7  -3 90.4715 86.1163  47
   2  -7  -3 18.8684 48.5901   3
   2  -7  -3 83.6947 28.8066  13
   2  -7  -3 60.8265 72.3507  49
   2  -7  -3 125.425 81.3447  39
  -2  -7   3 66.1694 58.6763  49
   2  -7  -2 314.533 38.7107  14
   2  -7  -2 185.905 99.1908  47
   2  -7  -2 286.090 113.322  34
  -2  -7   2 397.052 51.0484   7
  -2  -7   2 299.559 80.2976  49
  -2  -7   2 186.464 99.9165  47
  -2  -7   2 294.586 67.9833  48
   2  -7  -2 304.806 55.2904   3
   2  -7  -2 303.981 88.1605  49
  -2  -7   2 224.876 92.4547  52
  -2  -7   2 259.900 66.7008  39
   2  -7  -2 297.240 87.2859  39
   2  -7  -1 289.493 115.617  34
  -2  -7   1 276.138 89.1265  52
   2  -7  -1 339.188 39.9595   7
   2  -7  -1 203.305 102.783  47
  -2  -7   1 280.769 50.2829   7
   2  -7  -1 315.195 37.0580  14
   2  -7  -1 328.260 38.0239  13
   2  -7  -1 352.427 57.6571   3
  -2  -7   1 240.802 86.5998  49
  -2  -7   1 129.495 121.993  34
  -2  -7   1 274.106 79.1818  39
   2  -7  -1 161.850 76.3034  39
   2  -7  -1 281.687 89.2243  49
   2  -7   0 578.599 80.6990  39
  -2  -7   0 743.512 99.6175  39
   2  -7   0 821.411 53.8899   7
   2  -7   0 576.851 85.6083  52
  -2  -7   0 728.005 104.394  49
  -2  -7   0 638.397 90.3414  52
   2  -7   0 911.394 71.2175   3
  -2  -7   0 811.204 49.1572  13
  -2  -7   0 614.627 112.230  47
   2  -7   0 686.083 115.189  47
  -2  -7   0 948.265 65.1726   7
   2  -7   0 710.593 102.897  49
  -2  -7   0 763.312 131.735  34
   2  -7   1 276.942 96.9572  47
  -2  -7  -1 305.514 32.9170  13
   2  -7   1 253.953 59.2177  48
   2  -7   1 242.969 77.3855  52
   2  -7   1 319.632 52.3303   3
   2  -7   1 234.895 62.5986  35
   2  -7   1 221.521 78.5706  49
   2  -7   1 368.757 40.5759   7
  -2  -7  -1 359.047 102.398  34
  -2  -7  -1 344.288 87.0826  49
  -2  -7  -1 275.798 91.9222  47
  -2  -7  -1 273.931 85.7636  39
   2  -7   1 284.539 109.591  34
  -2  -7  -2 144.011 41.0932   8
   2  -7   2 172.467 60.2793  35
   2  -7   2 182.452 45.8310   3
   2  -7   2 256.944 99.9946  34
   2  -7   2 228.156 58.3384  48
   2  -7   2 105.746 73.1962  47
  -2  -7  -2 10.8479 67.5340  49
  -2  -7  -2 170.270 28.5280  13
  -2  -7  -2 125.994 75.1151  47
   2  -7   2 199.507 33.3905   4
   2  -7   2 106.430 68.2749  52
  -2  -7  -3 269.637 30.3451  13
   2  -7   3 371.022 61.5687  35
   2  -7   3 341.971 65.9812  52
  -2  -7  -3 225.706 63.2149  49
  -2  -7  -3 373.797 40.9928   8
   2  -7   3 421.052 46.8812   3
   2  -7   3 244.744 80.2875  34
   2  -7   3 307.705 57.5134  48
  -2  -7  -3 281.249 67.3282  39
   2  -6  -7 107.711 26.9974  14
  -2  -6   7 215.515 59.6373  35
   2  -6  -7 75.2476 18.2068  60
  -2  -6   7 113.912 53.9431  48
  -2  -6   7 103.000 32.9855  38
  -2  -6   6 217.018 78.6894  52
   2  -6  -6 211.145 28.9263  13
  -2  -6   6 162.730 75.9786  48
   2  -6  -6 205.334 35.1031  60
   2  -6  -6 203.305 37.6954  14
  -2  -6   6 238.567 61.5780  53
   2  -6  -6 196.237 74.5909  39
  -2  -6   6 294.306 48.5109  38
  -2  -6   6 207.161 78.4240  35
  -2  -6   5 1854.78 155.289  34
  -2  -6   5 2798.41 166.361  48
   2  -6  -5 1738.11 106.755  60
  -2  -6   5 2568.99 160.709  52
   2  -6  -5 1953.33 149.743  39
  -2  -6   5 1719.58 132.125  47
  -2  -6   5 2804.87 171.290  35
   2  -6  -5 2438.09 105.034  13
   2  -6  -4 86.7589 32.9128  13
   2  -6  -4 9.29609 76.2649  49
   2  -6  -4 95.3956 103.691  39
   2  -6  -4 94.5237 36.3224   7
   2  -6  -4 79.2959 91.6631  47
   2  -6  -4 108.624 41.1928  14
  -2  -6   4 106.606 94.6712  48
   2  -6  -4 145.571 93.4613  34
  -2  -6   4 96.8245 92.1736  47
  -2  -6   4 138.286 62.0640  49
  -2  -6   4 34.3253 125.179  34
   2  -6  -3 268.670 96.5439  49
  -2  -6   3 327.431 113.223  47
  -2  -6   3 247.236 148.578  34
  -2  -6   3 159.456 65.2279  39
   2  -6  -3 203.442 38.7167  13
  -2  -6   3 216.886 93.3421  48
   2  -6  -3 308.269 45.6069  14
   2  -6  -3 361.903 115.731  47
  -2  -6   3 184.221 79.2417  49
   2  -6  -3 215.167 115.180  34
  -2  -6   3 197.048 115.745  52
   2  -6  -3 274.097 39.9353   7
   2  -6  -2 133.801 61.9858  52
  -2  -6   2 276.263 90.5156  49
  -2  -6   2 176.922 81.6461  39
   2  -6  -2 207.797 136.644  34
   2  -6  -2 210.051 39.9990   7
   2  -6  -2 248.390 43.6296  14
  -2  -6   2 224.136 86.4350  48
   2  -6  -2 231.657 39.6769  13
  -2  -6   2 299.939 121.965  47
   2  -6  -2 268.520 123.200  47
   2  -6  -2 235.106 104.951  49
  -2  -6   2 256.884 30.2268  13
  -2  -6   2 184.907 114.066  52
   2  -6  -2 279.795 107.637  39
   2  -6  -1 3474.43 213.835  49
   2  -6  -1 3189.94 145.797   7
   2  -6  -1 3335.44 153.550  14
   2  -6  -1 3411.56 222.437  47
  -2  -6   1 3098.09 207.168  52
  -2  -6   1 3206.94 189.241  48
   2  -6  -1 2455.03 163.330  48
  -2  -6   1 3736.02 147.112  13
   2  -6  -1 3236.44 197.363  39
  -2  -6   1 4076.69 218.267  49
  -2  -6   1 3771.86 153.260   7
   2  -6  -1 2893.17 183.122  52
  -2  -6   1 3175.56 196.783  39
   2  -6  -1 3541.81 158.695   4
  -2  -6   1 3668.96 239.485  34
   2  -6  -1 3393.44 229.981  34
   2  -6   0 709.256 54.9888  14
   2  -6   0 683.135 55.4273  13
  -2  -6   0 905.491 54.9409  13
   2  -6   0 677.574 89.0764  48
  -2  -6   0 736.965 135.037  47
   2  -6   0 639.235 137.859  47
  -2  -6   0 650.434 108.645  52
  -2  -6   0 770.057 62.8037   7
   2  -6   0 566.758 102.056  52
  -2  -6   0 684.030 152.042  34
   2  -6   0 541.957 89.0689  35
  -2  -6   0 726.958 120.563  39
   2  -6   0 827.832 65.4782   4
   2  -6   0 623.160 93.1832  39
  -2  -6  -1 262.549 52.6651   7
   2  -6   1 195.283 46.4289  53
   2  -6   1 254.085 96.2670  49
  -2  -6  -1 379.212 119.418  47
  -2  -6  -1 200.917 34.2898  14
   2  -6   1 282.461 102.296  52
  -2  -6  -1 213.452 54.7145  32
  -2  -6  -1 264.332 81.5266  52
   2  -6   1 392.376 120.256  47
  -2  -6  -1 205.945 102.096  49
  -2  -6  -1 259.289 38.0727  13
   2  -6   1 213.887 66.8482  39
   2  -6   1 291.957 47.3923   4
  -2  -6  -1 343.573 126.508  34
   2  -6   1 276.304 82.0023  48
   2  -6   1 206.946 87.3024  35
   2  -6   1 217.758 142.941  34
   2  -6   2 1153.35 125.717  49
   2  -6   2 1392.20 157.718  34
   2  -6   2 1417.96 128.701  48
   2  -6   2 1611.67 135.733  35
   2  -6   2 1512.72 139.563  52
  -2  -6  -2 1619.94 145.859  49
  -2  -6  -2 1682.61 86.2339  13
   2  -6   2 1695.16 99.7508   3
  -2  -6  -2 1667.78 139.470  47
   2  -6   2 1190.90 135.485  47
   2  -6   2 1767.19 90.7475   4
   2  -6   2 1327.43 99.7536  53
  -2  -6  -2 1481.14 101.423  32
  -2  -6  -2 1513.22 137.007  34
  -2  -6  -2 1447.58 144.711  39
  -2  -6  -3 358.643 89.5408  49
   2  -6   3 407.536 110.045  34
  -2  -6  -3 459.629 44.7212  13
   2  -6   3 395.483 90.5879  48
  -2  -6  -3 438.969 53.3905   8
  -2  -6  -3 424.511 82.4538  47
   2  -6   3 498.544 61.8736   3
  -2  -6  -3 449.496 69.6042  32
   2  -6   3 277.596 81.6348  47
   2  -6   3 454.439 96.4536  35
  -2  -6  -3 260.283 99.5511  39
   2  -6   3 444.241 48.3896   4
   2  -6   3 437.352 63.1630  53
   2  -6   4 9.80375 33.1698   4
   2  -6   4 21.5422 79.6973  34
   2  -6   4-2.57385 45.6674   3
   2  -6   4 52.9840 71.5736  52
  -2  -6  -4 104.592 63.4758  49
  -2  -6  -4 40.0613 55.5773  32
  -2  -6  -4 61.9042 28.5863  13
  -2  -6  -4-3.23801 40.8690   8
   2  -6   4 14.3787 70.0094  35
  -2  -6  -4 104.664 74.5243  39
   2  -6   4 28.5246 45.4796  53
   2  -6   5 185.232 57.0224  48
   2  -6   5 293.557 44.5358   3
  -2  -6  -5 272.902 36.9610   8
  -2  -6  -5 156.021 48.4615  32
  -2  -6  -5 173.527 29.9244  21
  -2  -6  -5 170.588 56.1228  39
   2  -6   5 171.997 42.4691  53
   2  -6   5 243.464 30.5470   4
   2  -6   5 169.839 29.1833  38
   2  -6   5 244.408 60.7517  52
  -2  -6  -5 226.443 45.5523   7
   2  -5  -8 624.086 45.2511  14
   2  -5  -8 485.281 33.3514  60
  -2  -5   8 528.794 67.3476  48
  -2  -5   8 662.587 65.3794  53
  -2  -5   8 635.211 67.4636  35
  -2  -5   8 703.756 59.1638  38
  -2  -5   7 221.831 76.0706  35
   2  -5  -7 137.275 27.1548  13
  -2  -5   7 153.031 62.3523  53
   2  -5  -7 115.581 38.2761  14
  -2  -5   7 91.3178 75.2137  48
  -2  -5   7 125.181 66.4250  52
   2  -5  -7 122.694 31.8115  60
   2  -5  -7 104.208 62.2439  32
   2  -5  -7 92.2296 62.4233  39
  -2  -5   7 141.625 51.0197  38
   2  -5  -6 953.008 69.6709  60
  -2  -5   6 972.287 111.529  34
   2  -5  -6 1164.58 75.2568  14
  -2  -5   6 1144.06 114.439  52
  -2  -5   6 1226.36 122.469  48
   2  -5  -6 1079.19 63.9661  13
   2  -5  -6 968.264 111.296  39
  -2  -5   6 1287.01 124.304  35
   2  -5  -5 1760.97 134.352  47
  -2  -5   5 2091.39 161.425  34
   2  -5  -5 1993.74 97.9724   7
   2  -5  -5 2159.20 102.152  13
  -2  -5   5 2400.51 161.525  52
   2  -5  -5 2375.79 131.202  32
   2  -5  -5 1791.77 131.423  49
   2  -5  -5 2207.25 112.183  14
   2  -5  -5 1948.41 117.100   3
  -2  -5   5 1799.34 133.153  47
   2  -5  -5 1940.74 119.048  20
   2  -5  -5 2280.59 158.385  39
   2  -5  -4 388.392 41.8461   7
  -2  -5   4 368.448 112.409  52
   2  -5  -4 435.936 73.1408  32
  -2  -5   4 357.730 69.8486  49
   2  -5  -4 329.240 84.4095  49
   2  -5  -4 390.985 43.2248  13
  -2  -5   4 315.428 98.1103  47
   2  -5  -4 410.073 105.024  47
  -2  -5   4 408.616 138.493  34
   2  -5  -4 423.747 112.451  39
   2  -5  -4 337.233 62.4269  20
   2  -5  -4 339.355 103.521  34
  -2  -5   3 1557.68 169.132  34
   2  -5  -3 1123.54 142.829  34
   2  -5  -3 1287.77 128.522  49
   2  -5  -3 1458.51 82.5019  14
   2  -5  -3 1334.40 92.2692  32
  -2  -5   3 1455.04 114.004  49
  -2  -5   3 1190.30 130.491  47
   2  -5  -3 1422.20 76.1119  13
  -2  -5   3 1184.41 102.724  39
   2  -5  -3 1343.54 89.6488  20
   2  -5  -3 1518.88 141.983  47
   2  -5  -3 1131.38 68.3083   7
   2  -5  -2 259.757 45.3280   4
   2  -5  -2 298.304 118.632  47
   2  -5  -2 220.506 40.3627  14
  -2  -5   2 195.553 80.0798  49
   2  -5  -2 332.422 97.3422  49
   2  -5  -2 229.506 49.2752  20
  -2  -5   2 290.196 29.6407  13
   2  -5  -2 176.939 32.6559   7
   2  -5  -2 222.976 38.1305  13
  -2  -5   2 227.999 108.264  47
   2  -5  -2 275.093 130.381  34
   2  -5  -2 113.172 67.4083  52
  -2  -5   2 190.723 81.9849  39
   2  -5  -2 254.464 101.907  39
   2  -5  -1 2451.95 155.427  35
  -2  -5   1 2973.45 211.570  34
   2  -5  -1 2768.35 130.024  14
  -2  -5   1 3108.66 182.703  49
  -2  -5   1 3246.45 125.378  13
   2  -5  -1 2269.15 149.668  48
   2  -5  -1 2922.97 195.767  47
   2  -5  -1 2835.37 173.254  39
  -2  -5   1 2844.36 174.131  39
   2  -5  -1 2957.12 206.525  34
   2  -5  -1 2744.51 165.193  52
   2  -5  -1 2540.60 131.219   4
   2  -5  -1 3030.30 184.585  49
  -2  -5   0 5211.26 280.988  34
   2  -5   0 4289.10 224.631  53
  -2  -5   0 5106.92 223.234  32
   2  -5   0 5403.68 219.256  14
  -2  -5   0 6101.20 216.989  13
   2  -5   0 5163.33 253.170  48
  -2  -5   0 5547.09 274.161  47
   2  -5   0 4157.37 218.630   1
   2  -5   0 5588.21 261.541  52
   2  -5   0 5342.46 276.623  47
   2  -5   0 5298.59 258.370  35
  -2  -5   0 5470.11 265.893  39
   2  -5   0 5022.28 247.860  39
   2  -5   0 5498.58 222.504   4
  -2  -5   0 5335.69 214.702   7
   2  -5   1 2854.70 196.480  34
  -2  -5  -1 2559.65 115.278   7
   2  -5   1 2363.88 114.119  13
  -2  -5  -1 2364.39 117.809   3
   2  -5   1 2132.45 132.240  53
  -2  -5  -1 2540.19 131.676  32
   2  -5   1 2433.53 167.637  52
   2  -5   1 2724.66 167.086  35
  -2  -5  -1 2611.53 178.375  49
   2  -5   1 2496.55 161.002  48
  -2  -5  -1 2301.45 169.411  47
   2  -5   1 1952.08 135.088  39
  -2  -5  -1 2420.82 184.370  34
   2  -5   1 2673.90 171.579  49
  -2  -5  -1 2570.41 128.892  40
   2  -5   1 2285.24 174.681  47
   2  -5   1 2456.45 119.040   4
   2  -5   1 2470.38 117.043  14
  -2  -5  -2 374.365 51.2290   3
   2  -5   2 438.489 112.277  52
   2  -5   2 332.708 95.7754  35
  -2  -5  -2 383.012 100.637  49
  -2  -5  -2 469.172 101.471  47
   2  -5   2 366.507 41.4677  14
   2  -5   2 344.233 96.6337  48
  -2  -5  -2 487.769 76.2495  32
   2  -5   2 369.813 97.9399  47
   2  -5   2 468.612 129.805  34
  -2  -5  -2 460.220 110.067  34
  -2  -5  -2 570.168 73.8380  40
  -2  -5  -2 405.781 114.099  39
   2  -5   2 329.515 66.2355  53
   2  -5   2 378.150 48.1710   4
   2  -5   2 327.291 45.0449  38
   2  -5   2 318.696 88.6525  49
   2  -5   3 1468.21 128.304  49
   2  -5   3 1956.85 99.6319   4
   2  -5   3 1549.34 149.664  34
  -2  -5  -3 1601.79 145.132  49
  -2  -5  -3 1530.37 129.392  47
   2  -5   3 1877.10 152.009  48
  -2  -5  -3 2030.00 121.680  40
  -2  -5  -3 1822.84 95.1804   8
   2  -5   3 1350.52 123.619  47
  -2  -5  -3 1724.06 146.469  39
  -2  -5  -3 2079.56 124.533  32
   2  -5   3 1794.22 101.496  38
   2  -5   3 1794.63 122.258  53
   2  -5   3 1870.06 152.759  35
   2  -5   4 602.913 59.0915  54
   2  -5   4 387.989 95.4306  34
   2  -5   4 582.765 110.001  35
   2  -5   4 482.684 99.6229  52
  -2  -5  -4 570.121 56.7186   8
  -2  -5  -4 445.722 48.5832  45
   2  -5   4 652.401 80.5059  53
  -2  -5  -4 528.662 90.5179  49
   2  -5   4 628.048 103.054  48
  -2  -5  -4 641.472 86.6953  40
  -2  -5  -4 489.899 96.4737  39
   2  -5   4 565.723 59.8335  38
   2  -5   4 688.916 57.3728   4
  -2  -5  -4 742.961 88.1255  32
   2  -5   5 1667.74 99.0355  54
   2  -5   5 1913.10 118.788  53
   2  -5   5 1981.11 96.0849   4
  -2  -5  -5 1972.41 93.6193   8
   2  -5   5 1476.84 123.182  48
  -2  -5  -5 1517.01 89.9405  45
  -2  -5  -5 2059.04 119.115  40
   2  -5   5 1571.53 121.665  52
  -2  -5  -5 1457.71 116.399  39
   2  -5   5 1834.57 101.166  38
  -2  -5  -6 937.610 65.8205   7
  -2  -5  -6 955.769 74.4019  32
   2  -5   6 720.434 76.4683  48
  -2  -5  -6 908.619 56.5022   8
   2  -5   6 688.482 71.4503  52
   2  -5   6 778.936 58.9947  54
  -2  -5  -6 643.505 48.1407  21
   2  -5   6 820.755 86.9053  35
   2  -5   6 917.497 61.8376  38
   2  -5   6 948.090 57.3335   4
  -2  -5  -7 16.0170 21.4313  62
  -2  -5  -7-8.81586 32.8988  32
   2  -5   7 45.2550 27.9746  53
  -2  -5  -7-15.0357 33.0857   7
   2  -5   7 35.4365 22.1212  38
  -2  -5  -7 69.6029 24.2242   8
   2  -5   7 17.2540 19.9156   4
  -2  -5  -7 23.8469 16.8782  13
  -2  -4   9 2956.41 135.071  53
   2  -4  -9 3307.32 131.867  64
  -2  -4   9 3253.31 137.565  38
   2  -4  -9 3043.06 125.318  62
   2  -4  -8 1430.83 79.3122  62
  -2  -4   8 1282.75 102.380  35
   2  -4  -8 1356.71 73.7589  60
  -2  -4   8 1272.42 102.411  48
  -2  -4   8 1646.05 83.5368   3
   2  -4  -8 1568.59 89.0081  21
  -2  -4   8 1567.59 104.690  53
   2  -4  -8 1326.26 77.4332  14
  -2  -4   8 1513.65 97.5943  38
   2  -4  -8 1603.66 97.9081  32
  -2  -4   7 2432.09 151.725  35
   2  -4  -7 1947.82 108.266  60
   2  -4  -7 2619.04 117.344  14
   2  -4  -7 2702.82 115.163  62
  -2  -4   7 1954.37 132.652  52
   2  -4  -7 2708.64 137.294  32
  -2  -4   7 2576.38 116.347   3
   2  -4  -7 1970.82 102.117  13
  -2  -4   7 2391.01 152.286  48
   2  -4  -7 1919.41 132.397  39
   2  -4  -6 1320.02 86.6234  60
  -2  -4   6 1422.16 117.630  34
  -2  -4   6 1396.39 120.402  52
   2  -4  -6 1767.90 92.4298  14
   2  -4  -6 1333.37 76.8270  13
  -2  -4   6 1555.68 134.055  48
   2  -4  -6 1536.29 98.5744  20
  -2  -4   6 1738.34 87.8275   3
   2  -4  -6 1667.38 111.193  32
   2  -4  -6 1493.59 79.9110   7
   2  -4  -6 1519.46 123.451  39
   2  -4  -6 1645.64 83.0808  62
   2  -4  -5 131.445 26.8757  62
   2  -4  -5 149.701 30.7487  13
   2  -4  -5 112.685 33.5372   7
  -2  -4   5 137.681 84.4089  52
   2  -4  -5 117.145 56.6068  49
  -2  -4   5 144.672 67.3461  47
   2  -4  -5 167.488 70.9030  47
   2  -4  -5 124.939 48.7308   3
  -2  -4   5 62.8587 98.7132  34
  -2  -4   5 137.593 35.2650   3
   2  -4  -5 168.390 87.2691  39
   2  -4  -4 1199.74 69.2509  14
   2  -4  -4 976.750 57.3203   7
  -2  -4   4 1158.81 129.987  34
   2  -4  -4 1148.63 86.9452  32
   2  -4  -4 987.135 69.9424   3
  -2  -4   4 1128.03 83.1058  49
   2  -4  -4 1074.80 97.9959  49
   2  -4  -4 993.893 59.3206  13
   2  -4  -4 991.121 75.9183  20
  -2  -4   4 1050.32 100.173  47
   2  -4  -4 1257.96 116.355  39
   2  -4  -4 1047.27 106.945  34
   2  -4  -4 1065.32 107.919  47
  -2  -4   3 2682.34 153.293  47
   2  -4  -3 2267.95 106.027   7
   2  -4  -3 2308.79 117.553   3
   2  -4  -3 2675.05 128.251  32
   2  -4  -3 2705.26 153.556  49
   2  -4  -3 2742.42 113.182  13
   2  -4  -3 2774.87 125.846  20
   2  -4  -3 2723.06 164.178  34
   2  -4  -3 2574.80 161.277  47
  -2  -4   3 2655.30 142.354  49
  -2  -4   3 2465.82 134.271  39
   2  -4  -3 2827.51 161.188  39
   2  -4  -3 2273.63 116.194   4
  -2  -4   3 2570.74 197.612  34
  -2  -4   2 1505.64 108.379  49
   2  -4  -2 1501.38 140.908  34
   2  -4  -2 1433.45 125.316  47
   2  -4  -2 1537.45 76.5241  14
   2  -4  -2 1332.65 98.7582  52
   2  -4  -2 1432.63 85.5538  32
   2  -4  -2 1385.89 77.7812   3
   2  -4  -2 1451.68 72.2305  13
   2  -4  -2 1140.71 83.9771  48
  -2  -4   2 1482.92 120.215  47
   2  -4  -2 1452.03 114.254  49
   2  -4  -2 1592.65 83.5596  20
  -2  -4   2 1405.38 104.763  39
   2  -4  -2 1391.13 116.449  39
   2  -4  -2 1350.17 75.7478   4
  -2  -4   2 1596.65 67.8053  13
   2  -4  -1 1122.17 90.8486  48
   2  -4  -1 1153.20 91.1766  35
  -2  -4   1 1180.99 71.8573  32
  -2  -4   1 1352.29 106.902  49
   2  -4  -1 1272.79 64.2753  13
   2  -4  -1 1312.73 110.653  49
  -2  -4   1 1375.37 61.6648  13
   2  -4  -1 1216.82 69.8411   3
   2  -4  -1 1170.05 101.032  52
   2  -4  -1 1121.21 116.744  47
   2  -4  -1 1143.87 67.0794   1
   2  -4  -1 1352.41 133.133  34
  -2  -4   1 1301.99 105.891  39
   2  -4  -1 1311.24 106.485  39
   2  -4  -1 1176.04 67.1738   4
   2  -4  -1 1254.94 67.1888  14
   2  -4   0 1745.71 123.349  52
   2  -4   0 1682.82 81.2037  14
   2  -4   0 1577.68 114.379  48
  -2  -4   0 1744.18 77.4848   7
   2  -4   0 1522.25 83.3575   3
   2  -4   0 1555.14 100.785  24
  -2  -4   0 1559.10 128.898  47
  -2  -4   0 1659.72 88.1547  40
  -2  -4   0 1675.53 123.919  39
   2  -4   0 1511.79 110.892  39
   2  -4   0 1541.44 128.291  47
   2  -4   0 1645.67 115.153  35
   2  -4   0 1466.45 80.5083   4
  -2  -4   0 1709.81 94.0095  32
   2  -4   0 1532.38 92.3898  53
   2  -4   1 395.982 80.2297  35
   2  -4   1 478.148 111.699  34
  -2  -4  -1 502.859 64.4918  32
   2  -4   1 426.108 39.0948  14
   2  -4   1 385.698 91.2850  52
  -2  -4  -1 380.901 85.2400  49
   2  -4   1 377.523 81.6773  49
   2  -4   1 385.431 78.4692  48
  -2  -4  -1 357.017 93.4255  47
   2  -4   1 364.195 43.7584   3
   2  -4   1 434.871 96.6705  47
  -2  -4  -1 287.912 183.722  34
   2  -4   1 383.932 57.1519  53
  -2  -4  -1 442.519 59.0361  40
   2  -4   1 402.596 38.0960  13
  -2  -4  -1 412.478 90.4094  39
   2  -4   1 398.314 64.3350  39
   2  -4   1 416.656 41.2505   4
   2  -4   1 372.800 41.0326  38
  -2  -4  -1 466.900 39.9243   7
  -2  -4  -2 2968.00 133.412   7
  -2  -4  -2 2442.82 180.074  34
  -2  -4  -2 3207.50 183.505  49
  -2  -4  -2 2792.21 138.496   3
   2  -4   2 3041.30 161.515  53
  -2  -4  -2 3119.15 134.938  45
   2  -4   2 3164.49 137.763  14
   2  -4   2 2773.97 141.157   3
  -2  -4  -2 3000.33 176.669  47
   2  -4   2 2788.30 171.274  47
   2  -4   2 3096.18 184.368  35
   2  -4   2 3202.07 179.495  48
   2  -4   2 3189.91 140.160   4
  -2  -4  -2 3335.67 156.208  40
  -2  -4  -2 3212.10 183.850  39
  -2  -4  -2 3427.32 159.142  32
   2  -4   2 3271.92 140.062   2
   2  -4   2 3278.09 146.715  38
   2  -4   2 3272.21 188.445  34
   2  -4   2 2947.01 174.402  49
  -2  -4  -3 485.751 48.5261   8
  -2  -4  -3 521.962 80.9143  32
  -2  -4  -3 558.833 94.2914  49
   2  -4   3 427.728 105.271  34
   2  -4   3 531.720 50.7129   4
  -2  -4  -3 483.918 50.2824  45
   2  -4   3 571.576 100.179  52
   2  -4   3 436.376 78.7158  49
   2  -4   3 475.856 95.3375  35
  -2  -4  -3 351.717 79.2188  47
   2  -4   3 322.523 78.9877  47
   2  -4   3 529.966 74.1393  53
  -2  -4  -3 482.246 78.9619  40
  -2  -4  -3 653.364 96.7383  39
   2  -4   3 437.233 56.1928  38
   2  -4   3 467.134 49.3570   2
  -2  -4  -4 208.437 77.7578  49
   2  -4   4 334.120 71.8579  53
   2  -4   4 272.132 87.0889  52
  -2  -4  -4 296.939 50.2929  45
   2  -4   4 210.771 84.9306  48
   2  -4   4 347.711 46.4172   2
  -2  -4  -4 321.110 47.7521   8
  -2  -4  -4 337.380 84.2323  39
   2  -4   4 372.487 56.8052  38
   2  -4   4 291.108 47.0198   4
   2  -4   4 265.588 33.5231  37
   2  -4   4 213.918 83.4471  34
   2  -4   5 147.523 77.1260  48
   2  -4   5 70.3070 71.0344  52
  -2  -4  -5 183.579 49.9791  45
  -2  -4  -5 124.063 75.7454  32
  -2  -4  -5 144.517 44.9801   8
   2  -4   5 132.896 44.2641   4
  -2  -4  -5 102.460 59.2279  49
   2  -4   5 124.814 29.8973  37
  -2  -4  -5 178.763 67.7151  39
   2  -4   5 113.033 49.0297  54
   2  -4   5 119.087 85.5978  35
   2  -4   5 152.310 50.1831  38
   2  -4   6 18.7785 40.0624   4
   2  -4   6-15.0682 52.9989  53
  -2  -4  -6-9.25511 52.4494   7
  -2  -4  -6 70.5368 63.0932  32
  -2  -4  -6 8.69097 46.3994  45
   2  -4   6-8.26336 42.6089  38
   2  -4   6 54.3603 58.3877  48
   2  -4   6 20.6157 25.9952  37
  -2  -4  -6 18.7887 67.1251  40
  -2  -4  -6 73.7810 35.7794  21
   2  -4   6 52.8211 55.9744  52
   2  -4   6 19.4277 41.2297  54
  -2  -4  -6 31.1100 40.3879   8
  -2  -4  -6 73.3485 41.6514   9
   2  -4   6 5.83158 73.2734  35
   2  -4   7 264.669 39.5907   4
  -2  -4  -7 253.710 49.8020   7
   2  -4   7 307.591 43.1876  54
   2  -4   7 222.586 47.0216  53
  -2  -4  -7 317.392 53.0754  32
   2  -4   7 183.209 43.6181  48
  -2  -4  -7 307.348 44.3817  45
   2  -4   7 184.724 59.6408  35
  -2  -4  -7 275.674 56.4908  40
  -2  -4  -7 218.689 30.6796  21
  -2  -4  -7 210.009 38.4181   8
   2  -4   7 195.855 28.0776  37
  -2  -4  -8 5.71650 21.4874  62
   2  -4   8 73.9983 23.8696  54
   2  -4   8 77.7403 22.5938   4
  -2  -4  -8 67.4103 24.2796   8
   2  -4   8 55.3585 21.4300  38
  -2  -3  10 65.5529 30.4098  54
   2  -3 -10 41.1638 29.3028  64
   2  -3 -10 75.2679 25.1808  62
  -2  -3  10 25.9121 23.7692  38
   2  -3  -9 515.673 46.2685  62
   2  -3  -9 356.703 31.5807  60
   2  -3  -9 375.420 50.4093  64
   2  -3  -9 402.624 53.8965  21
  -2  -3   9 355.352 49.4533  38
  -2  -3   9 333.878 46.0488  53
   2  -3  -8 1344.00 73.4214  60
   2  -3  -8 1292.81 73.1101  14
   2  -3  -8 1513.38 94.0661  32
   2  -3  -8 1393.48 85.7164  21
  -2  -3   8 1277.58 95.3916  53
   2  -3  -8 1333.08 80.4966  62
  -2  -3   7 2257.54 143.994  35
   2  -3  -7 2802.16 136.889  32
  -2  -3   7 2271.92 146.107  48
   2  -3  -7 2207.76 114.698  60
   2  -3  -7 2799.82 121.816  62
   2  -3  -7 2163.46 121.819  20
   2  -3  -6 478.444 51.0011  60
  -2  -3   6 612.481 77.3522  52
   2  -3  -6 678.749 76.6957  32
   2  -3  -6 642.643 61.5180  20
   2  -3  -6 723.301 81.6218  39
   2  -3  -6 707.781 51.5151  62
   2  -3  -5 229.676 61.1683  32
  -2  -3   5 272.344 56.6739  47
   2  -3  -5 239.671 43.3528   3
   2  -3  -5 328.237 72.5425  39
   2  -3  -5 191.697 44.0212  20
   2  -3  -5 254.697 31.3554  62
   2  -3  -4 2077.50 125.216  47
   2  -3  -4 1984.88 99.7014   3
   2  -3  -4 2099.55 119.514  49
   2  -3  -4 1860.07 105.521  17
  -2  -3   4 2857.99 162.307  26
   2  -3  -4 1731.99 109.592  18
  -2  -3   4 2989.63 148.418  24
   2  -3  -4 2087.57 92.0944  13
   2  -3  -4 2296.12 131.925  39
  -2  -3   3 3683.82 176.460  39
   2  -3  -3 3951.37 188.137  49
  -2  -3   3 3953.70 179.889  49
   2  -3  -3 3785.46 172.188  32
   2  -3  -3 3840.31 174.140  17
   2  -3  -3 3724.36 159.741  13
   2  -3  -3 3650.44 189.978  34
   2  -3  -3 4074.52 194.377  47
  -2  -3   3 5179.63 221.297  26
   2  -3  -3 3979.97 191.795  39
   2  -3  -3 3850.25 186.454  23
  -2  -3   3 5556.07 213.069  24
  -2  -3   3 4404.68 183.427  31
   2  -3  -2 8415.12 349.988  34
  -2  -3   2 9473.25 367.589  50
   2  -3  -2 7966.05 335.069  52
   2  -3  -2 8285.58 327.785  32
  -2  -3   2 9330.86 378.299  51
   2  -3  -2 7586.76 350.656  50
   2  -3  -2 7515.51 330.762  48
   2  -3  -2 8444.25 347.992  49
   2  -3  -2 8148.07 320.182  13
  -2  -3   2 7968.40 330.274  30
   2  -3  -2 7850.46 347.158  47
  -2  -3   2 10771.0 374.167  26
   2  -3  -2 7823.64 325.128  24
  -2  -3   2 11539.7 370.107  24
   2  -3  -2 9171.41 354.848  23
   2  -3  -2 7863.87 332.233  17
  -2  -3   2 9656.61 344.770  31
  -2  -3   2 8504.07 344.424  49
   2  -3  -2 7552.89 321.068   1
  -2  -3   2 8502.79 340.842  39
   2  -3  -1 1236.12 63.8618  14
   2  -3  -1 1378.97 75.5494  17
   2  -3  -1 1178.88 92.7326  49
  -2  -3   1 1511.01 77.0144  17
   2  -3  -1 1167.27 112.094  34
  -2  -3   1 1412.09 85.0431  31
  -2  -3   1 1259.35 70.6441  32
  -2  -3   1 1352.91 79.5461  30
   2  -3  -1 1211.90 69.2397  32
   2  -3  -1 1218.40 103.741  51
  -2  -3   1 1483.42 106.632  51
   2  -3  -1 1216.07 83.9283  48
  -2  -3   1 1582.46 103.079  50
   2  -3  -1 1200.63 96.9776  50
   2  -3  -1 1170.97 104.894  47
   2  -3  -1 1279.30 92.5931  52
  -2  -3   1 1419.20 76.3488  27
   2  -3  -1 1196.70 72.4183  24
   2  -3  -1 1214.19 83.8127  35
  -2  -3   1 1318.88 93.3664  39
   2  -3  -1 1265.00 93.0834  39
   2  -3  -1 1309.17 61.1471  13
  -2  -3   0 3646.57 181.849  51
  -2  -3   0 3639.26 156.094  40
   2  -3   0 3601.52 161.001  53
   2  -3   0 3569.24 149.538  14
  -2  -3   0 3647.92 159.799  32
   2  -3   0 3443.94 174.130  52
   2  -3   0 3894.28 206.123  51
  -2  -3   0 3616.85 182.180  50
   2  -3   0 3458.99 189.954  50
  -2  -3   0 4253.98 163.824  17
   2  -3   0 3378.80 177.555  47
  -2  -3   0 3905.48 163.315  27
   2  -3   0 3439.77 147.190  13
   2  -3   0 3391.60 173.704  35
  -2  -3   0 4195.13 178.172  24
   2  -3   0 3798.40 174.834  48
   2  -3   0 3483.76 168.184  39
   2  -3   0 3501.32 150.161  38
  -2  -3   0 3716.89 174.584  30
  -2  -3  -1 843.084 66.2704  40
  -2  -3  -1 807.449 50.6421  45
   2  -3   1 926.076 104.563  34
  -2  -3  -1 800.616 69.1856  32
   2  -3   1 770.931 84.9414  52
   2  -3   1 760.064 48.0028  14
  -2  -3  -1 761.307 66.6364  24
   2  -3   1 969.131 68.0121  53
   2  -3   1 752.856 82.0138  49
   2  -3   1 791.637 81.0505  48
   2  -3   1 865.658 90.5741  47
   2  -3   1 863.930 84.3842  35
  -2  -3  -1 750.637 74.5572  51
   2  -3   1 805.893 66.9389  39
  -2  -3  -1 769.995 101.861  39
   2  -3   1 811.000 53.5609  38
  -2  -3  -1 969.694 65.4511  17
   2  -3   1 978.663 82.7863  26
   2  -3   2 1483.56 121.805  34
  -2  -3  -2 1672.36 81.2074  45
   2  -3   2 1567.56 97.4856  53
  -2  -3  -2 1684.16 95.7858  32
   2  -3   2 1417.94 109.253  52
   2  -3   2 1467.93 75.6452  14
   2  -3   2 1461.07 111.544  35
   2  -3   2 1345.54 104.686  47
  -2  -3  -2 1150.25 79.2636  28
   2  -3   2 1770.89 118.014  26
  -2  -3  -2 1389.46 98.1171  24
   2  -3   2 1405.79 104.300  49
  -2  -3  -2 1671.19 97.5325  40
  -2  -3  -2 1570.18 89.3363  17
  -2  -3  -2 1450.18 112.224  39
   2  -3   2 1616.59 85.6397  38
   2  -3   3 1686.05 107.246  53
   2  -3   3 1735.99 86.5118   4
  -2  -3  -3 1692.55 81.1498   7
   2  -3   3 1266.98 104.786  49
   2  -3   3 1610.11 114.620  34
   2  -3   3 1648.42 117.540  52
   2  -3   3 1474.52 115.918  48
  -2  -3  -3 1351.63 101.427  47
  -2  -3  -3 1876.35 91.6240  45
   2  -3   3 1535.18 81.6870  14
  -2  -3  -3 1659.39 112.919  39
   2  -3   3 1811.11 95.7720  38
  -2  -3  -3 1579.38 78.7992   8
   2  -3   3 1315.72 98.6092  47
   2  -3   3 1574.40 87.3326   2
   2  -3   4 160.742 72.3784  52
   2  -3   4 338.335 44.8894   4
   2  -3   4 253.706 35.2415  37
  -2  -3  -4 251.070 71.3666  32
   2  -3   4 223.616 69.1940  48
   2  -3   4 270.471 47.1309   2
  -2  -3  -4 293.893 55.3676  45
  -2  -3  -4 225.626 40.2341   8
  -2  -3  -4 183.181 66.0793  39
   2  -3   4 225.447 83.6105  35
   2  -3   4 309.168 51.1227  38
   2  -3   5 536.975 60.2796   2
   2  -3   5 467.978 90.4493  35
   2  -3   5 268.238 70.6798  52
   2  -3   5 417.360 76.4144  48
  -2  -3  -5 548.499 65.9451  45
   2  -3   5 476.217 63.4936  54
  -2  -3  -5 507.533 51.4591   8
  -2  -3  -5 554.571 85.1093  40
   2  -3   5 577.117 63.9564  38
   2  -3   5 526.538 73.9874  53
   2  -3   5 508.907 48.6637  37
  -2  -3  -5 467.479 79.4017  32
   2  -3   5 525.064 57.2049   4
   2  -3   6 1343.25 119.168  35
   2  -3   6 1109.06 92.3696  52
   2  -3   6 1101.99 97.2135  48
   2  -3   6 1672.66 101.900  54
   2  -3   6 1536.68 104.402  53
  -2  -3  -6 1746.08 99.4697  45
  -2  -3  -6 1608.67 104.393  32
   2  -3   6 1495.65 90.9990   2
   2  -3   6 1595.86 92.8777   4
  -2  -3  -6 1610.38 111.654  40
  -2  -3  -6 1307.14 76.8192  21
  -2  -3  -6 1369.91 84.3911   9
  -2  -3  -6 1529.70 83.3680   8
   2  -3   6 1448.93 83.7753  37
   2  -3   7 848.249 71.9095  54
   2  -3   7 846.564 73.1882  53
   2  -3   7 821.926 68.0818  38
  -2  -3  -7 914.730 75.4599  32
   2  -3   7 847.163 87.5823  35
  -2  -3  -7 778.793 62.1410   9
   2  -3   7 851.772 65.8282   2
  -2  -3  -7 776.086 53.9366  21
  -2  -3  -7 913.926 82.0956  40
   2  -3   7 982.951 69.6802   4
   2  -3   7 975.496 62.0939  37
  -2  -3  -7 918.795 62.2829   8
  -2  -3  -7 977.507 71.8961   7
   2  -3   8 369.240 41.9172  53
   2  -3   8 396.821 36.9641  37
   2  -3   8 439.039 46.1499  54
  -2  -3  -8 310.514 40.0026  62
  -2  -3  -8 456.140 50.5103  40
   2  -3   8 405.507 40.5052  38
   2  -3   8 475.257 44.8066   4
  -2  -3  -8 452.181 42.1491   8
   2  -2 -10 26.9644 16.5089  60
  -2  -2  10 47.4195 27.7650  37
  -2  -2  10 13.3115 28.7621  54
   2  -2 -10 39.5450 34.3743  64
   2  -2  -9 1444.56 73.6692  60
  -2  -2   9 1346.34 91.7935  54
   2  -2  -9 1534.43 91.7020  64
  -2  -2   9 1347.59 85.0761  38
   2  -2  -9 1456.48 84.7223  21
   2  -2  -9 1621.74 85.7725  62
   2  -2  -8 14711.3 522.659  64
  -2  -2   8 11515.3 516.999  53
   2  -2  -8 12759.5 512.140  32
   2  -2  -8 14045.2 515.723  62
   2  -2  -8 12343.5 506.830  21
   2  -2  -8 12809.6 503.729  60
   2  -2  -7 219.847 36.5610  62
   2  -2  -7 203.337 29.6346  16
   2  -2  -7 294.297 57.2368  32
   2  -2  -7 170.106 34.7829  60
   2  -2  -7 280.468 51.7482  45
   2  -2  -7 192.567 47.9978  21
   2  -2  -7 132.830 40.2130  20
  -2  -2   7 234.407 54.8137  48
   2  -2  -6 860.422 57.1749  62
  -2  -2   6 723.146 72.4234  35
   2  -2  -6 828.731 44.7771  16
   2  -2  -6 963.025 71.6809  32
   2  -2  -6 803.234 56.5581  60
   2  -2  -6 802.619 60.4714  20
   2  -2  -6 721.040 71.1227  39
   2  -2  -6 916.946 64.8013  45
   2  -2  -5 3117.43 129.073  16
   2  -2  -5 2962.68 147.146  18
   2  -2  -5 2590.23 149.197  31
   2  -2  -5 3790.62 150.254  32
  -2  -2   5 4035.86 199.021  26
   2  -2  -5 3680.39 148.057  40
   2  -2  -5 3502.29 158.870  39
   2  -2  -5 2907.00 145.118  17
   2  -2  -5 3321.11 142.397  45
  -2  -2   4 5062.73 194.157  28
  -2  -2   4 5248.76 200.717  18
   2  -2  -4 4787.72 199.177  47
   2  -2  -4 4550.58 194.934  18
   2  -2  -4 4320.79 193.445  31
  -2  -2   4 6050.03 235.826  26
   2  -2  -4 4775.27 224.528  25
   2  -2  -4 4487.21 179.552   1
  -2  -2   4 5718.61 199.794  31
   2  -2  -4 4808.73 204.344  39
   2  -2  -4 4866.60 192.657  32
  -2  -2   4 5020.39 201.309  25
   2  -2  -4 4619.19 206.342  50
   2  -2  -4 4592.35 191.376  17
   2  -2  -3 3618.81 166.128  17
  -2  -2   3 5359.50 195.739  24
  -2  -2   3 4426.16 170.819  31
   2  -2  -3 3824.80 184.601  51
  -2  -2   3 3973.35 160.494  28
   2  -2  -3 3760.04 170.550  31
   2  -2  -3 3490.75 156.057  13
   2  -2  -3 4500.21 210.937  25
   2  -2  -3 3805.34 180.804  47
  -2  -2   3 4675.47 183.768  27
  -2  -2   3 5196.74 204.422  26
   2  -2  -3 3816.22 180.575  50
   2  -2  -3 4336.78 177.166  23
   2  -2  -3 4094.50 181.741  39
  -2  -2   3 4067.54 172.795  18
   2  -2  -2 11095.6 446.242  50
   2  -2  -2 12046.8 429.286  14
   2  -2  -2 11408.3 451.614  51
  -2  -2   2 12742.1 439.260  31
   2  -2  -2 11321.7 440.280  31
  -2  -2   2 11824.7 430.358  30
   2  -2  -2 10975.3 431.874  32
   2  -2  -2 10561.5 443.610  34
   2  -2  -2 11337.9 445.502  47
  -2  -2   2 14794.0 463.509  26
   2  -2  -2 9336.70 424.702  24
   2  -2  -2 12697.0 452.025  23
   2  -2  -2 10813.3 433.031  17
   2  -2  -2 12574.7 479.954  25
   2  -2  -2 10930.3 443.679  39
   2  -2  -1 8641.66 313.588  23
  -2  -2   1 7862.93 287.469  17
   2  -2  -1 7020.92 305.225  50
  -2  -2   1 7444.90 307.604  51
  -2  -2   1 8049.52 300.248  31
   2  -2  -1 7296.73 297.487  31
   2  -2  -1 6998.63 299.453  49
  -2  -2   1 7557.34 295.167  30
   2  -2  -1 7285.56 308.514  51
   2  -2  -1 7645.55 331.348  25
   2  -2  -1 6577.95 300.011  47
  -2  -2   1 7603.84 304.269  50
   2  -2  -1 6599.07 296.055  39
   2  -2  -1 5972.22 300.518  34
   2  -2   0 329.544 50.3021  18
   2  -2   0 276.045 23.2697  13
  -2  -2   0 310.907 41.5489  17
   2  -2   0 314.723 77.0225  34
   2  -2   0 255.944 18.9030  27
   2  -2   0 279.379 54.7392  52
  -2  -2   0 329.507 55.4594  51
   2  -2   0 316.078 71.7942  51
   2  -2   0 316.440 50.4212  31
   2  -2   0 288.494 51.5745  48
  -2  -2   0 252.626 23.7907  28
   2  -2   0 366.106 50.2763  26
   2  -2   0 276.219 64.0732  47
   2  -2   0 270.201 72.7468  25
   2  -2   0 323.591 65.3280  23
  -2  -2   0 305.831 47.7473  30
   2  -2   0 311.906 27.5065  14
  -2  -2   0 284.715 53.6417  50
   2  -2   1 9123.43 350.794  53
  -2  -2  -1 8436.90 345.611  32
  -2  -2  -1 9538.25 367.371  30
   2  -2   1 7193.12 350.310  47
  -2  -2  -1 9383.98 346.967  28
  -2  -2  -1 9086.98 349.926  27
   2  -2   1 10717.0 368.998  26
  -2  -2  -1 9324.38 359.845  18
   2  -2   1 6800.59 376.023  25
  -2  -2  -1 8040.33 353.421  51
   2  -2   1 7888.66 355.460  49
   2  -2   1 8182.63 338.700  14
   2  -2   1 9220.80 370.931  23
   2  -2   1 9525.52 363.881  31
  -2  -2  -1 9256.62 361.299  50
  -2  -2  -1 8294.90 345.899  40
  -2  -2  -1 9676.28 347.140  17
  -2  -2  -1 9433.66 360.614  24
   2  -2   1 7688.00 353.516  34
   2  -2   1 8988.54 343.207  38
   2  -2   1 8386.08 358.840  35
   2  -2   1 9380.36 354.625  18
   2  -2   2 3613.30 162.806  53
   2  -2   2 2992.97 164.250  49
  -2  -2  -2 3917.89 176.342  18
  -2  -2  -2 3689.71 159.276  32
   2  -2   2 3023.10 159.486  47
   2  -2   2 3499.58 167.689  52
   2  -2   2 3467.86 147.861  14
  -2  -2  -2 3199.78 172.276  50
   2  -2   2 3489.70 169.819  48
  -2  -2  -2 3304.34 167.833  51
  -2  -2  -2 3713.45 163.675  28
  -2  -2  -2 3721.53 153.100  45
  -2  -2  -2 3567.61 170.700  24
   2  -2   2 3583.01 175.592  35
   2  -2   2 3822.32 184.606  23
  -2  -2  -2 3553.14 160.787  40
  -2  -2  -2 3101.28 176.164  39
   2  -2   2 3774.43 155.040  38
  -2  -2  -2 3778.45 158.123  17
   2  -2   2 4273.39 184.264  26
  -2  -2  -3 3374.69 167.913  23
  -2  -2  -3 4053.37 142.355  16
  -2  -2  -3 3569.92 163.789  32
  -2  -2  -3 3085.44 184.910  31
   2  -2   3 2992.84 168.952  48
  -2  -2  -3 3228.48 169.804  28
  -2  -2  -3 3637.75 149.237  41
   2  -2   3 3996.59 193.207  26
  -2  -2  -3 3327.15 160.107  17
  -2  -2  -3 3612.50 157.696  45
   2  -2   3 3644.87 159.530  38
   2  -2   3 3102.73 175.879  35
  -2  -2  -3 3278.63 167.271  39
   2  -2   3 3006.09 166.931  52
   2  -2   4 1620.76 117.202  35
   2  -2   4 1660.78 95.1482   2
  -2  -2  -4 1875.12 76.3990  16
   2  -2   4 1824.18 100.649  54
   2  -2   4 1739.62 106.446  53
  -2  -2  -4 1734.10 102.848  32
   2  -2   4 1446.87 106.937  48
  -2  -2  -4 1784.95 98.1491  45
   2  -2   4 1359.13 101.139  52
  -2  -2  -4 1755.77 86.8011  41
  -2  -2  -4 1746.82 108.042  40
  -2  -2  -4 1324.84 96.6540  39
   2  -2   4 1754.42 87.6729  37
  -2  -2  -4 1588.18 81.8558   8
   2  -2   5 613.548 66.7777   2
   2  -2   5 564.755 68.7099  48
  -2  -2  -5 738.099 43.5391  16
   2  -2   5 762.938 68.3639  54
   2  -2   5 643.716 70.5661  53
  -2  -2  -5 730.110 73.0395  32
   2  -2   5 604.466 67.4867  52
  -2  -2  -5 611.763 54.1293  41
  -2  -2  -5 735.104 83.5143  40
  -2  -2  -5 511.173 48.4489  21
  -2  -2  -5 664.370 57.0921   9
   2  -2   5 633.814 62.8032  38
   2  -2   5 734.304 55.6296  37
  -2  -2  -5 685.299 53.0587   8
   2  -2   5 595.799 83.8612  35
   2  -2   6 700.907 89.5806  35
   2  -2   6 888.805 78.2149  54
  -2  -2  -6 1012.33 52.2101  16
  -2  -2  -6 930.926 88.3219  40
  -2  -2  -6 771.009 75.6591  32
   2  -2   6 726.637 69.6332   4
   2  -2   6 959.779 80.4005   2
   2  -2   6 633.385 67.8065  48
  -2  -2  -6 875.606 64.6047  41
  -2  -2  -6 781.598 54.7756  21
  -2  -2  -6 830.816 65.1636   9
  -2  -2  -6 880.849 63.0229   8
   2  -2   6 722.299 74.5289  53
   2  -2   6 833.752 71.0392  38
   2  -2   6 829.239 63.3267  37
   2  -2   7 1172.69 84.1128  53
  -2  -2  -7 1299.87 83.8245   7
   2  -2   7 1338.70 90.5916   2
   2  -2   7 1073.50 75.4047  36
  -2  -2  -7 1109.67 80.3789  32
  -2  -2  -7 1395.17 88.5948  45
   2  -2   7 1352.52 87.3916   4
  -2  -2  -7 1318.19 77.6855  41
  -2  -2  -7 1171.65 65.9273  21
  -2  -2  -7 1149.34 91.5718  40
  -2  -2  -7 1213.46 76.9800   9
   2  -2   7 1204.46 97.1068  35
   2  -2   7 1167.47 80.1634  38
  -2  -2  -7 1312.07 76.4765   8
   2  -2   7 1287.42 78.3092  37
  -2  -2  -8 67.8928 30.3636  62
   2  -2   8 116.618 45.2638   2
  -2  -2  -8 49.1357 38.3791   8
   2  -2   8 47.7372 41.7391   4
  -2  -2  -8 83.9071 42.7151  45
  -2  -2  -8 95.1298 25.6834  21
  -2  -2  -8 119.085 43.7867  40
   2  -2   8 88.1337 31.4936  38
   2  -2   8 90.4238 32.1537  53
   2  -2   8 87.2858 30.4582  37
   2  -2   9 342.563 34.7081  54
  -2  -2  -9 306.602 28.9754  64
   2  -2   9 458.021 38.1536   4
  -2  -2  -9 447.855 36.2854  45
  -2  -2  -9 214.203 27.9784  62
  -2  -2  -9 331.508 34.3116   8
   2  -2   9 396.060 33.7544   2
   2  -2   9 434.371 32.8950  37
   2  -1 -11 231.062 30.3592  64
   2  -1 -11 231.071 24.9891  62
   2  -1 -10 12.4982 28.6966  62
   2  -1 -10 24.4772 19.3117  60
  -2  -1  10 24.4273 26.9018  37
   2  -1 -10 21.2833 35.4332  21
  -2  -1   9 332.311 46.6569  54
   2  -1  -9 289.086 32.9086  16
   2  -1  -9 371.875 48.6262  21
   2  -1  -9 362.377 34.9112  60
  -2  -1   9 302.363 39.0740  38
   2  -1  -9 413.696 44.9239  62
   2  -1  -8 429.384 53.3401  64
   2  -1  -8 415.014 38.7094  16
   2  -1  -8 415.740 50.5885  21
   2  -1  -8 399.973 39.1013  60
  -2  -1   8 426.733 47.9066  38
   2  -1  -7 1847.65 91.9479  60
   2  -1  -7 1868.88 88.8780  16
   2  -1  -7 2029.41 101.443  45
   2  -1  -7 2016.37 99.9208  32
   2  -1  -7 1937.46 96.7010  21
   2  -1  -7 1906.60 103.737  64
   2  -1  -6 2653.57 119.641  62
   2  -1  -6 2169.34 109.633  16
   2  -1  -6 2604.58 116.808  21
   2  -1  -6 2862.27 121.785  45
  -2  -1   6 3224.00 169.385  50
   2  -1  -6 2862.24 119.681  60
   2  -1  -6 2775.62 122.408  32
   2  -1  -5 2248.05 113.244  30
  -2  -1   5 2249.11 117.002  18
   2  -1  -5 2015.18 106.455  39
   2  -1  -5 1914.30 88.4988  16
   2  -1  -5 2001.42 93.0899   1
   2  -1  -5 2329.33 102.064  32
  -2  -1   5 3115.74 141.663  50
   2  -1  -5 1678.97 97.0350  31
  -2  -1   5 2472.21 98.5257  23
  -2  -1   5 2283.06 117.090  28
   2  -1  -5 1949.44 100.857  18
  -2  -1   5 3009.21 154.514  26
   2  -1  -5 2373.90 99.3794  45
   2  -1  -5 1675.22 95.9320  31
   2  -1  -5 2356.46 98.3404  40
   2  -1  -4 5920.31 274.736  16
   2  -1  -4 7676.26 285.395  32
   2  -1  -4 6619.50 281.710  31
  -2  -1   4 7126.43 289.376  25
   2  -1  -4 6996.87 285.755  31
  -2  -1   4 8286.63 299.124  28
  -2  -1   4 9210.19 312.294  27
  -2  -1   4 9573.31 330.316  26
   2  -1  -4 7400.35 282.323  45
   2  -1  -4 8047.01 299.538  30
   2  -1  -4 7715.04 280.541   1
   2  -1  -4 7080.85 285.614  17
   2  -1  -4 6889.54 283.544  18
  -2  -1   4 8170.70 293.053  18
  -2  -1   4 8026.57 290.008  17
   2  -1  -3 15374.5 686.760  25
   2  -1  -3 17237.9 672.047  50
   2  -1  -3 15860.2 662.771  31
  -2  -1   3 19519.0 673.387  28
  -2  -1   3 21197.4 691.369  26
  -2  -1   3 21547.5 681.295  24
  -2  -1   3 19205.3 661.775  31
  -2  -1   3 17819.5 665.696  18
   2  -1  -3 16365.7 663.601  17
   2  -1  -3 15439.9 661.898  18
   2  -1  -2 38897.5 1422.88  50
  -2  -1   2 38343.8 1416.23  31
   2  -1  -2 35917.0 1419.05  31
  -2  -1   2 42729.1 1430.85  26
   2  -1  -2 38477.4 1447.70  25
   2  -1  -2 35455.6 1429.02  23
  -2  -1   2 38189.4 1415.59  30
  -2  -1   2 37485.9 1419.44  28
   2  -1  -2 35905.0 1416.06  17
  -2  -1   1 28336.8 1059.68  17
  -2  -1   1 29467.2 1066.49  50
   2  -1  -1 28499.8 1069.17  51
   2  -1  -1 27391.2 1067.63  50
   2  -1  -1 28745.1 1068.33  31
   2  -1  -1 24713.8 1058.17  27
   2  -1  -1 28275.7 1078.67  23
   2  -1  -1 27367.9 1092.21  25
   2  -1  -1 31455.2 1064.72  24
  -2  -1   1 28678.0 1068.72  51
   2  -1  -1 28692.4 1061.95  18
  -2  -1   1 32807.1 1070.29  26
  -2  -1   0 6506.34 252.315  17
   2  -1   0 6270.88 250.914  27
  -2  -1   0 5936.20 254.438  51
   2  -1   0 7075.39 269.611  51
   2  -1   0 6326.73 263.880  31
   2  -1   0 6393.69 257.699  18
  -2  -1   0 6786.14 257.074  28
  -2  -1   0 6929.62 260.717  50
   2  -1   0 6669.13 257.363  26
   2  -1   1 643.275 51.9914  26
   2  -1   1 597.211 63.0310  31
  -2  -1  -1 603.406 59.3962  50
  -2  -1  -1 619.248 62.6865  30
  -2  -1  -1 743.059 56.6885  28
   2  -1   1 738.610 43.8332  27
   2  -1   1 698.437 62.3698  18
   2  -1   1 655.412 74.8071  23
  -2  -1  -1 612.631 48.8253  17
  -2  -1  -2 3713.34 163.920  45
   2  -1   2 3652.41 187.561  31
  -2  -1  -2 3853.57 167.010  17
   2  -1   2 3444.36 170.503  52
   2  -1   2 4617.32 173.574  27
  -2  -1  -2 3932.86 185.565  30
   2  -1   2 3574.89 175.900  29
  -2  -1  -2 4498.17 181.761  28
   2  -1   2 3792.53 178.858  26
   2  -1   2 3883.52 172.355  11
   2  -1   2 4132.07 183.413  24
   2  -1   2 3932.04 165.682  54
  -2  -1  -2 3714.22 179.732  23
   2  -1   2 3569.02 185.391  23
   2  -1   2 3983.39 161.551  14
  -2  -1  -2 3899.89 169.704  40
  -2  -1  -2 3956.95 161.859  46
   2  -1   2 4109.52 181.891  18
   2  -1   2 4189.80 160.615  37
   2  -1   2 3724.70 172.950  48
  -2  -1  -2 3794.32 166.619  32
  -2  -1  -2 4290.62 186.120  18
   2  -1   2 4056.80 167.701  17
   2  -1   3 546.674 72.2207  23
   2  -1   3 611.584 49.9563  54
  -2  -1  -3 535.669 54.5027  32
  -2  -1  -3 566.798 49.0757  46
   2  -1   3 534.924 67.0881  35
   2  -1   3 620.582 73.7871  50
  -2  -1  -3 562.200 37.2581  16
   2  -1   3 500.623 58.0051  29
   2  -1   3 545.092 52.4213  53
   2  -1   3 582.963 50.9490  27
  -2  -1  -3 594.843 65.5239  28
   2  -1   3 496.282 55.5111  48
   2  -1   3 541.334 65.1164  26
   2  -1   3 611.628 53.7034  11
  -2  -1  -3 525.192 56.8920  23
  -2  -1  -3 581.870 71.0012  31
  -2  -1  -3 606.774 49.0261  41
  -2  -1  -3 505.284 61.7730  40
   2  -1   3 535.060 58.5862  52
   2  -1   3 536.788 46.5966  38
   2  -1   3 596.643 41.3689  37
  -2  -1  -4 1467.31 68.5341  16
   2  -1   4 1244.10 83.4538  48
   2  -1   4 1588.77 86.8107  54
   2  -1   4 1291.08 98.7704  35
  -2  -1  -4 1594.15 82.2910  46
  -2  -1  -4 1335.24 84.2716  32
   2  -1   4 1464.66 87.2358  53
   2  -1   4 1546.80 110.582  51
  -2  -1  -4 1456.85 85.0361  45
   2  -1   4 1404.28 88.2189  11
   2  -1   4 1210.84 103.003  26
  -2  -1  -4 1686.78 83.5098  41
  -2  -1  -4 1466.72 94.0897  40
   2  -1   4 1218.42 83.2647  52
   2  -1   4 1260.15 79.1534  38
   2  -1   4 1526.18 77.3086  37
  -2  -1  -4 1415.15 70.9301   8
   2  -1   5 399.158 53.7416  53
   2  -1   5 452.640 42.5448   6
  -2  -1  -5 339.471 53.1896  32
   2  -1   5 276.170 46.3532  48
  -2  -1  -5 438.333 55.6527  46
  -2  -1  -5 431.206 60.7558  45
   2  -1   5 373.718 61.4893   2
   2  -1   5 387.804 46.5696   5
  -2  -1  -5 419.167 54.4036  41
  -2  -1  -5 525.208 70.6500  40
  -2  -1  -5 357.466 37.9185  21
  -2  -1  -5 386.104 48.8957   9
   2  -1   5 317.173 66.6144  35
   2  -1   5 367.304 48.4292  38
  -2  -1  -5 410.317 39.3480  16
  -2  -1  -5 387.015 42.4692   8
   2  -1   5 432.083 44.8541  37
  -2  -1  -6 660.630 48.5370  16
   2  -1   6 584.179 50.2978   6
  -2  -1  -6 521.167 57.8583  32
  -2  -1  -6 565.037 68.1792  45
   2  -1   6 578.872 53.6706   5
  -2  -1  -6 660.652 62.8564  41
  -2  -1  -6 560.032 73.1319  40
  -2  -1  -6 514.429 45.4839  21
  -2  -1  -6 545.793 57.6555   9
   2  -1   6 569.941 74.8017   2
   2  -1   6 604.760 55.7564  37
  -2  -1  -6 544.732 52.1805   8
   2  -1   6 510.930 53.4946  38
   2  -1   6 495.680 58.4158  53
   2  -1   6 544.569 74.2038  35
   2  -1   7 913.090 71.9359  53
   2  -1   7 1048.97 84.6115  35
   2  -1   7 1232.42 94.6539   2
   2  -1   7 1032.92 80.0043  54
  -2  -1  -7 1236.80 82.7768  45
   2  -1   7 1064.52 68.1125   5
  -2  -1  -7 1166.09 78.5778  41
  -2  -1  -7 1105.47 61.1031  21
  -2  -1  -7 1051.89 82.7247  40
  -2  -1  -7 1187.33 61.9769  16
   2  -1   7 1075.60 76.9622  36
   2  -1   7 959.642 69.7948  38
  -2  -1  -7 1046.48 70.6595   8
   2  -1   7 1155.71 73.8509  37
  -2  -1  -7 1162.03 77.3103   9
   2  -1   8 954.508 68.1132  36
  -2  -1  -8 719.087 58.3870  62
   2  -1   8 880.299 59.2777  38
   2  -1   8 1046.22 82.2877   2
  -2  -1  -8 719.580 58.1214  64
   2  -1   8 976.019 72.5337  54
  -2  -1  -8 1093.07 69.9004  41
  -2  -1  -8 1083.92 53.5360  21
  -2  -1  -8 1053.30 67.8550   9
  -2  -1  -8 1193.86 54.7155  16
  -2  -1  -8 1085.41 70.4851  45
   2  -1   8 1064.47 66.7299  37
  -2  -1  -8 1160.40 69.8529   8
   2  -1   9 321.075 49.1260  55
   2  -1   9 430.489 42.5387   4
   2  -1   9 302.388 35.1191  54
  -2  -1  -9 349.043 35.3031  45
   2  -1   9 404.671 46.1317   2
  -2  -1  -9 228.477 25.0317  64
  -2  -1  -9 197.898 23.8661  62
  -2  -1  -9 355.150 38.7018   8
   2   0 -11 675.794 36.1076  21
   2   0 -11 578.181 39.6369  64
   2   0 -11 560.825 34.5341  62
   2   0 -10 58.7513 26.9001  62
   2   0 -10 29.9765 24.9637  16
   2   0 -10 49.1594 21.2532  60
  -2   0  10 59.0302 24.9625  37
   2   0 -10 81.1557 36.3969  64
   2   0 -10 17.7984 33.5639  21
   2   0  -9 3226.61 148.952  16
   2   0  -9 3512.59 148.930  60
   2   0  -9 3529.65 152.221  21
   2   0  -9 3753.07 165.312  64
  -2   0   9 3472.60 157.470  37
   2   0  -9 3751.03 158.730  62
   2   0  -8 5206.17 204.942  60
  -2   0   8 4852.74 212.545  54
   2   0  -8 5563.48 214.314  62
   2   0  -8 5146.78 206.508  21
   2   0  -7 2420.43 112.755  62
   2   0  -7 2689.07 109.782  60
   2   0  -7 2515.47 112.413  45
   2   0  -7 2479.30 110.381  21
   2   0  -6 9375.79 330.955  62
   2   0  -6 9204.62 327.307  60
  -2   0   6 8270.38 343.092  29
   2   0  -6 8270.43 326.395  45
  -2   0   6 9246.55 376.836  50
   2   0  -6 8970.76 330.008  41
   2   0  -6 8389.48 325.179  21
  -2   0   5 1411.53 70.3229  24
  -2   0   5 1564.79 79.6059  17
  -2   0   5 1818.84 105.751  50
  -2   0   5 1651.92 77.1816  29
   2   0  -5 1412.20 65.9460  41
  -2   0   5 1601.40 111.625  51
  -2   0   5 1787.75 117.457  26
   2   0  -5 1397.62 64.5919  45
   2   0  -5 1143.05 58.5373  16
  -2   0   4 10484.5 242.024  17
  -2   0   4 11185.2 279.957  51
  -2   0   4 12266.2 273.951  50
  -2   0   4 7584.08 229.772  25
  -2   0   4 11066.2 241.010  29
  -2   0   4 9699.65 259.301  28
   2   0  -4 8835.35 227.217  45
  -2   0   4 11350.8 295.844  26
  -2   0   4 10137.5 230.872  23
   2   0  -4 9272.37 231.532   1
  -2   0   3 4269.45 186.688  25
  -2   0   3 4291.48 170.601  24
  -2   0   3 4472.43 193.815  26
  -2   0   3 4859.34 183.474  50
  -2   0   3 3952.42 170.527  30
  -2   0   3 4271.80 168.701  29
  -2   0   3 4361.93 179.834  27
  -2   0   3 4392.99 180.290  23
  -2   0   3 4107.56 170.994  17
  -2   0   3 4607.35 189.445  51
  -2   0   2 12907.9 488.337  50
  -2   0   2 12718.5 494.719  51
  -2   0   2 14041.7 499.119  26
  -2   0   2 13499.6 487.737  11
  -2   0   2 14037.7 489.314  24
  -2   0   2 11449.1 492.526  30
  -2   0   2 12178.6 485.251  17
  -2   0   1 98.5058 30.4990  11
   2   0  -1 73.4260 21.0311  27
  -2   0   1 65.4438 27.4339  18
  -2   0   1 61.9238 30.5008  31
   2   0  -1 97.9179 33.7833  31
  -2   0   1 80.4418 19.7277  29
   2   0  -1 72.6368 21.6119  24
   2   0   0 3355.49 114.068  18
  -2   0   0 3645.51 114.677  11
   2   0   0 3679.66 113.844  24
   2   0   0 3818.05 107.794  50
   2   0   0 3365.75 99.0475  17
   2   0   0 3025.30 119.675  31
  -2   0   0 3603.20 108.644  29
   2   0   0 3360.52 107.125  27
   2   0   1 2888.22 138.645  18
  -2   0  -1 2782.69 134.482  28
   2   0   1 3032.20 123.849  17
   2   0   1 3283.31 128.248  51
   2   0   1 3018.84 135.028  24
   2   0   1 3331.55 135.454  50
   2   0   1 2627.46 142.960  31
  -2   0  -1 2947.64 130.270  29
   2   0   1 3154.73 128.602  27
   2   0   1 2298.74 126.016  26
   2   0   2 6082.01 227.043  17
   2   0   2 5807.28 224.378  54
   2   0   2 5734.98 241.815  18
   2   0   2 5385.94 224.442  53
  -2   0  -2 5131.57 250.536  25
   2   0   2 6225.98 236.409  51
   2   0   2 6798.98 245.294  50
   2   0   2 4728.69 244.340  31
  -2   0  -2 5677.27 234.781  29
  -2   0  -2 6046.32 240.927  28
   2   0   2 6123.13 233.057  27
  -2   0  -2 5298.86 223.403  46
   2   0   2 4753.00 234.766  26
  -2   0  -2 5668.19 234.722  11
   2   0   2 5901.18 240.902  24
  -2   0  -2 5596.93 235.333  23
  -2   0  -2 5300.93 224.654  41
  -2   0  -2 5258.53 222.290  45
   2   0   2 5144.40 220.175  38
   2   0   2 5695.76 220.185  37
   2   0   2 5239.14 232.856  35
   2   0   3 588.644 59.7831  35
  -2   0  -3 500.132 48.4668  56
   2   0   3 562.118 56.6880  29
   2   0   3 691.955 69.5309  51
   2   0   3 714.349 74.6203  50
   2   0   3 617.235 50.9550  27
  -2   0  -3 582.006 52.0700  46
  -2   0  -3 488.830 61.7510  28
  -2   0  -3 498.774 48.2160  45
   2   0   3 495.375 63.7988  26
  -2   0  -3 499.447 56.9833  40
  -2   0  -3 495.403 67.8662  25
  -2   0  -3 576.857 66.2458  31
  -2   0  -3 677.354 58.8361  23
  -2   0  -3 568.515 51.3245  42
  -2   0  -3 520.987 50.8080  41
  -2   0  -3 484.897 47.4267  32
   2   0   3 670.354 54.6675  17
   2   0   3 509.674 40.9167  38
   2   0   3 465.904 44.5648  53
   2   0   3 600.444 40.4326  37
   2   0   3 554.685 52.4687  11
  -2   0  -3 552.957 38.5983  16
   2   0   4-11.2748 32.0772  53
   2   0   4 28.0710 33.6432  54
  -2   0  -4 35.7298 40.8409  42
  -2   0  -4-8.01820 28.5902  16
  -2   0  -4 1.03452 37.3668  56
   2   0   4 2.82602 57.9451  50
   2   0   4 7.61275 26.4402  27
   2   0   4 22.9546 51.5433  51
  -2   0  -4-11.7798 36.1721  32
  -2   0  -4-4.83457 47.7679  31
   2   0   4 8.68478 39.6588  29
  -2   0  -4 0.99139 42.8907  46
  -2   0  -4-20.0244 50.0280  28
  -2   0  -4 10.5200 41.3254  45
   2   0   4-20.6922 48.5103  26
   2   0   4 1.60051 32.8171  11
  -2   0  -4 6.18897 33.3088  23
  -2   0  -4 20.8006 41.0647  41
  -2   0  -4-36.2945 49.9427  40
   2   0   4-0.90671 26.5018  37
   2   0   4-14.7353 26.0800  38
   2   0   4 4.85090 46.5946  35
  -2   0  -5 138.848 35.9891  16
  -2   0  -5 198.148 44.5736  56
  -2   0  -5 181.507 50.1549  41
   2   0   5 169.839 42.0000  54
   2   0   5 184.830 35.4999   6
   2   0   5 216.061 52.9360  35
  -2   0  -5 177.625 47.9459  45
  -2   0  -5 116.262 53.7665  40
  -2   0  -5 189.034 30.8656  21
   2   0   5 172.423 36.2632  53
   2   0   5 202.637 49.4241   5
  -2   0  -5 170.562 44.2830   9
  -2   0  -5 184.499 36.5982   8
   2   0   5 199.485 34.1118  38
   2   0   6 70.8743 35.9294   6
   2   0   6 67.5746 45.5981  35
  -2   0  -6 48.7954 36.7048  16
  -2   0  -6 104.274 43.5033  56
   2   0   6 40.4784 41.0159  54
  -2   0  -6 67.3489 48.6223  45
   2   0   6 118.565 44.1727  36
  -2   0  -6 116.226 54.2334  41
  -2   0  -6 38.3563 52.7653  40
  -2   0  -6 89.0363 30.3371  21
   2   0   6 135.850 51.4923   5
  -2   0  -6 107.368 47.7697   9
  -2   0  -6 66.5216 42.1056   8
   2   0   6 60.6596 31.8897  53
   2   0   6 37.4410 30.2798  38
   2   0   7 1194.27 80.9632  36
  -2   0  -7 872.175 61.9195  64
   2   0   7 1030.32 76.3754  54
   2   0   7 1196.80 67.1340   6
   2   0   7 1088.14 96.6799   2
  -2   0  -7 1098.91 62.6618  16
  -2   0  -7 1205.13 77.4895  45
   2   0   7 1286.46 78.3245   5
  -2   0  -7 1071.18 58.1471  21
  -2   0  -7 1141.55 77.0857   9
   2   0   7 1096.33 71.1823  37
  -2   0  -7 965.135 72.4677  40
   2   0   7 979.104 61.9588  38
  -2   0  -7 1218.12 72.8499   8
  -2   0  -8 129.019 44.1082   8
  -2   0  -8 32.0512 20.5282  62
  -2   0  -8 113.397 29.0290  16
  -2   0  -8 95.2710 38.4161  45
   2   0   8 78.9665 38.3971  36
   2   0   8 85.3975 36.2929  54
   2   0   8 122.865 62.9924   2
   2   0   8 109.165 42.7980   5
  -2   0  -8 160.273 26.6775  21
  -2   0  -8 77.3308 46.1227   9
   2   0   8 108.495 34.1997  37
  -2   0  -8 60.8521 24.8605  64
   2   0   9 404.786 37.7161  54
   2   0   9 533.180 56.3034   2
  -2   0  -9 437.028 28.9708  16
   2   0   9 387.090 53.1157  55
   2   0   9 381.235 40.0814  36
  -2   0  -9 447.959 25.8317  21
   2   0   9 405.719 36.1054  37
   2   1 -11 246.989 22.7624  21
   2   1 -11 183.795 22.8882  64
   2   1 -10 24.1828 20.2049  62
   2   1 -10-1.66909 25.4609  16
  -2   1  10 28.8138 39.6512  36
   2   1 -10 22.2229 29.3623  21
   2   1 -10 7.90183 28.7999  64
   2   1  -9 230.670 33.8545  12
   2   1  -9 405.085 47.0883  64
   2   1  -9 323.232 34.4431  60
   2   1  -9 379.648 43.6291  21
   2   1  -9 298.299 40.9051  16
  -2   1   9 366.316 35.1655  37
   2   1  -9 415.536 38.5557  62
   2   1  -8 357.851 43.7521  16
  -2   1   8 403.024 55.0910  55
   2   1  -8 428.881 46.1102  21
   2   1  -8 487.908 40.3849  60
   2   1  -8 402.286 49.3675  64
  -2   1   8 425.706 38.9103  37
   2   1  -8 493.869 42.2502  62
   2   1  -7 1802.65 93.9513  16
  -2   1   7 2001.34 111.467  55
   2   1  -7 2188.01 101.429  41
   2   1  -7 2078.96 97.6934  62
   2   1  -7 1989.96 102.879  64
   2   1  -7 1917.14 94.0213  21
   2   1  -7 2228.94 95.4265  60
   2   1  -6 2524.66 112.713  16
  -2   1   6 2444.50 125.839  55
   2   1  -6 2625.59 113.646  21
   2   1  -6 2450.65 137.857  28
  -2   1   6 2443.42 134.211  29
   2   1  -6 2792.09 122.477  64
   2   1  -6 2915.09 119.443  41
   2   1  -6 2902.17 118.021  62
  -2   1   5 2269.69 92.9771  55
   2   1  -5 2311.15 82.0719  16
   2   1  -5 2711.17 99.4560  56
  -2   1   5 2398.76 139.203  51
  -2   1   5 2427.20 128.299  50
  -2   1   5 2297.72 103.376  30
  -2   1   5 2686.76 104.542  29
   2   1  -5 2415.44 107.978  28
  -2   1   5 2562.90 89.0120  11
   2   1  -5 2321.74 86.2119  41
  -2   1   4 8512.89 294.575  29
   2   1  -4 6664.08 277.871  31
   2   1  -4 8278.66 288.082  56
  -2   1   4 7605.56 316.722  51
  -2   1   4 7742.79 311.429  50
  -2   1   4 7271.92 296.188  30
   2   1  -4 7311.99 282.324  29
   2   1  -4 6746.72 277.195  16
  -2   1   4 7705.90 290.642  17
  -2   1   4 6644.17 293.037  25
  -2   1   3 16725.8 650.360  17
  -2   1   3 17030.7 669.895  51
  -2   1   3 18988.8 653.362  27
  -2   1   3 17342.7 664.919  50
  -2   1   3 16529.6 659.078  30
  -2   1   3 15590.9 665.730  25
   2   1  -3 17323.1 644.352  29
  -2   1   3 16049.5 650.409  23
  -2   1   2 35833.4 1162.49  51
  -2   1   2 33824.1 1140.20  27
   2   1  -2 37741.3 1158.72  26
   2   1  -2 35664.8 1140.44  11
   2   1  -1 28906.5 1097.58  27
   2   1  -1 27833.2 1093.73  11
  -2   1   1 29681.1 1087.49  27
   2   1  -1 28758.5 1089.31  29
  -2   1   1 25942.3 1094.25  26
   2   1  -1 30772.1 1097.36  26
  -2   1   1 28500.1 1096.17  11
   2   1  -1 31087.5 1100.66  24
   2   1   0 6141.73 241.638  29
   2   1   0 6649.53 249.650  50
  -2   1   0 6078.18 245.727  29
   2   1   0 6338.41 244.750  27
   2   1   0 7086.65 246.997  26
  -2   1   0 6087.09 245.080  11
   2   1   0 6353.67 249.162  24
   2   1   1 663.600 63.7797  51
   2   1   1 666.043 46.4692  17
   2   1   1 729.503 64.7864  50
  -2   1  -1 556.559 50.1862  29
  -2   1  -1 613.059 58.1738  28
  -2   1  -1 586.591 50.0880  11
   2   1   1 622.095 49.8899  24
   2   1   2 4171.09 165.592  36
   2   1   2 3926.34 162.598  54
   2   1   2 4060.99 163.139  53
   2   1   2 4092.01 171.482  35
  -2   1  -2 4286.09 179.696  18
   2   1   2 4253.02 169.664  17
   2   1   2 4285.32 185.377  51
   2   1   2 4618.11 191.735  50
  -2   1  -2 3186.08 169.950  56
  -2   1  -2 3826.45 174.471  29
   2   1   2 4029.93 174.697  29
  -2   1  -2 4084.91 181.912  28
  -2   1  -2 3500.90 160.817  45
   2   1   2 3882.14 159.610  37
  -2   1  -2 4096.01 174.648  11
  -2   1  -2 4092.99 191.674  25
  -2   1  -2 4385.71 181.251  23
  -2   1  -2 3360.60 169.500  42
  -2   1  -3 565.686 38.7334  16
  -2   1  -3 532.279 59.7021  56
   2   1   3 569.405 42.1580  53
   2   1   3 545.834 44.2708  54
   2   1   3 700.305 77.7843  51
   2   1   3 594.012 75.1023  50
  -2   1  -3 480.931 63.2206  31
   2   1   3 516.339 55.4536  29
  -2   1  -3 564.268 60.8050  28
   2   1   3 573.381 40.1804  37
   2   1   3 600.933 47.9109  36
  -2   1  -3 531.705 47.5741  45
   2   1   3 662.317 58.4768  11
  -2   1  -3 522.727 61.6324  25
  -2   1  -3 602.050 61.5836  23
  -2   1  -3 507.603 60.0002  42
  -2   1  -3 507.079 54.4116  41
   2   1   3 566.135 36.9208  38
  -2   1  -3 697.193 67.7939  18
   2   1   3 654.461 56.4766  35
   2   1   4 1575.76 85.0645  36
  -2   1  -4 1479.63 71.2992  16
  -2   1  -4 1354.56 85.5947  41
   2   1   4 1440.14 75.9704  53
   2   1   4 1519.85 88.2658  35
   2   1   4 1425.95 114.843  51
   2   1   4 1507.09 117.801  50
  -2   1  -4 1273.79 98.3116  31
   2   1   4 1319.75 88.6844  11
  -2   1  -4 1534.38 91.3629  42
  -2   1  -4 1400.85 88.0869  56
  -2   1  -4 1409.75 82.9967  40
  -2   1  -4 1377.89 76.9076   9
   2   1   4 1438.83 74.6010  37
  -2   1  -4 1472.35 79.1081  45
   2   1   4 1419.49 70.6098  38
   2   1   4 1461.55 79.1952  54
   2   1   5 377.941 46.0688  54
  -2   1  -5 370.359 56.8412  56
   2   1   5 333.591 42.5992   6
   2   1   5 398.218 42.0030  37
  -2   1  -5 398.518 48.8592  45
  -2   1  -5 411.988 58.1086  46
   2   1   5 486.709 53.6367  36
   2   1   5 341.726 38.2671  53
   2   1   5 345.904 35.6762  10
  -2   1  -5 377.869 59.6310  42
  -2   1  -5 404.487 57.8618  41
  -2   1  -5 395.541 33.7271  21
  -2   1  -5 397.827 42.5313  16
  -2   1  -5 373.685 53.2551  40
  -2   1  -5 324.013 50.8196   9
   2   1   5 354.145 33.4866  38
   2   1   5 375.268 51.4632  35
   2   1   6 659.310 64.7461  36
   2   1   6 502.000 52.4244  54
   2   1   6 604.827 52.3523   6
  -2   1  -6 568.017 56.5973  45
   2   1   6 413.404 40.8425  10
  -2   1  -6 648.273 65.7499  56
  -2   1  -6 561.670 67.8658  41
  -2   1  -6 554.332 41.1533  21
  -2   1  -6 507.339 56.9490  40
  -2   1  -6 616.187 63.3945   9
   2   1   6 469.199 39.0504  38
  -2   1  -6 521.107 54.7062   8
  -2   1  -6 554.178 48.9439  16
  -2   1  -6 696.737 69.6435  46
   2   1   6 493.076 49.2043  37
   2   1   7 1246.91 85.6181  36
   2   1   7 1071.68 69.1676   6
  -2   1  -7 1016.49 65.8176  16
  -2   1  -7 1209.26 83.8359  56
  -2   1  -7 1088.53 83.9803  46
  -2   1  -7 1042.31 70.1884  45
   2   1   7 1087.90 71.9623  37
   2   1   7 1190.90 87.3582   5
   2   1   7 1126.20 75.8887  54
  -2   1  -7 1267.82 86.0290  41
  -2   1  -7 1261.29 60.9874  21
  -2   1  -7 1161.22 82.3309   9
  -2   1  -7 1099.84 76.2689   8
   2   1   8 1128.59 76.7113  36
  -2   1  -8 1076.81 60.1653  16
   2   1   8 1069.10 90.0949  55
   2   1   8 1035.78 67.4279  54
   2   1   8 1045.81 61.5092   6
   2   1   8 1055.82 65.8274  37
  -2   1  -8 1132.52 75.1728   9
   2   1   8 1073.93 76.6801   5
  -2   1  -8 1061.24 72.7434  41
  -2   1  -8 1174.13 55.3074  21
  -2   1  -9 328.287 36.9233  41
   2   1   9 312.640 40.3337   5
   2   1   9 363.932 48.6723  55
  -2   1  -9 394.752 28.5409  16
  -2   1  -9 456.507 24.2297  21
   2   1   9 370.509 31.6369  37
   2   1   9 362.648 39.1408  36
  -2   2  10 31.2796 30.8279  36
   2   2 -10 66.1706 24.8059  16
   2   2 -10 21.6041 22.4867  64
   2   2 -10 47.5975 25.4383  21
  -2   2   9 1274.95 86.2877  36
  -2   2   9 1168.17 95.9142  58
   2   2  -9 1251.20 70.1458  16
   2   2  -9 1287.65 69.4091  12
   2   2  -9 1214.84 65.1595  62
   2   2  -9 1496.55 70.5271  21
   2   2  -9 1400.94 75.9135  64
   2   2  -8 12090.5 497.535  12
   2   2  -8 12728.0 492.967  21
   2   2  -8 11726.7 493.825  16
   2   2  -8 12648.6 503.620  64
   2   2  -8 12414.8 496.634  62
  -2   2   8 13196.2 517.015  36
   2   2  -7 284.081 54.2253  56
  -2   2   7 164.351 42.2790  55
   2   2  -7 223.678 38.7680  16
   2   2  -7 213.835 32.6486  12
   2   2  -7 291.823 36.4140  41
   2   2  -7 218.426 34.7870  21
   2   2  -7 202.569 28.0074  62
   2   2  -7 237.006 39.2833  64
   2   2  -6 843.911 48.2847  62
   2   2  -6 964.407 69.1224  56
   2   2  -6 859.818 51.7495  16
   2   2  -6 810.586 49.1069  21
   2   2  -6 917.620 84.0257  59
  -2   2   6 781.737 59.9701  55
   2   2  -6 771.347 49.5593  12
   2   2  -6 837.782 51.3299  41
   2   2  -6 863.686 56.7172  64
  -2   2   5 3202.84 149.789  11
   2   2  -5 3737.89 152.155  56
  -2   2   5 3026.98 145.121  55
   2   2  -5 4233.62 175.273  43
  -2   2   5 2818.39 191.083  51
  -2   2   5 2277.70 176.654  50
  -2   2   5 3038.19 162.388  30
  -2   2   5 3527.56 160.319  29
  -2   2   5 3163.55 142.875  27
   2   2  -5 3988.09 152.995  42
   2   2  -5 3253.63 136.920  41
   2   2  -5 3333.11 136.573  16
   2   2  -4 6010.09 221.490  33
   2   2  -4 5913.23 220.432  57
   2   2  -4 5205.39 207.293  56
   2   2  -4 4817.69 192.939  15
  -2   2   4 4817.24 248.336  51
  -2   2   4 4683.60 220.804  30
   2   2  -4 4855.32 202.036  29
  -2   2   4 3951.92 231.065  50
   2   2  -4 5948.76 225.092  43
   2   2  -4 5344.71 206.523  42
  -2   2   4 4507.70 197.469  27
   2   2  -3 4187.50 138.318  43
  -2   2   3 3487.21 166.205  51
   2   2  -3 4012.75 113.059  29
  -2   2   3 2914.65 141.267  50
  -2   2   3 3472.94 136.494  30
  -2   2   3 3418.74 132.808  28
   2   2  -3 4044.06 148.381  26
  -2   2   3 3222.99 146.077  25
   2   2  -3 4266.72 118.910  44
   2   2  -3 3813.21 103.370  15
   2   2  -3 4346.83 129.969  57
   2   2  -2 11742.0 480.178  36
   2   2  -2 14892.9 479.782  15
  -2   2   2 10271.1 505.673  51
  -2   2   2 10492.5 493.559  26
   2   2  -2 13372.3 501.666  26
  -2   2   2 11047.6 491.264  23
   2   2  -2 13027.5 490.093  57
   2   2  -1 6930.37 281.036  27
  -2   2   1 6607.34 286.062  26
  -2   2   1 7249.57 284.142  31
   2   2  -1 7383.92 273.127  36
   2   2  -1 7061.85 287.908  26
   2   2  -1 6707.94 277.889  11
   2   2  -1 6715.23 268.569  37
   2   2   0 312.292 24.2460  37
   2   2   0 306.982 27.5578  54
   2   2   0 309.613 42.1914  11
  -2   2   0 327.962 40.9425  29
   2   2   0 324.224 48.0665  26
  -2   2   0 277.855 41.6326  26
   2   2   0 323.784 42.0475  24
  -2   2   0 273.409 57.1602  42
   2   2   0 359.204 36.8472  27
   2   2   0 279.082 29.9270  36
   2   2   1 9234.76 343.570  36
   2   2   1 10260.6 354.071  57
   2   2   1 9719.39 375.470  51
  -2   2  -1 9537.46 378.111  25
   2   2   1 8233.20 337.078  37
   2   2   1 8820.11 361.504  26
   2   2   1 9653.95 369.417  50
  -2   2  -1 9280.57 355.578  29
   2   2   1 8475.88 349.356  29
   2   2   1 8736.60 350.071  27
  -2   2  -1 7002.95 355.297  26
  -2   2  -1 8746.26 349.689  11
   2   2   1 8633.55 340.139  54
  -2   2  -1 8750.16 343.441  44
   2   2   1 8993.97 354.331  11
  -2   2  -1 9803.55 365.578  23
  -2   2  -1 7987.05 353.666  42
   2   2   1 9313.07 347.746  55
  -2   2  -1 8192.47 353.350  56
  -2   2  -1 8063.01 342.042  58
   2   2   2 3915.71 154.019  36
   2   2   2 3451.51 161.229  29
   2   2   2 3444.11 148.002  54
   2   2   2 3743.56 164.261  57
   2   2   2 3872.45 160.348  55
  -2   2  -2 3619.28 169.368  28
   2   2   2 3319.49 147.818  53
  -2   2  -2 3296.31 164.334  56
   2   2   2 3872.81 184.602  50
  -2   2  -2 3690.48 171.973  31
   2   2   2 4187.41 191.729  51
  -2   2  -2 2971.71 155.562  46
   2   2   2 3453.03 159.361  27
   2   2   2 3915.35 156.852  17
   2   2   2 3496.71 145.140  37
  -2   2  -2 3640.86 182.097  25
   2   2   2 3785.25 165.708  11
  -2   2  -2 3199.58 165.940  42
  -2   2  -2 3321.68 155.115  41
  -2   2  -2 3704.30 173.393  23
  -2   2  -2 3702.79 155.008  44
   2   2   2 3388.85 141.738  38
   2   2   3 3462.40 164.903  57
   2   2   3 3595.20 160.480  55
   2   2   3 3497.44 146.249  54
   2   2   3 3652.94 191.036  50
  -2   2  -3 3356.28 169.657  31
   2   2   3 3398.53 144.134  53
   2   2   3 3749.90 191.015  51
  -2   2  -3 3562.21 169.011  28
   2   2   3 3220.51 161.671  29
  -2   2  -3 3447.18 164.357  56
  -2   2  -3 3476.11 156.255  46
  -2   2  -3 3151.31 142.832  45
  -2   2  -3 3074.75 169.610  25
   2   2   3 3457.26 164.258  11
  -2   2  -3 2720.55 156.621  43
  -2   2  -3 3019.12 161.804  42
  -2   2  -3 3471.52 154.191  41
   2   2   3 3231.14 136.769  38
   2   2   3 3335.24 159.471  27
   2   2   3 3894.55 154.413  36
   2   2   3 3471.54 142.686  37
   2   2   4 1854.43 95.5834  36
  -2   2  -4 1753.40 79.3780  16
   2   2   4 1802.15 108.166  57
   2   2   4 1397.68 78.7315  53
   2   2   4 1513.53 102.633  55
   2   2   4 1714.40 84.0656   6
  -2   2  -4 1559.72 94.9974  46
  -2   2  -4 1548.59 81.8775  45
  -2   2  -4 1095.51 100.467  43
  -2   2  -4 1653.09 102.825  56
  -2   2  -4 1591.99 104.816  42
  -2   2  -4 1651.16 94.9740  41
  -2   2  -4 1783.22 73.2868  21
   2   2   4 1637.06 85.2028  54
   2   2   4 1646.71 81.3148  37
  -2   2  -4 1478.42 81.8443   8
   2   2   5 725.534 63.8591  36
  -2   2  -5 702.182 63.4058   9
   2   2   5 664.934 76.5624  57
  -2   2  -5 667.845 69.3631  46
   2   2   5 685.351 54.9331   6
   2   2   5 668.326 50.9495  37
  -2   2  -5 605.123 50.8260  45
   2   2   5 520.291 42.8333  10
  -2   2  -5 578.831 71.8180  42
  -2   2  -5 683.618 73.9035  56
  -2   2  -5 639.276 67.3598  41
  -2   2  -5 702.575 41.3547  21
  -2   2  -5 744.561 51.6707  16
   2   2   5 669.837 54.0276  54
   2   2   6 725.819 60.4261  54
  -2   2  -6 893.698 81.5776  56
   2   2   6 683.188 83.7852  57
   2   2   6 698.333 52.7464  10
   2   2   6 851.341 72.8536  36
  -2   2  -6 770.081 74.8286  46
  -2   2  -6 813.094 83.0765  42
  -2   2  -6 775.089 66.7928  22
   2   2   6 811.856 61.8495   6
  -2   2  -6 818.059 72.0413  41
  -2   2  -6 890.313 48.3032  21
  -2   2  -6 858.467 72.8224   9
   2   2   6 745.426 57.4885  37
  -2   2  -6 836.596 58.4401  16
  -2   2  -7 1187.00 71.8694  16
   2   2   7 1091.20 96.7631  57
  -2   2  -7 1460.97 90.0291  46
  -2   2  -7 1333.31 91.7846  56
   2   2   7 1302.02 76.1688   6
   2   2   7 1301.72 103.968  55
   2   2   7 1120.07 94.1268   5
   2   2   7 1372.10 90.5327  36
  -2   2  -7 1276.81 87.2962  41
  -2   2  -7 1532.14 66.3679  21
  -2   2  -7 1397.84 89.4526   9
   2   2   7 1248.97 74.4534  37
   2   2   7 1217.60 75.9401  54
   2   2   8 99.5169 24.4921  54
  -2   2  -8 74.9606 29.8827  16
   2   2   8 74.3220 50.0069  55
   2   2   8 87.8216 30.8605   6
   2   2   8 73.8146 61.6652   2
   2   2   8 115.698 38.9686  36
  -2   2  -8 85.9530 38.5970  41
   2   2   8 74.9129 25.7552  37
  -2   2  -8 118.475 21.1862  21
   2   2   8 137.664 54.5505   5
  -2   2  -8 153.151 47.8299   9
   2   2   9 348.861 42.3124  55
   2   2   9 342.896 49.8747   2
   2   2   9 228.061 40.4871   5
  -2   2  -9 510.838 22.7316  21
  -2   2  -9 361.665 39.0381   9
  -2   2  -9 348.831 33.4574  41
  -2   2  -9 415.787 28.5710  16
   2   2   9 359.368 36.3547  36
   2   3 -10 63.7276 20.4617  16
   2   3 -10 49.0276 17.9972  12
   2   3 -10 29.9220 14.8189  64
   2   3 -10 68.5538 19.9300  21
  -2   3  10 77.1615 78.0265  44
  -2   3   9 398.614 80.9931  57
   2   3  -9 281.012 36.1432  16
   2   3  -9 348.382 35.0207  12
   2   3  -9 374.872 34.1534  64
  -2   3   9 254.917 40.1410  36
   2   3  -9 411.133 33.7148  21
  -2   3   9 310.391 57.4283  58
  -2   3   8 1218.05 98.4552  58
   2   3  -8 1197.58 71.8614  16
   2   3  -8 1403.97 74.4317  12
   2   3  -8 1393.86 68.9829  21
   2   3  -8 1418.94 75.1103  64
  -2   3   8 1387.76 84.4605  36
  -2   3   7 2308.53 122.435  36
   2   3  -7 2244.89 109.980  16
   2   3  -7 2822.97 132.102  56
   2   3  -7 2558.71 113.054  12
   2   3  -7 2377.19 106.581  21
   2   3  -7 2038.64 137.312  59
   2   3  -7 2604.24 116.236  64
  -2   3   7 2376.42 138.978  58
  -2   3   6 620.769 53.3226  36
   2   3  -6 654.355 49.6233  16
  -2   3   6 602.630 71.4846  58
   2   3  -6 797.020 86.1999  59
   2   3  -6 687.943 47.7143  12
   2   3  -6 805.855 67.3812  56
  -2   3   6 569.847 55.7080  55
   2   3  -6 892.793 105.622  43
   2   3  -6 772.629 67.6996  42
   2   3  -6 643.669 42.9316  21
   2   3  -6 751.884 49.9042  64
   2   3  -5 208.783 67.2634  59
  -2   3   5 190.454 30.7571  36
  -2   3   5 217.533 51.6647  58
   2   3  -5 171.065 27.6453  12
   2   3  -5 243.944 82.4714  33
  -2   3   5 232.022 37.3320  55
   2   3  -5 250.350 48.7842  56
   2   3  -5 307.438 83.8249  43
   2   3  -5 195.166 47.6986  42
   2   3  -5 217.746 25.4267  21
   2   3  -5 191.746 29.0001  64
  -2   3   4 2034.33 109.163  58
   2   3  -4 2192.98 103.518  56
   2   3  -4 2184.70 88.4635  15
   2   3  -4 2551.62 127.008  33
   2   3  -4 2480.91 110.511  44
  -2   3   4 1922.17 121.941  30
   2   3  -4 1923.74 91.5499  12
   2   3  -4 2462.21 132.671  43
   2   3  -4 2423.59 106.586  42
  -2   3   4 1810.57 98.6659  55
   2   3  -4 2477.36 120.132  57
  -2   3   4 1681.94 91.3794  36
  -2   3   3 3469.18 164.956  55
  -2   3   3 3793.67 178.024  57
   2   3  -3 4302.84 190.983  43
   2   3  -3 3934.21 157.359  15
  -2   3   3 2884.45 206.817  51
   2   3  -3 4395.10 188.003  33
   2   3  -3 4772.50 169.035  58
  -2   3   3 3767.97 190.798  30
   2   3  -3 3745.74 168.237  29
  -2   3   3 4113.20 187.679  44
   2   3  -3 4219.67 173.571  44
  -2   3   3 3383.57 170.257  58
   2   3  -3 4130.33 167.487  36
  -2   3   3 3194.83 195.578  25
   2   3  -3 4461.69 182.954  57
   2   3  -2 9459.86 342.207  58
   2   3  -2 9108.64 341.648  36
   2   3  -2 10587.6 349.309  55
  -2   3   2 7469.40 339.691  55
   2   3  -2 8801.62 353.738  33
   2   3  -2 9673.56 356.843  57
  -2   3   2 7925.63 353.189  28
  -2   3   2 8113.55 347.002  57
  -2   3   2 7796.19 377.630  25
  -2   3   2 8623.06 351.912  44
   2   3  -2 8508.24 345.932  44
   2   3  -2 8833.49 357.916  43
  -2   3   2 8369.93 344.437  58
  -2   3   2 7483.07 358.706  33
  -2   3   1 1017.19 69.7353  58
   2   3  -1 1383.41 71.8132  58
  -2   3   1 1069.22 70.2506  57
   2   3  -1 1531.75 87.7397  57
   2   3  -1 1676.13 68.5113  15
   2   3  -1 1614.39 75.8012  55
  -2   3   1 1219.30 101.715  33
   2   3  -1 1437.88 100.730  33
  -2   3   1 1117.33 69.6626  55
   2   3  -1 1339.02 62.8752  37
   2   3  -1 1354.52 76.7050  27
  -2   3   1 984.513 85.8515  26
   2   3  -1 1178.27 87.1942  26
  -2   3   1 1307.21 90.2566  44
   2   3  -1 1335.82 87.4034  44
  -2   3   1 1044.21 101.720  43
  -2   3   1 1329.31 89.3027  30
  -2   3   1 1393.79 57.2125  15
   2   3  -1 1330.77 68.6913  36
  -2   3   0 3219.64 153.735  58
   2   3   0 4289.74 173.541  57
  -2   3   0 3620.92 172.958  31
   2   3   0 3628.24 151.668  54
   2   3   0 3625.54 162.636  27
   2   3   0 3963.04 160.350  55
  -2   3   0 2703.92 167.709  26
  -2   3   0 3814.96 197.006  25
   2   3   0 3839.78 168.789  44
  -2   3   0 3664.77 162.811  44
   2   3   0 3946.21 167.797  11
  -2   3   0 3273.59 177.411  43
  -2   3   0 4002.03 180.192  30
  -2   3   0 3588.40 175.208  33
   2   3   0 3708.13 154.248  36
   2   3   0 3007.46 174.926  26
   2   3   0 3526.42 147.640  37
   2   3   0 4153.98 161.854  58
  -2   3   0 3543.15 174.020  56
   2   3   1 859.925 71.4857  57
   2   3   1 863.300 61.3108  58
  -2   3  -1 899.967 86.5854  33
   2   3   1 791.732 47.0098  54
   2   3   1 764.982 55.5712  27
  -2   3  -1 737.017 54.4244  58
  -2   3  -1 854.359 72.7242  30
   2   3   1 837.465 59.6461  29
  -2   3  -1 800.784 65.8430  28
   2   3   1 774.742 64.9696  11
  -2   3  -1 739.944 65.3363  46
   2   3   1 688.219 90.3501  33
  -2   3  -1 685.942 88.2252  43
  -2   3  -1 806.721 85.4336  25
   2   3   1 943.985 86.5115  44
  -2   3  -1 890.665 73.0341  44
  -2   3  -1 758.617 59.4072  41
   2   3   1 761.872 42.7536  37
   2   3   1 803.004 59.8870  55
  -2   3  -1 830.593 83.0370  56
  -2   3  -1 442.845 45.5390  57
   2   3   2 1703.87 93.9544  58
  -2   3  -2 1455.05 106.081  33
   2   3   2 1652.42 131.500  51
   2   3   2 1396.14 114.828  50
  -2   3  -2 1547.74 100.101  31
  -2   3  -2 1410.09 99.4861  30
  -2   3  -2 1399.06 110.508  25
   2   3   2 1503.41 94.4506  11
   2   3   2 1283.17 87.7751  29
  -2   3  -2 1367.66 91.9303  46
   2   3   2 1490.94 86.2118  27
   2   3   2 1554.80 75.7064  54
  -2   3  -2 1380.36 90.9473  44
  -2   3  -2 1152.64 105.703  43
   2   3   2 1640.13 91.9416  55
  -2   3  -2 1465.44 86.0836  41
   2   3   2 1697.84 99.8504  57
   2   3   2 1540.88 71.0313  37
  -2   3  -2 1407.28 93.7584  28
  -2   3  -3 1304.59 105.888  30
  -2   3  -3 1587.53 101.230  46
  -2   3  -3 1656.98 115.732  43
   2   3   3 1379.33 77.7192  10
  -2   3  -3 1826.81 96.3335  22
  -2   3  -3 1783.38 97.4092  41
  -2   3  -3 2080.83 76.2956  21
  -2   3  -3 1610.10 89.7318   9
   2   3   3 1817.70 105.033  55
  -2   3  -3 1680.25 111.796  33
   2   3   3 1690.07 85.4016  54
   2   3   3 1972.41 116.059  57
   2   3   3 1663.70 80.9176  37
  -2   3  -4 103.893 78.9118  33
  -2   3  -4 320.345 40.3027  16
   2   3   4 289.488 36.8665  54
   2   3   4 244.052 44.4224   6
  -2   3  -4 296.557 61.9810  46
  -2   3  -4 209.209 76.5247  43
  -2   3  -4 255.675 58.5182  22
  -2   3  -4 288.799 28.6308  21
  -2   3  -4 308.336 53.2537  41
   2   3   4 313.322 67.8633  57
   2   3   4 268.033 32.1259  37
   2   3   5 503.502 78.0821  57
   2   3   5 427.120 44.6151  54
   2   3   5 509.882 55.6838   6
  -2   3  -5 535.452 69.6473  46
  -2   3  -5 530.388 48.4660  16
   2   3   5 387.548 41.8458  10
  -2   3  -5 529.172 66.5846  22
  -2   3  -5 533.229 59.7908  41
  -2   3  -5 590.978 37.8901  21
   2   3   5 457.176 41.7141  37
   2   3   6 1439.54 112.428  57
  -2   3  -6 1548.94 105.639  56
   2   3   6 1404.01 109.180  55
   2   3   6 1283.80 77.6429  54
   2   3   6 1449.19 85.3901   6
  -2   3  -6 1394.18 92.7912  46
   2   3   6 1196.68 74.2404  10
  -2   3  -6 1585.36 108.526  42
  -2   3  -6 1335.31 88.4852  22
   2   3   6 1306.58 75.4337  37
  -2   3  -6 1434.56 90.5099  41
  -2   3  -6 1793.94 71.3279  21
  -2   3  -6 1539.73 94.4005   9
  -2   3  -6 1400.46 77.8437  16
   2   3   7 876.705 83.1313  55
   2   3   7 807.584 82.6253  57
  -2   3  -7 999.924 78.0295  56
   2   3   7 944.589 62.3617   6
   2   3   7 751.801 52.2033  37
  -2   3  -7 876.470 69.2516  46
   2   3   7 702.147 51.2887  10
  -2   3  -7 915.623 67.3698  41
  -2   3  -7 1080.85 48.9008  21
  -2   3  -7 1039.28 74.9412   9
  -2   3  -7 894.527 57.3645  16
   2   3   8 399.770 62.5440  58
   2   3   8 475.777 37.8947   6
   2   3   8 398.430 54.3046  55
  -2   3  -8 358.768 36.4227  12
   2   3   8 357.560 57.7132   2
  -2   3  -8 552.757 29.0120  21
  -2   3  -8 402.373 39.3028  41
  -2   3  -8 516.770 52.2550   9
  -2   3  -8 412.636 34.7653  16
  -2   4   9 2843.62 161.496  57
   2   4  -9 2680.71 127.306  19
   2   4  -9 3474.90 129.970  12
  -2   4   9 2790.54 171.958  44
   2   4  -9 3714.58 125.793  21
   2   4  -9 2601.76 125.932  16
   2   4  -9 2995.65 124.768  64
  -2   4   8 1409.81 117.214  57
   2   4  -8 1559.32 74.4071  64
   2   4  -8 1692.77 78.9010  12
  -2   4   8 1281.39 97.7995  58
   2   4  -8 1414.51 75.3533  16
  -2   4   8 1613.70 147.673  44
   2   4  -8 1623.84 70.9778  21
   2   4  -8 1320.71 76.7922  19
  -2   4   7 1974.06 113.519  36
   2   4  -7 2365.25 111.428  16
   2   4  -7 2177.89 142.218  59
   2   4  -7 2692.76 127.715  56
   2   4  -7 2662.54 115.337  12
  -2   4   7 2396.77 140.093  58
   2   4  -7 2208.88 148.879  61
  -2   4   7 2857.15 186.604  44
  -2   4   7 2517.72 113.113   6
   2   4  -7 2729.65 113.890  64
   2   4  -7 2515.05 106.218  21
   2   4  -7 2384.97 116.843  19
  -2   4   7 2476.77 160.931  57
  -2   4   6 1306.84 102.965  58
  -2   4   6 1589.02 125.665  57
   2   4  -6 1594.03 122.948  59
   2   4  -6 1709.77 94.1987  56
   2   4  -6 1582.85 79.1810  16
  -2   4   6 1611.82 83.1424   6
   2   4  -6 1656.67 80.4855  12
  -2   4   6 1769.56 154.054  44
  -2   4   6 1090.51 76.0483  36
   2   4  -6 1976.02 136.122  43
  -2   4   6 1358.01 88.0680  55
  -2   4   6 1324.95 74.2048  10
   2   4  -6 1647.03 94.6276  42
   2   4  -6 1517.07 71.0872  21
   2   4  -6 1686.91 79.5273  64
  -2   4   5 132.259 56.8653  58
   2   4  -5 129.692 74.9535  59
  -2   4   5 114.992 104.973  44
   2   4  -5 161.472 45.1765  56
  -2   4   5 52.6629 34.9309  55
  -2   4   5 76.4719 64.3681  57
   2   4  -5 161.967 93.2044  43
   2   4  -5 157.617 85.9601  33
   2   4  -5 122.089 29.7422  12
   2   4  -5 158.621 45.5941  42
   2   4  -5 134.882 54.9517  22
  -2   4   5 117.458 32.2437  10
   2   4  -5 114.994 23.8266  21
   2   4  -5 153.206 27.7620  64
  -2   4   4 1045.58 90.8401  57
   2   4  -4 948.881 68.6406  56
   2   4  -4 1254.36 105.609  33
   2   4  -4 1201.41 55.2110  15
  -2   4   4 1079.84 139.553  33
  -2   4   4 1102.43 116.285  44
   2   4  -4 1187.41 85.8626  44
   2   4  -4 1018.92 57.9162  12
   2   4  -4 1143.48 71.2028  58
   2   4  -4 1234.28 110.397  43
   2   4  -4 1085.98 72.3244  42
   2   4  -4 1059.94 77.7683  22
  -2   4   4 1035.66 81.7723  58
   2   4  -4 1175.81 60.8360  64
   2   4  -4 990.726 62.1305  19
   2   4  -4 1053.27 52.3353  21
  -2   4   4 958.765 69.1091  55
  -2   4   3 2674.57 132.620  55
  -2   4   3 2659.83 138.974  58
  -2   4   3 2456.67 142.403  57
  -2   4   3 2657.51 177.696  33
   2   4  -3 2794.30 118.151  15
   2   4  -3 3034.73 162.116  33
  -2   4   3 2646.04 156.654  44
   2   4  -3 2697.80 119.026  12
   2   4  -3 3199.45 132.747  58
   2   4  -3 2700.24 139.097  44
   2   4  -3 2959.56 161.697  43
   2   4  -3 2575.05 131.734  22
   2   4  -3 2978.46 122.884  64
  -2   4   2 1342.48 91.8232  57
  -2   4   2 1577.82 67.8959  15
  -2   4   2 1366.01 88.6812  58
  -2   4   2 1443.88 86.1868  55
   2   4  -2 1813.36 93.2702  55
   2   4  -2 1413.36 116.434  33
   2   4  -2 1530.62 99.5452  44
  -2   4   2 1538.39 112.723  44
   2   4  -2 1574.94 103.958  57
   2   4  -2 1705.58 122.290  43
   2   4  -2 1504.54 91.8189  22
   2   4  -2 1690.60 86.7273  58
  -2   4   2 1195.94 130.111  33
   2   4  -2 1422.98 74.2358  19
   2   4  -2 1498.48 81.2730  36
   2   4  -2 1777.85 76.7020  15
  -2   4   1 1226.57 78.4253  58
   2   4  -1 1430.96 79.7566  58
   2   4  -1 1515.33 98.7988  57
  -2   4   1 1260.96 104.257  56
   2   4  -1 1543.39 84.6279  55
  -2   4   1 1158.92 122.478  33
  -2   4   1 1412.46 60.0320  15
   2   4  -1 1304.11 110.038  43
  -2   4   1 1255.61 99.8725  44
   2   4  -1 1246.21 96.5343  44
  -2   4   1 1264.32 119.543  43
   2   4  -1 1282.83 83.8234  22
  -2   4   1 1245.31 108.924  42
  -2   4   1 1162.34 77.2661  22
   2   4  -1 1298.12 73.8851  36
   2   4  -1 1274.41 64.5987  19
  -2   4   1 1113.13 79.7149  57
   2   4  -1 1256.53 113.038  33
   2   4   0 1874.75 98.7405  58
   2   4   0 1788.03 89.3472  36
  -2   4   0 1704.69 120.265  56
   2   4   0 1682.42 126.381  33
  -2   4   0 1837.95 133.054  33
  -2   4   0 1732.31 131.431  43
   2   4   0 1955.88 99.8434  55
   2   4   0 1918.87 116.238  44
  -2   4   0 1691.92 110.022  44
   2   4   0 1652.39 121.773  43
   2   4   0 1946.10 114.554  57
  -2   4   0 1762.09 125.808  42
   2   4   0 1629.79 81.1372  10
  -2   4   0 1645.14 91.9969  22
  -2   4   0 1280.01 87.9598  57
  -2   4   0 1706.49 93.4012  58
   2   4   0 1669.61 78.8988  37
   2   4   0 1581.39 77.0821  19
   2   4   1 428.064 100.728  33
  -2   4  -1 307.942 43.4640  57
   2   4   1 390.860 70.4535  57
  -2   4  -1 508.093 82.4633  56
   2   4   1 556.903 57.7938  55
  -2   4  -1 488.815 91.1134  33
  -2   4  -1 448.654 65.9018  46
  -2   4  -1 477.369 52.3985  58
   2   4   1 475.061 87.0885  44
  -2   4  -1 490.803 73.9351  44
  -2   4  -1 460.485 94.2887  43
   2   4   1 434.079 41.5603  10
  -2   4  -1 478.900 88.6080  42
   2   4   1 505.161 65.2407  22
  -2   4  -1 463.438 53.0014  41
   2   4   1 455.251 33.7475  37
   2   4   1 482.824 58.2993  58
   2   4   1 479.957 33.0454  19
   2   4   1 457.196 46.7316  36
   2   4   2 3565.75 156.677  58
   2   4   2 3664.26 170.871  57
  -2   4  -2 3164.44 167.114  56
   2   4   2 3308.88 141.398  36
   2   4   2 3128.59 132.100  54
   2   4   2 3596.84 154.555  55
   2   4   2 2682.02 178.468  33
  -2   4  -2 3180.95 142.514  22
  -2   4  -2 3041.92 165.974  33
  -2   4  -2 2926.01 143.119  58
   2   4   2 2918.03 125.061  37
   2   4   2 3348.79 134.631   6
  -2   4  -2 2951.88 149.320  46
  -2   4  -2 2439.13 121.413  12
   2   4   2 3472.11 172.790  44
  -2   4  -2 3005.37 150.311  44
  -2   4  -2 3155.51 173.027  43
  -2   4  -2 3251.40 172.563  42
   2   4   2 2977.99 128.061  10
  -2   4  -2 3224.95 141.067  41
  -2   4  -2 2859.10 133.600   9
  -2   4  -3 501.446 83.7012  56
   2   4   3 472.937 80.5789  57
   2   4   3 501.072 41.7840  54
   2   4   3 385.175 111.786  33
  -2   4  -3 372.847 91.4356  33
  -2   4  -3 400.999 35.7580  12
  -2   4  -3 398.758 74.3120  44
   2   4   3 386.194 43.1647  10
  -2   4  -3 396.489 67.0205  46
   2   4   3 461.411 35.7801  37
  -2   4  -3 512.945 55.1491  41
  -2   4  -3 404.208 71.2480  22
  -2   4  -3 472.189 58.5719   9
   2   4   3 449.186 70.8695  58
   2   4   3 490.610 105.365  44
  -2   4  -3 392.545 90.2738  43
   2   4   3 510.027 53.8195  36
   2   4   3 497.664 53.4363   6
  -2   4  -4 246.069 86.1518  33
   2   4   4 250.627 69.8807  58
   2   4   4 327.780 52.6170  36
  -2   4  -4 375.534 84.3258  56
   2   4   4 102.811 107.370  33
   2   4   4 264.617 34.4870  54
   2   4   4 293.275 37.8825  10
  -2   4  -4 267.671 63.2687  46
  -2   4  -4 209.064 34.2065  12
   2   4   4 204.348 109.827  44
  -2   4  -4 234.900 85.7164  43
  -2   4  -4 364.343 70.8781  22
  -2   4  -4 419.765 32.4149  21
  -2   4  -4 289.599 50.8341  41
   2   4   4 310.989 75.2232  57
  -2   4  -4 263.490 58.9499   9
   2   4   4 299.798 30.9894  37
  -2   4  -5 116.234 55.7465  46
   2   4   5 86.5495 69.9891  58
   2   4   5 178.643 70.3453  57
  -2   4  -5 170.749 40.0807  16
   2   4   5 183.071 50.5787   6
  -2   4  -5 93.6461 31.7344  12
   2   4   5 54.9621 109.131  44
   2   4   5 117.822 47.2521  36
  -2   4  -5 45.8455 76.8610  43
  -2   4  -5 85.6545 64.4284  22
  -2   4  -5 82.0988 43.1736  41
   2   4   5 114.317 24.3339  37
  -2   4  -5 163.738 27.8095  21
   2   4   5-7.88376 106.029  33
   2   4   6 16.6022 38.3196  36
   2   4   6 59.6797 64.0263  58
   2   4   6-15.0084 61.8040  57
   2   4   6 28.7917 53.2265  55
  -2   4  -6 21.1400 35.3632  16
   2   4   6-23.9638 97.9226  33
   2   4   6-1.95198 44.2385   6
  -2   4  -6 14.6007 44.1523  46
  -2   4  -6 6.29293 28.5528  12
   2   4   6 19.8919 103.365  44
   2   4   6 26.5771 31.2998  10
  -2   4  -6-36.4456 58.3321  22
  -2   4  -6 8.49903 36.7815  41
  -2   4  -6 23.3360 22.5591  21
   2   4   6 37.7089 58.8447   5
  -2   4  -6-16.3486 58.2512   9
   2   4   7 167.207 46.7140  55
  -2   4  -7 246.977 33.1350  16
   2   4   7 257.382 57.1137  57
   2   4   7 249.911 40.2354  36
  -2   4  -7 227.945 30.7064  12
   2   4   7 276.353 39.6603   6
  -2   4  -7 233.298 38.7269  46
   2   4   7 235.567 91.9561  44
   2   4   7 178.146 28.7497  10
   2   4   7 188.780 55.4845   5
   2   4   7 250.608 57.5962  58
   2   4   8 54.9551 33.5167  58
   2   4   8 64.7480 21.1036   6
   2   4   8 76.2556 23.2219  36
  -2   4  -8 42.7351 17.8105  12
   2   4   8 76.3194 32.3502   2
   2   4   8-3.70289 33.9886   5
  -2   5   8 449.362 54.3094  58
  -2   5   8 540.468 71.1384  57
   2   5  -8 864.697 44.1259  12
  -2   5   8 746.461 96.0586  44
  -2   5   8 607.941 103.550  43
   2   5  -8 698.843 44.3440  19
   2   5  -8 664.597 41.9306  16
  -2   5   7 196.580 51.1662  58
  -2   5   7 97.7558 64.8980  57
   2   5  -7 117.608 31.5712  19
  -2   5   7 95.2376 35.9155   6
   2   5  -7 146.240 30.5798  12
  -2   5   7 232.333 99.3985  44
  -2   5   7 108.664 112.274  43
   2   5  -7 122.697 32.8161  16
   2   5  -6 1130.83 66.5852  16
  -2   5   6 1071.03 107.287  57
   2   5  -6 1334.76 68.6532  12
  -2   5   6 1159.23 72.5812   6
  -2   5   6 1022.26 88.0991  58
   2   5  -6 1236.11 110.752  59
  -2   5   6 1092.83 131.207  44
  -2   5   6 1184.15 157.541  43
  -2   5   6 1136.18 65.5932  10
   2   5  -6 1126.79 69.7800  19
  -2   5   5 1880.88 124.300  58
  -2   5   5 1934.02 139.497  57
   2   5  -5 2084.70 107.963  19
  -2   5   5 2101.09 116.311  55
  -2   5   5 2498.96 202.916  33
   2   5  -5 2829.20 154.523  33
  -2   5   5 1879.67 104.703  10
   2   5  -5 2462.05 104.005  12
  -2   5   5 2145.63 163.311  44
  -2   5   5 2075.18 187.403  43
   2   5  -5 2470.65 154.534  43
   2   5  -5 2397.90 158.135  59
   2   5  -5 2294.04 119.113  22
  -2   5   4 218.110 60.6405  58
  -2   5   4 443.695 111.032  44
   2   5  -4 395.604 103.207  59
  -2   5   4 394.515 145.617  33
   2   5  -4 356.418 70.4038  44
  -2   5   4 411.581 138.804  43
   2   5  -4 423.732 98.3074  43
   2   5  -4 457.524 74.8368  22
  -2   5   4 283.955 45.0326  10
  -2   5   4 389.942 73.6719  57
   2   5  -4 384.983 30.1544  15
  -2   5   4 371.462 51.6141  55
   2   5  -4 396.236 97.6166  33
   2   5  -3 1527.17 86.2382  58
  -2   5   3 1139.85 96.9507  57
   2   5  -3 1422.40 101.389  44
  -2   5   3 1168.35 84.6386  55
  -2   5   3 1378.43 156.307  33
   2   5  -3 1358.07 66.1505  15
   2   5  -3 1656.30 124.882  33
  -2   5   3 1328.30 126.520  44
   2   5  -3 1367.36 124.868  43
   2   5  -3 1420.96 98.2652  22
  -2   5   3 1225.81 83.0802  22
  -2   5   3 1240.38 90.7990  58
   2   5  -3 1189.38 71.0411  19
   2   5  -2 230.089 99.9611  33
  -2   5   2 230.917 53.0774  58
   2   5  -2 187.081 45.6259  58
  -2   5   2 185.801 56.6806  57
   2   5  -2 223.706 38.9616  36
  -2   5   2 256.405 85.9363  56
   2   5  -2 230.321 28.7431  15
  -2   5   2 234.027 21.1890  15
  -2   5   2 193.713 125.979  33
  -2   5   2 141.237 94.3381  42
  -2   5   2 147.931 90.8900  44
   2   5  -2 311.045 75.8572  44
   2   5  -2 210.060 95.1047  43
   2   5  -2 282.456 74.0146  22
  -2   5   2 202.316 61.7966  22
   2   5  -2 199.576 33.1320  10
   2   5  -2 227.918 31.0102  19
   2   5  -1 2904.89 135.691  58
  -2   5   1 2429.63 133.320  58
  -2   5   1 2564.50 161.605  56
   2   5  -1 2820.90 127.984  36
  -2   5   1 2611.59 180.111  33
   2   5  -1 2846.36 168.938  33
  -2   5   1 2493.91 150.265  44
   2   5  -1 2676.25 149.409  44
   2   5  -1 2718.34 165.284  43
  -2   5   1 2780.13 171.175  42
   2   5  -1 2660.22 138.751  22
   2   5  -1 2437.71 117.868  10
  -2   5   1 2450.79 131.920  22
   2   5  -1 3215.75 144.963  55
  -2   5   1 1946.80 133.100  57
   2   5  -1 3001.79 157.986  57
   2   5  -1 2612.92 116.773  19
   2   5   0 6873.97 248.926  55
   2   5   0 5310.84 264.247  33
  -2   5   0 5323.01 261.896  33
   2   5   0 5585.56 228.170  36
  -2   5   0 5232.32 232.445  58
   2   5   0 5335.69 247.051  44
  -2   5   0 5114.27 240.002  44
  -2   5   0 5421.63 270.103  43
   2   5   0 5587.26 259.733  43
  -2   5   0 4983.27 259.845  42
   2   5   0 5113.85 218.014  10
  -2   5   0 5240.02 227.985  22
  -2   5   0 4983.68 254.910  56
  -2   5   0 3719.51 224.269  57
   2   5   0 6238.31 263.396  57
   2   5   0 5252.16 214.325  19
   2   5   0 5775.71 236.039  58
  -2   5  -1 2490.18 154.151  56
   2   5   1 2619.38 152.791  57
   2   5   1 2348.96 116.349   6
   2   5   1 2386.86 168.388  33
   2   5   1 2670.97 134.217  58
  -2   5  -1 2471.15 135.193  46
   2   5   1 2567.69 122.921  36
   2   5   1 2770.38 156.860  44
  -2   5  -1 2589.34 140.511  44
   2   5   1 2530.46 158.481  43
  -2   5  -1 2618.17 171.680  43
  -2   5  -1 2445.99 164.132  42
   2   5   1 2426.60 114.561  10
  -2   5  -1 2242.02 130.514  22
  -2   5  -1 2346.02 128.368  58
   2   5   1 2731.26 139.288  55
  -2   5  -1 2594.14 164.086  33
   2   5   2 419.413 51.2957  36
   2   5   2 516.887 88.7229  57
   2   5   2 492.244 50.0221  15
  -2   5  -2 400.206 83.5883  56
   2   5   2 352.768 66.6887  55
   2   5   2 287.683 114.620  33
  -2   5  -2 487.253 104.261  33
  -2   5  -2 317.457 78.5424  44
   2   5   2 420.986 56.2679   6
  -2   5  -2 378.051 32.4118  12
  -2   5  -2 438.187 71.5357  46
   2   5   2 496.576 103.431  44
   2   5   2 433.157 91.4398  43
  -2   5  -2 318.061 104.573  43
  -2   5  -2 358.337 101.219  42
   2   5   2 329.147 44.3488  10
   2   5   2 393.518 68.0550  58
   2   5   3 2065.20 123.192  58
   2   5   3 1873.73 135.068  57
   2   5   3 1967.21 99.7648  15
  -2   5  -3 1745.13 134.253  33
   2   5   3 1950.10 100.131   6
  -2   5  -3 1738.58 110.405  46
  -2   5  -3 1562.61 82.1581  12
   2   5   3 1696.62 143.858  44
  -2   5  -3 1739.82 119.946  44
  -2   5  -3 1518.59 136.560  43
  -2   5  -3 1621.48 131.801  42
  -2   5  -3 1927.11 116.724  22
  -2   5  -3 1668.31 125.375  56
   2   5   3 1544.25 153.967  33
   2   5   3 1982.81 105.920  36
   2   5   4 611.629 59.4282  36
   2   5   4 633.401 88.4496  57
   2   5   4 694.332 53.6905  15
  -2   5  -4 552.344 77.5958  56
   2   5   4 378.940 116.214  33
   2   5   4 565.651 79.1781  58
  -2   5  -4 431.395 94.9639  43
  -2   5  -4 599.671 67.7016  46
  -2   5  -4 528.276 41.6766  12
  -2   5  -4 334.219 93.2215  33
   2   5   4 584.429 112.202  44
   2   5   4 412.557 58.9236   5
  -2   5  -4 592.876 85.8260  42
  -2   5  -4 652.055 81.9967  22
   2   5   5 1813.53 98.2960  36
   2   5   5 1967.03 126.888  57
   2   5   5 1937.69 90.6074  15
   2   5   5 1815.00 110.982  55
   2   5   5 677.229 128.753  33
   2   5   5 1863.95 95.5705   6
  -2   5  -5 1716.17 94.5276  46
  -2   5  -5 1621.90 80.6280  12
  -2   5  -5 1814.68 110.816  56
  -2   5  -5 1801.13 84.9358  16
   2   5   5 1572.31 139.376  44
  -2   5  -5 1036.14 110.134  43
   2   5   5 1565.63 83.9305  10
  -2   5  -5 1677.16 110.632  42
  -2   5  -5 1877.34 104.733  22
   2   5   5 1348.17 92.8539   5
   2   5   5 1898.23 119.391  58
   2   5   6 853.307 70.0390  55
   2   5   6 774.186 58.6033  36
   2   5   6 872.669 79.9625  57
  -2   5  -6 905.011 50.3486  16
  -2   5  -6 787.312 67.3896  56
   2   5   6 773.681 75.9922  58
   2   5   6 891.780 58.9182   6
  -2   5  -6 819.009 47.2764  12
  -2   5  -6 778.644 54.7808  46
   2   5   6 584.960 95.1395  44
   2   5   6 823.695 50.7957  10
  -2   5  -6 850.648 69.1212  42
  -2   5  -6 1004.03 69.0530  22
   2   5   6 459.999 58.4972   5
   2   5   7 23.6141 22.8293  36
   2   5   7 55.7756 33.9756  58
  -2   5  -7 32.7187 26.1289  56
   2   5   7-8.34251 27.3566  55
   2   5   7-7.90077 25.5256   6
  -2   5  -7 17.9209 15.9222  12
   2   5   7 9.13806 16.3346  10
   2   5   7 32.9286 31.7556   5
  -2   6   7 92.1384 46.1451  57
  -2   6   7 211.928 69.8719  44
  -2   6   7 182.855 26.6662   6
  -2   6   7 131.974 78.1335  43
  -2   6   7 181.822 65.7039  42
   2   6  -7 180.095 24.7237  19
   2   6  -7 153.943 24.1223  16
   2   6  -6 151.219 65.0593  59
  -2   6   6 216.627 45.7448  58
  -2   6   6 142.986 57.6675  57
   2   6  -6 185.000 31.1475  16
  -2   6   6 315.058 41.3039   6
  -2   6   6 198.399 86.8663  44
  -2   6   6 240.300 103.707  43
   2   6  -6 343.629 73.9085  43
  -2   6   6 203.384 83.3472  42
  -2   6   6 215.269 29.8700  10
   2   6  -6 245.886 31.5128  19
   2   6  -6 140.010 76.5161  61
  -2   6   5 2243.15 177.128  43
  -2   6   5 1894.03 133.007  56
  -2   6   5 2338.27 112.490   6
  -2   6   5 2084.57 152.940  44
   2   6  -5 2653.68 146.964  43
   2   6  -5 2213.73 151.350  59
  -2   6   5 2123.38 156.996  42
   2   6  -5 2662.95 121.614  22
  -2   6   5 2198.74 106.795  10
  -2   6   5 2086.89 136.891  57
  -2   6   5 1933.91 121.527  58
  -2   6   4 80.9337 48.3473  58
  -2   6   4 24.0876 55.9542  57
   2   6  -4 171.690 61.0807  57
  -2   6   4 131.570 74.2612  56
   2   6  -4 74.7916 84.6351  33
  -2   6   4 97.2619 93.3104  44
   2   6  -4 127.417 62.3158  44
  -2   6   4 3.13168 124.478  43
   2   6  -4 80.2780 89.3774  43
  -2   6   4 49.0234 93.4010  42
   2   6  -4 166.826 72.7490  22
  -2   6   4 94.1303 41.5615  10
  -2   6   4 18.0302 133.142  33
   2   6  -4 111.048 31.1203  19
   2   6  -4 179.394 92.4929  59
  -2   6   3 311.809 57.7828  58
   2   6  -3 297.046 48.7059  58
  -2   6   3 200.282 61.6320  57
  -2   6   3 264.018 81.9639  56
   2   6  -3 228.417 26.0053  15
  -2   6   3 307.395 132.701  33
   2   6  -3 238.709 92.6173  33
   2   6  -3 242.128 67.7066  44
   2   6  -3 230.772 34.3967  19
  -2   6   3 125.423 96.6588  44
   2   6  -3 307.261 93.4190  43
  -2   6   3 215.826 129.134  43
  -2   6   3 243.907 102.067  42
  -2   6   3 234.472 61.1469  22
   2   6  -3 321.202 81.9542  22
  -2   6   3 206.206 48.2043  10
  -2   6   2 192.867 82.8709  56
  -2   6   2 141.581 52.4835  57
  -2   6   2 203.217 53.0406  58
   2   6  -2 250.845 48.8931  58
  -2   6   2 174.560 132.240  33
   2   6  -2 257.185 98.2441  33
  -2   6   2 265.576 93.4282  44
   2   6  -2 186.654 73.2512  44
   2   6  -2 2.47097 92.7235  43
  -2   6   2 393.652 104.007  42
   2   6  -2 390.415 86.4270  22
  -2   6   2 226.370 68.2185  22
   2   6  -2 225.273 32.3314  10
   2   6  -2 276.086 33.7605  19
   2   6  -1 2992.86 149.275  36
  -2   6   1 3057.85 181.944  56
  -2   6   1 3174.82 162.879  58
   2   6  -1 3258.49 194.020  33
  -2   6   1 3189.24 176.358  44
   2   6  -1 3413.38 174.515  44
   2   6  -1 2908.85 184.436  43
  -2   6   1 3359.39 201.021  42
   2   6  -1 3505.97 170.151  22
   2   6  -1 3249.19 144.083  10
  -2   6   1 3235.00 160.219  22
  -2   6   1 2253.73 154.632  57
  -2   6   1 3344.32 207.717  33
   2   6  -1 3779.61 163.309  58
   2   6  -1 3600.57 143.238  19
   2   6  -1 3505.07 142.942  15
   2   6   0 818.760 72.0256  58
   2   6   0 753.312 93.0075  57
   2   6   0 642.817 45.2817  15
  -2   6   0 707.337 70.1469  58
   2   6   0 576.490 110.542  33
  -2   6   0 713.142 121.915  33
   2   6   0 685.214 58.9354   6
  -2   6   0 765.843 81.5741  46
  -2   6   0 458.062 58.1034  57
   2   6   0 773.105 98.9465  44
  -2   6   0 744.077 92.9487  44
  -2   6   0 806.090 133.851  43
   2   6   0 587.343 102.056  43
  -2   6   0 657.397 94.4805  56
   2   6   0 630.446 52.0676  10
  -2   6   0 695.785 109.298  42
  -2   6   0 662.724 86.0497  22
   2   6   0 550.350 54.6022  36
   2   6   0 781.558 78.9451  55
   2   6   0 799.487 47.7120  19
  -2   6  -1 216.642 78.4932  56
   2   6   1 286.367 62.8748  55
   2   6   1 278.843 59.1182  58
  -2   6  -1 275.966 57.6370  58
   2   6   1 314.347 80.6178  57
   2   6   1 289.827 36.1190  15
   2   6   1 273.800 105.617  33
  -2   6  -1 267.506 105.497  33
   2   6   1 185.018 41.3901  36
  -2   6  -1 250.688 64.7796  46
   2   6   1 236.701 50.7360   6
   2   6   1 207.018 91.2487  44
  -2   6  -1 314.332 76.3108  44
   2   6   1 297.822 86.4860  43
  -2   6  -1 194.723 111.196  43
  -2   6  -1 259.446 94.2511  42
   2   6   1 200.893 41.1588  10
  -2   6  -1 235.917 83.5262  22
  -2   6  -1 145.861 24.5065  19
   2   6   2 1414.95 85.0883  36
   2   6   2 1583.26 101.140  58
  -2   6  -2 1470.21 127.570  33
   2   6   2 1571.16 78.8158  15
   2   6   2 1454.37 137.921  33
  -2   6  -2 1497.09 112.414  56
  -2   6  -2 1484.38 95.6361  46
   2   6   2 1690.80 88.3209   6
   2   6   2 1506.05 124.097  44
  -2   6  -2 1526.60 105.988  44
  -2   6  -2 1649.81 140.712  43
   2   6   2 1329.79 76.1879  10
  -2   6  -2 1240.81 117.702  42
  -2   6  -2 1061.52 68.6894  19
   2   6   2 1683.51 123.174  57
   2   6   3 479.419 79.2752  57
  -2   6  -3 393.564 72.6077  56
  -2   6  -3 416.617 55.8352  46
  -2   6  -3 375.572 77.0299  42
   2   6   3 285.606 100.679  33
   2   6   3 473.817 56.3763   6
  -2   6  -3 296.543 90.1199  33
   2   6   3 440.237 37.9715  15
  -2   6  -3 452.448 31.5524  12
  -2   6  -3 349.868 35.8284  19
   2   6   3 410.660 95.5625  44
  -2   6  -3 340.922 88.5073  43
  -2   6  -3 484.491 84.0466  22
   2   6   3 381.929 46.0248  36
   2   6   3 436.519 64.3057  58
   2   6   4 29.0948 29.9179  36
   2   6   4 21.1128 48.2388  58
   2   6   4 47.5973 59.0323  57
  -2   6  -4 23.2494 31.0794  16
  -2   6  -4 26.1218 48.3796  56
   2   6   4 57.9334 45.9114  55
   2   6   4 34.9705 20.3157  15
   2   6   4 34.9453 45.0525   6
  -2   6  -4 76.6815 38.3286  46
  -2   6  -4 26.8609 18.5833  12
   2   6   4 157.360 84.2355  44
  -2   6  -4 71.4812 69.9819  43
  -2   6  -4 60.3550 51.2735  42
  -2   6  -4 69.0725 69.7480  22
  -2   6  -4 41.2979 22.9811  19
  -2   6  -5 224.232 29.0567  16
   2   6   5 242.151 44.7518  58
   2   6   5 188.275 51.1465  57
  -2   6  -5 154.112 40.1147  56
   2   6   5 218.684 42.8029  55
  -2   6  -5 243.734 21.3607  12
   2   6   5 170.485 31.1599  36
   2   6   5 239.839 70.8870  44
  -2   6  -5 183.429 56.7157  43
  -2   6  -5 215.778 43.0659  42
   2   6   5 222.162 30.1382  10
  -2   6  -5 278.597 56.1920  22
  -2   6  -5 200.228 26.0970  19
   2   7  -5-2.99899 54.8585  59
   2   7  -5 3.90124 58.8573  61
  -2   7   5 48.4973 73.4189  33
  -2   7   5 70.6558 31.7365   6
  -2   7   5 220.218 73.7901  43
  -2   7   5 72.8187 23.8447  10
  -2   7   5 73.6356 55.2478  44
   2   7  -5 99.1749 20.4904  19
  -2   7   4 15.9187 34.1051  58
  -2   7   4 76.0860 38.1146  57
  -2   7   4 75.0468 85.3021  33
  -2   7   4-24.4142 38.6668   6
   2   7  -4 76.9206 60.9723  33
   2   7  -4-7.86482 68.2017  59
  -2   7   4-2.22001 82.9502  43
   2   7  -4 31.3876 59.5594  43
  -2   7   4 126.129 65.7420  42
  -2   7   4-9.53862 31.0036  10
  -2   7   4-44.8610 64.6765  44
   2   7  -4 43.4653 20.1286  19
   2   7  -3 103.352 23.0646  19
  -2   7   3 41.7663 39.0685  58
  -2   7   3 33.0402 37.7037  57
   2   7  -3 14.7543 44.4550  57
   2   7  -3 108.463 62.2717  43
   2   7  -3 111.003 68.9003  33
  -2   7   3 100.360 66.6884  44
   2   7  -3 132.860 53.7814  44
  -2   7   3 65.4712 92.4130  43
  -2   7   3 128.317 72.6821  42
  -2   7   3 8.09514 37.9784  10
  -2   7   3 19.8668 91.6008  33
   2   7  -2 113.081 89.6691  59
   2   7  -2 243.295 42.5757  58
   2   7  -2 191.895 53.6683  57
   2   7  -2 284.506 24.6800  15
   2   7  -2 248.561 78.5314  33
  -2   7   2 279.549 57.3748  46
  -2   7   2 228.713 45.5799  58
  -2   7   2 255.706 73.9301  44
   2   7  -2 293.368 61.2261  44
   2   7  -2 217.256 70.3720  43
  -2   7   2 224.400 79.5917  42
  -2   7   2 322.598 60.8233  22
  -2   7   2 299.601 45.5794  10
  -2   7   2 367.494 100.815  33
  -2   7   2 158.287 42.5221  57
   2   7  -2 274.189 29.2474  19
   2   7  -1 329.420 46.5464  58
  -2   7   1 227.469 47.9017  58
  -2   7   1 241.875 98.4575  33
   2   7  -1 201.935 78.3647  33
  -2   7   1 284.904 56.0129  46
  -2   7   1 211.767 69.3178  44
   2   7  -1 283.756 66.0228  44
  -2   7   1 288.699 77.3000  42
  -2   7   1 278.687 68.5141  22
  -2   7   1 258.879 44.8595  10
   2   7  -1 249.207 24.3960  15
   2   7   0 767.092 62.2732  58
   2   7   0 785.775 42.2961  15
   2   7   0 612.926 93.1826  33
  -2   7   0 687.757 101.273  33
  -2   7   0 580.791 67.9926  56
   2   7   0 789.157 53.8267   6
  -2   7   0 831.507 66.2685  46
  -2   7   0 624.750 61.9931  58
  -2   7   0 666.256 76.9606  44
   2   7   0 601.701 76.1813  44
   2   7   0 637.904 44.3293  10
  -2   7   0 746.088 81.3969  22
  -2   7   0 760.871 55.6350  10
  -2   7   0 512.812 81.5390  42
   2   7   1 280.386 45.7198  58
   2   7   1 272.627 59.9025  57
  -2   7  -1 270.268 51.7345  56
   2   7   1 261.621 23.8201  15
   2   7   1 217.891 77.7417  33
  -2   7  -1 302.241 83.6899  33
   2   7   1 324.590 43.4492   6
   2   7   1 317.035 69.0419  44
  -2   7  -1 276.787 60.9176  44
  -2   7  -1 255.734 86.9551  43
   2   7   1 247.328 32.2895  10
  -2   7  -1 306.943 68.9062  42
  -2   7  -1 278.636 73.4816  22
  -2   7  -1 277.278 38.6217  10
   2   7   1 180.701 29.5871  36
   2   7   2 90.4591 23.5414  36
   2   7   2 32.6684 44.4094  59
   2   7   2 98.2353 39.2614  58
   2   7   2 115.638 51.9717  57
  -2   7  -2 126.874 41.8378  56
   2   7   2 126.186 17.2283  15
  -2   7  -2 258.968 70.2018  33
   2   7   2 163.795 39.7769   6
   2   7   2 141.208 60.5773  44
  -2   7  -2 128.455 72.0576  43
  -2   7  -2 140.207 54.6481  42
   2   7   2 102.196 27.9828  10
   2   7   3 311.852 41.6748  58
   2   7   3 248.032 51.0523  57
  -2   7  -3 243.655 40.6900  56
   2   7   3 335.726 44.8195  55
   2   7   3 383.413 39.7797   6
  -2   7  -3 343.426 63.6438  33
   2   7   3 355.197 61.1405  44
  -2   7  -3 268.820 59.4401  43
  -2   7  -3 224.314 42.8121  42
  -2   7  -3 327.805 61.3329  22
  -2   7  -3 379.343 30.8508  16
  -3  -7   5 297.147 62.2535  35
  -3  -7   5 364.032 32.6169   7
  -3  -7   5 233.588 62.4763  52
   3  -7  -5 196.313 29.6881  14
  -3  -7   5 288.944 58.8493  48
   3  -7  -5 146.405 32.6468  60
  -3  -7   4 421.942 81.3737  35
  -3  -7   4 479.991 103.383  34
  -3  -7   4 668.060 45.5530   7
   3  -7  -4 423.967 40.5934  14
   3  -7  -4 300.898 61.3275  49
  -3  -7   4 596.583 75.5928  48
   3  -7  -4 439.194 35.1775  13
  -3  -7   4 383.307 78.2702  47
   3  -7  -4 280.361 73.9547  47
   3  -7  -4 410.383 54.0515   3
  -3  -7   3 234.804 42.0409   7
   3  -7  -3 258.126 91.4715  34
  -3  -7   3 221.364 81.9362  52
   3  -7  -3 152.346 33.6045  14
  -3  -7   3 201.032 61.9910  49
  -3  -7   3 186.557 65.7751  48
  -3  -7   3 172.539 87.6683  47
   3  -7  -3 123.649 28.5544  13
   3  -7  -3 105.604 84.2848  47
   3  -7  -3 195.197 49.2490   3
   3  -7  -3 136.398 67.1230  49
   3  -7  -3 115.947 74.0607  39
  -3  -7   2 63.0410 110.493  34
  -3  -7   2 49.6824 41.8268   7
  -3  -7   2 7.28298 78.8627  52
   3  -7  -2 66.6497 29.7041  14
  -3  -7   2 57.4082 68.1051  49
   3  -7  -2 53.5894 71.1429  49
  -3  -7   2-17.7916 88.1686  47
   3  -7  -2 30.7714 99.9753  34
   3  -7  -2 41.4628 86.5343  47
  -3  -7   2 26.1476 58.4025  39
   3  -7  -2-6.73607 69.6098  39
  -3  -7   1 228.588 111.666  34
   3  -7  -1 246.492 105.487  34
  -3  -7   1 288.002 46.3962   7
  -3  -7   1 316.079 81.5505  52
  -3  -7   1 378.443 81.2167  49
   3  -7  -1 169.670 76.8788  49
  -3  -7   1 296.275 94.1338  47
   3  -7  -1 199.997 33.0293  14
  -3  -7   1 226.114 75.9343  39
  -3  -7   0 1180.24 68.1959   7
  -3  -7   0 1174.64 122.649  34
   3  -7   0 762.303 83.2946  52
  -3  -7   0 918.778 104.794  49
  -3  -7   0 990.516 110.674  47
   3  -7   0 590.728 103.735  47
  -3  -7   0 919.781 100.193  39
   3  -7   0 812.264 98.5774  49
   3  -7   1 270.775 95.9326  34
  -3  -7  -1 354.299 46.5695   8
  -3  -7  -1 320.298 48.3918   7
   3  -7   1 268.621 64.8555  52
   3  -7   1 288.951 52.9859  48
  -3  -7  -1 342.703 80.6986  47
   3  -7   1 168.349 79.3209  47
  -3  -7  -1 325.002 75.0535  49
   3  -7   1 397.607 41.7900   4
  -3  -7  -1 255.026 76.3925  39
   3  -7   2 24.7831 77.0506  34
  -3  -7  -2 50.8812 39.3198   7
  -3  -7  -2 101.766 54.9155  49
   3  -7   2 38.2302 43.7304  48
  -3  -7  -2 67.0349 35.6928   8
   3  -7   2 150.265 54.0159  52
   3  -7   2 67.2676 28.5097   4
  -3  -7  -2 61.5667 59.1707  39
   3  -6  -7 2443.98 119.474  60
   3  -6  -7 2595.34 123.886  14
  -3  -6   7 2851.82 154.153  48
  -3  -6   7 3411.64 156.569  35
  -3  -6   7 3212.76 147.437  53
  -3  -6   7 3324.41 136.580  38
   3  -6  -6 85.3240 36.4921  60
  -3  -6   6 141.125 74.6648  35
  -3  -6   6 83.2284 83.2145  34
  -3  -6   6 140.208 76.2274  52
   3  -6  -6 114.058 33.6210  14
   3  -6  -6 128.479 24.1758  13
   3  -6  -6 87.3927 73.8967  39
  -3  -6   5 110.013 116.092  34
  -3  -6   5 117.990 92.0327  52
  -3  -6   5 133.855 87.8974  48
   3  -6  -5 127.560 54.9703   3
   3  -6  -5 139.582 30.1228  13
  -3  -6   5 184.850 80.9488  47
   3  -6  -5 175.133 48.0760  60
   3  -6  -5 85.8278 77.4346  47
   3  -6  -5 121.225 86.2100  39
  -3  -6   4 4750.61 257.873  34
   3  -6  -4 4178.52 232.032  34
   3  -6  -4 4671.38 202.929   3
   3  -6  -4 4872.99 198.253  14
   3  -6  -4 3345.33 221.762  49
  -3  -6   4 3861.54 213.435  49
  -3  -6   4 5367.56 251.690  48
   3  -6  -4 4662.23 188.374  13
  -3  -6   4 4344.88 235.263  47
   3  -6  -4 3820.90 231.884  47
   3  -6  -4 4303.99 196.686  20
  -3  -6   3 2036.68 173.929  52
   3  -6  -3 2403.56 177.241  34
  -3  -6   3 2741.32 114.047   7
   3  -6  -3 2202.51 116.263  14
   3  -6  -3 2447.57 125.630   3
  -3  -6   3 2254.54 152.421  49
   3  -6  -3 1945.89 158.207  49
  -3  -6   3 2396.87 169.197  48
   3  -6  -3 2293.73 109.541  13
  -3  -6   3 1999.20 167.710  47
   3  -6  -3 2196.06 165.242  39
   3  -6  -3 2078.52 113.783  20
  -3  -6   3 1885.00 137.171  39
   3  -6  -3 2069.82 172.544  47
  -3  -6   2 769.286 109.410  49
  -3  -6   2 769.329 165.112  34
  -3  -6   2 906.471 64.6433   7
   3  -6  -2 812.165 57.8685  13
   3  -6  -2 839.621 62.7793  14
   3  -6  -2 622.846 80.6771  52
   3  -6  -2 742.383 115.955  49
  -3  -6   2 784.509 107.176  48
  -3  -6   2 778.277 134.682  47
   3  -6  -2 748.676 134.639  47
   3  -6  -2 810.069 150.605  34
   3  -6  -2 975.684 76.2514   3
   3  -6  -2 669.353 55.4267  20
   3  -6  -2 827.369 68.8046   4
  -3  -6   2 777.353 105.934  39
   3  -6  -2 683.845 111.968  39
  -3  -6   1 2273.76 201.425  34
   3  -6  -1 2435.78 199.548  34
   3  -6  -1 2664.65 127.872   3
  -3  -6   1 2686.97 116.047   7
   3  -6  -1 2302.66 104.195   7
   3  -6  -1 1899.96 142.534  52
  -3  -6   1 2463.00 174.285  49
   3  -6  -1 2230.32 171.472  49
  -3  -6   1 2037.84 147.730  48
   3  -6  -1 1691.03 127.762  48
  -3  -6   1 2500.68 186.484  47
   3  -6  -1 2236.82 111.883  13
   3  -6  -1 1845.58 148.723  39
  -3  -6   1 2300.60 166.984  39
   3  -6  -1 2579.51 122.206   4
   3  -6  -1 2246.69 115.111  14
   3  -6   0 168.413 67.0483  35
  -3  -6   0 187.786 130.958  34
  -3  -6   0 321.610 51.2391   7
   3  -6   0 237.432 41.3825  14
   3  -6   0 172.605 70.1265  48
  -3  -6   0 208.236 114.537  47
   3  -6   0 153.659 116.280  47
   3  -6   0 314.141 51.3840   4
  -3  -6   0 233.455 32.8807  13
   3  -6   0 221.580 55.2265   3
   3  -6   0 242.780 87.8601  52
  -3  -6   0 256.722 105.959  39
   3  -6   0 246.374 76.3284  39
   3  -6   1 516.425 135.085  34
  -3  -6  -1 618.956 61.2147   7
   3  -6   1 566.492 64.2870   3
  -3  -6  -1 516.116 119.787  34
  -3  -6  -1 478.487 86.2975  52
   3  -6   1 599.723 100.850  52
   3  -6   1 475.671 46.3244  14
  -3  -6  -1 463.386 63.0468  32
  -3  -6  -1 595.081 113.572  49
   3  -6   1 429.774 99.2556  49
  -3  -6  -1 527.208 44.4342  13
   3  -6   1 456.685 87.0643  48
  -3  -6  -1 509.945 110.700  47
   3  -6   1 451.186 111.134  47
   3  -6   1 367.896 81.9053  35
   3  -6   1 401.658 49.0199   1
   3  -6   1 615.305 57.6062   4
   3  -6   2 60.7815 42.5429   4
  -3  -6  -2 76.5421 48.4084   8
  -3  -6  -2 72.6808 51.0238   7
   3  -6   2 38.0767 36.9534   1
   3  -6   2 70.8407 39.5872  53
   3  -6   2 52.7032 81.1267  52
  -3  -6  -2 51.6889 56.7957  32
  -3  -6  -2 3.33653 81.9594  49
   3  -6   2 111.087 70.9604  48
  -3  -6  -2 76.3517 29.8509  13
  -3  -6  -2 7.09130 81.1422  47
   3  -6   2 14.0466 50.5235   3
  -3  -6  -2 71.3036 93.2469  39
   3  -6   2 121.022 87.1991  47
   3  -6   2 31.9804 71.1583  35
   3  -6   2 90.4233 109.123  34
   3  -6   3 302.073 47.7116   1
   3  -6   3 379.378 77.4644  35
   3  -6   3 381.624 51.6324  53
   3  -6   3 236.671 89.7361  34
  -3  -6  -3 375.878 55.5280   7
  -3  -6  -3 375.889 62.7451  32
  -3  -6  -3 402.913 81.7374  49
  -3  -6  -3 332.873 37.6021  13
   3  -6   3 319.898 73.0832  48
   3  -6   3 413.340 55.5862   3
  -3  -6  -3 412.001 51.3994   8
  -3  -6  -3 407.380 85.5674  39
   3  -6   3 381.199 46.8802   4
  -3  -6  -4 1408.88 75.4311   7
   3  -6   4 1200.34 78.2914  53
  -3  -6  -4 1392.83 84.1811  32
  -3  -6  -4 668.674 85.4765  49
  -3  -6  -4 1125.07 65.2021  13
   3  -6   4 1571.36 79.7732   3
  -3  -6  -4 1400.62 71.1847   8
   3  -6   4 1185.64 93.9330  52
   3  -6   4 1330.61 100.962  35
   3  -6   4 864.385 73.4194   1
  -3  -6  -4 1125.97 93.4827  39
   3  -6   4 1508.55 71.7587   4
   3  -5  -8 384.406 35.4152  60
  -3  -5   8 513.721 62.2706  53
   3  -5  -8 339.381 36.9442  14
  -3  -5   8 409.868 67.4069  48
   3  -5  -8 414.257 48.5154  21
   3  -5  -7 2995.37 136.216  14
  -3  -5   7 2794.54 159.236  52
  -3  -5   7 2999.08 175.554  48
   3  -5  -7 2707.33 131.748  60
   3  -5  -7 2631.28 161.403  39
   3  -5  -6 610.593 63.1570  60
   3  -5  -6 671.677 47.3216  13
  -3  -5   6 748.323 106.262  52
  -3  -5   6 870.992 115.383  48
  -3  -5   6 632.590 113.066  34
   3  -5  -6 848.213 106.969  39
   3  -5  -6 803.875 75.2013  20
   3  -5  -6 736.983 60.5607  14
  -3  -5   5 82.9618 125.564  34
  -3  -5   5 49.7723 99.6256  52
   3  -5  -5 60.6812 42.3029  14
   3  -5  -5 104.935 66.2092  49
   3  -5  -5 77.1784 30.0705  13
  -3  -5   5 130.001 81.8157  47
   3  -5  -5-21.8002 87.3457  47
   3  -5  -5 91.1266 54.8256   3
   3  -5  -5-25.4156 108.356  39
   3  -5  -5 100.997 55.8962  20
  -3  -5   4 7280.93 344.114  34
   3  -5  -4 7473.48 323.373  34
  -3  -5   4 6705.25 306.257  49
   3  -5  -4 6332.17 316.561  49
   3  -5  -4 6755.92 275.380  13
  -3  -5   4 6616.77 321.314  47
   3  -5  -4 6670.87 324.576  47
   3  -5  -4 6463.24 285.368   3
   3  -5  -4 7150.09 292.122  20
   3  -5  -4 6428.15 325.653  39
   3  -5  -3 703.840 138.881  34
  -3  -5   3 555.245 199.359  34
   3  -5  -3 486.602 55.5692  14
  -3  -5   3 507.245 88.0936  49
   3  -5  -3 453.935 99.7985  49
   3  -5  -3 498.094 45.5679  13
  -3  -5   3 371.653 115.828  47
   3  -5  -3 612.724 126.621  47
   3  -5  -3 430.107 56.9665   3
  -3  -5   3 389.722 87.0285  39
   3  -5  -3 511.320 60.4504  20
   3  -5  -2 642.944 143.605  34
   3  -5  -2 641.763 57.0550  14
   3  -5  -2 510.137 80.6113  52
   3  -5  -2 627.398 62.6472   3
  -3  -5   2 568.891 99.7298  49
   3  -5  -2 615.830 109.694  49
   3  -5  -2 631.278 50.9584  13
   3  -5  -2 627.949 136.879  47
   3  -5  -2 522.386 66.6472  48
   3  -5  -2 644.260 60.1764  20
  -3  -5   2 659.969 105.425  39
   3  -5  -2 543.016 57.9477   4
   3  -5  -2 713.275 109.848  39
   3  -5  -1 1494.60 116.910  35
  -3  -5   1 1913.47 254.714  34
  -3  -5   1 1939.57 92.5598   7
   3  -5  -1 1706.87 132.670  52
  -3  -5   1 2130.24 157.963  49
   3  -5  -1 1850.88 102.736   3
   3  -5  -1 1987.99 155.817  49
  -3  -5   1 2041.01 87.9872  13
   3  -5  -1 1655.35 121.707  48
   3  -5  -1 1828.23 93.2057  13
   3  -5  -1 2068.63 183.301  34
  -3  -5   1 1985.26 169.260  47
   3  -5  -1 1495.72 91.6979   1
  -3  -5   1 1852.62 150.827  39
   3  -5  -1 1716.21 138.247  39
   3  -5  -1 1780.68 99.2952   4
   3  -5  -1 1818.41 97.8492  14
   3  -5   0 1144.29 112.229  35
  -3  -5   0 1513.36 80.0643   7
   3  -5   0 1158.35 82.1836  53
  -3  -5   0 1376.09 94.4116  32
   3  -5   0 1564.45 133.105  52
   3  -5   0 1385.48 81.7825  14
  -3  -5   0 1436.92 198.538  34
   3  -5   0 1408.49 88.3042   3
   3  -5   0 1424.52 120.122  48
  -3  -5   0 1479.58 150.842  47
   3  -5   0 1265.70 112.425  39
  -3  -5   0 1479.44 74.7084  13
   3  -5   0 1238.30 146.641  47
   3  -5   0 1341.34 86.7594   1
   3  -5   0 1416.57 85.8723   2
  -3  -5   0 1382.76 85.8592  40
  -3  -5   0 1424.94 144.261  39
   3  -5   0 1424.07 85.1550   4
   3  -5   1 3871.82 217.472  35
   3  -5   1 3680.85 224.392  49
  -3  -5  -1 3630.97 232.062  34
   3  -5   1 4312.16 239.487  34
  -3  -5  -1 3989.23 170.463   7
   3  -5   1 3749.07 187.580  53
  -3  -5  -1 4181.65 191.417  32
   3  -5   1 3926.11 220.268  52
   3  -5   1 3734.81 174.941  14
  -3  -5  -1 4120.78 240.179  49
   3  -5   1 4391.40 221.074  48
   3  -5   1 4076.10 181.680   3
  -3  -5  -1 3823.87 227.072  47
   3  -5   1 3649.02 221.241  47
   3  -5   1 4293.81 177.433   2
  -3  -5  -1 4037.76 183.170  40
  -3  -5  -1 4256.35 234.061  39
   3  -5   1 4002.62 177.614   4
   3  -5   2 240.040 48.7390   4
   3  -5   2 166.771 88.4048  35
  -3  -5  -2 254.125 95.7400  34
   3  -5   2 163.399 119.429  34
  -3  -5  -2 129.200 49.7830   7
   3  -5   2 231.241 44.8947   2
   3  -5   2 75.3009 53.0574  53
  -3  -5  -2 221.668 74.1054  32
   3  -5   2 141.752 36.0109  14
  -3  -5  -2-43.5165 93.4357  49
   3  -5   2 28.9521 83.0218  49
   3  -5   2 166.892 87.9390  48
  -3  -5  -2 227.420 91.5578  47
   3  -5   2 145.190 52.1642   3
  -3  -5  -2 189.777 66.2677  40
  -3  -5  -2 157.877 104.890  39
   3  -5   2 131.315 34.6759  38
   3  -5   2 122.750 90.0884  47
   3  -5   3 2360.73 164.735  35
  -3  -5  -3 2370.09 117.421   7
   3  -5   3 1729.77 155.472  34
   3  -5   3 2329.41 135.881  53
   3  -5   3 1251.15 132.759  47
  -3  -5  -3 2574.57 140.872  32
   3  -5   3 1876.63 152.276  52
  -3  -5  -3 1861.81 136.643  47
   3  -5   3 2378.67 124.352   3
  -3  -5  -3 2483.73 115.635   8
  -3  -5  -3 2075.31 162.994  49
   3  -5   3 2410.89 118.935   4
  -3  -5  -3 2461.03 135.491  40
   3  -5   3 2429.45 113.658   2
  -3  -5  -3 2290.66 159.005  39
   3  -5   3 2325.08 116.790  38
   3  -5   4 1780.70 141.139  35
  -3  -5  -4 2200.24 123.847  32
  -3  -5  -4 1917.21 103.806   7
  -3  -5  -4 2022.44 99.2951   8
   3  -5   4 1572.58 128.778  48
   3  -5   4 1915.10 107.924   3
   3  -5   4 1923.89 118.608  53
  -3  -5  -4 1395.73 126.757  49
   3  -5   4 2008.98 102.590   4
  -3  -5  -4 1978.38 120.501  40
   3  -5   4 1610.76 129.557  52
  -3  -5  -4 1533.76 126.979  39
   3  -5   4 1787.33 100.594  38
   3  -5   5 2173.73 103.533   4
  -3  -5  -5 2205.38 106.214   7
   3  -5   5 2024.64 115.980  53
   3  -5   5 1712.04 120.120  52
   3  -5   5 1584.27 119.237  48
   3  -5   5 2040.98 108.616   3
  -3  -5  -5 2232.17 118.923  40
  -3  -5  -5 2085.85 100.863   9
   3  -5   5 1941.39 102.704  38
  -3  -5  -5 2223.51 101.272   8
  -3  -5  -6 262.213 45.9592  32
   3  -5   6 327.207 53.7832  35
   3  -5   6 425.065 43.4443   3
   3  -5   6 329.072 33.6234  38
  -3  -5  -6 348.924 37.8596   8
   3  -5   6 284.295 40.1614  53
   3  -5   6 396.586 36.3650   4
   3  -4  -9 1363.71 68.7381  60
  -3  -4   9 1276.50 84.0885  53
   3  -4  -9 1406.25 71.5385  62
   3  -4  -9 1547.24 79.0235  21
  -3  -4   9 1493.64 86.9649  38
  -3  -4   8 11403.0 423.036  53
  -3  -4   8 10816.2 426.982  48
   3  -4  -8 9747.53 391.597  60
   3  -4  -8 10512.6 395.542  21
   3  -4  -8 9344.93 392.417  14
   3  -4  -8 9042.66 394.336  64
   3  -4  -8 9943.09 392.311  62
   3  -4  -7 1085.75 74.6802  60
   3  -4  -7 989.206 63.6162  62
  -3  -4   7 1291.97 110.312  35
   3  -4  -7 1202.51 73.2530  14
  -3  -4   7 1224.01 116.547  48
   3  -4  -7 1124.46 71.2145  64
   3  -4  -7 1131.58 82.9187  20
   3  -4  -7 1026.77 104.752  39
  -3  -4   7 1093.40 97.8429  52
   3  -4  -6 3312.99 172.938  60
   3  -4  -6 4454.10 175.864  14
  -3  -4   6 3823.58 204.952  52
   3  -4  -6 4316.55 191.836  32
   3  -4  -6 3730.96 159.979  13
   3  -4  -6 4088.63 180.997  20
   3  -4  -6 3914.52 209.928  39
  -3  -4   6 3625.63 202.411  34
   3  -4  -6 3436.86 161.892  62
   3  -4  -5 4098.97 210.293  47
   3  -4  -5 3684.85 206.570  34
   3  -4  -5 3983.41 184.885   3
   3  -4  -5 3441.10 199.545  49
   3  -4  -5 4050.46 172.122  13
  -3  -4   5 4226.63 208.064  47
   3  -4  -5 4680.72 225.638  39
   3  -4  -5 4577.27 185.192  14
  -3  -4   5 4309.30 235.011  34
   3  -4  -4 5626.80 280.801  34
   3  -4  -4 6506.67 251.748  14
   3  -4  -4 6027.18 251.674   3
   3  -4  -4 5905.01 258.501  32
  -3  -4   4 5942.58 268.141  49
   3  -4  -4 5582.67 278.342  49
   3  -4  -4 5877.58 241.730  13
  -3  -4   4 6060.94 281.251  47
   3  -4  -4 6486.79 292.174  47
  -3  -4   4 5227.84 261.398  39
   3  -4  -4 6624.57 292.132  39
   3  -4  -4 5998.79 255.459  20
   3  -4  -3 1201.51 130.942  34
   3  -4  -3 1179.88 73.3779   3
  -3  -4   3 1291.27 101.269  49
   3  -4  -3 1288.04 112.117  49
   3  -4  -3 1207.27 64.7964  13
   3  -4  -3 1121.57 123.032  47
  -3  -4   3 1138.19 99.8713  39
   3  -4  -3 1340.95 79.0626  20
   3  -4  -3 1144.22 71.5588   4
   3  -4  -2 4048.87 214.829  48
   3  -4  -2 5597.68 256.012  34
   3  -4  -2 4286.75 220.712  52
  -3  -4   2 5535.89 245.843  49
   3  -4  -2 5091.59 247.172  49
   3  -4  -2 4898.77 198.462  13
   3  -4  -2 5177.30 252.587  47
   3  -4  -2 5087.58 205.411  14
   3  -4  -2 4563.07 203.545   3
   3  -4  -2 4523.94 205.605   2
  -3  -4   2 5162.82 238.109  39
   3  -4  -2 4501.84 200.326   1
   3  -4  -2 5250.40 241.579  39
   3  -4  -2 5526.81 210.081  20
   3  -4  -1 3109.86 176.938  35
   3  -4  -1 3716.46 215.278  34
   3  -4  -1 3495.57 152.810  13
  -3  -4   1 3572.49 164.090  32
   3  -4  -1 3608.90 187.722  52
  -3  -4   1 3828.51 202.168  49
   3  -4  -1 3582.68 200.214  49
   3  -4  -1 3398.43 158.235   3
   3  -4  -1 3461.92 182.350  48
   3  -4  -1 3712.42 163.273   1
   3  -4  -1 3351.05 159.479   2
   3  -4  -1 3628.33 158.436  14
  -3  -4   1 3602.08 202.766  39
   3  -4  -1 3646.05 189.125  39
   3  -4  -1 4110.29 161.390  20
  -3  -4   1 3756.51 151.132   7
  -3  -4   0 5864.01 231.158   7
   3  -4   0 5546.81 246.411  53
   3  -4   0 6351.66 274.702  52
   3  -4   0 5639.73 237.609  14
   3  -4   0 5888.04 270.603  48
   3  -4   0 5448.97 238.716   3
   3  -4   0 5407.90 232.417  13
   3  -4   0 5895.25 283.614  47
  -3  -4   0 5935.42 250.084  32
  -3  -4   0 5873.99 242.259  40
   3  -4   0 5690.11 239.478   2
   3  -4   0 5403.00 260.055  39
   3  -4   0 5925.11 270.616  35
   3  -4   0 6402.04 290.873  34
   3  -4   1 95.9440 47.1723  53
   3  -4   1 119.873 72.9302  35
   3  -4   1 103.338 37.4098   4
   3  -4   1 36.7694 107.937  34
  -3  -4  -1 80.9654 35.4519   7
   3  -4   1 156.669 42.3515   2
   3  -4   1 173.993 86.4626  52
  -3  -4  -1 75.2260 64.8852  32
   3  -4   1 125.843 36.4843  14
   3  -4   1 86.1208 78.0749  49
   3  -4   1 229.340 81.0803  48
   3  -4   1 240.198 91.0370  47
   3  -4   1 98.9216 40.8513   3
  -3  -4  -1 138.228 57.5261  40
  -3  -4  -1 49.8246 94.5923  39
   3  -4   1 76.4679 58.8559  39
   3  -4   1 100.057 31.6134  38
   3  -4   2 1293.23 123.117  35
  -3  -4  -2 1219.69 75.2053   7
  -3  -4  -2 868.927 155.976  34
   3  -4   2 1123.95 74.8597  54
   3  -4   2 1456.92 100.468  53
   3  -4   2 1259.26 77.4441  14
   3  -4   2 1164.83 115.903  49
  -3  -4  -2 1192.80 119.881  47
   3  -4   2 994.187 113.869  47
   3  -4   2 1280.41 82.1452   3
  -3  -4  -2 1386.51 75.9659  45
   3  -4   2 1381.41 81.0508   4
  -3  -4  -2 1537.40 103.358  40
  -3  -4  -2 1383.33 127.593  39
   3  -4   2 1477.55 84.3616   2
   3  -4   2 1430.80 83.8404  38
   3  -4   2 1188.56 136.865  34
  -3  -4  -2 1510.49 108.201  32
   3  -4   3 248.033 95.2613  35
   3  -4   3 192.060 41.2991  54
  -3  -4  -3 212.046 50.0210   7
   3  -4   3 248.472 66.6246  53
   3  -4   3 173.486 91.0092  52
   3  -4   3 254.360 49.7354   2
  -3  -4  -3 244.753 85.8289  49
   3  -4   3 261.443 87.3628  48
  -3  -4  -3 180.772 69.2426  47
   3  -4   3 103.750 74.4672  47
  -3  -4  -3 241.694 47.3679  45
   3  -4   3 216.563 47.7202   4
   3  -4   3 195.884 51.1845   3
   3  -4   3 125.886 93.4207  34
  -3  -4  -3 203.447 76.6847  40
  -3  -4  -3 191.852 89.5099  39
   3  -4   3 274.234 50.2745  38
  -3  -4  -4 314.575 80.7373  49
   3  -4   4 421.418 56.1397   4
  -3  -4  -4 433.624 59.9462   7
   3  -4   4 371.390 52.5010  54
   3  -4   4 339.458 70.7541  53
   3  -4   4 364.322 54.4347   2
   3  -4   4 363.696 87.6376  52
  -3  -4  -4 469.399 55.3414   8
   3  -4   4 353.574 85.0894  48
  -3  -4  -4 429.979 54.3220  45
   3  -4   4 346.067 58.8028   3
  -3  -4  -4 568.697 87.1000  40
  -3  -4  -4 293.607 79.5907  39
   3  -4   4 477.506 58.1439  38
   3  -4   5 408.511 87.6417  35
  -3  -4  -5 329.385 59.4338   7
   3  -4   5 350.181 52.7649   4
   3  -4   5 337.668 74.0990  52
   3  -4   5 379.320 50.7134  54
  -3  -4  -5 392.969 75.7681  32
   3  -4   5 344.092 50.1862   2
   3  -4   5 361.585 74.3349  48
  -3  -4  -5 372.939 52.4593  45
   3  -4   5 322.768 57.8937   3
  -3  -4  -5 394.482 52.7395   8
   3  -4   5 425.295 54.5030  38
  -3  -4  -5 378.255 55.6163   9
   3  -4   5 302.408 64.6041  53
   3  -4   6 13.8938 41.6888  53
  -3  -4  -6-1.62423 40.4061   8
   3  -4   6 57.7772 39.1379   4
   3  -4   6 51.2832 44.1643  48
   3  -4   6 44.6392 33.4613   2
   3  -4   6 32.5167 44.4661  52
  -3  -4  -6 14.6914 51.3032  32
  -3  -4  -6 25.9266 38.0626  45
   3  -4   6 23.0859 43.1324   3
  -3  -4  -6-27.8051 58.3661  40
  -3  -4  -6-11.3048 43.5097   9
   3  -4   6 19.1858 59.1847  35
   3  -4   6-17.0575 33.9786  38
   3  -4   6 31.0388 33.9178  54
  -3  -4  -7 18.0980 29.2261   8
   3  -4   7 31.6816 28.2458   4
   3  -4   7 39.3429 23.9358  54
   3  -4   7 47.3302 27.2313  53
  -3  -4  -7 48.4741 28.9119  45
  -3  -4  -7 92.4080 35.2039  32
   3  -4   7 37.7462 33.2765   3
  -3  -4  -7 59.8046 37.0839  40
   3  -4   7 17.1343 22.7273  38
   3  -4   7-14.8891 38.9562  35
   3  -3 -10 83.5764 25.7386  62
  -3  -3  10 43.8414 30.4997  54
   3  -3 -10 71.3350 18.1710  60
   3  -3 -10 70.4930 32.4330  21
  -3  -3  10 73.0643 27.1461  38
   3  -3 -10 42.5550 28.3232  64
   3  -3  -9 52.0784 30.8581  62
   3  -3  -9 33.2837 44.6069  21
  -3  -3   9 14.1340 40.9425  38
   3  -3  -9-1.28753 35.4407  64
   3  -3  -9 29.9873 28.8726  60
   3  -3  -8 1412.04 76.6830  62
  -3  -3   8 1297.23 94.3315  53
   3  -3  -8 1135.06 67.6426  14
  -3  -3   8 1226.88 98.3018  48
   3  -3  -8 1260.18 73.3371  60
   3  -3  -8 1234.66 81.1665  21
   3  -3  -8 1191.67 79.2848  64
   3  -3  -7 6033.92 224.598  62
  -3  -3   7 5631.67 249.253  35
   3  -3  -7 5167.56 218.768  14
   3  -3  -7 4997.26 221.623  60
   3  -3  -7 5528.07 227.260  64
   3  -3  -7 4919.44 225.490  20
   3  -3  -6 760.534 49.9997  62
   3  -3  -6 539.285 57.1218  60
   3  -3  -6 739.321 52.8662  14
   3  -3  -6 801.781 78.9725  32
   3  -3  -6 542.002 38.7785  13
  -3  -3   6 665.444 93.2185  34
   3  -3  -6 612.269 63.7966  20
   3  -3  -6 559.348 87.1470  39
   3  -3  -5 1012.58 60.2564  62
   3  -3  -5 1198.21 67.0484  14
   3  -3  -5 1255.15 86.1887  32
   3  -3  -5 1063.45 55.9925  13
   3  -3  -5 1209.11 100.416  47
   3  -3  -5 1092.43 70.7225   3
   3  -3  -5 1134.86 109.222  39
   3  -3  -5 1097.71 72.6096  20
   3  -3  -4 12056.1 495.329  49
   3  -3  -4 13719.0 499.993  34
   3  -3  -4 13140.9 473.860  14
   3  -3  -4 12393.3 474.318   3
   3  -3  -4 11058.5 465.981   1
  -3  -3   4 12573.4 486.484  49
   3  -3  -4 10668.9 476.360  17
   3  -3  -4 12190.0 466.251  13
   3  -3  -4 13316.8 501.860  47
   3  -3  -4 10583.4 571.293  63
   3  -3  -4 11152.3 471.357   4
   3  -3  -4 13343.9 504.629  39
   3  -3  -3 1904.99 85.5242  13
   3  -3  -3 2052.26 134.852  34
   3  -3  -3 1985.67 92.0867  14
   3  -3  -3 1742.99 100.542  52
   3  -3  -3 1851.90 119.185  49
   3  -3  -3 1686.72 94.1848  48
   3  -3  -3 2066.28 131.945  47
  -3  -3   3 2590.15 137.210  26
  -3  -3   3 2816.68 134.737  24
   3  -3  -3 1857.28 87.8672   1
   3  -3  -3 1755.51 97.9319  17
   3  -3  -3 2135.18 129.550  39
   3  -3  -2 1417.29 80.8803  17
   3  -3  -2 1633.83 127.417  34
   3  -3  -2 1420.72 96.6226  52
  -3  -3   2 1447.33 79.6843  32
  -3  -3   2 1338.49 106.936  51
   3  -3  -2 1174.79 95.7346  50
  -3  -3   2 1547.90 104.224  50
  -3  -3   2 1438.84 88.8271  31
   3  -3  -2 1535.95 108.611  49
   3  -3  -2 1374.90 88.7991  48
   3  -3  -2 1391.40 68.5932  13
   3  -3  -2 1550.58 118.754  47
  -3  -3   2 2068.15 109.427  24
  -3  -3   2 1773.19 83.9258  17
   3  -3  -2 1536.26 76.8216   1
   3  -3  -2 1404.12 107.989  39
   3  -3  -1 762.586 55.8633  17
   3  -3  -1 612.566 66.7360  35
  -3  -3   1 856.277 58.1465  17
   3  -3  -1 686.239 49.2971  53
  -3  -3   1 728.801 61.0006  32
   3  -3  -1 725.133 48.7755  14
   3  -3  -1 701.691 78.0986  52
  -3  -3   1 657.385 70.9938  51
  -3  -3   1 799.671 75.0229  50
   3  -3  -1 662.714 84.1089  49
  -3  -3   1 738.888 62.3976  30
   3  -3  -1 691.473 42.9792  13
   3  -3  -1 609.174 69.3564  48
  -3  -3   1 908.364 72.7665  24
   3  -3  -1 708.332 54.4357   1
  -3  -3   1 770.921 53.7327  40
   3  -3  -1 712.258 82.2581  39
  -3  -3   0 1312.14 96.0740  18
   3  -3   0 1182.37 91.5290  35
   3  -3   0 1091.78 70.9343  53
  -3  -3   0 1049.73 78.6327  32
   3  -3   0 1156.40 62.9994  14
   3  -3   0 1105.28 96.2516  52
  -3  -3   0 855.246 77.5949  51
   3  -3   0 1149.66 91.6585  48
   3  -3   0 990.092 56.5059  13
   3  -3   0 1113.67 104.205  47
  -3  -3   0 1086.14 74.4223  40
   3  -3   0 989.173 82.4872  39
   3  -3   0 1041.06 58.7813  38
   3  -3   0 1156.36 116.179  34
  -3  -3   0 1322.63 72.6553  17
   3  -3   1 3912.84 198.686  35
   3  -3   1 4061.34 203.839  34
   3  -3   1 3877.88 166.309  54
   3  -3   1 4318.47 183.135  53
  -3  -3  -1 4246.04 181.771  32
   3  -3   1 3644.78 166.571  14
   3  -3   1 4276.55 199.897  48
   3  -3   1 3945.43 199.154  47
   3  -3   1 3121.62 163.996   3
  -3  -3  -1 4098.74 167.587  45
   3  -3   1 3737.35 199.469  49
  -3  -3  -1 4161.37 180.650  40
  -3  -3  -1 3468.49 219.732  39
   3  -3   1 4216.02 170.971  38
  -3  -3  -1 3995.35 175.849  17
   3  -3   1 3967.77 170.253   2
   3  -3   2 59.0562 49.2967  53
   3  -3   2 86.7222 86.4326  34
   3  -3   2 29.9758 31.7521  54
  -3  -3  -2 74.1296 34.7840   7
   3  -3   2 29.8759 73.7215  52
   3  -3   2 27.0988 33.1912  14
   3  -3   2 71.1936 40.6947   2
   3  -3   2 105.084 70.4798  47
  -3  -3  -2 42.8840 33.1861   8
  -3  -3  -2 105.204 43.1438  45
   3  -3   2 123.504 73.4668  35
  -3  -3  -2 89.9468 65.1243  40
  -3  -3  -2-16.4999 119.365  39
   3  -3   2 53.2922 36.8023  38
   3  -3   3 2036.53 146.201  35
  -3  -3  -3 1911.91 101.243   7
   3  -3   3 1767.59 132.977  34
  -3  -3  -3 2363.86 113.965  45
   3  -3   3 2225.02 113.146  54
   3  -3   3 2281.35 127.980  53
  -3  -3  -3 2289.39 129.357  32
   3  -3   3 2049.05 136.943  52
   3  -3   3 2078.88 137.976  48
  -3  -3  -3 2273.13 133.133  40
  -3  -3  -3 1891.36 133.832  39
   3  -3   3 2231.04 115.178  38
   3  -3   3 2112.63 97.6850  37
   3  -3   3 2128.97 112.072   2
  -3  -3  -4 1320.49 82.1675   7
   3  -3   4 1349.08 89.2738  54
  -3  -3  -4 1311.72 105.853  32
   3  -3   4 1191.62 106.576  52
   3  -3   4 1099.97 105.286  48
  -3  -3  -4 1504.76 92.3643  45
  -3  -3  -4 1187.49 100.746  39
   3  -3   4 1398.84 91.3477  38
   3  -3   4 1339.61 74.5064  37
   3  -3   4 1389.64 90.5495   2
   3  -3   5 2723.88 178.329  35
   3  -3   5 3102.53 147.188   4
  -3  -3  -5 2963.14 141.730   7
   3  -3   5 3188.52 153.670  54
   3  -3   5 2747.71 158.718  53
   3  -3   5 2549.95 156.818  52
  -3  -3  -5 3252.04 160.469  32
  -3  -3  -5 3167.97 151.342  45
   3  -3   5 3086.07 149.611   2
  -3  -3  -5 3085.06 166.589  40
  -3  -3  -5 3055.36 141.287   9
   3  -3   5 3233.28 152.972  38
  -3  -3  -5 3002.69 137.447   8
   3  -3   5 2824.42 135.814  37
   3  -3   5 2507.60 158.978  48
   3  -3   6 309.396 59.6705  53
   3  -3   6 500.352 56.8305   4
  -3  -3  -6 450.734 61.2291   7
   3  -3   6 461.652 55.8750  54
  -3  -3  -6 431.310 53.1929   8
   3  -3   6 429.549 58.1515   2
   3  -3   6 367.720 56.1364  48
  -3  -3  -6 336.645 64.4035  32
  -3  -3  -6 414.805 59.6697  45
  -3  -3  -6 464.468 75.4771  40
  -3  -3  -6 427.214 56.3711   9
   3  -3   6 454.116 78.5281  35
   3  -3   6 447.249 42.4589  37
   3  -3   7 1138.79 89.9787  35
   3  -3   7 1423.26 81.2305  54
   3  -3   7 1509.07 80.6861   4
  -3  -3  -7 1211.11 77.9160  32
  -3  -3  -7 1456.53 79.1438  45
  -3  -3  -7 1406.62 86.6194  40
  -3  -3  -7 1264.19 74.5053   9
   3  -3   7 1207.58 75.0958  38
  -3  -3  -7 1422.69 74.7700   8
   3  -3   7 1252.78 76.1952   2
   3  -3   7 1251.75 69.2325  37
   3  -3   7 1260.72 80.6877  53
   3  -2 -10 579.118 51.1028  64
  -3  -2  10 525.176 47.1203  54
   3  -2 -10 639.164 48.4820  21
   3  -2 -10 490.675 36.7988  60
   3  -2 -10 536.569 47.6186  62
   3  -2  -9 7747.20 308.042  60
   3  -2  -9 7392.72 320.242  64
   3  -2  -9 8227.83 311.213  21
  -3  -2   9 7289.47 319.313  38
   3  -2  -9 7699.79 316.416  62
  -3  -2   8 4048.41 193.270  53
   3  -2  -8 4590.47 184.834  60
   3  -2  -8 4281.46 183.353  21
   3  -2  -8 4218.26 190.835  64
   3  -2  -7 17502.2 635.292  62
   3  -2  -7 16753.5 632.021  60
   3  -2  -7 15195.7 623.798  14
   3  -2  -7 15674.1 627.365  21
   3  -2  -7 14809.5 629.913  20
   3  -2  -7 18936.1 642.177  64
   3  -2  -6 528.171 45.0061  62
   3  -2  -6 638.786 42.1485  14
   3  -2  -6 432.201 37.8570   1
   3  -2  -6 625.222 65.1545  32
   3  -2  -6 542.909 51.2720  60
   3  -2  -6 590.186 51.3016  20
   3  -2  -6 538.919 73.2767  39
   3  -2  -6 519.106 458.132  63
   3  -2  -5 6030.51 229.414  14
   3  -2  -5 6172.22 240.561  32
   3  -2  -5 5107.54 246.955  47
   3  -2  -5 5539.50 226.920   1
   3  -2  -5 5525.32 252.612  39
   3  -2  -5 5398.84 232.682  20
   3  -2  -5 5381.12 272.065  63
   3  -2  -5 4698.13 231.662  17
   3  -2  -4 10070.8 418.893  17
   3  -2  -4 10757.3 416.368  14
   3  -2  -4 10007.5 414.683   1
   3  -2  -4 10192.9 422.650  32
   3  -2  -4 9230.86 429.339  50
   3  -2  -4 10606.7 429.965  49
  -3  -2   4 11438.5 414.216  31
   3  -2  -4 9558.84 409.830  13
   3  -2  -4 11746.3 440.389  47
  -3  -2   4 11384.5 419.955  28
  -3  -2   4 14871.3 475.226  26
  -3  -2   4 16271.0 465.962  24
   3  -2  -4 11388.4 440.938  39
   3  -2  -4 11306.1 436.760  34
  -3  -2   4 11940.6 427.269  18
   3  -2  -3 25419.2 933.629  17
   3  -2  -3 25322.5 950.909  34
   3  -2  -3 24378.2 936.439  48
   3  -2  -3 23663.4 950.754  51
   3  -2  -3 25629.4 947.434  50
  -3  -2   3 29606.9 958.023  50
   3  -2  -3 23167.9 926.551  13
  -3  -2   3 28550.9 936.991  31
   3  -2  -3 26875.2 943.367  31
   3  -2  -3 27219.5 954.693  47
  -3  -2   3 18552.9 924.233  28
  -3  -2   3 34343.1 975.563  26
   3  -2  -3 23763.1 987.568  25
  -3  -2   3 35954.2 972.505  24
   3  -2  -3 23862.0 956.428  23
   3  -2  -3 26982.6 952.397  49
   3  -2  -3 28355.4 956.658  39
   3  -2  -3 25215.8 932.889   1
   3  -2  -3 25972.5 932.654  14
   3  -2  -2 3912.40 151.859  14
   3  -2  -2 4093.12 184.438  34
   3  -2  -2 4044.70 164.107  48
   3  -2  -2 4141.66 165.238  52
  -3  -2   2 4291.11 177.352  51
   3  -2  -2 4119.69 167.600  50
  -3  -2   2 4748.57 172.314  50
  -3  -2   2 4652.60 164.600  31
   3  -2  -2 4477.43 169.369  31
   3  -2  -2 4160.33 177.138  49
  -3  -2   2 4333.10 160.942  30
   3  -2  -2 3689.25 145.978  13
   3  -2  -2 4428.92 183.970  47
  -3  -2   2 5383.92 181.194  26
   3  -2  -2 3511.40 206.197  25
   3  -2  -2 2762.64 142.609  24
  -3  -2   2 5536.77 184.662  24
   3  -2  -2 4270.13 187.696  23
   3  -2  -2 4041.94 171.765  51
   3  -2  -2 4603.60 156.377  18
  -3  -2   2 4711.43 154.727  17
   3  -2  -2 4307.44 156.300   1
   3  -2  -2 4155.27 154.201  17
   3  -2  -1 8233.15 325.686  35
   3  -2  -1 9304.27 320.642  18
   3  -2  -1 8028.15 314.161  53
   3  -2  -1 8357.85 327.218  52
  -3  -2   1 8191.50 323.064  51
   3  -2  -1 8381.48 332.106  51
  -3  -2   1 9172.16 329.401  50
   3  -2  -1 8733.24 333.846  50
   3  -2  -1 9037.82 332.881  31
   3  -2  -1 7915.87 334.030  49
  -3  -2   1 9458.21 315.095  17
  -3  -2   1 8729.42 330.974  30
   3  -2  -1 9108.50 329.984  48
   3  -2  -1 7204.59 306.748  13
  -3  -2   1 5804.29 303.191  28
  -3  -2   1 9041.34 327.480  27
   3  -2  -1 7206.11 365.617  25
   3  -2  -1 8947.66 321.879  24
  -3  -2   1 10502.9 343.818  24
   3  -2  -1 9325.10 319.802   1
   3  -2  -1 8928.45 352.816  23
   3  -2  -1 7468.66 327.110  39
   3  -2   0 3463.29 169.613  35
   3  -2   0 3567.98 179.271  34
   3  -2   0 3632.41 156.438  53
   3  -2   0 3347.74 166.798  52
  -3  -2   0 3328.48 155.516  51
   3  -2   0 4151.50 184.048  51
  -3  -2   0 3737.14 166.712  50
   3  -2   0 3789.87 174.086  31
  -3  -2   0 3975.00 184.813  31
  -3  -2   0 3416.26 172.610  30
   3  -2   0 3804.14 169.390  48
   3  -2   0 3395.58 173.852  47
  -3  -2   0 3766.28 152.471  28
   3  -2   0 3120.80 147.674  14
   3  -2   0 3126.03 142.622  27
  -3  -2   0 3563.21 149.297  45
  -3  -2   0 4245.62 176.512  24
   3  -2   0 4047.14 164.759  18
  -3  -2   0 3618.02 157.479  40
   3  -2   0 2969.53 161.620  39
  -3  -2   0 4019.77 152.975  17
  -3  -2   0 4253.31 175.431  18
   3  -2   0 3591.53 148.592  38
  -3  -2  -1 4894.66 208.543  18
   3  -2   1 4330.44 204.960  35
   3  -2   1 4344.26 181.390  54
   3  -2   1 4386.58 205.585  34
   3  -2   1 4683.77 192.987  53
   3  -2   1 3951.29 180.265  14
   3  -2   1 4408.50 221.875  51
  -3  -2  -1 3657.35 197.541  50
  -3  -2  -1 4250.71 216.511  31
   3  -2   1 3843.25 199.365  47
  -3  -2  -1 4433.94 191.238  28
   3  -2   1 4312.31 181.640  27
   3  -2   1 4653.56 200.008  26
  -3  -2  -1 4317.99 182.774  45
  -3  -2  -1 4772.31 224.221  23
  -3  -2  -1 4544.52 186.586  17
  -3  -2  -1 4286.76 191.537  40
   3  -2   1 4733.63 183.944  38
   3  -2   1 4345.88 174.090  37
  -3  -2  -2 9705.31 395.832  18
   3  -2   2 9862.06 395.763  35
   3  -2   2 7362.95 375.887  47
   3  -2   2 9292.66 383.224  34
   3  -2   2 9752.37 371.604  54
   3  -2   2 10292.5 382.668  53
   3  -2   2 8565.63 382.532  52
  -3  -2  -2 9473.01 375.895  32
   3  -2   2 8949.39 366.650  14
  -3  -2  -2 7620.85 398.059  31
   3  -2   2 9164.62 386.982  48
  -3  -2  -2 9038.45 382.528  28
   3  -2   2 9500.14 374.653  27
  -3  -2  -2 9700.93 369.892  45
   3  -2   2 10556.4 399.828  26
  -3  -2  -2 8120.16 392.117  24
  -3  -2  -2 9549.24 401.588  23
  -3  -2  -2 8967.38 360.332  41
  -3  -2  -2 9989.95 379.418  40
  -3  -2  -2 8521.92 370.649  17
   3  -2   2 10090.8 372.564  38
   3  -2   2 9688.49 362.463  37
   3  -2   3 3229.86 144.920  54
   3  -2   3 2932.48 143.535   2
   3  -2   3 2932.54 138.122   4
  -3  -2  -3 2749.54 130.934   7
  -3  -2  -3 3149.60 150.340  32
   3  -2   3 2642.62 153.261  52
   3  -2   3 2848.07 157.607  48
  -3  -2  -3 3237.37 144.516  45
  -3  -2  -3 3120.56 132.941  41
  -3  -2  -3 2490.47 173.088  39
   3  -2   3 3253.51 143.615  38
  -3  -2  -3 2800.04 129.281   8
   3  -2   3 3200.32 133.543  37
   3  -2   4 2085.68 117.539   2
   3  -2   4 2255.34 117.647  54
   3  -2   4 2089.15 143.916  35
   3  -2   4 2142.51 123.216  53
  -3  -2  -4 2218.17 122.828  32
   3  -2   4 1934.11 122.916  52
   3  -2   4 2065.31 125.677  48
  -3  -2  -4 2263.57 118.665  45
   3  -2   4 2064.67 100.167   5
   3  -2   4 1830.55 109.362   4
  -3  -2  -4 2141.18 103.867  41
  -3  -2  -4 2284.29 132.112  40
  -3  -2  -4 2046.04 104.560   7
   3  -2   4 2095.02 103.755  37
   3  -2   5 791.651 98.4920  35
  -3  -2  -5 708.456 64.8048   7
   3  -2   5 876.647 73.2866  54
   3  -2   5 686.288 73.1736  53
  -3  -2  -5 737.689 77.3864  32
   3  -2   5 595.848 72.5810  52
   3  -2   5 668.031 71.2702  48
   3  -2   5 729.213 75.9488   2
  -3  -2  -5 657.984 56.7698  41
  -3  -2  -5 767.030 93.3587  40
  -3  -2  -5 705.276 66.4599   9
   3  -2   5 681.694 65.5848  38
   3  -2   5 781.903 56.8791  37
  -3  -2  -6 1524.73 93.1867   7
   3  -2   6 1572.36 118.658  35
   3  -2   6 1746.34 101.896  54
   3  -2   6 1640.46 103.460   2
   3  -2   6 1531.17 100.710  53
  -3  -2  -6 1512.36 97.6137  32
  -3  -2  -6 1623.64 88.6741   8
  -3  -2  -6 1511.17 86.5077  41
   3  -2   6 1511.49 88.5805  37
  -3  -2  -6 1633.38 111.234  40
  -3  -2  -6 1626.22 92.9597   9
   3  -2   6 1453.05 93.4573  38
   3  -2   7 583.066 70.1413  35
   3  -2   7 728.086 63.1628  54
   3  -2   7 731.105 69.1022   2
  -3  -2  -7 805.675 65.4711  45
  -3  -2  -7 636.582 69.8157  40
  -3  -2  -7 744.583 61.9333   9
   3  -2   7 674.455 56.1787  38
  -3  -2  -7 794.993 60.0163   8
   3  -2   7 709.573 53.0967  37
   3  -2   7 596.896 58.6852  53
  -3  -2  -8 14.8153 19.8170  62
   3  -2   8 10.4541 32.0248   4
   3  -2   8 50.3097 35.9522   2
  -3  -2  -8 56.3663 33.1255   8
   3  -2   8 50.3368 21.4227  37
  -3  -2  -8 62.5360 31.3925  45
   3  -2   8 68.8704 22.6188  38
  -3  -2  -8 38.8736 19.8121  64
   3  -1 -11 4.03597 14.5586  60
   3  -1 -11 37.3959 23.9084  21
   3  -1 -11 9.20360 20.6449  62
   3  -1 -11 24.8814 25.7188  64
   3  -1 -10 1428.99 87.3042  64
   3  -1 -10 1531.03 74.0484  60
   3  -1 -10 1629.80 78.7963  21
  -3  -1  10 1556.33 83.1392  37
   3  -1  -9 80.3337 24.0103  16
  -3  -1   9 122.841 35.9830  54
   3  -1  -9 111.693 32.6980  60
   3  -1  -9 113.445 42.4409  21
   3  -1  -9 84.2138 42.1875  64
   3  -1  -8 9333.53 356.586  64
   3  -1  -8 9388.83 345.912  60
   3  -1  -8 8425.58 342.706  21
   3  -1  -8 9383.13 352.765  62
   3  -1  -7 41.7295 29.8694  62
   3  -1  -7 32.0211 23.2596  16
   3  -1  -7-10.2196 33.2770  60
   3  -1  -7 35.6249 37.9853  21
   3  -1  -7 36.6337 33.5527  20
   3  -1  -7 31.3981 34.3986  64
   3  -1  -6 1819.16 88.8142  62
   3  -1  -6 1574.16 75.8025  16
  -3  -1   6 2133.09 126.927  50
   3  -1  -6 1909.40 87.2432   1
   3  -1  -6 1946.01 87.0093  21
   3  -1  -6 1730.37 86.2494  20
   3  -1  -6 1867.03 92.8343  64
   3  -1  -6 1536.64 144.827  63
   3  -1  -5 2181.28 104.156  16
   3  -1  -5 2679.26 110.338  14
  -3  -1   5 3478.58 146.595  50
  -3  -1   5 3526.54 162.293  51
  -3  -1   5 2892.63 135.601  28
  -3  -1   5 3172.11 163.033  26
  -3  -1   5 2011.06 118.827  25
  -3  -1   5 3630.01 138.866  24
  -3  -1   5 2963.20 142.545  23
   3  -1  -5 2617.47 113.869   1
  -3  -1   5 3202.98 124.547  17
  -3  -1   4 2235.60 90.9462  17
  -3  -1   4 2357.34 104.192  50
   3  -1  -4 1771.72 86.7963   1
  -3  -1   4 2040.47 101.859  28
  -3  -1   4 2284.80 110.032  27
  -3  -1   4 2115.97 116.125  26
  -3  -1   4 1723.22 118.071  25
  -3  -1   4 2594.32 106.143  24
   3  -1  -4 1742.65 84.4371  14
   3  -1  -4 1540.54 106.708  39
  -3  -1   4 1958.79 88.2085  18
   3  -1  -3 22762.6 887.674  34
   3  -1  -3 24089.9 875.877   1
  -3  -1   3 17416.6 869.680  30
   3  -1  -3 19883.9 870.171  17
   3  -1  -3 22164.0 872.959  14
   3  -1  -3 24550.0 873.822  31
  -3  -1   3 21760.5 871.064  30
   3  -1  -3 23752.7 891.632  47
  -3  -1   3 25746.4 885.134  28
  -3  -1   3 27493.9 893.169  27
  -3  -1   3 27118.2 872.389  17
  -3  -1   3 30445.0 898.208  26
  -3  -1   3 32868.3 896.368  24
   3  -1  -3 23330.7 890.329  39
  -3  -1   3 24614.8 872.289  18
   3  -1  -2 9245.47 398.518  18
   3  -1  -2 11207.0 424.312  34
  -3  -1   2 11317.8 398.251  17
  -3  -1   2 12979.7 414.623  51
   3  -1  -2 10557.9 403.632  50
  -3  -1   2 10757.9 401.844  50
   3  -1  -2 10149.1 410.284  51
  -3  -1   2 13304.6 413.355  31
   3  -1  -2 11292.4 424.404  47
  -3  -1   2 11687.1 412.592  28
  -3  -1   2 12890.6 420.011  27
   3  -1  -2 11249.6 399.653  17
  -3  -1   2 14043.2 416.640  26
  -3  -1   2 14469.2 425.750  24
   3  -1  -2 6551.15 398.006  24
   3  -1  -2 11806.7 413.252  31
   3  -1  -2 10908.7 434.261  23
  -3  -1   2 12597.2 409.065  18
   3  -1  -2 10532.4 404.420  14
   3  -1  -2 10244.1 420.101  39
   3  -1  -2 11822.4 408.119   1
  -3  -1   1 2011.03 93.9863  18
  -3  -1   1 1615.91 68.9961  17
   3  -1  -1 1660.88 87.6230  48
   3  -1  -1 1491.42 73.8105  14
   3  -1  -1 1835.31 90.3643  52
   3  -1  -1 1536.03 78.0363  51
  -3  -1   1 1467.14 73.6499  50
   3  -1  -1 1635.12 79.9183  50
   3  -1  -1 1776.11 91.3587  31
  -3  -1   1 1820.75 95.9897  31
   3  -1  -1 1561.19 72.1108  27
   3  -1  -1 1660.84 79.1055  24
  -3  -1   1 1940.24 92.5885  24
   3  -1  -1 1513.93 108.466  23
   3  -1  -1 1827.07 83.9013  18
  -3  -1   0 33071.9 1247.27  17
   3  -1   0 32619.6 1261.83  35
   3  -1   0 30964.9 1260.26  34
   3  -1   0 34356.4 1254.48  53
  -3  -1   0 36294.5 1263.07  18
   3  -1   0 28464.6 1248.62  14
   3  -1   0 34367.6 1257.39  51
   3  -1   0 31478.1 1266.24  31
  -3  -1   0 34803.0 1272.42  31
  -3  -1   0 33616.0 1259.28  28
   3  -1   0 31527.8 1263.39  47
  -3  -1   0 34376.4 1259.31  27
   3  -1   0 32961.0 1251.83  27
   3  -1   0 33694.2 1258.78  18
  -3  -1   0 37460.6 1272.30  24
   3  -1   0 34324.0 1263.51  24
   3  -1   0 33259.0 1249.42  38
   3  -1   1 1547.62 88.8440  48
   3  -1   1 1279.72 72.5540  14
   3  -1   1 1442.31 101.327  34
   3  -1   1 1432.74 72.8722  54
   3  -1   1 1642.26 81.9262  53
   3  -1   1 1365.03 89.1964  52
  -3  -1  -1 1340.27 99.9334  31
   3  -1   1 1262.86 96.0523  31
   3  -1   1 1282.43 95.3424  47
  -3  -1  -1 1565.44 87.0390  28
   3  -1   1 1489.79 76.2926  27
  -3  -1  -1 1408.63 76.8713  45
   3  -1   1 1576.24 81.5303  26
   3  -1   1 1354.50 81.8108  11
   3  -1   1 1422.82 92.9635  35
  -3  -1  -1 1465.52 92.7455  24
   3  -1   1 1471.83 88.7724  24
  -3  -1  -1 1601.54 107.604  23
   3  -1   1 1134.08 104.845  23
  -3  -1  -1 1418.38 85.9697  40
   3  -1   1 1529.24 74.3720  17
   3  -1   1 1592.19 73.9823  38
  -3  -1  -1 1610.33 97.0141  18
   3  -1   1 1510.60 67.4432  37
   3  -1   1 1493.64 94.7321  18
   3  -1   2 1004.94 61.3603  54
   3  -1   2 920.483 76.4649  52
   3  -1   2 1136.58 82.4775  50
  -3  -1  -2 831.274 85.6349  31
   3  -1   2 897.340 71.5080  48
   3  -1   2 820.770 71.0020  29
  -3  -1  -2 969.163 74.8693  28
   3  -1   2 1007.86 64.4881  27
  -3  -1  -2 939.334 58.9038  46
  -3  -1  -2 1004.63 65.5441  45
   3  -1   2 839.085 66.7772  26
  -3  -1  -2 993.513 82.6669  23
   3  -1   2 1039.07 63.0453  17
  -3  -1  -2 989.249 61.5517  41
   3  -1   2 976.372 60.6471  38
   3  -1   2 1048.56 53.9347  37
  -3  -1  -2 1055.65 84.9197  18
  -3  -1  -2 787.728 69.1286  32
   3  -1   3 660.610 75.3094  35
  -3  -1  -3 823.438 41.9678  16
   3  -1   3 666.251 56.0626  54
   3  -1   3 643.581 59.5130  53
   3  -1   3 680.642 47.4293   6
   3  -1   3 541.498 67.6126  52
   3  -1   3 532.462 67.9434  51
   3  -1   3 648.841 73.3818  50
   3  -1   3 652.784 65.5349  48
  -3  -1  -3 575.419 70.2243  28
   3  -1   3 576.440 54.0289  27
  -3  -1  -3 685.666 55.3773  46
  -3  -1  -3 708.181 64.3399  32
   3  -1   3 586.162 64.7819  26
  -3  -1  -3 694.303 70.0175  23
  -3  -1  -3 638.054 54.8203  41
  -3  -1  -3 637.132 73.8671  40
  -3  -1  -3 606.477 45.3969   8
   3  -1   3 691.643 47.6687  37
   3  -1   3 635.273 44.9895  36
   3  -1   4 13934.2 561.370  36
   3  -1   4 13892.3 586.104  35
  -3  -1  -4 15157.4 549.121  16
   3  -1   4 14396.4 571.851   2
   3  -1   4 16208.4 573.231  54
   3  -1   4 13187.0 568.778  48
   3  -1   4 13763.1 571.138  53
   3  -1   4 15334.9 558.154   6
  -3  -1  -4 15941.2 565.148  46
   3  -1   4 13619.0 557.934   5
  -3  -1  -4 14958.4 563.725  41
  -3  -1  -4 13754.8 572.188  40
   3  -1   4 12765.0 567.481  52
  -3  -1  -4 13783.8 557.996   9
   3  -1   4 14507.1 565.476  38
  -3  -1  -4 13180.2 555.807   7
   3  -1   4 15412.1 563.109  37
  -3  -1  -4 14043.2 564.826  32
  -3  -1  -5 421.746 36.5160  16
  -3  -1  -5 338.569 53.5814   7
   3  -1   5 430.794 58.2185  54
   3  -1   5 341.967 54.2745  53
   3  -1   5 384.548 47.6187   6
  -3  -1  -5 317.119 56.7134  32
   3  -1   5 318.055 66.3373   2
  -3  -1  -5 422.340 63.8362  45
   3  -1   5 355.569 43.9579  36
   3  -1   5 370.857 51.3936   5
  -3  -1  -5 446.057 56.3505  41
  -3  -1  -5 389.202 75.8566  40
   3  -1   5 374.640 49.7145  38
  -3  -1  -5 384.389 57.2854   9
   3  -1   5 333.718 74.9650  35
   3  -1   5 332.697 44.7255  37
   3  -1   6 565.662 54.8720  36
  -3  -1  -6 785.892 47.4722  16
   3  -1   6 605.009 78.4530  35
   3  -1   6 763.980 81.9838   2
   3  -1   6 634.423 64.9453  53
  -3  -1  -6 599.534 59.7890  32
   3  -1   6 759.437 60.3080  37
  -3  -1  -6 911.078 76.0727  45
   3  -1   6 790.929 60.3908   5
  -3  -1  -6 690.704 64.8703  41
  -3  -1  -6 637.865 79.5133  40
  -3  -1  -6 745.449 68.7294   9
   3  -1   6 729.215 60.8071  38
   3  -1   7 251.102 52.6181  35
   3  -1   7 235.528 36.4582  36
  -3  -1  -7 286.528 29.1935  16
   3  -1   7 275.832 41.8164  53
   3  -1   7 261.813 53.5944   4
  -3  -1  -7 287.189 50.2906   8
  -3  -1  -7 249.820 51.0865  45
   3  -1   7 314.095 42.2988   5
  -3  -1  -7 276.727 45.8765  41
   3  -1   7 258.478 65.3541   2
  -3  -1  -7 302.868 57.1430  40
  -3  -1  -7 250.735 54.0039   9
   3  -1   7 314.421 41.8301  37
   3  -1   7 290.217 38.3287  38
   3  -1   8 490.311 38.7066  37
   3  -1   8 492.151 58.4596  55
   3  -1   8 432.963 42.3893  54
   3  -1   8 466.511 55.9189   2
  -3  -1  -8 460.960 42.4831  45
  -3  -1  -8 517.598 41.3583  41
  -3  -1  -8 482.867 47.8667   9
   3  -1   8 403.495 32.2884  38
  -3  -1  -8 489.208 46.1151   8
   3   0 -11 204.267 25.0511  62
   3   0 -11 259.503 26.2531  21
   3   0 -10 182.389 33.4048  62
   3   0 -10 215.444 30.4588  60
   3   0 -10 191.181 23.6346  16
   3   0 -10 242.162 36.3333  21
  -3   0  10 225.260 30.0588  37
   3   0  -9 96.0813 34.9499  62
   3   0  -9 81.9847 26.1568  16
   3   0  -9 87.4845 31.5097  60
   3   0  -9 107.524 38.1776  21
   3   0  -8 29568.4 987.087  60
   3   0  -8 26267.5 982.027  21
   3   0  -8 27007.4 995.987  64
   3   0  -8 27769.5 992.469  62
   3   0  -7 2588.17 166.424  59
   3   0  -7 2787.86 125.789  16
   3   0  -7 3205.68 132.717  21
   3   0  -7 3420.97 144.866  64
   3   0  -7 3066.42 137.307  62
   3   0  -6 1475.30 67.2192  60
   3   0  -6 1294.53 104.201  59
  -3   0   6 1207.90 97.5720  50
  -3   0   6 1237.62 119.321  26
   3   0  -6 1293.46 63.4725  21
   3   0  -6 1254.94 70.8391  64
  -3   0   5 1416.14 67.8746  17
   3   0  -5 1324.30 60.5666   1
   3   0  -5 966.389 48.3411  16
  -3   0   5 944.306 59.2559  25
  -3   0   5 1616.35 101.768  51
  -3   0   5 1474.75 85.7910  50
  -3   0   5 818.556 48.0720  29
  -3   0   5 1705.69 108.370  26
  -3   0   5 1029.26 47.8585  24
  -3   0   5 851.953 46.6228  24
  -3   0   5 1212.64 58.2815  23
  -3   0   4 31970.8 1202.38  17
  -3   0   4 34617.7 1227.02  51
  -3   0   4 33911.3 1213.40  50
  -3   0   4 31289.6 1204.68  30
  -3   0   4 30012.5 1220.05  28
  -3   0   4 34703.8 1219.93  27
  -3   0   4 37278.1 1239.91  26
  -3   0   4 29631.3 1225.72  25
  -3   0   4 31084.4 1198.98  24
   3   0  -4 29783.8 1203.43   1
  -3   0   4 32007.0 1216.07  23
  -3   0   3 18341.5 590.877  51
   3   0  -3 17578.7 578.390   1
  -3   0   3 17575.3 585.283  30
  -3   0   3 17808.9 593.736  28
  -3   0   3 17743.5 586.521  27
  -3   0   3 20768.2 597.926  26
  -3   0   3 17940.9 618.003  25
  -3   0   3 17429.6 573.259  11
  -3   0   3 20261.6 578.316  24
  -3   0   3 18305.4 602.836  23
  -3   0   2 750.542 39.8312  51
  -3   0   2 784.646 39.0478  31
  -3   0   2 1115.81 47.7219  27
   3   0  -2 978.500 49.8325  27
  -3   0   2 1218.57 52.3165  11
  -3   0   2 1153.21 49.9741  24
   3   0  -2 780.612 43.6703  24
  -3   0   1 1553.63 80.7926  31
  -3   0   1 1752.08 71.4333  29
  -3   0   1 1452.11 70.5624  27
   3   0  -1 1441.03 72.5428  27
   3   0  -1 1238.82 74.1042  11
  -3   0   1 1616.03 74.3426  18
  -3   0   1 1597.67 81.4024  11
  -3   0   1 1426.74 78.9701  24
   3   0  -1 1352.77 73.4872  24
   3   0   0 25443.8 939.129  17
   3   0   0 23850.1 952.355  35
   3   0   0 25420.0 947.049  53
   3   0   0 26478.7 946.606  50
  -3   0   0 24676.6 958.729  31
   3   0   0 25093.6 950.427  48
   3   0   0 23022.5 948.535  29
  -3   0   0 26724.1 951.330  29
  -3   0   0 24580.2 949.277  27
   3   0   0 25358.5 950.712  27
   3   0   0 22573.1 943.128  14
  -3   0   0 26358.0 957.299  11
   3   0   0 24709.6 955.862  24
   3   0   0 24265.3 942.339  38
  -3   0   0 25841.0 950.235  18
   3   0   1 1942.44 84.8110  17
   3   0   1 1832.82 84.2098  54
   3   0   1 1773.66 96.3410  52
   3   0   1 1972.39 87.1793  51
   3   0   1 2114.43 102.543  50
  -3   0  -1 1742.16 107.632  31
   3   0   1 1882.56 92.5395  48
   3   0   1 1762.14 94.1036  29
  -3   0  -1 1925.35 96.9505  29
  -3   0  -1 1743.20 100.848  28
  -3   0  -1 1635.12 87.3223  46
  -3   0  -1 2033.12 103.203  18
   3   0   1 1787.92 90.1855  27
   3   0   1 1327.32 82.1761  26
   3   0   1 1713.45 92.9497  11
  -3   0  -1 1755.02 135.162  25
  -3   0  -1 1873.41 100.496  11
   3   0   1 1784.24 98.4677  24
  -3   0  -1 2029.33 115.234  23
  -3   0  -1 1546.80 88.8843  41
   3   0   1 1772.94 103.895  18
   3   0   1 1853.04 80.4720  37
   3   0   2-7.50815 31.7515  17
   3   0   2-9.11525 23.2098  36
   3   0   2-7.86439 22.2098  37
   3   0   2-6.11107 49.7236  35
  -3   0  -2 6.34806 21.3915  16
  -3   0  -2 2.43475 32.0294  56
   3   0   2 11.9823 29.0954  54
   3   0   2-13.5500 46.1610  52
   3   0   2 28.2189 40.9893  51
   3   0   2-3.63095 48.0400  50
  -3   0  -2-2.11025 49.7845  31
   3   0   2 11.7945 34.4009  48
   3   0   2 8.10933 35.9287  29
  -3   0  -2-43.4633 42.5515  28
  -3   0  -2 35.2412 39.4229  46
   3   0   2-1.43735 25.8991  27
  -3   0  -2-6.54982 38.0682  45
   3   0   2 33.3166 33.4778  26
  -3   0  -2 48.2215 63.3169  25
  -3   0  -2 13.8940 49.4112  23
  -3   0  -2-11.2544 31.2438  42
  -3   0  -2-25.8340 40.5338  41
   3   0   2 7.87371 25.3352  38
   3   0   2 21.8044 32.6771  53
  -3   0  -2 35.2729 51.1320  18
   3   0   3 284.595 35.8788  36
  -3   0  -3 282.976 61.5298  18
  -3   0  -3 265.788 31.8695  16
   3   0   3 370.770 59.0641  35
  -3   0  -3 190.964 61.6900  25
   3   0   3 296.248 40.4888  54
   3   0   3 260.109 42.0345  53
  -3   0  -3 214.595 49.6589  32
   3   0   3 271.761 50.3994  52
   3   0   3 259.190 54.5823  51
   3   0   3 325.303 63.4662  50
   3   0   3 305.897 42.3960  48
   3   0   3 251.255 48.4111  29
  -3   0  -3 257.484 53.8465  28
   3   0   3 293.398 40.6747  27
  -3   0  -3 294.617 48.3893  46
  -3   0  -3 233.030 46.5758  45
   3   0   3 209.502 47.0883  26
   3   0   3 266.101 44.3530  11
  -3   0  -3 251.492 52.8751  23
  -3   0  -3 295.787 43.6110  42
  -3   0  -3 265.941 41.1985  56
  -3   0  -3 292.243 47.8185  41
  -3   0  -3 241.888 58.3091  40
   3   0   3 263.943 34.4893  37
   3   0   3 271.919 36.4591  38
   3   0   4 389.553 44.0086  36
  -3   0  -4 337.422 35.4895  16
   3   0   4 350.412 63.6034  35
  -3   0  -4 311.585 43.8174  56
  -3   0  -4 309.958 44.1541   7
  -3   0  -4 314.120 47.3650  32
   3   0   4 296.943 40.8972   6
  -3   0  -4 408.482 56.1876  46
  -3   0  -4 317.272 53.8472  45
   3   0   4 343.987 60.3435   2
  -3   0  -4 298.369 53.4542  41
  -3   0  -4 398.933 65.5233  40
   3   0   4 279.283 50.4503   5
   3   0   4 378.898 41.6750  37
  -3   0  -4 284.636 48.1116   9
   3   0   4 369.806 41.7679  38
  -3   0  -4 256.135 39.5751   8
   3   0   4 344.239 47.4322  53
   3   0   5 2788.74 137.791  36
  -3   0  -5 2757.07 122.820  16
  -3   0  -5 2727.90 132.117  56
   3   0   5 2702.80 138.126  53
   3   0   5 2841.67 129.746   6
  -3   0  -5 3209.30 143.690  46
  -3   0  -5 2820.67 139.929  45
   3   0   5 2863.79 136.324   5
  -3   0  -5 2747.39 139.967  41
  -3   0  -5 2590.40 144.806  40
  -3   0  -5 2670.57 134.818   9
   3   0   5 2847.79 152.699  35
   3   0   5 3022.77 135.497  37
   3   0   5 2699.12 131.351  38
   3   0   6 1688.22 97.7691  36
   3   0   6 1599.90 107.728  35
  -3   0  -6 1735.11 82.9717  16
   3   0   6 1581.56 100.083  54
   3   0   6 1457.08 93.6044  53
   3   0   6 1677.58 90.8534   6
  -3   0  -6 1860.23 104.876  46
   3   0   6 1785.90 96.7924  37
  -3   0  -6 1848.26 102.580  45
   3   0   6 1796.61 98.8963   5
  -3   0  -6 1744.72 102.719  41
  -3   0  -6 1517.18 103.671  40
  -3   0  -6 1652.06 99.7817   9
   3   0   6 1581.70 89.0268  38
  -3   0  -7 550.920 37.0884  16
   3   0   7 589.767 75.8148  55
   3   0   7 526.395 55.4917  54
   3   0   7 540.864 50.9604  36
   3   0   7 567.332 48.2148   6
  -3   0  -7 500.423 54.8575  45
   3   0   7 603.152 56.2788   5
  -3   0  -7 627.179 58.9798  41
  -3   0  -7 618.468 62.6513   9
  -3   0  -7 473.020 54.7153  40
   3   0   7 596.784 41.8062  38
   3   0   8 21.6512 24.5186  36
   3   0   8 57.0356 43.5401  55
   3   0   8-16.5910 37.4966   4
   3   0   8 18.5102 27.1012  54
   3   0   8-2.52191 50.7030   2
  -3   0  -8 71.7095 30.3225  45
  -3   0  -8 47.5184 32.7078  41
   3   0   8 21.7516 32.7342   5
  -3   0  -8 34.0028 37.4697   8
  -3   0  -8 27.1870 42.6966   9
  -3   0  -8 45.7763 17.7754  16
   3   1 -11 17.6502 14.9440  62
   3   1 -11 42.8641 21.7680  64
   3   1 -11 14.6151 19.0298  21
   3   1 -10 1713.67 73.6021  60
   3   1 -10 1664.23 83.3649  64
   3   1 -10 1231.69 66.5333  16
   3   1 -10 1481.19 75.8523  62
   3   1 -10 1677.42 73.5410  21
  -3   1  10 1274.67 87.7949  36
   3   1  -9 87.3212 30.8844  62
   3   1  -9 135.706 31.9990  60
   3   1  -9 77.7302 28.8831  16
   3   1  -9 123.628 35.6281  21
   3   1  -9 101.514 40.7674  64
   3   1  -8 5977.04 330.390  59
   3   1  -8 8343.55 303.315  21
   3   1  -8 6911.00 297.984  16
   3   1  -8 8910.95 312.772  62
   3   1  -7 20.2769 24.9900  62
   3   1  -7 36.9369 66.3391  59
   3   1  -7 35.8102 29.4121  16
   3   1  -7 16.1060 29.3244  21
   3   1  -6 1659.21 83.9828  16
  -3   1   6 1393.92 122.483  50
   3   1  -6 1977.43 124.417  59
   3   1  -6 1920.65 85.4818  21
   3   1  -6 2158.26 90.4681  60
   3   1  -6 1911.82 94.9559  64
   3   1  -6 2165.61 92.3889  62
   3   1  -5 2270.19 101.729  16
  -3   1   5 2876.47 158.504  51
  -3   1   5 2299.92 137.492  50
  -3   1   5 2495.60 122.374  30
   3   1  -5 2464.95 112.516   1
  -3   1   5 2954.27 117.604  29
  -3   1   5 2918.44 124.405  27
  -3   1   5 1938.32 118.554  25
  -3   1   5 2464.23 101.749  11
  -3   1   5 2702.58 117.442  17
  -3   1   4 2032.72 126.386  51
  -3   1   4 1794.54 99.6613  30
  -3   1   4 2112.61 91.5688  29
  -3   1   4 2037.68 92.3537  27
  -3   1   4 2277.56 88.5839  11
  -3   1   4 1659.79 108.652  25
  -3   1   4 1699.45 91.7749  23
  -3   1   4 1593.66 106.241  50
  -3   1   3 24389.3 974.723  51
  -3   1   3 24891.7 972.500  28
  -3   1   3 24453.0 953.855  27
  -3   1   3 26551.6 959.496  11
  -3   1   3 24781.3 990.254  25
  -3   1   3 24678.1 967.469  23
  -3   1   3 24629.6 969.372  30
   3   1  -3 26020.1 955.505   1
  -3   1   2 11151.0 451.833  51
  -3   1   2 12084.4 441.149  31
  -3   1   2 12122.6 458.060  30
  -3   1   2 12174.6 441.856  29
  -3   1   2 11944.2 434.874  27
   3   1  -2 12176.2 449.874  27
  -3   1   2 9263.37 437.750  26
   3   1  -2 10851.0 436.352  54
  -3   1   2 12922.8 445.804  11
   3   1  -2 10697.0 435.932  11
  -3   1   2 12319.5 459.015  23
   3   1  -2 11259.7 435.255  37
   3   1  -1 1631.95 71.3980  53
  -3   1   1 1761.09 80.4915  31
  -3   1   1 1768.91 77.1368  29
   3   1  -1 1548.92 65.8405  29
   3   1  -1 1583.03 66.8034  54
   3   1  -1 1640.20 77.5447  27
  -3   1   1 1841.34 81.0489  11
   3   1  -1 1827.13 77.7538  11
   3   1  -1 1685.03 80.8919  24
   3   1  -1 1635.52 64.5371  37
   3   1   0 35415.1 1232.30  35
   3   1   0 33633.2 1222.55  54
   3   1   0 32002.2 1230.13  50
  -3   1   0 33940.0 1237.77  31
  -3   1   0 34114.3 1232.56  29
   3   1   0 31154.0 1226.04  29
  -3   1   0 29061.9 1223.62  46
   3   1   0 35155.7 1234.03  27
   3   1   0 26824.4 1220.85  26
  -3   1   0 34093.4 1234.23  11
   3   1   0 34742.5 1233.24  11
  -3   1   0 32883.7 1265.57  25
   3   1   0 33504.2 1237.70  24
   3   1   0 33203.5 1220.09  38
   3   1   0 32105.5 1219.67  37
   3   1   1 1482.20 72.4566  36
   3   1   1 1621.65 75.5015  17
   3   1   1 1483.28 86.2895  35
  -3   1  -1 1322.90 86.1152  56
   3   1   1 1437.97 77.4680  55
   3   1   1 1574.37 74.0686  54
   3   1   1 1523.65 76.2616  53
   3   1   1 1174.85 86.3485  51
   3   1   1 1733.81 95.5579  50
  -3   1  -1 1471.13 95.0488  31
   3   1   1 1478.24 77.6887  48
   3   1   1 1454.66 82.6697  29
  -3   1  -1 1496.57 85.1834  29
  -3   1  -1 1254.60 81.4295  46
   3   1   1 1653.59 84.5562  27
   3   1   1 1567.89 86.3031  11
  -3   1  -1 1667.37 120.101  25
   3   1   1 1458.68 87.8230  24
  -3   1  -1 1631.48 101.962  23
  -3   1  -1 1210.92 83.3585  42
  -3   1  -1 1264.31 81.3366  41
   3   1   1 1482.03 69.4289  38
  -3   1  -1 1704.45 90.8876  18
   3   1   1 1479.25 69.7699  37
   3   1   2 1032.83 58.9632  36
  -3   1  -2 820.071 69.4240  56
  -3   1  -2 1050.82 49.7776  16
   3   1   2 1017.31 63.7555  17
  -3   1  -2 1080.26 79.1023  18
   3   1   2 1113.16 62.7895  53
   3   1   2 944.084 78.0074  51
   3   1   2 1010.02 83.3966  50
  -3   1  -2 1024.15 82.1368  31
   3   1   2 921.937 59.1707  48
   3   1   2 918.393 69.2454  29
  -3   1  -2 891.350 68.2758  46
   3   1   2 1028.24 67.4101  27
  -3   1  -2 814.492 61.2060  45
   3   1   2 883.795 69.0234  11
  -3   1  -2 973.735 95.8037  25
   3   1   2 1022.60 74.2345  35
  -3   1  -2 947.278 79.8310  23
  -3   1  -2 948.736 72.6126  42
   3   1   2 977.941 54.0779  38
  -3   1  -3 760.264 43.0231  16
   3   1   3 654.020 63.1319  35
  -3   1  -3 519.729 59.1560  56
  -3   1  -3 556.630 51.7714  32
   3   1   3 670.745 50.7758  53
   3   1   3 625.265 75.1248  51
   3   1   3 487.930 75.1464  50
   3   1   3 473.974 58.3502  29
  -3   1  -3 630.461 63.0294  46
  -3   1  -3 577.927 53.8976  45
  -3   1  -3 423.943 70.6250  25
  -3   1  -3 454.433 63.1885  23
  -3   1  -3 511.419 57.9290  42
   3   1   3 725.781 52.3533  36
  -3   1  -3 634.550 52.2455   9
   3   1   3 654.677 43.7486  38
   3   1   4 15553.2 563.277  36
  -3   1  -4 14931.8 545.398  16
   3   1   4 15000.4 571.167  35
  -3   1  -4 13771.2 561.217  56
   3   1   4 14849.4 559.095  53
   3   1   4 14381.6 550.607   6
  -3   1  -4 14296.7 560.050  46
  -3   1  -4 13783.8 555.310  45
   3   1   4 12856.1 547.893  10
  -3   1  -4 14743.3 562.497  42
  -3   1  -4 12638.6 556.806  40
   3   1   4 14513.6 550.855  38
  -3   1  -4 13647.4 548.712   8
   3   1   4 14289.7 559.578  54
  -3   1  -5 346.688 41.6072  16
   3   1   5 316.295 69.4140  55
   3   1   5 360.173 50.8219  54
   3   1   5 360.105 42.8509  53
  -3   1  -5 360.170 50.3254   8
   3   1   5 348.622 48.3277   6
  -3   1  -5 363.909 54.5526  45
   3   1   5 284.449 39.8513  10
  -3   1  -5 408.185 60.5097  42
  -3   1  -5 336.665 55.3853  56
  -3   1  -5 395.320 61.1738  40
   3   1   5 403.033 63.0942   5
  -3   1  -5 370.522 58.9439   9
   3   1   5 355.831 37.3097  38
   3   1   5 435.684 52.7551  36
   3   1   5 394.301 46.8878  37
   3   1   6 756.470 64.8342  36
  -3   1  -6 714.380 50.4728  16
   3   1   6 709.773 84.6809  55
   3   1   6 714.207 85.0684   2
   3   1   6 753.852 64.3383  54
   3   1   6 598.007 52.1054  53
   3   1   6 682.247 58.4636   6
  -3   1  -6 618.473 61.2932  45
   3   1   6 681.444 71.6593   5
  -3   1  -6 710.100 65.9869  56
  -3   1  -6 735.955 67.0950  40
  -3   1  -6 737.499 72.7411   9
   3   1   6 692.892 47.0482  38
   3   1   6 594.037 55.6034  37
   3   1   7 291.532 46.0230  36
   3   1   7 288.302 63.2705  55
   3   1   7 252.955 42.7169  54
   3   1   7 273.610 42.2904   6
   3   1   7 267.458 71.6128   2
  -3   1  -7 255.887 42.0006  45
   3   1   7 288.729 39.4244  37
   3   1   7 244.190 57.8091   5
  -3   1  -7 295.878 58.9468   9
  -3   1  -7 265.475 34.3468  16
   3   1   8 521.972 62.1236   2
  -3   1  -8 482.293 31.5638  16
   3   1   8 427.491 57.5777  55
   3   1   8 402.162 40.2848  54
   3   1   8 481.441 44.3318  36
   3   1   8 546.374 50.0403   5
  -3   1  -8 542.374 53.2901   9
   3   1   8 485.710 39.6434  37
  -3   2  10 453.931 45.9851  36
   3   2 -10 474.077 33.8989  62
   3   2 -10 563.199 43.6790  64
  -3   2   9 6779.13 302.152  36
   3   2  -9 6010.18 281.400  16
   3   2  -9 8041.02 296.299  64
   3   2  -9 6814.47 284.045  12
   3   2  -9 7955.91 290.102  62
   3   2  -9 8247.87 285.199  21
   3   2  -8 3458.36 202.161  59
   3   2  -8 3465.40 165.909  16
   3   2  -8 4094.63 169.476  12
   3   2  -8 4068.07 166.993  21
   3   2  -8 4667.52 183.055  64
   3   2  -8 4497.00 174.844  62
  -3   2   8 4242.84 189.351  36
   3   2  -7 18647.1 636.834  60
   3   2  -7 15593.7 668.694  59
   3   2  -7 14800.0 629.861  16
   3   2  -7 16785.3 633.846  12
   3   2  -7 15384.0 629.216  21
   3   2  -7 17821.6 639.470  62
   3   2  -7 17931.3 644.873  64
   3   2  -6 733.999 81.1610  61
   3   2  -6 619.313 41.0981  60
  -3   2   6 541.344 56.7154  58
   3   2  -6 630.236 41.7373  16
   3   2  -6 632.803 42.5362  62
   3   2  -6 618.607 39.6053  12
   3   2  -6 607.733 83.1094  59
   3   2  -6 559.847 38.1548  21
   3   2  -6 635.797 47.4439  64
   3   2  -5 6282.87 216.198  60
   3   2  -5 5421.72 211.918  16
  -3   2   5 4358.23 267.429  51
  -3   2   5 5462.78 244.594  30
  -3   2   5 6308.78 238.078  29
  -3   2   5 4268.97 238.787  25
   3   2  -5 6466.49 257.027  59
   3   2  -4 13498.8 451.200  57
   3   2  -4 11191.0 423.217  15
  -3   2   4 8814.75 467.545  51
  -3   2   4 10550.4 453.201  30
  -3   2   4 8792.64 457.003  25
   3   2  -4 12093.0 446.484  43
   3   2  -3 27189.0 940.766  36
   3   2  -3 31966.0 953.366  57
  -3   2   3 22098.3 968.927  51
   3   2  -3 24913.1 937.091   1
  -3   2   3 26278.3 962.350  30
  -3   2   3 20506.9 951.567  26
  -3   2   3 27864.7 950.656  11
   3   2  -3 25563.9 960.703  26
  -3   2   3 23386.8 975.246  25
   3   2  -3 22097.2 929.651  11
  -3   2   3 24116.1 951.769  23
   3   2  -2 4320.38 166.605   1
   3   2  -2 4893.52 182.921  57
  -3   2   2 4215.61 181.683  31
  -3   2   2 3805.29 190.389  30
   3   2  -2 3693.74 162.266  29
   3   2  -2 4411.60 183.976  27
  -3   2   2 3239.59 177.972  26
  -3   2   2 4705.19 182.892  11
   3   2  -2 4066.34 186.118  26
  -3   2   2 4125.94 212.583  25
   3   2  -2 4074.31 171.851  11
  -3   2   2 4004.29 189.737  23
   3   2  -2 4531.11 171.944  36
   3   2  -1 9541.83 347.120  57
   3   2  -1 9088.90 336.117  54
  -3   2   1 8735.77 349.302  31
  -3   2   1 8417.85 347.314  29
   3   2  -1 8409.43 335.574  29
   3   2  -1 7921.72 346.232  26
  -3   2   1 8784.91 347.626  11
   3   2  -1 9214.78 345.207  11
   3   2  -1 9088.94 337.740  55
  -3   2   1 9072.93 361.991  23
   3   2  -1 9341.13 338.621  36
   3   2   0 3797.91 154.554  58
   3   2   0 4057.54 163.483  57
  -3   2   0 3365.12 170.329  56
   3   2   0 4048.93 157.452  55
  -3   2   0 3783.47 171.402  31
  -3   2   0 3605.27 165.807  29
   3   2   0 3681.34 157.874  29
   3   2   0 3386.84 165.482  26
  -3   2   0 3041.00 161.662  26
   3   2   0 3555.85 149.023  37
  -3   2   0 3417.51 195.463  25
   3   2   0 3782.00 165.354  11
  -3   2   0 3188.42 168.357  42
   3   2   0 3815.42 154.750  36
   3   2   0 3569.67 148.156  38
   3   2   1 4713.81 189.070  57
  -3   2  -1 4309.94 196.358  56
   3   2   1 4641.54 186.043  55
   3   2   1 4195.62 177.737  54
   3   2   1 4208.73 203.611  50
  -3   2  -1 4436.46 201.012  31
   3   2   1 4083.70 186.082  29
  -3   2  -1 4175.84 198.526  28
  -3   2  -1 3989.27 185.980  46
   3   2   1 3127.24 188.437  26
  -3   2  -1 4074.24 220.710  25
   3   2   1 4348.62 193.104  11
  -3   2  -1 4462.00 179.823  44
  -3   2  -1 4186.93 202.998  23
  -3   2  -1 4121.04 195.077  42
  -3   2  -1 3885.01 183.448  41
   3   2   1 4316.12 174.795  37
   3   2   1 4416.11 172.876  38
   3   2   1 4711.02 182.240  36
   3   2   2 10399.4 368.719  36
   3   2   2 9661.74 374.045  57
   3   2   2 9962.13 375.447  55
   3   2   2 9347.35 363.755  54
   3   2   2 9580.86 365.555  53
   3   2   2 9063.46 394.523  51
   3   2   2 9206.28 399.418  50
  -3   2  -2 8389.54 386.314  31
   3   2   2 7904.44 373.659  29
  -3   2  -2 8697.40 385.681  28
   3   2   2 8790.97 378.627  27
  -3   2  -2 8273.90 399.915  25
   3   2   2 9258.81 381.502  11
  -3   2  -2 8619.36 387.213  23
  -3   2  -2 8331.38 375.413  42
  -3   2  -2 8757.90 368.374  41
  -3   2  -2 8255.97 375.163  56
   3   2   2 9586.99 357.139  38
   3   2   2 9472.29 360.411  37
   3   2   3 3396.19 141.852  36
  -3   2  -3 3231.76 124.879  16
   3   2   3 3086.00 147.250  57
   3   2   3 3179.42 150.812  55
  -3   2  -3 2693.59 148.364  56
   3   2   3 3037.95 135.990  54
   3   2   3 2838.85 133.656  53
   3   2   3 2892.79 130.253   6
  -3   2  -3 2938.86 132.097  45
   3   2   3 2567.56 124.827  10
  -3   2  -3 2629.79 146.059  42
   3   2   3 3040.76 139.475   5
  -3   2  -3 3078.80 144.493  41
  -3   2  -3 2814.03 133.288   9
   3   2   3 3012.62 125.603  38
  -3   2  -3 2527.47 126.987   8
   3   2   3 2877.42 130.503  37
   3   2   4 2307.02 114.484  36
  -3   2  -4 2256.41 97.3773  16
   3   2   4 1888.37 118.244  57
  -3   2  -4 1920.01 120.953  56
   3   2   4 2174.10 127.441  55
   3   2   4 2100.49 108.543  54
   3   2   4 1963.43 103.316  53
  -3   2  -4 1910.94 103.738  45
   3   2   4 1837.70 98.4112  10
  -3   2  -4 2026.63 120.640  42
   3   2   4 2109.41 115.217   5
  -3   2  -4 1981.61 115.916  41
  -3   2  -4 2458.89 90.3742  21
  -3   2  -4 1795.03 100.948   8
   3   2   4 2023.44 94.7747  38
   3   2   4 2060.91 102.666  37
   3   2   5 783.520 67.5608  36
   3   2   5 653.333 82.0076  55
   3   2   5 609.609 68.8437  57
  -3   2  -5 799.113 78.8786  56
   3   2   5 703.481 61.8889  54
   3   2   5 668.734 61.1253   6
  -3   2  -5 647.752 76.9334  46
  -3   2  -5 592.947 56.1268  45
   3   2   5 666.176 53.9848  10
  -3   2  -5 734.641 52.9949  16
  -3   2  -5 696.365 75.6876  42
  -3   2  -5 738.672 74.0303  41
  -3   2  -5 854.234 42.1759  21
  -3   2  -5 664.196 64.5955  40
  -3   2  -5 643.449 60.6300   8
   3   2   5 692.676 55.0680  37
   3   2   6 1758.45 101.062  36
  -3   2  -6 1556.95 81.3537  16
  -3   2  -6 1461.71 98.2426  56
   3   2   6 1670.12 116.639  55
   3   2   6 1553.21 92.1053  54
   3   2   6 1683.89 90.2114   6
  -3   2  -6 1662.63 103.331  46
  -3   2  -6 1322.88 82.2654  45
   3   2   6 1351.26 83.2241  10
  -3   2  -6 1708.91 105.774  42
  -3   2  -6 1690.20 96.4016  22
  -3   2  -6 1646.19 101.429  41
  -3   2  -6 1903.23 73.8866  21
  -3   2  -6 1703.73 101.002   9
   3   2   6 1568.26 88.5968  37
   3   2   7 778.536 62.4321  36
  -3   2  -7 656.582 46.5637  16
  -3   2  -7 673.173 62.8753  56
   3   2   7 683.058 76.0089  55
   3   2   7 742.131 79.7676   2
   3   2   7 730.108 54.5977  54
   3   2   7 825.461 56.2985   6
  -3   2  -7 730.668 63.9045  46
   3   2   7 695.896 70.4176   5
  -3   2  -7 757.831 63.6522  41
   3   2   7 681.338 51.5348  37
  -3   2  -7 837.420 69.6859   9
   3   2   8 53.1397 25.6235  36
  -3   2  -8 49.6476 18.7781  16
   3   2   8 32.8390 24.7929   6
   3   2   8 105.576 45.1581   2
   3   2   8 42.6074 19.5249  37
  -3   2  -8 17.7873 27.0029  41
   3   2   8 17.6053 38.9580   5
  -3   2  -8 42.0444 39.4175   9
  -3   3  10 60.3416 53.3729  57
  -3   3  10 48.2926 71.3012  44
   3   3 -10 67.9911 18.5797  21
   3   3 -10 51.0848 19.9192  64
  -3   3   9 24.9971 65.6365  57
  -3   3   9 93.7791 99.4384  44
   3   3  -9 40.4387 27.3159  16
   3   3  -9 47.2319 22.4291  12
   3   3  -9 39.0137 24.1396  21
   3   3  -9 64.0747 27.8319  64
   3   3  -8 1098.23 65.1978  16
   3   3  -8 1058.52 102.699  59
   3   3  -8 1398.61 67.8097  12
   3   3  -8 1317.56 63.5595  21
  -3   3   8 1068.64 71.7825  36
   3   3  -8 1179.61 65.8890  19
   3   3  -8 1409.77 73.3428  64
   3   3  -8 1223.76 64.0962  62
   3   3  -7 4443.84 248.642  59
  -3   3   7 4895.82 232.255  58
   3   3  -7 4768.02 210.163  16
   3   3  -7 5396.74 214.589  12
   3   3  -7 5214.54 208.390  21
   3   3  -7 5832.95 221.426  64
   3   3  -7 5264.09 258.015  61
   3   3  -7 5318.75 217.856  19
   3   3  -7 5450.23 214.870  62
   3   3  -6 802.676 97.9208  61
   3   3  -6 662.209 46.3179  16
   3   3  -6 720.788 93.6787  59
  -3   3   6 655.512 65.5559  58
   3   3  -6 745.097 50.4224  64
   3   3  -6 717.567 46.1870  12
   3   3  -6 673.075 41.3577  21
   3   3  -6 661.237 44.5409  62
   3   3  -6 749.590 48.2894  19
   3   3  -5 1132.03 59.3946  16
   3   3  -5 1286.18 108.748  59
   3   3  -5 1267.10 54.2525  15
   3   3  -5 1147.36 60.3741  12
   3   3  -5 1201.63 64.5710  64
  -3   3   5 1344.16 113.466  44
   3   3  -5 1552.96 107.054  43
   3   3  -5 998.517 53.5125  21
  -3   3   5 986.809 73.9813  58
   3   3  -5 1163.18 61.4550  62
   3   3  -5 1242.54 63.8461  19
   3   3  -4 13972.4 547.075  59
  -3   3   4 11425.8 515.785  58
  -3   3   4 12577.8 527.677  57
   3   3  -4 15665.4 536.421  57
   3   3  -4 13565.5 505.248  15
   3   3  -4 15098.6 529.623  33
   3   3  -4 12031.8 505.560  12
  -3   3   4 9722.33 545.624  25
  -3   3   4 13761.0 532.036  44
   3   3  -4 14387.9 516.132  44
   3   3  -4 14554.1 534.074  43
   3   3  -4 12863.2 509.660  19
   3   3  -4 13675.8 512.009  64
   3   3  -3 2364.62 97.2545  58
  -3   3   3 1686.22 103.664  57
   3   3  -3 2361.93 118.363  57
   3   3  -3 2245.92 92.4681  15
  -3   3   3 1812.40 139.258  33
   3   3  -3 1998.02 117.032  33
  -3   3   3 1891.31 122.647  30
   3   3  -3 2182.71 101.728  36
  -3   3   3 1596.14 131.952  25
  -3   3   3 1980.93 116.918  44
   3   3  -3 2277.43 105.333  44
  -3   3   3 1853.65 99.4423  58
   3   3  -2 1699.14 84.0151  36
   3   3  -2 1628.32 79.3093  58
  -3   3   2 1302.31 79.3172  58
   3   3  -2 1699.59 99.1449  57
   3   3  -2 1896.98 80.4538  15
   3   3  -2 1954.23 88.2986  55
  -3   3   2 1456.65 112.949  33
  -3   3   2 1477.66 104.656  30
  -3   3   2 1246.99 116.835  25
  -3   3   2 1589.42 97.6049  44
   3   3  -2 1595.45 86.3934  11
  -3   3   2 1334.67 114.419  43
   3   3  -1 827.104 52.3987  58
   3   3  -1 787.516 69.3198  57
  -3   3   1 868.164 75.9700  30
   3   3  -1 834.968 55.4324  55
   3   3  -1 884.409 54.8743  36
  -3   3   1 584.755 85.4996  25
  -3   3   1 825.472 72.0193  31
   3   3  -1 686.450 50.6818  29
   3   3  -1 710.982 57.6002  27
  -3   3   1 376.399 55.8799  26
   3   3  -1 766.509 67.5445  44
  -3   3   1 633.284 50.5301  58
   3   3  -1 870.282 61.1640  11
  -3   3   1 681.636 88.2699  43
  -3   3   1 677.536 82.4825  42
   3   3  -1 822.959 45.6690  37
   3   3   0 1270.70 71.5862  36
   3   3   0 1271.88 73.1200  58
   3   3   0 1227.91 73.2952  55
  -3   3   0 1175.28 92.0227  33
   3   3   0 1193.70 66.1593  54
  -3   3   0 1273.43 88.0892  31
  -3   3   0 1379.67 97.4618  30
   3   3   0 1070.31 71.1875  29
   3   3   0 1227.33 78.1435  27
   3   3   0 1163.70 84.4818  57
  -3   3   0 1093.71 107.246  25
  -3   3   0 1169.67 79.0477  44
   3   3   0 1234.05 80.3932  11
  -3   3   0 920.455 94.0342  43
  -3   3   0 1105.23 97.3723  42
   3   3   0 1188.06 61.3012  37
  -3   3   0 1052.55 68.6157  58
   3   3   1 4110.98 171.704  58
   3   3   1 4462.84 183.937  57
  -3   3  -1 3704.75 186.398  56
   3   3   1 4360.95 174.670  55
  -3   3  -1 3326.86 176.046  33
   3   3   1 4039.88 163.007  54
   3   3   1 3910.69 158.883   6
   3   3   1 3172.49 169.742  29
  -3   3  -1 3298.49 208.126  25
   3   3   1 3901.59 179.988  44
  -3   3  -1 3779.09 168.312  44
  -3   3  -1 2932.62 176.385  43
   3   3   1 3171.98 151.998  10
  -3   3  -1 3756.35 189.109  42
  -3   3  -1 3699.18 170.900  41
   3   3   1 3983.71 158.168  37
   3   3   1 4287.44 168.711  36
   3   3   2 64.2245 36.2394  36
   3   3   2 118.977 46.8887  58
   3   3   2 77.1738 49.6831  57
   3   3   2 11.7276 42.8310  55
  -3   3  -2 18.0851 66.5716  56
   3   3   2 53.1174 29.4044  54
  -3   3  -2-70.0511 64.8090  33
   3   3   2 13.9289 35.5899   6
  -3   3  -2 8.81141 60.5463  46
  -3   3  -2 87.9410 32.9746  45
   3   3   2 81.6892 74.5024  44
  -3   3  -2 28.1775 66.9307  43
  -3   3  -2 115.739 69.4440  42
   3   3   2 39.5232 25.0431  10
   3   3   2 36.1892 24.9879  37
  -3   3  -2 54.4251 50.3430  41
   3   3   2 54.3941 42.7056   5
  -3   3  -2 95.8847 40.2797   9
  -3   3  -3 2300.98 102.143  16
   3   3   3 2221.89 130.933  57
  -3   3  -3 2138.17 135.363  56
   3   3   3 2414.54 130.001  55
  -3   3  -3 1095.24 124.441  33
   3   3   3 2182.43 110.184  54
   3   3   3 2151.62 109.014   6
  -3   3  -3 2234.54 128.421  46
  -3   3  -3 1235.97 121.261  43
  -3   3  -3 1955.35 135.128  42
   3   3   3 2312.71 118.186   5
  -3   3  -3 2098.60 121.092  41
  -3   3  -3 2942.11 97.1929  21
  -3   3  -3 2080.31 112.251   9
   3   3   3 2529.07 120.981  36
   3   3   3 2194.11 106.472  37
   3   3   4 1532.89 93.8084  36
   3   3   4 1369.00 103.154  57
  -3   3  -4 1312.76 104.144  56
   3   3   4 1404.57 104.490  55
   3   3   4 1366.94 81.5379  54
  -3   3  -4 1267.11 96.8471  46
   3   3   4 1254.76 74.1201  10
  -3   3  -4 1181.94 104.358  42
   3   3   4 1220.36 94.5227   5
  -3   3  -4 1586.62 97.3531  22
  -3   3  -4 1306.14 92.4800  41
  -3   3  -4 1838.83 67.3760  21
  -3   3  -4 1444.78 91.0166   9
  -3   3  -4 1431.44 74.0348  16
   3   3   4 1366.84 77.7715  37
   3   3   5 3345.86 155.714  36
  -3   3  -5 2962.70 133.311  16
   3   3   5 2495.76 158.245  57
  -3   3  -5 2862.87 159.631  56
   3   3   5 2813.42 141.546  54
   3   3   5 3028.68 141.889   6
  -3   3  -5 2787.24 152.136  46
   3   3   5 2493.34 134.337  10
  -3   3  -5 2948.94 158.581  42
   3   3   5 3041.11 152.225   5
  -3   3  -5 3134.73 147.909  22
  -3   3  -5 2803.55 148.549  41
  -3   3  -5 3855.13 127.725  21
   3   3   5 3148.72 167.407  55
   3   3   5 2907.57 138.426  37
   3   3   6 415.169 54.3813  36
  -3   3  -6 465.176 43.3057  16
  -3   3  -6 370.568 63.2703  56
   3   3   6 408.844 67.3940  55
   3   3   6 408.773 42.8281  54
   3   3   6 380.211 73.5559  58
   3   3   6 436.152 52.5637   6
  -3   3  -6 467.819 60.1226  46
   3   3   6 409.448 42.9728  10
  -3   3  -6 391.949 65.1051  42
  -3   3  -6 310.392 60.8906  22
  -3   3  -6 568.699 31.3213  21
  -3   3  -6 348.334 55.0985  41
   3   3   6 476.534 68.7119   5
   3   3   6 411.191 40.3760  37
   3   3   7 1233.61 91.9392  58
  -3   3  -7 1186.99 59.2647  16
  -3   3  -7 1122.87 75.5697  56
   3   3   7 1139.51 80.7979   2
   3   3   7 1058.91 61.6028  54
   3   3   7 1307.48 68.1979   6
  -3   3  -7 1382.48 75.4335  46
  -3   3  -7 1061.32 61.5684  12
   3   3   7 580.391 101.496  44
   3   3   7 1149.91 80.5006   5
  -3   3  -7 1069.85 69.7227  41
  -3   3  -7 1555.93 80.8581   9
   3   3   7 1411.27 77.3240  36
   3   3   7 1139.82 61.9305  37
  -3   4   9 1471.08 107.472  57
  -3   4   9 1325.02 147.737  33
   3   4  -9 1735.83 74.3767  12
   3   4  -9 1746.10 75.9102  64
  -3   4   9 1374.74 117.836  44
   3   4  -9 1535.53 70.0687  21
   3   4  -8 9076.22 407.137  16
  -3   4   8 10248.9 451.257  57
   3   4  -8 11816.8 413.828  12
   3   4  -8 10479.4 414.227  19
  -3   4   8 10500.3 450.225  44
   3   4  -8 10682.3 406.035  21
   3   4  -8 11966.0 417.159  64
   3   4  -7 1087.44 109.099  59
   3   4  -7 1089.74 62.3656  16
  -3   4   7 861.978 80.1818  58
  -3   4   7 1179.11 107.859  57
   3   4  -7 1326.44 68.7768  64
   3   4  -7 1243.07 64.8612  12
  -3   4   7 1148.31 127.007  44
   3   4  -7 1158.94 57.4492  21
   3   4  -7 1138.61 112.580  61
   3   4  -7 1163.15 66.7884  19
   3   4  -6 4331.64 222.374  59
   3   4  -6 3807.65 165.860  16
  -3   4   6 3550.24 185.649  58
  -3   4   6 3740.02 203.784  57
  -3   4   6 3704.00 169.375   6
   3   4  -6 4511.17 170.769  12
   3   4  -6 4346.26 175.063  19
  -3   4   6 4332.44 220.669  44
   3   4  -6 5495.93 221.150  43
  -3   4   6 3545.48 166.329  10
   3   4  -6 3878.52 161.079  21
   3   4  -6 4510.75 175.279  64
   3   4  -5 4777.91 235.403  59
  -3   4   5 3774.31 196.387  58
  -3   4   5 3519.55 207.771  57
  -3   4   5 4936.55 254.991  33
   3   4  -5 5864.20 224.610  33
   3   4  -5 4565.10 177.699  15
   3   4  -5 4439.90 183.004  12
  -3   4   5 4187.67 223.496  44
   3   4  -5 5178.16 226.639  43
   3   4  -5 4449.24 187.369  19
   3   4  -5 4055.01 174.429  21
   3   4  -5 4798.33 188.081  64
   3   4  -4 6767.38 302.943  59
  -3   4   4 5609.61 264.870  58
   3   4  -4 6505.84 260.072  58
  -3   4   4 5167.46 270.512  57
   3   4  -4 6934.30 284.618  57
  -3   4   4 6196.47 304.233  33
   3   4  -4 5980.37 247.368  15
   3   4  -4 7255.07 283.308  33
   3   4  -4 6304.73 251.126  12
   3   4  -4 6369.60 256.076  19
  -3   4   4 6125.54 283.669  44
   3   4  -4 6283.74 264.085  44
   3   4  -4 6846.09 287.561  43
   3   4  -4 6180.19 259.593  22
   3   4  -4 6662.69 257.182  64
  -3   4   3 1030.80 75.6201  58
   3   4  -3 1325.76 72.2305  58
  -3   4   3 1034.08 79.0420  57
   3   4  -3 1436.15 97.7566  57
   3   4  -3 1411.60 66.0888  15
   3   4  -3 1258.89 102.027  33
   3   4  -3 1213.11 62.3926  12
  -3   4   3 1057.25 102.183  44
   3   4  -3 1252.82 85.9901  44
  -3   4   3 1244.85 132.908  43
   3   4  -3 1216.76 101.064  43
   3   4  -3 1213.39 85.4223  22
   3   4  -3 1229.98 74.5636  36
  -3   4   3 1224.12 128.888  33
   3   4  -3 1115.92 63.9977  19
   3   4  -2 5193.69 207.509  36
   3   4  -2 5435.12 205.730  58
  -3   4   2 3138.63 199.502  57
   3   4  -2 6057.23 232.496  57
   3   4  -2 6229.15 218.285  55
  -3   4   2 4964.64 239.832  33
   3   4  -2 4630.37 220.866  33
  -3   4   2 5029.30 219.717  44
   3   4  -2 4720.30 210.301  44
  -3   4   2 4986.18 244.870  43
   3   4  -2 4977.25 224.180  43
   3   4  -2 4885.73 207.587  22
  -3   4   2 4390.81 198.868  22
  -3   4   2 4563.51 205.332  58
   3   4  -2 4635.28 195.377  19
   3   4  -1 3903.23 166.230  58
  -3   4   1 3375.96 164.278  58
   3   4  -1 4005.43 189.145  57
  -3   4   1 3542.88 195.767  56
   3   4  -1 4963.93 167.794  15
   3   4  -1 4389.94 175.381  55
  -3   4   1 3787.75 194.190  33
   3   4  -1 3467.54 186.528  33
   3   4  -1 3413.19 154.280   6
   3   4  -1 3899.69 178.547  44
  -3   4   1 3595.15 175.968  44
  -3   4   1 3460.37 198.338  43
   3   4  -1 3376.25 152.732  10
   3   4  -1 3613.95 169.191  22
  -3   4   1 3263.68 161.517  22
   3   4   0 5862.46 240.381  37
   3   4   0 6606.88 256.412  58
  -3   4   0 5358.88 249.075  58
   3   4   0 6442.81 273.740  57
   3   4   0 7580.77 251.211  15
   3   4   0 6861.57 260.413  55
  -3   4   0 6086.08 270.227  33
  -3   4   0 5335.00 273.607  56
   3   4   0 5739.46 239.858   6
   3   4   0 5982.40 262.198  44
  -3   4   0 5879.17 256.109  44
  -3   4   0 5470.80 272.999  43
   3   4   0 5468.91 237.596  10
  -3   4   0 5602.75 246.505  22
   3   4   0 5535.36 237.734  19
   3   4   1 80.1043 48.4390  58
   3   4   1 96.7369 58.4631  57
   3   4   1 106.701 46.7918  55
   3   4   1-20.1085 80.0789  33
  -3   4  -1 198.335 82.9509  33
  -3   4  -1 59.4609 64.1162  46
   3   4   1 101.143 39.6629   6
   3   4   1 61.3952 74.0751  44
  -3   4  -1 84.3513 58.9910  44
  -3   4  -1 55.0796 81.3630  43
  -3   4  -1 174.704 88.4395  42
   3   4   1 91.0280 28.8048  10
  -3   4  -1 113.794 59.9024  22
  -3   4  -1 98.6239 53.9833  41
  -3   4  -1 70.3404 41.3495   9
   3   4   1 117.580 26.1017  37
   3   4   2 1422.31 96.1624  58
   3   4   2 1538.51 107.530  57
   3   4   2 1528.17 96.6476  55
  -3   4  -2 984.084 106.687  33
   3   4   2 1371.28 70.7240  37
   3   4   2 1379.01 78.8023   6
  -3   4  -2 1236.31 100.293  46
   3   4   2 1383.46 77.9156  54
   3   4   2 1287.87 116.313  44
  -3   4  -2 1186.28 93.9072  44
  -3   4  -2 1034.55 110.354  43
   3   4   2 1192.14 68.9131  10
  -3   4  -2 1183.68 114.626  42
   3   4   2 1294.02 78.3776   5
  -3   4  -2 1176.55 88.0436  41
  -3   4  -2 1270.70 79.9563   9
   3   4   3 232.389 65.9147  58
   3   4   3 202.812 68.2264  57
   3   4   3 273.662 40.4751  54
  -3   4  -3 148.232 78.5535  33
   3   4   3 263.502 33.1932  37
   3   4   3 244.133 52.0612   6
  -3   4  -3 240.123 70.1439  46
   3   4   3 251.445 62.0331  55
  -3   4  -3 203.715 28.8262  12
   3   4   3 265.867 91.8772  44
  -3   4  -3 227.653 77.3766  43
  -3   4  -3 232.105 83.0210  42
  -3   4  -3 264.508 72.6785  22
  -3   4  -3 250.590 53.6937  41
   3   4   3 211.084 54.0732   5
  -3   4  -3 237.464 55.2919   9
  -3   4  -4 426.278 43.3305  16
   3   4   4 399.067 72.2136  58
   3   4   4 345.176 70.3734  57
   3   4   4 435.043 70.6423  55
   3   4   4 407.283 43.8559  54
   3   4   4 369.414 56.3070   6
  -3   4  -4 337.964 35.6855  12
  -3   4  -4 414.322 67.1495  46
   3   4   4 315.257 101.948  44
   3   4   4 374.372 44.8783  10
  -3   4  -4 170.242 70.1308  43
  -3   4  -4 356.782 81.4123  42
  -3   4  -4 408.472 74.2028  22
  -3   4  -4 305.533 55.4999  41
   3   4   4 439.210 63.0223   5
  -3   4  -4 425.757 64.2367   9
   3   4   4 344.164 36.5639  37
   3   4   5 339.121 68.1842  58
   3   4   5 369.778 66.0590  57
  -3   4  -5 398.190 68.5515  56
   3   4   5 444.484 66.7638  55
   3   4   5 388.050 39.3914  54
  -3   4  -5 322.452 35.1312  12
  -3   4  -5 342.975 60.0874  46
   3   4   5 227.156 96.4364  44
   3   4   5 355.711 43.8484  10
  -3   4  -5 365.696 70.1888  42
  -3   4  -5 383.014 70.8999  22
  -3   4  -5 338.348 51.6993  41
   3   4   5 359.043 62.1665   5
  -3   4  -5 392.571 64.1018   9
  -3   4  -5 391.118 41.0336  16
   3   4   5 292.024 33.3638  37
   3   4   6 99.6035 51.6113  58
  -3   4  -6 32.7988 27.8331  16
  -3   4  -6-8.54167 44.0239  56
   3   4   6-19.9713 39.7027   6
  -3   4  -6-12.0306 39.5107  46
  -3   4  -6 27.9777 23.5346  12
   3   4   6 14.4352 76.9355  44
   3   4   6 42.0515 29.8849  10
  -3   4  -6 1.39958 45.2992  42
  -3   4  -6 24.9498 53.4650  22
  -3   4  -6 11.4751 33.8674  41
   3   4   6-9.70044 49.7830   5
  -3   4  -7 35.2765 27.9319  56
   3   4   7 26.0449 26.9992   6
  -3   4  -7 35.3909 26.3590  46
  -3   4  -7 30.9845 17.2904  12
   3   4   7 62.3470 37.5377   5
   3   4   7 40.3651 36.1933  58
  -3   5   8 372.716 59.6046  57
  -3   5   8 405.023 112.256  33
   3   5  -8 581.231 35.4788  12
  -3   5   8 300.859 76.7598  44
  -3   5   8 472.753 104.009  43
   3   5  -8 450.754 34.2073  19
   3   5  -7 2690.75 169.339  61
   3   5  -7 2420.91 160.936  59
  -3   5   7 2733.21 160.562  57
   3   5  -7 3585.66 132.398  12
  -3   5   7 2891.64 172.975  44
  -3   5   7 3509.52 208.973  43
   3   5  -7 2774.85 125.990  16
   3   5  -7 3228.99 134.400  19
  -3   5   7 2966.13 203.289  33
   3   5  -6 828.174 104.254  59
  -3   5   6 639.941 64.3444  58
  -3   5   6 747.021 83.6220  57
  -3   5   6 735.219 149.648  33
  -3   5   6 756.611 57.4723   6
   3   5  -6 905.742 52.0117  12
   3   5  -6 949.781 116.472  61
  -3   5   6 805.158 111.400  44
   3   5  -6 707.618 48.8472  16
  -3   5   6 638.864 49.3029  10
   3   5  -6 865.297 54.9244  19
   3   5  -5 50.8145 28.8565  19
   3   5  -5 168.308 97.1545  59
  -3   5   5 50.8980 45.3490  58
  -3   5   5 26.6145 56.5904  57
  -3   5   5 97.3715 134.107  33
   3   5  -5 96.3592 80.6562  33
   3   5  -5 45.4179 28.9035  12
  -3   5   5 110.924 94.3370  44
   3   5  -5 118.054 83.5729  43
   3   5  -5 87.2826 61.6548  22
  -3   5   5 86.3463 37.0660  10
  -3   5   4 5969.90 300.097  58
   3   5  -4 7611.63 345.459  59
  -3   5   4 5538.89 305.501  57
   3   5  -4 8184.75 326.908  57
  -3   5   4 6715.48 344.454  33
   3   5  -4 7299.68 283.931  15
   3   5  -4 8223.62 321.442  33
   3   5  -4 8089.03 289.030  12
  -3   5   4 6463.01 319.788  44
   3   5  -4 7602.43 301.970  44
  -3   5   4 7331.69 354.743  43
   3   5  -4 6946.79 319.822  43
   3   5  -4 7062.66 297.884  22
   3   5  -4 7054.14 290.851  19
   3   5  -3 501.042 51.8546  58
  -3   5   3 391.176 57.4360  58
   3   5  -3 610.096 82.4298  57
  -3   5   3 319.105 58.3683  57
   3   5  -3 554.233 38.6148  15
  -3   5   3 498.278 127.124  33
   3   5  -3 429.237 87.2053  33
  -3   5   3 405.949 91.8602  44
   3   5  -3 407.817 66.4669  44
  -3   5   3 419.068 134.701  43
   3   5  -3 478.680 87.7528  43
  -3   5   3 464.517 118.861  42
   3   5  -3 566.604 81.3737  22
  -3   5   3 418.440 59.9354  22
   3   5  -2 665.775 57.3090  36
  -3   5   2 558.268 61.3183  58
   3   5  -2 642.525 57.2754  58
  -3   5   2 329.837 54.4108  57
   3   5  -2 641.106 85.6285  57
  -3   5   2 574.117 107.693  56
  -3   5   2 609.780 122.640  33
   3   5  -2 580.521 95.9562  33
   3   5  -2 740.809 79.4657  44
  -3   5   2 678.138 93.0932  44
   3   5  -2 679.231 89.7568  43
  -3   5   2 569.893 129.327  43
   3   5  -2 505.514 42.2679  10
  -3   5   2 610.606 121.321  42
   3   5  -2 681.637 85.4369  22
  -3   5   2 524.863 69.0935  22
   3   5  -2 567.497 44.7994  19
   3   5  -2 768.136 49.6417  15
   3   5  -1 1952.32 104.093  58
  -3   5   1 1664.74 104.497  58
   3   5  -1 2190.51 131.618  57
  -3   5   1 1666.94 145.016  56
   3   5  -1 2411.56 119.020  55
  -3   5   1 1860.45 147.553  33
   3   5  -1 1969.31 134.299  33
   3   5  -1 1845.13 93.3327   6
   3   5  -1 1897.89 121.168  44
  -3   5   1 1776.21 122.137  44
  -3   5   1 1743.72 157.875  43
   3   5  -1 1678.93 89.0988  10
  -3   5   1 1654.57 108.938  22
   3   5  -1 2148.79 105.599  36
   3   5  -1 1782.51 89.3989  19
   3   5   0 1419.31 91.1381  58
  -3   5   0 1279.37 89.2392  58
   3   5   0 1480.56 115.381  57
  -3   5   0 1313.18 126.036  56
   3   5   0 1676.78 102.536  55
  -3   5   0 1440.21 129.869  33
   3   5   0 1514.99 90.0363  36
   3   5   0 1556.51 81.8200   6
  -3   5   0 1422.93 110.994  46
   3   5   0 1365.61 111.560  44
  -3   5   0 1228.69 102.489  44
  -3   5   0 1201.34 137.081  43
   3   5   0 1337.35 76.1811  10
  -3   5   0 1310.15 100.255  22
  -3   5   0 1368.09 90.8632  41
   3   5   0 1402.31 73.7704  19
   3   5   0 1273.17 117.827  33
   3   5   1 4270.87 186.625  58
  -3   5  -1 3698.75 210.273  56
   3   5   1 4166.99 209.750  57
   3   5   1 4758.80 179.295  15
   3   5   1 4815.18 196.513  55
   3   5   1 2902.95 198.007  33
  -3   5  -1 3505.60 202.944  33
   3   5   1 4068.68 170.568   6
  -3   5  -1 3901.84 191.958  46
   3   5   1 3720.53 196.949  44
  -3   5  -1 3680.19 184.453  44
  -3   5  -1 3380.64 207.760  43
   3   5   1 3153.26 160.265  10
  -3   5  -1 3763.08 183.057  22
  -3   5  -1 3690.36 175.397  41
   3   5   1 4062.44 180.423  36
   3   5   2 226.123 60.3324  58
   3   5   2 195.925 71.6706  57
  -3   5  -2 150.623 82.7085  56
   3   5   2 142.494 57.8019  55
   3   5   2 223.258 42.4736  15
  -3   5  -2 118.497 84.4545  33
   3   5   2 118.343 48.0027   6
  -3   5  -2 119.610 70.0368  46
   3   5   2 104.286 84.9009  44
  -3   5  -2 155.878 66.2987  44
  -3   5  -2 75.9144 90.6534  43
   3   5   2 127.752 46.3082  36
   3   5   2 80.7653 35.7984  10
  -3   5  -2 181.416 47.0321  41
   3   5   2 113.556 26.0570  37
   3   5   3 2259.53 139.339  57
  -3   5  -3 2104.23 136.079  56
   3   5   3 2447.65 111.096  15
   3   5   3 1776.52 91.6566  37
   3   5   3 2544.03 130.874  55
   3   5   3 2457.77 118.423  36
   3   5   3 2377.06 107.998   6
  -3   5  -3 1686.79 87.1084  12
  -3   5  -3 2059.74 118.459  46
   3   5   3 2387.41 126.924  58
   3   5   3 2078.06 142.954  44
  -3   5  -3 1320.45 125.494  43
  -3   5  -3 2411.43 128.214  22
  -3   5  -3 1855.81 103.353  41
  -3   5  -3 1377.43 127.851  33
   3   5   4 2074.13 116.331  55
   3   5   4 1960.20 103.723  36
  -3   5  -4 1843.56 83.9843  16
   3   5   4 1818.65 112.020  58
   3   5   4 2020.76 95.4165  15
   3   5   4 1986.79 96.6611   6
  -3   5  -4 1407.23 76.0092  12
  -3   5  -4 1824.48 102.402  46
   3   5   4 1847.29 119.759  57
   3   5   4 1636.75 128.832  44
   3   5   4 1726.16 87.1013  10
  -3   5  -4 2047.25 112.360  22
  -3   5  -4 1531.01 88.1882  41
  -3   5  -4 1549.47 112.772  56
   3   5   5 2173.65 103.286  36
   3   5   5 1891.59 109.928  58
   3   5   5 1932.28 92.2799  15
   3   5   5 1993.17 111.234  55
  -3   5  -5 1491.98 79.4205  12
  -3   5  -5 1946.93 98.4750  46
   3   5   5 1607.38 118.426  44
   3   5   5 1812.15 89.1727  10
  -3   5  -5 2243.49 107.320  22
   3   5   5 1675.49 110.307  57
  -3   5  -5 2020.49 85.0960  16
   3   5   6 286.376 43.5106  58
   3   5   6 357.301 36.1367   6
  -3   5  -6 239.060 20.9851  12
  -3   5  -6 297.032 33.8731  46
   3   5   6 348.154 30.6048  10
  -3   5  -6 324.380 42.2518  42
   3   5   6 373.809 36.4169  36
   3   6  -7 1952.16 126.524  59
  -3   6   7 2280.66 153.359  33
  -3   6   7 2656.93 155.971  43
  -3   6   7 2644.61 145.955  42
   3   6  -7 3451.10 110.373  19
   3   6  -7 1246.76 120.732  61
   3   6  -6 166.781 74.1235  59
  -3   6   6 58.7036 44.0928  57
  -3   6   6 217.289 69.2406  56
  -3   6   6 28.7437 104.843  33
  -3   6   6 67.4560 33.6859   6
  -3   6   6 158.592 73.1681  44
  -3   6   6 190.530 82.7450  42
  -3   6   6 81.9341 24.8524  10
   3   6  -6 32.9413 74.2801  61
   3   6  -6 111.317 25.8552  19
  -3   6   5 103.680 38.5202  58
  -3   6   5 73.5013 48.3671  57
   3   6  -5 97.6046 28.4081  16
  -3   6   5 91.8496 75.0633  56
  -3   6   5 179.334 115.453  33
  -3   6   5 70.4840 82.0282  44
   3   6  -5 188.753 69.4348  43
  -3   6   5 75.4837 91.2084  42
  -3   6   5 138.880 36.3928  10
   3   6  -5 111.809 28.8718  19
   3   6  -5 64.1626 87.3749  59
  -3   6   4 3809.57 195.345  58
  -3   6   4 2859.15 196.242  57
   3   6  -4 5362.60 223.847  57
  -3   6   4 4091.84 226.560  56
  -3   6   4 4286.89 246.482  33
   3   6  -4 5314.84 219.133  33
   3   6  -4 5500.37 183.047  15
  -3   6   4 3838.71 213.080  44
   3   6  -4 5169.57 221.973  43
  -3   6   4 4307.03 239.287  42
  -3   6   4 4142.10 189.566  10
   3   6  -3 2140.44 164.348  59
  -3   6   3 1750.24 115.467  58
   3   6  -3 2624.35 142.362  57
  -3   6   3 1991.92 151.791  56
   3   6  -3 2401.46 139.425  33
  -3   6   3 2033.33 170.813  33
   3   6  -3 2505.32 102.101  15
  -3   6   3 1843.83 138.641  44
   3   6  -3 2625.88 126.290  44
  -3   6   3 2250.07 181.750  43
   3   6  -3 2125.05 137.636  43
  -3   6   3 2337.22 167.012  42
  -3   6   3 2065.05 112.437  22
   3   6  -3 2140.73 112.678  58
   3   6  -3 2344.14 106.390  19
   3   6  -2 751.100 114.327  59
  -3   6   2 693.047 67.6344  58
   3   6  -2 852.686 90.6950  57
  -3   6   2 787.499 106.787  56
   3   6  -2 831.153 49.9837  15
   3   6  -2 743.544 94.4098  33
  -3   6   2 675.557 124.964  33
   3   6  -2 743.746 80.2006  44
  -3   6   2 665.595 90.5034  44
  -3   6   2 835.289 135.455  43
  -3   6   2 712.013 76.0301  22
  -3   6   2 719.298 118.028  42
   3   6  -2 812.465 51.8677  19
   3   6  -2 771.045 62.7635  58
   3   6  -1 2133.14 111.737  36
   3   6  -1 1857.83 151.680  59
   3   6  -1 2138.41 114.299  58
   3   6  -1 2274.70 141.333  57
  -3   6   1 2130.78 148.397  56
  -3   6   1 2212.25 157.233  33
   3   6  -1 1876.20 136.189  33
   3   6  -1 2243.84 102.791   6
  -3   6   1 2175.53 133.147  46
   3   6  -1 2255.63 128.875  44
  -3   6   1 2196.56 130.544  44
  -3   6   1 2073.65 168.982  43
   3   6  -1 1783.83 95.1213  10
  -3   6   1 1962.96 158.736  42
  -3   6   1 2194.55 121.671  22
   3   6  -1 2632.96 103.648  19
  -3   6   1 1907.34 115.150  58
   3   6   0 244.421 42.5743  36
   3   6   0 226.838 81.6374  59
   3   6   0 216.615 49.3818  58
  -3   6   0 199.756 49.7822  58
   3   6   0 220.036 67.4147  57
  -3   6   0 263.259 83.0501  56
   3   6   0 238.069 55.5606  55
   3   6   0 77.7242 79.5262  33
  -3   6   0 140.047 94.8924  33
   3   6   0 244.544 44.6698   6
  -3   6   0 159.023 71.5159  46
   3   6   0 218.650 71.6129  44
  -3   6   0 215.685 70.0864  44
  -3   6   0 238.775 107.797  43
  -3   6   0 180.845 93.2394  42
   3   6   0 218.561 34.7851  10
  -3   6   0 215.532 77.3121  22
   3   6   1 620.887 55.8751  36
   3   6   1 299.361 69.4543  59
   3   6   1 473.854 60.1325  58
   3   6   1 475.343 80.0462  57
  -3   6  -1 484.801 84.7752  56
   3   6   1 508.297 44.7679  15
   3   6   1 606.133 67.2342  55
  -3   6  -1 526.224 95.5645  33
   3   6   1 585.454 54.1200   6
  -3   6  -1 440.461 73.4491  46
   3   6   1 373.507 79.9842  44
  -3   6  -1 442.371 71.6065  44
  -3   6  -1 488.630 101.189  43
   3   6   1 454.853 43.0764  10
  -3   6  -1 471.442 93.9818  42
  -3   6  -1 592.194 83.8314  22
   3   6   2 23.3485 44.4581  58
   3   6   2 34.6246 60.3088  57
  -3   6  -2 42.7027 63.6398  56
   3   6   2 97.6872 48.9490  55
  -3   6  -2 47.0379 73.0534  33
   3   6   2 53.5976 35.9274  36
   3   6   2 57.1388 44.1562   6
  -3   6  -2 60.4766 55.3312  46
   3   6   2 11.9877 72.9831  44
  -3   6  -2 91.2348 80.7485  43
  -3   6  -2 75.6233 71.1293  42
   3   6   3 348.103 44.8788  36
  -3   6  -3 287.869 34.9399  16
   3   6   3 383.533 53.7202  58
   3   6   3 264.675 62.3248  57
  -3   6  -3 301.356 60.6434  56
   3   6   3 352.232 54.3874  55
  -3   6  -3 152.794 68.0606  33
   3   6   3 439.009 49.1186   6
  -3   6  -3 353.256 51.9224  46
   3   6   3 290.490 72.3584  44
   3   6   3 348.374 40.5441  10
  -3   6  -3 177.086 68.9730  43
  -3   6  -3 387.240 66.2613  42
  -3   6  -3 435.181 75.8489  22
  -3   6  -3 237.992 26.6617  19
  -3   6  -4 1307.19 58.4035  16
   3   6   4 1159.86 75.4133  58
   3   6   4 1179.78 84.1529  57
  -3   6  -4 1000.55 76.1310  56
   3   6   4 1191.47 58.8951  15
   3   6   4 1464.87 83.2649  55
   3   6   4 1421.69 68.3410   6
  -3   6  -4 1294.06 68.0921  46
  -3   6  -4 578.545 73.8834  43
  -3   6  -4 1107.30 77.7773  42
  -3   6  -4 1521.59 86.0682  22
  -3   6  -4 859.779 54.9323  19
   3   6   4 1282.13 70.6493  36
   3   7  -5 134.150 62.2766  61
   3   7  -5 161.411 58.6634  59
  -3   7   5 238.133 31.9103   6
  -3   7   5 209.307 25.0197  10
  -3   7   4 287.607 83.9209  33
  -3   7   4 475.744 58.2098  46
  -3   7   4 302.472 58.9070  44
  -3   7   4 444.224 39.2436  10
  -3   7   4 318.250 71.8829  42
   3   7  -4 571.029 34.8796  19
   3   7  -3 138.845 78.1656  61
  -3   7   3 119.902 33.8956  58
   3   7  -3 192.464 47.7432  57
  -3   7   3 229.625 58.2044  56
   3   7  -3 185.451 78.2721  59
  -3   7   3 42.4167 81.1077  33
  -3   7   3 221.154 55.1210  46
   3   7  -3 197.846 25.2141  19
  -3   7   3 81.4819 54.5160  44
  -3   7   3 144.723 87.5460  43
  -3   7   3 189.836 73.3233  42
  -3   7   3 167.246 37.1328  10
   3   7  -2 14.5860 69.5144  61
   3   7  -2 63.9729 72.5038  59
  -3   7   2 78.9462 34.7511  58
   3   7  -2-12.9057 43.0191  57
  -3   7   2 71.4869 55.5735  56
   3   7  -2 59.0364 15.3777  15
  -3   7   2 64.1458 83.9650  33
  -3   7   2 39.5432 53.2301  46
  -3   7   2 68.1228 55.1403  44
  -3   7   2 55.9263 85.2925  43
  -3   7   2-6.66818 72.3226  42
  -3   7   2 134.197 51.6504  22
  -3   7   1 179.760 55.2896  56
   3   7  -1 213.650 70.0958  59
   3   7  -1 155.366 35.0773  58
   3   7  -1 209.518 49.6021  57
  -3   7   1 201.258 82.3222  33
   3   7  -1 108.422 62.7155  61
  -3   7   1 242.303 55.9165  46
  -3   7   1 236.671 55.1585  44
  -3   7   1 233.402 85.4344  43
  -3   7   1 230.689 72.5281  42
  -3   7   1 195.319 61.3596  22
   3   7   0 478.744 74.4668  59
   3   7   0 747.331 55.0223  58
   3   7   0 798.947 41.6726  15
   3   7   0 894.192 75.3675  57
   3   7   0 368.689 63.3612  61
  -3   7   0 888.387 68.8449  46
  -3   7   0 815.977 69.2026  44
  -3   7   0 854.000 87.3591  33
  -3   7   0 687.526 93.4533  43
  -3   7   0 1061.30 77.2155  22
  -3   7   0 621.955 79.7949  42
  -3   7   0 775.885 72.4862  56
   3   7   1 295.020 37.9202  58
   3   7   1 275.169 50.6416  57
  -3   7  -1 227.472 50.8131  56
   3   7   1 285.756 24.7672  15
  -3   7  -1 345.433 66.7032  33
   3   7   1 293.007 35.5197   6
  -3   7  -1 337.562 46.5757  46
   3   7   1 193.620 29.8624  36
  -3   7  -1 202.993 70.0533  43
  -3   7  -1 241.628 57.9568  42
  -3   7  -1 291.511 64.9919  22
   3   7   2 62.9629 37.5964  57
  -3   7  -2 45.2705 37.2259  56
   3   7   2 44.2520 13.7659  15
   3   7   2 52.9245 29.0721   6
  -3   7  -2 42.9200 53.3325  43
  -3   7  -2 14.1258 39.3273  42
   3   7   2 11.1487 22.8947  10
  -4  -7   4 144.890 83.5670  34
  -4  -7   4 103.561 63.3003  52
   4  -7  -4 108.663 27.4996  14
   4  -7  -4 72.2865 37.8330   3
  -4  -7   3 344.550 36.4593   7
   4  -7  -3 337.108 84.5322  34
  -4  -7   3 157.401 71.5679  52
   4  -7  -3 229.942 33.6600  14
  -4  -7   3 262.019 77.0343  47
   4  -7  -3 252.908 77.1459  47
   4  -7  -3 298.037 45.5451   3
   4  -7  -2 266.875 90.4313  34
  -4  -7   2 442.721 41.6548   7
  -4  -7   2 249.605 98.4905  34
  -4  -7   2 292.076 76.2572  52
   4  -7  -2 312.792 35.8139  14
  -4  -7   2 236.675 66.9338  49
   4  -7  -2 267.743 82.9962  47
   4  -7  -2 373.176 47.9423   3
  -4  -7   2 266.104 62.7468  39
  -4  -7   1 310.396 44.5349   8
  -4  -7   1 359.194 42.2898   7
  -4  -7   1 350.164 94.2593  34
   4  -7  -1 165.336 92.1913  34
  -4  -7   1 211.389 65.6060  52
  -4  -7   1 173.523 67.4619  49
  -4  -7   1 335.169 79.1713  47
   4  -7  -1 201.391 81.4917  47
   4  -7  -1 312.026 46.2407   3
  -4  -7   1 332.231 71.1152  39
  -4  -7   0 410.681 44.6625   7
   4  -7   0 291.635 86.2151  34
  -4  -7   0 505.164 46.6968   8
   4  -7   0 404.066 45.8599   3
  -4  -7   0 408.290 70.9318  49
  -4  -7   0 386.056 76.0196  47
   4  -7   0 286.916 76.4669  47
  -4  -7   0 217.334 67.0826  39
  -4  -6   7 118.909 41.5386  53
   4  -6  -7 56.8206 24.0983  14
  -4  -6   7 108.377 51.9177  48
   4  -6  -7 96.9211 27.9969  60
   4  -6  -7 121.135 32.4076  21
   4  -6  -6 366.771 46.7174  60
  -4  -6   6 552.968 82.5301  35
  -4  -6   6 337.861 94.7232  34
   4  -6  -6 416.294 42.7014  14
  -4  -6   6 475.455 83.6697  52
  -4  -6   5 120.822 118.610  34
  -4  -6   5 306.289 38.2337   7
  -4  -6   5 252.693 93.8982  52
  -4  -6   5 415.457 92.4337  48
  -4  -6   5 133.626 78.7530  47
   4  -6  -5 139.848 27.7429  13
   4  -6  -5 197.661 80.8118  47
   4  -6  -5 230.838 52.5769   3
   4  -6  -5 183.885 45.4739  20
  -4  -6   4 568.866 140.982  34
  -4  -6   4 706.919 50.9418   7
   4  -6  -4 595.195 115.506  34
   4  -6  -4 577.700 63.8678   3
   4  -6  -4 544.154 55.3909  14
  -4  -6   4 522.056 105.917  48
   4  -6  -4 441.590 41.9085  13
  -4  -6   4 651.373 109.043  47
   4  -6  -4 453.093 107.769  47
   4  -6  -4 553.441 55.5407  20
  -4  -6   3 603.456 51.6654   7
   4  -6  -3 561.503 125.011  34
   4  -6  -3 510.837 61.3787   3
   4  -6  -3 491.858 53.5133  14
  -4  -6   3 438.214 85.6695  49
   4  -6  -3 496.227 94.9776  49
   4  -6  -3 429.073 42.6946  13
  -4  -6   3 561.496 118.735  47
   4  -6  -3 404.729 116.294  47
   4  -6  -3 456.718 50.0040  20
  -4  -6   3 479.650 87.1557  39
   4  -6  -3 467.694 102.887  39
  -4  -6   2 1280.92 170.229  34
   4  -6  -2 1265.92 156.370  34
  -4  -6   2 1388.42 75.0455   7
   4  -6  -2 1376.73 85.5985   3
   4  -6  -2 848.708 88.4047  52
   4  -6  -2 1241.86 79.2273  14
  -4  -6   2 1258.12 125.677  49
   4  -6  -2 827.813 118.115  49
   4  -6  -2 1042.87 143.646  47
  -4  -6   2 1164.80 121.769  39
   4  -6  -2 978.568 114.886  39
  -4  -6   1 1590.25 167.174  34
  -4  -6   1 1645.50 86.1815   7
   4  -6  -1 1264.45 111.215  52
   4  -6  -1 1405.37 86.5426  14
   4  -6  -1 1717.29 94.4334   3
  -4  -6   1 1374.71 137.846  49
   4  -6  -1 1038.37 128.530  49
   4  -6  -1 1227.27 98.3540  48
  -4  -6   1 1561.15 148.688  47
  -4  -6   1 1328.12 135.723  39
   4  -6  -1 1554.07 91.3631   4
  -4  -6   0 2651.84 118.615   8
  -4  -6   0 2087.59 174.996  34
  -4  -6   0 2446.21 114.313   7
   4  -6   0 2118.93 181.197  34
   4  -6   0 2171.55 112.932  14
   4  -6   0 2542.60 123.004   3
   4  -6   0 1949.16 135.390  48
  -4  -6   0 2456.39 169.614  47
  -4  -6   0 2251.97 166.149  39
   4  -6   0 1999.55 144.167  52
   4  -6   0 2395.23 118.921   4
   4  -6   0 1621.75 161.770  47
   4  -6   1 924.311 86.8047  35
  -4  -6  -1 1210.18 71.6935   7
   4  -6   1 861.636 129.869  34
  -4  -6  -1 894.517 75.4945  32
   4  -6   1 1087.32 104.541  52
   4  -6   1 909.062 60.9948  14
   4  -6   1 1209.91 76.5530   3
  -4  -6  -1 1194.39 121.563  49
  -4  -6  -1 821.879 54.5677  13
  -4  -6  -1 841.075 109.441  47
   4  -6   1 561.145 107.037  47
   4  -6   1 1019.09 93.4957  48
   4  -6   1 790.578 63.6818   1
  -4  -6  -1 1005.88 115.606  39
   4  -6   1 1198.25 73.1143   4
  -4  -6  -1 1250.64 74.1508   8
   4  -6   2 52.0537 38.8331   4
   4  -6   2 55.6409 55.5417  35
   4  -6   2-24.2574 91.2951  34
  -4  -6  -2-39.5734 46.3195   7
   4  -6   2 51.0611 64.8647  52
  -4  -6  -2 61.8235 48.6991  32
  -4  -6  -2 2.81269 70.7719  49
   4  -6   2 39.2092 55.5877  48
  -4  -6  -2 41.7336 22.8319  13
   4  -6   2 19.6354 42.0275   3
   4  -6   2 70.3835 33.1220   1
  -4  -6  -2-21.1528 74.9789  39
   4  -6   3 260.874 54.6210  35
  -4  -6  -3 323.100 44.4838   7
   4  -6   3 210.520 33.8713  53
  -4  -6  -3 309.570 49.9354  32
   4  -6   3 341.426 43.5539   3
  -4  -6  -3 263.567 61.8303  49
  -4  -6  -3 206.879 27.6171  13
   4  -6   3 295.691 54.0113  48
   4  -6   3 171.273 35.6281   1
  -4  -6  -3 260.297 63.6307  39
   4  -6   3 359.289 39.6095   4
   4  -5  -8 734.838 48.9204  60
   4  -5  -8 683.278 47.2782  14
  -4  -5   8 775.784 81.7589  48
   4  -5  -8 657.708 52.8985  21
   4  -5  -7 1109.64 75.7865  60
  -4  -5   7 1437.98 107.987  35
   4  -5  -7 1139.36 71.1069  14
  -4  -5   7 1135.33 102.945  52
  -4  -5   7 1262.16 116.161  48
   4  -5  -6 1992.51 112.569  60
  -4  -5   6 1922.14 163.229  34
   4  -5  -6 2163.25 108.132  14
  -4  -5   6 2360.70 153.983  52
  -4  -5   6 1623.34 125.438  47
   4  -5  -6 1948.47 113.678  20
   4  -5  -6 2029.27 151.037  39
  -4  -5   5 1468.57 169.048  34
   4  -5  -5 1210.93 127.167  34
   4  -5  -5 1404.29 91.3103   3
   4  -5  -5 1536.52 90.1880  14
   4  -5  -5 1257.87 71.2934  13
  -4  -5   5 1379.95 127.062  47
   4  -5  -5 1112.10 128.328  47
   4  -5  -5 1535.56 95.9971  20
   4  -5  -5 1581.27 146.082  39
  -4  -5   4 801.010 236.044  34
   4  -5  -4 664.447 129.070  34
  -4  -5   4 840.120 54.3498   7
   4  -5  -4 754.485 66.9112   3
   4  -5  -4 600.270 64.6157  14
  -4  -5   4 614.508 85.1732  49
   4  -5  -4 545.065 96.2043  49
   4  -5  -4 585.712 48.1022  13
  -4  -5   4 592.241 119.355  47
   4  -5  -4 613.395 125.455  47
   4  -5  -4 684.234 68.8291  20
  -4  -5   4 625.556 87.4940  39
   4  -5  -3 3134.45 209.623  34
  -4  -5   3 3071.19 123.547   7
   4  -5  -3 2676.54 134.506   3
  -4  -5   3 2775.47 173.633  49
   4  -5  -3 2202.39 172.013  49
   4  -5  -3 2480.30 122.260  13
  -4  -5   3 2510.69 192.811  47
   4  -5  -3 2679.98 195.785  47
  -4  -5   3 2445.70 167.843  39
   4  -5  -3 2661.61 134.409  20
   4  -5  -3 2608.55 187.272  39
   4  -5  -3 2480.32 132.574   4
   4  -5  -2 2908.23 201.519  34
  -4  -5   2 2645.89 112.511   7
   4  -5  -2 2469.58 122.450  14
   4  -5  -2 2048.47 138.805  52
   4  -5  -2 2600.49 123.611   3
  -4  -5   2 2793.88 175.542  49
   4  -5  -2 2428.43 174.437  49
   4  -5  -2 1852.06 128.512  48
   4  -5  -2 2140.44 110.204  13
   4  -5  -2 2309.04 188.468  47
  -4  -5   2 2371.93 169.983  39
   4  -5  -2 2482.82 119.194  20
   4  -5  -2 2304.47 167.090  39
   4  -5  -2 1927.48 108.378   1
  -4  -5   1 1652.74 410.434  34
  -4  -5   1 1883.70 92.2275   7
  -4  -5   1 1526.70 101.005  32
   4  -5  -1 1451.86 128.967  52
   4  -5  -1 1749.34 100.469  14
  -4  -5   1 1756.95 158.730  49
   4  -5  -1 1815.19 101.427   3
   4  -5  -1 1553.29 152.806  49
   4  -5  -1 1698.84 123.492  48
  -4  -5   1 1996.50 177.759  47
   4  -5  -1 1756.10 103.468   2
  -4  -5   1 1813.97 159.121  39
   4  -5  -1 1782.07 97.6689   1
   4  -5  -1 1398.08 131.721  39
   4  -5   0 1627.46 125.821  35
   4  -5   0 2224.87 185.041  34
  -4  -5   0 1933.58 97.7176   7
  -4  -5   0 1763.36 113.440  32
   4  -5   0 1729.84 143.210  52
   4  -5   0 1881.40 102.846  14
  -4  -5   0 1611.03 246.922  34
   4  -5   0 1842.19 103.774   3
  -4  -5   0 1726.30 87.1394  13
   4  -5   0 1798.64 136.151  48
  -4  -5   0 1865.77 166.290  47
   4  -5   0 1366.12 155.280  47
   4  -5   0 1727.28 104.796   1
   4  -5   0 1934.39 105.593   2
   4  -5   1 265.642 79.7920  35
  -4  -5  -1 172.132 119.848  34
   4  -5   1 351.220 130.665  34
   4  -5   1 387.266 55.9998   2
  -4  -5  -1 358.575 54.6422   7
   4  -5   1 325.892 96.5363  52
  -4  -5  -1 471.318 76.5897  32
   4  -5   1 387.972 49.1676  14
  -4  -5  -1 326.368 109.853  49
   4  -5   1 384.948 88.1480  48
  -4  -5  -1 340.199 105.732  47
   4  -5   1 210.087 103.244  47
  -4  -5  -1 402.382 56.5669   8
   4  -5   1 351.187 57.8602   1
   4  -5   1 263.791 53.0209   3
  -4  -5  -1 469.260 65.0068  40
  -4  -5  -1 337.224 107.803  39
   4  -5   1 301.173 50.7237  53
   4  -5   2 899.078 106.991  35
  -4  -5  -2 1033.35 73.0485   7
   4  -5   2 696.587 124.050  34
   4  -5   2 856.894 76.7366  53
  -4  -5  -2 1215.33 97.1604  32
  -4  -5  -2 838.702 121.237  49
   4  -5   2 938.371 108.709  48
   4  -5   2 1051.08 76.1112   3
  -4  -5  -2 695.312 99.7058  47
   4  -5   2 405.459 102.311  47
  -4  -5  -2 1055.10 73.4868   8
   4  -5   2 989.967 80.7876   1
   4  -5   2 1078.31 73.5295   2
  -4  -5  -2 928.015 85.6399  40
  -4  -5  -2 916.263 118.388  39
   4  -5   2 819.978 58.0660  38
   4  -5   2 985.643 73.7834   4
   4  -5   3 1234.49 112.796  35
  -4  -5  -3 1167.29 77.9094   7
   4  -5   3 1088.18 83.0816  53
  -4  -5  -3 1155.59 94.2589  32
   4  -5   3 1189.62 110.260  52
  -4  -5  -3 946.444 110.099  49
   4  -5   3 1185.09 78.6523   3
   4  -5   3 1207.38 87.4442   1
  -4  -5  -3 1229.15 91.1780  40
   4  -5   3 1143.78 72.5121   2
  -4  -5  -3 1008.99 105.308  39
   4  -5   3 954.819 65.4987  38
   4  -5   3 1250.18 77.8346   4
   4  -5   4 6290.12 276.553  35
  -4  -5  -4 6149.52 240.478   7
   4  -5   4 5226.79 259.505  52
  -4  -5  -4 3800.47 254.706  49
   4  -5   4 5162.49 259.946  48
   4  -5   4 6643.49 246.829   3
   4  -5   4 6211.19 253.992   1
   4  -5   4 5664.58 235.558   2
  -4  -5  -4 6004.69 252.315  40
  -4  -5  -4 4256.71 250.677  39
  -4  -5  -4 7012.93 243.577   9
   4  -5   4 5598.90 239.298  38
   4  -5   4 6562.82 244.912   4
   4  -5   4 6242.91 254.953  53
  -4  -5  -5 2370.78 108.702   7
   4  -5   5 2276.40 116.058  53
  -4  -5  -5 2041.61 116.381  32
   4  -5   5 1879.37 116.360  48
   4  -5   5 2770.96 112.771   3
  -4  -5  -5 2219.93 115.482  40
  -4  -5  -5 2455.93 107.817   9
   4  -5   5 2298.55 106.812  38
   4  -5   5 2711.73 110.985   4
  -4  -5  -5 2651.89 108.353   8
   4  -4  -9 95.3306 26.7840  60
  -4  -4   9 31.8310 35.8939  53
   4  -4  -9 75.5238 35.6499  21
   4  -4  -8 797.545 61.7263  60
   4  -4  -8 798.282 55.4929  14
  -4  -4   8 906.622 94.9212  48
   4  -4  -8 820.212 63.8256  21
   4  -4  -8 830.473 66.0480  20
   4  -4  -7 308.553 53.5543  60
  -4  -4   7 280.907 77.9870  52
   4  -4  -7 272.289 43.1248  14
   4  -4  -7 240.263 59.1033  20
  -4  -4   6-10.2658 116.996  34
   4  -4  -6 9.49518 38.5214  14
  -4  -4   6-53.2850 69.9794  47
   4  -4  -6-27.3908 92.0180  39
   4  -4  -5 671.624 110.487  34
   4  -4  -5 625.593 61.5148   3
   4  -4  -5 616.270 57.6174  14
   4  -4  -5 436.496 77.1151  49
   4  -4  -5 544.342 40.7779  13
  -4  -4   5 515.250 99.8984  47
   4  -4  -5 505.176 102.931  47
   4  -4  -5 616.395 67.3075  20
   4  -4  -5 557.461 115.080  39
   4  -4  -4 2422.88 172.328  34
   4  -4  -4 1746.87 97.4020   1
   4  -4  -4 2346.85 112.598  14
   4  -4  -4 2308.35 113.302   3
  -4  -4   4 2293.49 137.225  49
   4  -4  -4 2100.84 99.4033  13
   4  -4  -4 2483.68 170.362  47
   4  -4  -4 2132.72 144.953  49
  -4  -4   4 2072.59 140.262  39
   4  -4  -4 2329.98 111.449   4
   4  -4  -4 2466.31 167.587  39
   4  -4  -4 2180.13 116.337  20
   4  -4  -3 4816.34 213.279   1
   4  -4  -3 5806.65 281.311  34
  -4  -4   3 5839.75 209.536   7
   4  -4  -3 5019.61 220.146  14
   4  -4  -3 4662.74 229.269  52
   4  -4  -3 5357.85 219.421   3
  -4  -4   3 5893.38 259.688  49
   4  -4  -3 5245.04 259.910  49
   4  -4  -3 4346.75 221.915  48
   4  -4  -3 4728.19 209.249  13
   4  -4  -3 5152.54 270.497  47
  -4  -4   3 5059.21 253.329  39
   4  -4  -3 5573.35 224.037  20
   4  -4  -3 4895.16 217.206   4
   4  -4  -2 1812.56 164.597  34
  -4  -4   2 1737.12 80.1480   7
  -4  -4   2 1590.93 94.2462  32
   4  -4  -2 1600.36 115.353  52
   4  -4  -2 1578.65 87.4421   3
   4  -4  -2 1549.20 136.916  49
   4  -4  -2 1527.39 106.725  48
   4  -4  -2 1419.18 79.6850  13
   4  -4  -2 1642.07 150.284  47
   4  -4  -2 1496.73 92.5730   2
  -4  -4   2 1639.50 148.265  39
   4  -4  -2 1741.99 138.555  39
   4  -4  -2 1529.88 86.6480   1
   4  -4  -2 1594.74 90.1589  20
   4  -4  -2 1642.52 88.5286   4
   4  -4  -1 1792.14 123.159  35
  -4  -4   1 2116.19 97.1168   7
  -4  -4   1 2116.73 117.659  32
   4  -4  -1 2086.63 139.757  52
   4  -4  -1 1887.71 105.166  14
   4  -4  -1 2091.64 155.846  49
   4  -4  -1 2072.41 105.091   3
   4  -4  -1 2045.20 133.007  48
   4  -4  -1 2095.38 110.660   1
   4  -4  -1 2025.02 109.561   2
  -4  -4   1 1886.84 199.192  39
   4  -4  -1 1841.66 139.803  39
   4  -4  -1 2156.18 104.719  20
   4  -4  -1 1991.11 103.764   4
   4  -4   0 312.185 76.1152  35
   4  -4   0 339.896 47.1573   4
  -4  -4   0 390.292 45.8443   7
   4  -4   0 442.149 132.254  34
   4  -4   0 335.661 49.4940  53
   4  -4   0 356.578 53.4581   2
   4  -4   0 349.515 50.7852  14
   4  -4   0 458.822 96.3426  52
  -4  -4   0 379.945 71.1369  32
   4  -4   0 382.478 47.7720   3
   4  -4   0 424.528 81.7546  48
   4  -4   0 249.104 105.249  47
   4  -4   0 403.230 57.4459   1
  -4  -4   0 443.386 60.8657  40
  -4  -4   0 434.300 180.719  39
   4  -4   0 308.983 34.2085  38
  -4  -4  -1 4277.79 181.928   8
   4  -4   1 4184.05 225.018  35
  -4  -4  -1 4234.25 180.991   7
   4  -4   1 4403.50 243.820  34
   4  -4   1 4348.98 200.836  53
  -4  -4  -1 4499.45 208.178  32
   4  -4   1 4373.15 228.698  52
   4  -4   1 3999.11 187.745  14
   4  -4   1 4766.63 229.003  48
   4  -4   1 3836.42 185.879   3
   4  -4   1 3492.71 223.590  47
   4  -4   1 4698.36 209.109   1
  -4  -4  -1 4458.88 199.906  40
  -4  -4  -1 3993.53 240.205  39
   4  -4   1 4338.25 191.965   2
   4  -4   1 3798.53 181.781  38
   4  -4   1 4257.12 187.636   4
   4  -4   2 978.210 115.588  35
  -4  -4  -2 922.607 70.4605   7
   4  -4   2 831.349 124.670  34
   4  -4   2 1035.21 87.9943  53
  -4  -4  -2 1214.81 103.343  32
   4  -4   2 844.278 68.6388  14
  -4  -4  -2 667.666 107.078  47
   4  -4   2 811.353 70.8361   3
   4  -4   2 674.422 105.734  47
  -4  -4  -2 913.765 65.8981  45
  -4  -4  -2 961.437 70.4101   8
  -4  -4  -2 1071.00 94.9196  40
  -4  -4  -2 972.463 119.767  39
   4  -4   2 1042.62 77.8025   2
   4  -4   2 969.910 68.3600  38
   4  -4   3 1107.15 117.774  35
  -4  -4  -3 942.366 73.8192   7
   4  -4   3 1075.37 88.5458  53
   4  -4   3 970.672 110.373  52
  -4  -4  -3 1170.59 74.7157   8
  -4  -4  -3 764.777 113.021  49
   4  -4   3 1029.96 105.565  48
   4  -4   3 903.285 73.7361   3
   4  -4   3 867.286 62.4811  54
   4  -4   3 639.623 103.602  34
  -4  -4  -3 965.048 70.2444  45
  -4  -4  -3 1180.24 100.124  40
  -4  -4  -3 857.148 104.985  39
   4  -4   3 1116.32 79.3420   2
   4  -4   3 1012.95 73.4852  38
   4  -4   4 1530.31 126.380  35
  -4  -4  -4 1476.28 88.8534   7
   4  -4   4 1324.85 81.2313  54
   4  -4   4 1571.70 103.394  53
  -4  -4  -4 1497.92 107.620  32
   4  -4   4 1451.73 113.866  52
  -4  -4  -4 1088.43 110.448  49
   4  -4   4 1311.15 112.351  48
   4  -4   4 1224.75 88.1996   3
  -4  -4  -4 1378.48 84.8134  45
  -4  -4  -4 1624.03 111.759  40
  -4  -4  -4 1229.02 101.509  39
  -4  -4  -4 1739.06 93.9863   9
   4  -4   4 1559.89 92.2938   2
   4  -4   4 1540.77 89.2268  38
   4  -4   5 413.944 42.5984  54
   4  -4   5 447.343 56.6630  53
   4  -4   5 361.262 61.8772  52
  -4  -4  -5 456.663 65.0355  32
   4  -4   5 404.028 62.3528  48
   4  -4   5 483.222 52.0674   4
   4  -4   5 442.507 52.0901   3
  -4  -4  -5 437.129 48.5398  45
   4  -4   5 448.856 58.8130   1
   4  -4   5 514.454 52.1379   2
  -4  -4  -5 489.631 57.7327   9
   4  -4   5 480.527 47.4735  38
  -4  -4  -5 495.892 54.8664   7
   4  -4   6-35.0029 43.4890  35
   4  -4   6 13.0977 29.6697   4
  -4  -4  -6-7.80829 34.9658   7
   4  -4   6-17.8685 25.1640   2
  -4  -4  -6 4.75593 35.7282  32
   4  -4   6-2.19212 26.8136   1
  -4  -4  -6 14.0886 26.6136  45
   4  -4   6-17.8070 30.8033   3
  -4  -4  -6-9.55500 41.2704  40
  -4  -4  -6-10.6542 31.8388   8
  -4  -4  -6 60.6593 35.4237   9
   4  -4   6 9.76806 28.9218  53
   4  -4   6 21.5933 22.8211  38
   4  -3 -10 584.233 41.9821  21
   4  -3 -10 635.066 39.0056  60
  -4  -3  10 557.532 45.9861  38
   4  -3 -10 570.620 40.8948  62
   4  -3  -9 928.226 61.8287  64
   4  -3  -9 1029.62 61.8244  60
   4  -3  -9 969.296 64.2561  21
   4  -3  -9 1067.43 62.2388  62
   4  -3  -8 1294.13 76.6513  60
   4  -3  -8 1148.86 66.9015  14
   4  -3  -8 1145.42 77.6004  21
   4  -3  -8 1152.51 79.3001  20
   4  -3  -8 1232.01 73.9124  64
   4  -3  -8 1327.42 73.3648  62
   4  -3  -7 368.906 41.6730  14
   4  -3  -7 288.834 39.4096  64
   4  -3  -7 368.423 61.2547  20
   4  -3  -7 346.753 38.2145  62
   4  -3  -6 266.635 40.5619  14
   4  -3  -6 319.882 52.3473  20
   4  -3  -6 208.109 32.2031  62
   4  -3  -5 635.266 98.7085  34
   4  -3  -5 594.876 52.8508   3
   4  -3  -5 510.574 35.5890  13
   4  -3  -5 583.545 97.1998  47
   4  -3  -5 547.792 40.6347   1
   4  -3  -5 709.621 52.5757  14
   4  -3  -5 617.384 56.9186  20
   4  -3  -5 722.090 105.104  39
   4  -3  -5 431.282 386.831  63
   4  -3  -4 232.639 37.0575   4
   4  -3  -4 236.892 103.307  34
   4  -3  -4 234.140 30.4962   1
   4  -3  -4 267.134 39.4186  14
  -4  -3   4 288.531 59.0331  49
   4  -3  -4 340.462 69.9247  49
   4  -3  -4 217.854 26.6257  13
   4  -3  -4 280.724 95.9557  47
   4  -3  -4 248.123 90.9697  39
   4  -3  -4 282.352 44.4856  20
   4  -3  -4 307.732 39.1899   3
   4  -3  -4 339.175 128.364  63
   4  -3  -3 2204.17 154.710  34
  -4  -3   3 1647.62 97.9737  32
   4  -3  -3 2171.63 99.1295  14
   4  -3  -3 1828.27 110.619  52
   4  -3  -3 2087.29 94.5907   3
   4  -3  -3 1930.64 130.710  49
   4  -3  -3 1891.88 105.165  48
   4  -3  -3 1707.29 85.2869  13
   4  -3  -3 2005.32 150.904  47
   4  -3  -3 1923.77 94.3501   1
   4  -3  -3 2057.16 99.1764  20
   4  -3  -3 1832.88 92.6511   4
   4  -3  -3 2072.46 123.669  63
  -4  -3   2 611.254 76.5622  18
   4  -3  -2 496.279 46.2353  14
   4  -3  -2 552.471 74.4059  52
   4  -3  -2 513.118 42.6396   3
   4  -3  -2 595.173 88.2055  49
   4  -3  -2 531.377 65.2739  48
   4  -3  -2 533.744 38.5060  13
   4  -3  -2 561.421 101.852  47
   4  -3  -2 360.862 50.8337   5
   4  -3  -2 601.409 50.1071   1
   4  -3  -2 671.253 118.719  34
   4  -3  -2 659.672 50.1204  20
   4  -3  -2 637.054 92.8323  39
   4  -3  -2 617.395 72.5924  63
   4  -3  -2 504.079 43.6587   4
  -4  -3   2 524.615 59.0795  32
   4  -3  -1 1137.49 88.8610  35
   4  -3  -1 1212.20 71.3051  53
  -4  -3   1 1204.80 86.2262  32
   4  -3  -1 1249.31 102.870  52
   4  -3  -1 1136.75 111.666  49
  -4  -3   1 1036.08 106.327  31
   4  -3  -1 1190.80 66.5522   3
   4  -3  -1 1344.02 97.2856  48
   4  -3  -1 1266.54 122.290  47
   4  -3  -1 1107.09 70.0847   5
   4  -3  -1 1470.39 80.8238   1
  -4  -3   1 1366.79 78.7906  40
   4  -3  -1 1268.08 75.4307   2
   4  -3  -1 969.237 101.546  39
   4  -3  -1 1348.14 71.4409  20
   4  -3  -1 1140.04 60.5698  38
  -4  -3   1 1228.25 100.822  18
   4  -3  -1 1057.43 66.3168   4
   4  -3   0 7844.94 333.620  35
   4  -3   0 8603.14 351.853  34
  -4  -3   0 7260.11 296.674   7
   4  -3   0 7805.39 314.550  53
  -4  -3   0 7868.04 319.458  32
   4  -3   0 8684.87 338.771  52
   4  -3   0 6868.62 305.749  14
   4  -3   0 8635.37 338.779  48
   4  -3   0 6579.30 300.968   3
   4  -3   0 7013.90 342.545  47
  -4  -3   0 7799.13 302.898  45
   4  -3   0 7472.86 301.636   5
   4  -3   0 9188.82 324.687   1
  -4  -3   0 7671.96 314.541  40
   4  -3   0 7694.71 305.125  20
   4  -3   0 7383.55 308.735   2
   4  -3   0 7381.44 302.255  38
   4  -3   0 7279.75 303.808   4
   4  -3   1 1502.90 117.133  35
  -4  -3  -1 1270.79 73.5085   7
   4  -3   1 1603.21 136.198  34
   4  -3   1 1376.96 92.6338  53
  -4  -3  -1 1490.80 103.640  32
   4  -3   1 1327.77 81.7211  14
   4  -3   1 1202.57 118.299  47
   4  -3   1 1121.71 75.2478   3
  -4  -3  -1 1374.52 82.6995  45
   4  -3   1 1566.20 77.2675   5
  -4  -3  -1 1524.80 102.014  40
   4  -3   1 1308.98 78.8526  38
   4  -3   1 1415.99 86.4777   2
  -4  -3  -1 1332.02 74.5459   8
   4  -3   1 1347.43 78.6009   4
   4  -3   2 711.913 99.6160  35
  -4  -3  -2 495.999 52.1377   7
  -4  -3  -2 562.126 52.9693   8
   4  -3   2 596.049 111.594  34
   4  -3   2 511.570 49.5635  54
   4  -3   2 712.610 74.0801  53
   4  -3   2 714.369 98.5711  52
   4  -3   2 527.857 56.8617  14
   4  -3   2 553.908 88.4472  48
   4  -3   2 382.308 87.3252  47
   4  -3   2 455.885 51.0659   3
  -4  -3  -2 638.679 62.6703  45
   4  -3   2 684.930 52.2304   5
  -4  -3  -2 646.031 87.8792  40
  -4  -3  -2 363.950 178.524  39
   4  -3   2 672.558 57.9387  38
   4  -3   2 563.695 63.6069   2
   4  -3   2 577.691 55.0742   4
  -4  -3  -3 360.052 50.7607   8
   4  -3   3 310.535 92.6847  35
   4  -3   3 332.689 51.8200   4
   4  -3   3 194.834 82.6574  34
  -4  -3  -3 330.684 53.0505   7
   4  -3   3 297.554 45.8485  54
   4  -3   3 342.620 64.9710  53
   4  -3   3 304.182 86.4701  52
  -4  -3  -3 383.832 82.7216  32
   4  -3   3 297.456 58.6396   2
   4  -3   3 342.213 81.4734  48
  -4  -3  -3 341.156 59.3937  45
  -4  -3  -3 364.602 87.3000  40
  -4  -3  -3 305.196 80.2906  39
   4  -3   3 333.599 53.1906  38
   4  -3   4 13552.4 498.075   4
  -4  -3  -4 11878.2 488.255   7
   4  -3   4 12740.8 499.657  54
   4  -3   4 13726.1 517.378  53
  -4  -3  -4 13466.8 509.327  32
   4  -3   4 11094.5 511.368  52
   4  -3   4 11513.6 514.249  48
  -4  -3  -4 13839.4 500.274  45
  -4  -3  -4 8874.52 496.921  39
  -4  -3  -4 13663.8 492.794   9
   4  -3   4 13848.6 503.221  38
   4  -3   4 10869.1 483.444  37
   4  -3   4 12770.2 500.645   2
  -4  -3  -4 13347.1 488.662   8
  -4  -3  -5 4827.11 218.065   7
   4  -3   5 5013.42 253.913  35
   4  -3   5 5243.43 226.036  54
  -4  -3  -5 5371.58 231.855  32
   4  -3   5 4444.84 229.908  52
   4  -3   5 4531.22 232.007  48
  -4  -3  -5 5620.88 226.789  45
  -4  -3  -5 5541.53 240.209  40
  -4  -3  -5 5648.10 221.920   9
   4  -3   5 4645.02 211.596  37
   4  -3   5 5608.97 227.383  38
   4  -3   5 5543.09 228.995   2
  -4  -3  -6 485.437 52.7185   7
   4  -3   6 476.138 68.7465  35
   4  -3   6 526.587 48.2345  54
   4  -3   6 409.847 52.2848  53
  -4  -3  -6 494.503 56.5630  32
   4  -3   6 425.904 49.1557   3
  -4  -3  -6 558.171 52.5862  45
   4  -3   6 404.677 50.0507   1
  -4  -3  -6 505.994 64.8759  40
  -4  -3  -6 530.071 55.7019   9
   4  -3   6 482.129 55.0535   2
  -4  -3  -7 136.334 31.3812   8
   4  -3   7 157.805 29.6613   2
   4  -3   7 215.202 29.8154   3
  -4  -3  -7 160.536 29.4253  45
  -4  -3  -7 162.714 33.2757   9
   4  -3   7 163.089 23.6684  38
   4  -2 -10 101.808 29.7141  62
   4  -2 -10 73.0719 25.4966  60
   4  -2 -10 71.4364 33.0937  21
   4  -2 -10 83.9000 31.4887  64
   4  -2  -9 913.998 59.5570  60
   4  -2  -9 785.126 60.7783  21
   4  -2  -9 820.224 62.9820  64
   4  -2  -9 846.376 60.0323  62
   4  -2  -8 4399.13 192.443  21
   4  -2  -8 4022.63 193.489  20
   4  -2  -8 4518.98 198.559  64
   4  -2  -7 367.251 35.4240  14
   4  -2  -7 276.313 34.8645   1
   4  -2  -7 324.802 47.8713  21
   4  -2  -7 418.830 53.0562  20
   4  -2  -7 474.423 622.512  63
   4  -2  -7 412.648 45.3493  64
   4  -2  -7 420.317 41.5306  62
   4  -2  -6 641.541 56.4576  60
   4  -2  -6 566.916 43.8475  14
   4  -2  -6 645.329 189.507  63
   4  -2  -6 480.318 48.9527  20
   4  -2  -6 589.121 42.8002   1
   4  -2  -6 446.267 43.4546  64
   4  -2  -6 605.580 44.0826  62
   4  -2  -5 3309.60 156.122  60
   4  -2  -5 3471.16 150.176   3
   4  -2  -5 3662.70 149.687  14
   4  -2  -5 3633.74 149.198   1
  -4  -2   5 3758.22 215.210  23
   4  -2  -5 3417.31 203.240  61
   4  -2  -5 3524.48 153.631  20
   4  -2  -5 3571.94 177.229  63
   4  -2  -5 3083.29 146.399  62
   4  -2  -4 10279.3 449.175  34
   4  -2  -4 11353.6 425.029   1
   4  -2  -4 10542.0 423.233  14
   4  -2  -4 9599.62 425.728  48
   4  -2  -4 11183.9 456.391  47
   4  -2  -4 11096.0 444.784  63
   4  -2  -4 9884.50 449.199  39
   4  -2  -4 9984.71 426.278  20
   4  -2  -3 1682.38 128.940  34
   4  -2  -3 1441.72 73.8673  14
   4  -2  -3 1526.70 87.8766  52
   4  -2  -3 1575.99 85.8869  48
   4  -2  -3 1196.97 63.3288  13
   4  -2  -3 1560.94 119.457  47
  -4  -2   3 1999.79 104.082  24
   4  -2  -3 1358.21 109.174  39
   4  -2  -3 1579.47 75.7607   1
  -4  -2   2 2457.82 112.126  18
  -4  -2   2 1739.75 80.8605  17
   4  -2  -2 1894.28 97.4250  35
   4  -2  -2 2308.17 141.497  34
   4  -2  -2 1819.69 87.1989  53
   4  -2  -2 1994.90 92.4247  14
   4  -2  -2 2272.15 113.607  52
  -4  -2   2 1885.48 100.811  31
   4  -2  -2 2235.38 110.905  31
  -4  -2   2 2166.77 113.925  31
  -4  -2   2 1742.11 102.699  30
   4  -2  -2 2234.38 110.459  48
   4  -2  -2 2230.58 135.622  47
  -4  -2   2 1448.98 79.6644  28
  -4  -2   2 2732.85 124.892  24
   4  -2  -2 2208.81 95.8447   1
   4  -2  -2 1956.95 82.9288  38
  -4  -2   1 4528.41 188.463  18
  -4  -2   1 3281.73 157.285  17
   4  -2  -1 3951.52 159.536  17
   4  -2  -1 4115.48 181.492  35
   4  -2  -1 4225.89 186.247  52
   4  -2  -1 3740.42 165.220  14
  -4  -2   1 4091.91 195.426  31
   4  -2  -1 4230.58 185.339  48
   4  -2  -1 4244.38 202.226  47
  -4  -2   1 3404.97 161.048  28
  -4  -2   1 3884.67 163.833  45
  -4  -2   1 4444.95 196.828  24
  -4  -2   1 4518.77 229.420  23
   4  -2  -1 4467.95 173.288   1
  -4  -2   1 3933.62 171.541  40
   4  -2  -1 3808.27 159.832  38
   4  -2  -1 3792.54 166.457  53
  -4  -2   0 7453.09 350.982  17
   4  -2   0 9416.97 379.104  35
   4  -2   0 10004.0 387.659  34
   4  -2   0 9523.85 364.131  53
   4  -2   0 10038.4 378.873  52
  -4  -2   0 8525.25 390.892  31
   4  -2   0 9929.12 379.785  48
   4  -2   0 9135.67 387.770  47
  -4  -2   0 7660.96 358.351  28
  -4  -2   0 9184.45 357.302  45
  -4  -2   0 9013.55 388.102  24
  -4  -2   0 9623.35 411.544  23
  -4  -2   0 9719.78 366.553  40
   4  -2   0 9329.73 355.519  38
  -4  -2   0 9577.04 380.870  18
   4  -2   1 2931.26 139.360   4
   4  -2   1 2932.96 131.735  37
  -4  -2  -1 3172.24 169.710  18
   4  -2   1 3440.06 173.139  35
   4  -2   1 3645.14 179.236  34
   4  -2   1 3129.11 140.388  54
   4  -2   1 3485.82 155.386  53
   4  -2   1 3201.19 144.628  14
   4  -2   1 3324.94 166.607  48
   4  -2   1 2849.81 171.292  47
  -4  -2  -1 3508.43 149.241  45
   4  -2   1 3366.86 139.712   5
  -4  -2  -1 3587.34 161.665  40
   4  -2   1 3426.71 144.763  38
  -4  -2  -1 2851.93 134.487   8
   4  -2   2 1820.45 101.698   2
   4  -2   2 1946.10 129.618  35
  -4  -2  -2 1560.84 87.0131   7
   4  -2   2 1727.17 93.9997  54
   4  -2   2 1855.37 109.439  53
  -4  -2  -2 1788.39 112.733  32
   4  -2   2 1756.13 121.149  52
   4  -2   2 1658.55 118.917  48
  -4  -2  -2 1913.26 102.005  45
   4  -2   2 1819.49 90.1458   5
  -4  -2  -2 1735.79 117.918  40
   4  -2   2 1603.54 92.1738   4
  -4  -2  -2 1708.86 87.2910   8
   4  -2   2 1921.71 97.4206  38
   4  -2   2 1774.62 85.0703  37
   4  -2   3 1074.11 73.2109   4
  -4  -2  -3 996.663 71.4871   7
   4  -2   3 1225.69 78.3321  54
   4  -2   3 1182.18 90.9066  53
  -4  -2  -3 1255.16 96.0351  32
   4  -2   3 1114.50 85.9692   2
   4  -2   3 1147.98 103.350  52
   4  -2   3 1138.06 98.0164  48
  -4  -2  -3 1356.86 88.8343  45
   4  -2   3 1041.54 65.1821  37
   4  -2   3 1249.93 71.8539   5
  -4  -2  -3 1052.67 67.7104  41
  -4  -2  -3 1137.09 69.8297   8
  -4  -2  -3 1145.64 153.550  39
   4  -2   3 1227.50 79.4918  38
   4  -2   4 705.251 76.3447   2
  -4  -2  -4 565.493 61.8392   7
   4  -2   4 748.044 66.6428  54
  -4  -2  -4 683.396 78.8161  32
   4  -2   4 685.314 99.0671  35
   4  -2   4 606.158 82.4798  52
   4  -2   4 634.007 75.8321  48
   4  -2   4 755.000 64.6776   4
  -4  -2  -4 605.859 75.7535  45
   4  -2   4 736.340 56.7539   5
  -4  -2  -4 596.990 53.2872  41
  -4  -2  -4 658.658 97.2259  40
  -4  -2  -4 681.623 68.2793   9
   4  -2   4 645.714 53.5697  37
  -4  -2  -4 701.703 60.6289   8
   4  -2   5 972.066 73.2005   4
  -4  -2  -5 777.625 69.2833   7
   4  -2   5 1018.27 101.112  35
   4  -2   5 972.973 74.0009  54
   4  -2   5 827.404 78.3498  53
  -4  -2  -5 855.598 79.7100  32
   4  -2   5 787.013 77.2421  52
   4  -2   5 711.013 70.2363  48
  -4  -2  -5 1068.80 83.0350  45
   4  -2   5 894.716 60.1707   5
  -4  -2  -5 690.616 57.9963  41
  -4  -2  -5 973.544 96.5255  40
  -4  -2  -5 890.324 73.8279   9
   4  -2   5 901.537 62.0037  37
   4  -2   5 987.685 84.5626   2
   4  -2   6 1871.77 118.784  35
   4  -2   6 2006.83 102.790  54
   4  -2   6 1760.74 103.449  53
   4  -2   6 2175.27 103.345   4
  -4  -2  -6 1622.81 96.1920  32
   4  -2   6 2076.33 109.248   2
   4  -2   6 1436.03 93.6266   1
  -4  -2  -6 1351.46 84.1621  41
  -4  -2  -6 1927.95 112.656  40
  -4  -2  -6 2119.46 101.908   9
   4  -2   6 1632.52 94.4063  38
   4  -2   6 1852.09 91.1654  37
   4  -2   7 360.047 41.2282   4
   4  -2   7 343.564 36.8091  54
   4  -2   7 291.564 35.7083  53
   4  -2   7 218.908 42.8752  35
   4  -2   7 342.684 47.9773   2
  -4  -2  -7 299.101 46.8411  40
  -4  -2  -7 319.413 45.3970   9
   4  -2   7 290.980 32.1912  38
   4  -2   7 273.259 29.6991  37
   4  -1 -11 89.7401 19.7114  60
   4  -1 -11 46.3758 24.3384  64
   4  -1 -11 56.9379 21.9750  21
   4  -1 -10 1225.21 63.8334  60
   4  -1 -10 1132.76 63.3917  21
   4  -1 -10 1153.30 72.2089  64
   4  -1  -9 2006.57 105.233  64
   4  -1  -9 1858.38 94.5554  21
   4  -1  -9 1998.87 103.049  62
   4  -1  -8 768.012 59.0110  21
   4  -1  -8 715.824 56.8394  20
   4  -1  -8 837.042 64.4894  64
   4  -1  -7 6708.43 244.051  60
   4  -1  -7 5461.59 235.034  21
   4  -1  -7 5137.17 236.205  20
   4  -1  -7 5655.57 243.093  64
   4  -1  -7 5512.76 337.562  63
   4  -1  -7 6458.37 244.120  62
   4  -1  -6 5348.99 267.951  61
   4  -1  -6 6572.59 242.393  60
   4  -1  -6 5744.17 231.866  21
   4  -1  -6 5204.30 235.508  20
   4  -1  -6 6062.76 241.111  64
   4  -1  -6 5609.83 256.976  63
   4  -1  -6 5932.22 238.554   1
   4  -1  -6 5754.68 238.930  62
   4  -1  -5 1048.67 55.9882  14
  -4  -1   5 1275.81 87.9149  51
   4  -1  -5 1175.70 65.7736  60
  -4  -1   5 1068.89 82.8659  26
   4  -1  -5 1149.68 62.1106   1
  -4  -1   5 1239.27 94.4100  23
   4  -1  -5 963.563 60.5105  20
   4  -1  -5 995.179 82.9381  63
   4  -1  -5 1075.83 58.6363  62
   4  -1  -4 2230.93 109.020  14
   4  -1  -4 2418.20 113.158   1
  -4  -1   4 2742.66 127.399  51
  -4  -1   4 2408.69 125.673  28
  -4  -1   4 2764.37 131.579  26
  -4  -1   4 2695.19 167.721  25
  -4  -1   4 3296.48 128.947  24
  -4  -1   4 2932.87 159.137  23
   4  -1  -3 4218.28 157.939   1
   4  -1  -3 4031.05 188.322  34
   4  -1  -3 3669.30 153.900  14
  -4  -1   3 3678.81 149.615  51
  -4  -1   3 2722.75 149.851  51
   4  -1  -3 3374.60 150.494  31
   4  -1  -3 4293.28 166.767  48
  -4  -1   3 4341.56 169.562  28
  -4  -1   3 4062.42 157.034  26
  -4  -1   3 5280.45 178.683  24
  -4  -1   3 5065.93 214.488  23
   4  -1  -3 3510.37 148.352  38
   4  -1  -2 6092.92 242.285  35
   4  -1  -2 6177.89 264.496  34
   4  -1  -2 5932.78 236.424  53
   4  -1  -2 6588.72 251.696  52
   4  -1  -2 5272.55 235.604  14
  -4  -1   2 5831.08 242.387  31
   4  -1  -2 5929.36 249.226  31
   4  -1  -2 7150.34 252.575  48
  -4  -1   2 6638.96 251.121  27
  -4  -1   2 7086.52 260.080  24
   4  -1  -2 4332.24 230.706  24
  -4  -1   2 7196.23 295.091  23
   4  -1  -2 6111.24 232.464  38
  -4  -1   2 6455.70 237.536  18
   4  -1  -1 2806.99 97.5867  18
   4  -1  -1 3265.03 112.143  35
   4  -1  -1 3136.02 136.043  34
   4  -1  -1 2793.70 82.5250  54
   4  -1  -1 3321.56 99.3480  53
   4  -1  -1 3346.67 118.480  52
   4  -1  -1 2644.66 92.6318  14
  -4  -1   1 3308.95 121.961  31
   4  -1  -1 2622.99 117.703  31
   4  -1  -1 3341.17 114.964  48
  -4  -1   1 3065.51 109.002  28
   4  -1  -1 3055.39 93.3652  27
  -4  -1   1 3341.53 124.092  24
   4  -1  -1 2450.83 96.7174  24
   4  -1  -1 3257.16 100.443   1
   4  -1  -1 3226.16 89.3743  38
  -4  -1   1 3316.64 109.565  18
   4  -1   0 3337.26 166.497  18
  -4  -1   0 3983.51 170.569  18
   4  -1   0 3870.84 173.309  35
   4  -1   0 3737.35 183.739  34
   4  -1   0 3475.97 149.883  54
   4  -1   0 3894.61 160.667  53
   4  -1   0 3248.69 153.709  14
   4  -1   0 3864.31 156.646  50
  -4  -1   0 3392.44 178.139  31
  -4  -1   0 3681.54 168.016  28
   4  -1   0 3413.48 155.116  27
  -4  -1   0 3449.70 177.678  24
   4  -1   0 2911.94 163.020  24
  -4  -1   0 3700.37 194.997  23
   4  -1   0 3815.82 159.548   1
   4  -1   0 3933.04 147.357  17
  -4  -1   0 3395.44 151.974  41
   4  -1   0 3846.90 152.910  38
   4  -1   0 3398.30 145.780  37
   4  -1   1 11350.7 444.601  35
   4  -1   1 10698.1 421.446  54
   4  -1   1 11733.3 431.519  53
   4  -1   1 10949.7 437.997  52
   4  -1   1 11967.3 438.286  50
  -4  -1  -1 9255.14 448.926  31
   4  -1   1 11003.7 437.285  48
  -4  -1  -1 10409.6 438.743  28
  -4  -1  -1 10020.1 415.523  46
   4  -1   1 10166.4 428.696  27
  -4  -1  -1 10640.1 423.704  45
   4  -1   1 11034.3 430.052   1
  -4  -1  -1 10875.9 457.212  23
  -4  -1  -1 10202.0 419.497  41
  -4  -1  -1 10707.7 430.358  40
   4  -1   1 11209.6 422.458  38
   4  -1   1 10617.2 416.101  37
  -4  -1  -1 11250.0 441.230  18
   4  -1   2 1617.37 96.9065   2
   4  -1   2 1895.24 119.668  35
   4  -1   2 1887.89 93.3037  54
  -4  -1  -2 1489.99 101.539  32
   4  -1   2 1607.10 83.6683   6
   4  -1   2 1713.29 111.263  52
   4  -1   2 1683.45 105.580  48
  -4  -1  -2 1810.29 89.4842  46
  -4  -1  -2 1772.98 97.2417  45
   4  -1   2 1706.32 88.7287   5
  -4  -1  -2 1712.79 90.5325  41
   4  -1   2 1924.33 93.3815  38
   4  -1   2 1841.62 85.2809  37
  -4  -1  -2 1574.19 81.8405   8
   4  -1   2 1533.83 87.0876   4
   4  -1   3 1223.94 82.0690   4
   4  -1   3 1382.23 94.3193   2
  -4  -1  -3 1209.26 77.1954   7
   4  -1   3 1578.99 116.147  35
   4  -1   3 1546.65 88.6411  54
   4  -1   3 1389.02 93.9230  53
  -4  -1  -3 1511.70 96.1904  32
   4  -1   3 1369.97 101.327  52
   4  -1   3 1555.11 98.8960  48
  -4  -1  -3 1568.89 84.7783  46
   4  -1   3 1439.78 83.3811   5
  -4  -1  -3 1527.41 86.0385  41
  -4  -1  -3 1459.47 108.495  40
   4  -1   3 1544.76 80.3135  37
  -4  -1  -3 1428.41 77.3918   8
   4  -1   4 4976.10 238.073   4
  -4  -1  -4 4617.87 229.198   7
   4  -1   4 5499.79 265.428  35
  -4  -1  -4 6086.36 218.822  16
   4  -1   4 6158.85 247.533  54
   4  -1   4 5417.21 249.240  53
  -4  -1  -4 5150.91 240.407  32
   4  -1   4 5963.16 233.526   6
   4  -1   4 4655.87 244.785  52
   4  -1   4 5327.69 244.618  48
  -4  -1  -4 6151.27 239.796  46
   4  -1   4 5339.28 233.958   5
  -4  -1  -4 5654.49 237.995  41
  -4  -1  -4 5767.25 255.672  40
   4  -1   4 5455.23 239.287  38
  -4  -1  -4 5470.24 230.558   8
   4  -1   4 6048.65 238.191  37
   4  -1   5 17334.7 732.489   4
   4  -1   5 18739.3 757.220  35
  -4  -1  -5 20909.3 712.698  16
   4  -1   5 20454.7 741.723  54
   4  -1   5 18424.7 740.795  53
  -4  -1  -5 16114.9 727.149  32
  -4  -1  -5 19372.7 736.298  45
   4  -1   5 14549.2 726.133   1
   4  -1   5 19248.0 726.233   5
  -4  -1  -5 19456.9 730.927  41
  -4  -1  -5 18552.5 742.190  40
  -4  -1  -5 18927.3 728.052   9
   4  -1   5 17763.5 731.073  38
   4  -1   5 19882.1 732.155  37
  -4  -1  -5 19040.0 724.596   8
   4  -1   6 122.679 57.1827  35
   4  -1   6 94.6060 46.1127   4
   4  -1   6 106.455 41.8247  54
   4  -1   6 169.820 43.1300  53
   4  -1   6 149.774 63.3565   2
  -4  -1  -6 104.433 50.4344  45
  -4  -1  -6 114.531 41.4011  41
   4  -1   6 71.2590 41.6072   5
  -4  -1  -6 111.847 61.0929  40
  -4  -1  -6 87.7338 55.3822   9
   4  -1   6 97.2672 34.7636  38
   4  -1   6 118.005 34.4826  37
   4  -1   7 1092.08 71.2239   2
   4  -1   7 913.102 53.6387  53
   4  -1   7 979.734 71.5107  55
   4  -1   7 1077.40 60.1644   4
  -4  -1  -7 959.511 58.1288  45
   4  -1   7 957.319 46.5617   5
  -4  -1  -7 839.854 50.5902  41
  -4  -1  -7 930.001 60.5978  40
  -4  -1  -7 1124.77 64.2526   9
   4  -1   7 901.811 48.2587  38
   4  -1   7 1026.19 52.1594  37
   4   0 -11 74.4753 22.7014  62
   4   0 -11 64.8269 19.5516  60
  -4   0  11 32.9895 28.1259  36
   4   0 -11 57.9139 20.6274  21
   4   0 -11 58.1472 25.3614  64
   4   0 -10 1310.84 65.0523  60
   4   0 -10 1152.81 63.0531  21
   4   0 -10 1184.52 73.2815  64
   4   0 -10 1199.09 70.2938  62
   4   0  -9 1227.54 73.8390  62
   4   0  -9 1144.46 65.3499  21
   4   0  -9 1126.63 75.9769  64
   4   0  -8 98.9837 35.1405  60
   4   0  -8 104.404 35.9485  21
   4   0  -8 95.3823 38.9236  64
   4   0  -8-209.851 429.020  63
   4   0  -7 1827.31 85.2468  60
   4   0  -7 1264.76 129.575  59
   4   0  -7 1546.46 77.8307  21
   4   0  -7 1483.02 105.776  63
   4   0  -7 1663.68 87.9428  64
   4   0  -6 553.183 79.2726  61
   4   0  -6 916.658 53.3670  60
   4   0  -6 563.462 93.8247  59
   4   0  -6 744.620 53.0471   1
   4   0  -6 710.557 69.4853  63
   4   0  -6 751.021 51.6843  64
   4   0  -6 813.755 51.8172  62
   4   0  -5 277.844 78.9180  59
  -4   0   5 332.183 55.8337  51
  -4   0   5 257.065 44.4784  26
  -4   0   5 205.737 48.0116  25
  -4   0   5 274.310 44.7022  23
   4   0  -5 286.992 33.5266   1
   4   0  -5 276.124 29.6394  62
   4   0  -4 52.5094 24.5104   1
  -4   0   4 59.2348 35.2645  51
  -4   0   4 38.3496 21.9725  30
  -4   0   4 80.0309 21.0930  27
  -4   0   4 63.4653 26.9488  26
  -4   0   4 128.874 50.5509  25
  -4   0   4 93.4255 48.4859  23
  -4   0   3 18287.6 510.957  30
  -4   0   3 18943.4 516.790  28
  -4   0   3 20484.4 504.962  27
  -4   0   3 18286.8 567.790  25
  -4   0   3 18248.5 491.675  11
  -4   0   3 20457.2 539.040  23
   4   0  -2 472.647 32.1527  54
   4   0  -2 545.557 41.2754  53
   4   0  -2 449.802 37.6172  14
  -4   0   2 550.246 41.1495  31
   4   0  -2 589.310 52.2490  48
  -4   0   2 550.655 38.0652  27
   4   0  -2 528.816 41.7129  27
  -4   0   2 630.285 52.1254  11
  -4   0   2 431.954 100.259  25
   4   0  -2 563.925 39.8769   1
   4   0  -2 457.729 39.0930  24
  -4   0   2 582.542 81.0683  23
   4   0  -2 552.782 35.4200  38
   4   0  -2 523.685 31.5564  37
  -4   0   1 13.3073 36.4383  18
   4   0  -1 4.39520 22.8284   1
   4   0  -1 3.54387 37.8184  35
   4   0  -1 7.48579 19.8705  54
   4   0  -1-10.6007 27.2519  53
   4   0  -1 5.69389 26.6504  14
  -4   0   1 2.63608 39.2605  31
  -4   0   1 21.0926 25.7810  29
  -4   0   1 16.8078 18.7553  27
   4   0  -1 22.6579 23.0234  27
   4   0  -1-3.16591 16.4195  37
   4   0  -1-23.5331 31.3214  11
  -4   0   1 16.9007 38.4836  11
   4   0  -1 16.7318 25.0919  24
   4   0  -1 19.5371 21.3375  38
   4   0   0 2933.92 133.682  17
   4   0   0 3709.07 160.502  35
   4   0   0 3516.24 143.911  54
  -4   0   0 3916.68 157.180  18
   4   0   0 3983.11 152.494  53
   4   0   0 2704.19 140.817  50
  -4   0   0 3625.19 168.844  31
   4   0   0 3621.20 155.963  48
  -4   0   0 3562.42 155.529  29
  -4   0   0 3417.62 163.753  28
  -4   0   0 3183.10 143.952  46
   4   0   0 3417.87 153.392  27
   4   0   0 3334.28 154.165  11
  -4   0   0 3108.73 204.671  25
   4   0   0 3020.44 156.542  24
  -4   0   0 3595.47 180.236  23
  -4   0   0 3201.82 148.514  41
   4   0   0 3758.56 145.754   1
   4   0   0 3805.53 144.677  38
   4   0   0 3473.07 140.071  37
   4   0   1 16545.6 588.627  35
   4   0   1 15795.1 570.185  54
   4   0   1 14277.6 578.961  52
   4   0   1 14604.1 578.370  50
  -4   0  -1 14354.1 595.406  31
   4   0   1 15978.0 578.482  48
   4   0   1 12704.0 577.436  29
  -4   0  -1 15004.2 590.850  28
  -4   0  -1 14607.0 567.640  46
   4   0   1 14580.6 580.217  27
   4   0   1 13540.0 579.407  11
  -4   0  -1 12846.5 625.502  25
  -4   0  -1 15611.6 603.704  23
   4   0   1 13441.5 566.586   1
  -4   0  -1 13933.4 570.054  41
   4   0   1 15315.4 564.829  37
  -4   0  -1 15761.3 583.330  18
  -4   0  -2 54.2839 52.5525  18
   4   0   2 32.7485 22.4124  36
   4   0   2 2.36734 31.6979  54
   4   0   2 11.1075 35.7545  53
   4   0   2 27.8683 38.6121  48
   4   0   2-36.0164 37.3830  29
   4   0   2 50.2458 31.0551   6
   4   0   2 35.5867 43.5919   2
  -4   0  -2 29.0705 41.8581  46
   4   0   2 9.07723 25.6840   1
  -4   0  -2 16.4149 44.2404  45
  -4   0  -2 75.2348 63.8604  25
  -4   0  -2 2.50310 53.7392  23
   4   0   2 20.7601 28.6148  10
  -4   0  -2 5.73461 43.0879  41
   4   0   2 6.38548 38.5641   5
  -4   0  -2 38.8524 39.5720   9
   4   0   2 18.4890 28.8268  38
   4   0   2 44.6628 27.0415  37
  -4   0  -3-0.80672 32.4744   8
   4   0   3-9.89554 26.5607  36
   4   0   3-8.84256 56.3321  35
   4   0   3 2.83892 36.9957  54
   4   0   3 6.30840 41.9109  53
  -4   0  -3 4.48174 54.7000  32
   4   0   3 31.4367 38.3341  48
   4   0   3 27.3651 27.3095   1
   4   0   3-2.71616 35.7322   6
   4   0   3 10.6241 51.3473   2
  -4   0  -3-4.76174 46.1620  46
  -4   0  -3 42.7715 49.4082  45
  -4   0  -3 2.59851 47.2514  41
  -4   0  -3 3.03983 64.6701  40
   4   0   3 9.48147 44.2660   5
  -4   0  -3-35.8085 44.8857   9
   4   0   3 9.01074 28.6033  37
   4   0   3 28.3211 32.7253  38
   4   0   4 991.395 67.7696  36
   4   0   4 1046.84 96.7661  35
   4   0   4 1060.83 89.6503   2
  -4   0  -4 1179.70 58.1275  16
   4   0   4 1153.12 80.7240  54
   4   0   4 1098.28 78.9407  53
  -4   0  -4 959.480 72.5865  32
  -4   0  -4 1193.99 81.9229  46
  -4   0  -4 1030.65 82.6122  45
   4   0   4 1092.47 79.4254   5
  -4   0  -4 1119.88 81.5277  41
  -4   0  -4 1117.21 95.2027  40
   4   0   4 1017.91 70.7301  38
  -4   0  -4 1041.73 69.1082   8
   4   0   4 1253.52 72.9443  37
   4   0   5 1385.24 85.6584  36
   4   0   5 1489.46 110.261  35
   4   0   5 1621.31 111.889   2
  -4   0  -5 1500.10 72.0191  16
   4   0   5 1445.59 94.2384  53
   4   0   5 1853.96 90.7018   6
  -4   0  -5 1644.44 97.5518  46
  -4   0  -5 1491.08 97.8222  45
   4   0   5 1625.82 95.6945   5
  -4   0  -5 1574.51 98.0045  41
  -4   0  -5 1380.69 106.878  40
   4   0   5 1520.10 87.6794  38
  -4   0  -5 1592.77 89.7410   8
   4   0   5 1675.65 91.8011  37
   4   0   6 540.550 50.6857  36
   4   0   6 640.192 81.5067   2
  -4   0  -6 753.907 42.0535  16
   4   0   6 693.681 79.2572  55
   4   0   6 738.539 60.5165  53
   4   0   6 782.736 59.7577   6
  -4   0  -6 764.895 67.5044  45
   4   0   6 748.066 66.5254   5
  -4   0  -6 822.829 67.4651  41
  -4   0  -6 705.145 72.5597  40
  -4   0  -6 759.003 72.7476   9
   4   0   6 652.438 51.4008  38
  -4   0  -6 749.857 64.1515   8
   4   0   6 753.811 58.2778  37
   4   0   7 1334.37 76.9367   4
   4   0   7 1326.33 91.4128  55
   4   0   7 1279.02 76.6076  54
  -4   0  -7 1214.49 73.6891  45
   4   0   7 1469.59 75.4361   5
  -4   0  -7 1365.71 74.3173  41
  -4   0  -7 1405.82 81.9501   9
   4   0   7 1137.69 63.6930  38
   4   0   7 1270.97 72.0837  37
   4   1 -11 37.9415 17.4475  62
   4   1 -11 56.0942 17.4178  21
   4   1 -10 1081.10 62.7317  62
   4   1 -10 1179.98 56.6255  21
   4   1  -9 2003.15 95.1223  60
   4   1  -9 1868.31 90.5871  21
   4   1  -9 2091.59 105.106  64
   4   1  -9 1976.26 99.9162  62
   4   1  -8 903.363 60.1772  62
   4   1  -8 749.376 50.5409  21
   4   1  -8 946.599 57.1269  60
   4   1  -8 893.633 63.4188  64
   4   1  -7 5592.05 281.344  61
   4   1  -7 6776.67 256.406  62
   4   1  -7 5560.88 292.528  59
   4   1  -7 5809.95 243.405  21
   4   1  -7 6647.48 249.602  60
   4   1  -7 6063.79 255.437  64
   4   1  -6 5913.87 284.543  61
   4   1  -6 5170.59 283.995  59
   4   1  -6 5337.73 256.890  63
   4   1  -6 6780.15 247.838  60
   4   1  -6 6377.91 250.684  62
   4   1  -6 6174.33 251.499  64
   4   1  -5 1108.13 96.0601  59
  -4   1   5 818.639 96.1992  51
  -4   1   5 1061.08 71.1090  30
  -4   1   5 808.927 80.4096  26
  -4   1   5 904.836 81.7005  25
   4   1  -5 1191.61 100.032  61
   4   1  -5 1199.70 60.3244  64
  -4   1   4 1953.18 121.311  51
  -4   1   4 2402.25 114.693  30
  -4   1   4 1679.78 84.3036  29
  -4   1   4 2478.32 96.0871  27
  -4   1   4 1983.84 110.858  26
  -4   1   4 2213.62 136.489  25
  -4   1   4 2239.61 114.496  23
   4   1  -4 2407.33 97.6646   1
   4   1  -3 4331.69 144.149  36
  -4   1   3 4544.88 171.639  30
  -4   1   3 4156.38 139.761  29
  -4   1   3 4244.97 139.157  27
   4   1  -3 4646.63 143.150   1
  -4   1   3 4639.57 153.885  11
  -4   1   3 3976.15 200.044  25
  -4   1   3 4119.85 170.597  23
   4   1  -2 6209.11 250.022  36
   4   1  -2 6143.84 249.982  54
  -4   1   2 6196.07 255.903  31
   4   1  -2 6371.59 249.840   1
  -4   1   2 7436.00 257.689  29
  -4   1   2 6304.02 249.545  27
   4   1  -2 6058.91 263.420  27
   4   1  -2 5525.47 250.904  11
  -4   1   2 7074.83 268.231  11
  -4   1   2 5942.92 309.015  25
  -4   1   2 6817.51 284.209  23
   4   1  -2 6119.40 248.800  38
   4   1  -2 6353.07 248.597  37
   4   1  -1 3521.56 132.225  36
   4   1  -1 3172.13 128.553   1
   4   1  -1 3123.05 131.368  54
   4   1  -1 3366.70 138.087  53
  -4   1   1 3066.97 144.787  31
   4   1  -1 2359.87 127.131  29
  -4   1   1 3400.09 142.023  29
  -4   1   1 2779.86 137.638  46
   4   1  -1 3258.48 146.606  27
   4   1  -1 3034.87 138.744  11
   4   1  -1 2758.31 145.467  24
  -4   1   1 3406.88 168.896  23
   4   1  -1 3211.93 129.174  37
   4   1   0 3697.62 149.756  36
   4   1   0 3597.70 145.357   1
  -4   1   0 3127.91 159.832  56
   4   1   0 3320.28 149.869  55
  -4   1   0 3682.34 172.643  31
   4   1   0 3424.15 155.252  29
  -4   1   0 3847.53 165.080  29
  -4   1   0 3340.90 156.871  46
   4   1   0 3592.35 163.244  27
   4   1   0 3411.65 160.253  11
  -4   1   0 3437.78 207.798  25
  -4   1   0 3710.64 181.181  23
  -4   1   0 2528.50 153.793  42
   4   1   0 3996.53 152.943  54
   4   1   0 3840.84 149.234  38
   4   1   0 3714.74 148.319  37
  -4   1  -1 8472.17 399.993  56
   4   1   1 10323.4 400.163  55
   4   1   1 11107.8 398.024  54
   4   1   1 11226.0 403.032  53
   4   1   1 8925.89 407.778  50
  -4   1  -1 9650.96 420.976  31
   4   1   1 9243.16 404.777  29
  -4   1  -1 9977.32 420.851  28
  -4   1  -1 10039.5 399.870  46
   4   1   1 10208.2 411.648  27
   4   1   1 9466.90 407.314  11
  -4   1  -1 9082.43 448.360  25
  -4   1  -1 10225.4 426.580  23
  -4   1  -1 7507.81 394.634  42
  -4   1  -1 9515.33 399.947  41
   4   1   1 10846.5 393.275  38
   4   1   1 10442.6 388.232   1
   4   1   1 11055.5 393.801  37
   4   1   1 11056.2 395.846  36
   4   1   2 1750.99 86.3207  36
   4   1   2 1742.68 106.066  35
   4   1   2 1548.76 92.3446   2
  -4   1  -2 1505.71 93.6147  56
   4   1   2 1613.65 95.5332  55
   4   1   2 1781.12 90.9083  54
   4   1   2 1765.57 93.0459  53
   4   1   2 1556.59 81.9786   6
  -4   1  -2 1602.49 97.7591  46
  -4   1  -2 1459.37 89.8531  45
   4   1   2 1713.69 90.2031   5
  -4   1  -2 1246.17 90.9832  42
  -4   1  -2 1467.57 96.3062  41
  -4   1  -2 1535.64 86.5255   9
   4   1   2 1773.32 83.7695  38
   4   1   2 1793.44 84.9207  37
   4   1   3 1539.65 83.6735  36
   4   1   3 1567.39 102.612  35
  -4   1  -3 1488.84 68.5341  16
  -4   1  -3 1294.07 86.5859  56
   4   1   3 1341.12 93.9232   2
   4   1   3 1484.02 96.0528  55
  -4   1  -3 1179.91 86.5217  32
   4   1   3 1458.30 88.1682  53
   4   1   3 1345.23 78.2497   6
  -4   1  -3 1505.22 94.7148  46
  -4   1  -3 1391.52 87.1455  45
   4   1   3 1343.15 76.9205  10
  -4   1  -3 1190.37 83.7949  42
  -4   1  -3 1466.12 93.7896  41
  -4   1  -3 1376.33 83.8633   9
   4   1   3 1557.68 78.2757  38
  -4   1  -3 1268.82 74.5842   8
   4   1   3 1577.66 80.8357  37
   4   1   4 5769.51 234.978  36
  -4   1  -4 5293.77 216.720  16
  -4   1  -4 5072.58 231.681  56
   4   1   4 5721.82 243.652   2
   4   1   4 5773.94 251.263  55
   4   1   4 5505.31 236.768  53
  -4   1  -4 5799.21 237.352  46
  -4   1  -4 5470.10 233.877  45
   4   1   4 4907.42 224.089  10
  -4   1  -4 5052.81 233.418  42
  -4   1  -4 5608.77 239.114  41
  -4   1  -4 5179.84 239.877  40
  -4   1  -4 5482.23 232.177   9
   4   1   4 5637.40 226.931  38
  -4   1  -4 5208.12 225.329   8
   4   1   5 18665.0 711.628  36
  -4   1  -5 18041.4 691.359  16
   4   1   5 17732.1 717.884   2
  -4   1  -5 16156.8 702.803  56
   4   1   5 18614.7 728.883  55
   4   1   5 18216.8 713.060  54
   4   1   5 16390.8 706.665  53
   4   1   5 19669.0 702.759   6
  -4   1  -5 18529.8 710.288  46
  -4   1  -5 18213.5 706.059  45
   4   1   5 20212.3 709.328   5
  -4   1  -5 19132.3 713.142  41
  -4   1  -5 17173.7 709.714  40
   4   1   5 18193.7 700.522  38
  -4   1  -5 17364.8 700.292   8
  -4   1  -6 118.824 46.6202   8
   4   1   6 90.2881 34.4251  36
  -4   1  -6 110.377 25.8385  16
   4   1   6 102.555 55.6868  55
   4   1   6 118.390 39.3970  54
   4   1   6 106.282 31.6776  53
   4   1   6 97.5998 41.5814   6
   4   1   6 153.702 63.6591   2
  -4   1  -6 114.505 49.8145  46
  -4   1  -6 106.808 42.7855  45
  -4   1  -6 119.552 50.6029  41
   4   1   6 92.2844 55.4751   5
  -4   1  -6 121.666 48.4508  40
  -4   1  -6 133.812 59.5209   9
   4   1   6 72.8065 23.5049  38
   4   1   7 1086.66 76.8211   2
   4   1   7 1035.98 76.3587  55
   4   1   7 923.266 62.0342  54
   4   1   7 1023.32 58.9089   6
   4   1   7 920.213 61.4254   4
   4   1   7 966.451 58.0756  37
  -4   1  -7 746.623 54.5701  45
   4   1   7 1018.53 66.8695   5
  -4   1  -7 996.300 63.5210  41
  -4   1  -7 1095.64 70.6806   9
   4   1   7 939.906 59.0534  36
   4   2 -10 105.859 20.9478  21
   4   2 -10 58.9360 21.7041  62
   4   2 -10 82.1958 28.7098  64
   4   2  -9 923.065 53.8732  60
   4   2  -9 860.168 54.3045  62
   4   2  -9 814.705 46.7536  21
   4   2  -8 5023.51 195.459  60
   4   2  -8 5072.13 200.619  62
   4   2  -8 4433.24 188.439  21
   4   2  -7 362.036 78.2527  61
   4   2  -7 387.615 37.9089  60
   4   2  -7 413.153 38.6395  62
   4   2  -7 368.229 94.5599  59
   4   2  -7 379.939 32.5852  21
   4   2  -6 551.229 39.5170  60
   4   2  -6 637.084 90.7764  61
   4   2  -6 575.006 46.3236  64
   4   2  -6 605.255 96.3671  59
   4   2  -6 546.510 41.9312  62
   4   2  -5 4070.61 208.417  61
   4   2  -5 3805.80 155.995  60
   4   2  -5 3710.83 199.846  59
   4   2  -5 3931.48 163.780  64
   4   2  -5 4017.63 162.530  62
   4   2  -5 3632.34 156.334  19
   4   2  -4 9567.76 387.102  15
  -4   2   4 6141.52 420.255  51
   4   2  -4 10675.7 400.507   1
  -4   2   4 11118.1 430.578  30
   4   2  -4 13506.5 452.486  61
  -4   2   4 8886.59 440.968  25
  -4   2   4 8785.60 411.859  23
   4   2  -4 11559.6 397.627  64
   4   2  -4 11351.3 398.418  62
   4   2  -3 1472.95 76.1752   1
   4   2  -3 1696.33 90.9466  57
   4   2  -3 1622.56 73.1934  15
  -4   2   3 1609.64 106.496  30
  -4   2   3 1416.53 85.9506  29
   4   2  -3 1783.72 82.3296  36
  -4   2   3 1409.36 122.016  25
  -4   2   3 1459.24 100.549  23
   4   2  -2 2501.15 104.446  36
   4   2  -2 2196.71 109.073  57
  -4   2   2 2091.32 111.796  31
  -4   2   2 2192.15 130.655  30
  -4   2   2 2196.97 111.471  29
   4   2  -2 2047.73 114.011  27
   4   2  -2 1897.74 101.003  11
  -4   2   2 1990.53 151.063  25
  -4   2   2 2078.54 128.357  23
   4   2  -2 2288.72 97.8616  37
   4   2  -2 2098.00 95.4847   1
   4   2  -1 4013.17 169.657  57
  -4   2   1 3494.50 180.752  56
   4   2  -1 3709.49 162.395  55
   4   2  -1 4033.05 164.071  54
   4   2  -1 3808.16 160.626  37
  -4   2   1 3958.63 181.072  31
  -4   2   1 4001.65 200.602  30
   4   2  -1 3860.48 179.477  27
   4   2  -1 3893.64 172.166  11
  -4   2   1 3429.90 216.352  25
  -4   2   1 3611.39 192.439  23
  -4   2   1 3175.40 178.311  42
   4   2  -1 3785.91 155.982   1
   4   2  -1 4513.86 167.662  36
   4   2   0 10017.0 348.290  36
  -4   2   0 8238.50 359.578  56
   4   2   0 8501.18 346.164  55
   4   2   0 9844.26 346.905  54
  -4   2   0 8369.72 365.532  31
   4   2   0 7398.84 346.089  29
  -4   2   0 8687.85 352.268  46
   4   2   0 8440.86 356.638  11
  -4   2   0 7940.84 399.627  25
  -4   2   0 7747.19 356.639  42
   4   2   0 8865.48 340.703  38
   4   2   1 3491.92 143.096  36
  -4   2  -1 2922.65 157.704  56
   4   2   1 3398.10 146.988  55
   4   2   1 3267.07 134.466   6
   4   2   1 2359.52 144.305  29
  -4   2  -1 3216.60 152.535  46
   4   2   1 2705.92 130.190  10
  -4   2  -1 2657.08 151.468  42
   4   2   1 3397.10 138.946   5
   4   2   1 3316.65 134.889  38
  -4   2  -2 1852.17 78.4036  16
  -4   2  -2 1466.64 106.880  56
   4   2   2 1608.38 95.2186   2
   4   2   2 1837.52 103.516  55
   4   2   2 1669.35 94.0948  53
   4   2   2 1769.08 87.7752   6
  -4   2  -2 1720.90 107.368  46
  -4   2  -2 1579.21 91.9931  45
   4   2   2 1560.06 83.9240  10
  -4   2  -2 1723.46 108.335  42
   4   2   2 1737.54 95.7918   5
  -4   2  -2 1645.23 90.7719   9
   4   2   2 2012.69 96.5687  36
  -4   2  -2 1329.51 80.9606   8
   4   2   2 1798.04 84.2169  38
   4   2   3 1190.87 76.9847  36
  -4   2  -3 1225.71 61.0497  16
  -4   2  -3 1075.77 89.7526  56
   4   2   3 1198.93 88.6147  55
   4   2   3 906.199 81.7368   2
   4   2   3 1149.68 76.5580  54
   4   2   3 1046.37 73.6637  53
   4   2   3 1127.65 71.5090   6
  -4   2  -3 1012.24 85.3599  46
  -4   2  -3 1103.10 74.2740  45
   4   2   3 1005.85 66.0411  10
  -4   2  -3 1062.32 88.2825  42
   4   2   3 1039.44 81.6276   5
  -4   2  -3 1104.54 77.0322   9
  -4   2  -3 967.316 66.6244   8
   4   2   3 1253.73 64.7129  38
   4   2   3 1151.13 70.1292  37
   4   2   4 722.552 64.4002  36
  -4   2  -4 645.633 47.4095  16
  -4   2  -4 547.859 68.4218  56
   4   2   4 670.397 74.8717   2
   4   2   4 572.726 73.6037  55
   4   2   4 761.728 64.0276  54
  -4   2  -4 639.852 75.0940  46
  -4   2  -4 674.865 61.3420  45
   4   2   4 686.726 55.7557  10
   4   2   4 752.223 75.4022   5
  -4   2  -4 679.790 72.0244  42
  -4   2  -4 593.806 72.4156  40
  -4   2  -4 733.142 70.4872   9
  -4   2  -4 620.227 57.6514   8
   4   2   4 670.275 46.2404  38
   4   2   4 700.026 56.2996  37
   4   2   5 913.648 70.8163  36
  -4   2  -5 862.609 53.5059  16
  -4   2  -5 773.927 72.7033  56
   4   2   5 923.184 82.3159   2
   4   2   5 905.522 85.4369  55
   4   2   5 919.895 70.3282  54
  -4   2  -5 876.051 64.3735  45
   4   2   5 894.042 62.6255  10
  -4   2  -5 969.218 77.7671  42
  -4   2  -5 894.998 78.2363  41
  -4   2  -5 789.500 72.1413  40
   4   2   5 1002.34 66.0789  37
  -4   2  -6 1716.03 81.7038  16
   4   2   6 1763.45 108.396   2
  -4   2  -6 1565.17 95.2318  56
   4   2   6 1827.74 114.875  55
   4   2   6 1757.70 97.5468  54
   4   2   6 2114.94 96.3512   6
   4   2   6 1838.22 100.954  36
  -4   2  -6 2045.14 100.765  22
  -4   2  -6 1839.77 102.517  41
   4   2   6 1832.04 94.4130  37
   4   2   7 300.422 35.1483  36
   4   2   7 199.932 47.8216  58
   4   2   7 314.295 46.3363  55
   4   2   7 282.477 32.1834  54
   4   2   7 359.220 36.5585   6
   4   2   7 324.200 49.3480   2
   4   2   7 303.174 30.6701  37
   4   2   7 380.271 47.7688   5
  -4   2  -7 300.755 37.9157  41
  -4   2  -7 343.313 48.2756   9
  -4   3  10 499.078 65.8665  57
   4   3 -10 665.535 41.2255  64
  -4   3   9 962.213 96.1475  57
   4   3  -9 1027.54 50.8926  21
   4   3  -9 1126.14 62.7068  64
   4   3  -9 1039.52 55.4108  62
  -4   3   8 1423.38 114.942  57
   4   3  -8 1415.11 67.9715  12
   4   3  -8 1284.33 63.9323  21
   4   3  -8 1522.46 80.1815  64
   4   3  -8 1515.68 73.6731  62
   4   3  -7 260.163 95.6665  59
  -4   3   7 475.533 77.7540  57
   4   3  -7 387.200 32.9642  12
  -4   3   7 345.086 92.7457  44
   4   3  -7 381.321 37.2017  62
   4   3  -7 317.519 28.5289  21
   4   3  -7 467.195 91.9146  61
   4   3  -7 371.721 32.6830  19
   4   3  -7 337.727 42.0313  64
   4   3  -6 333.522 93.4880  61
   4   3  -6 226.007 90.7455  59
  -4   3   6 269.620 63.4213  57
   4   3  -6 299.065 29.3384  12
  -4   3   6 212.473 84.4681  44
   4   3  -6 272.324 24.7456  21
   4   3  -6 309.670 30.8481  19
   4   3  -6 248.652 33.5206  62
   4   3  -5 684.749 99.8658  59
  -4   3   5 540.333 63.7863  57
   4   3  -5 518.058 44.6380  62
   4   3  -5 604.406 32.8448  15
   4   3  -5 645.944 42.3898  19
   4   3  -5 685.727 40.2558  12
   4   3  -4 190.239 30.9031  62
   4   3  -4 390.868 86.8807  61
   4   3  -4 279.254 55.5288  57
   4   3  -4 252.384 22.1658  15
  -4   3   4 289.207 92.1618  33
   4   3  -4 240.667 26.0425  12
   4   3  -4 240.499 27.7607  19
   4   3  -4 269.597 31.1805  64
   4   3  -3 2204.53 147.324  61
   4   3  -3 2072.90 103.541  36
  -4   3   3 2135.08 139.999  43
   4   3  -3 1908.72 91.8577  19
   4   3  -3 2133.82 96.3122  64
   4   3  -3 2202.69 117.035  57
   4   3  -3 2209.16 138.875  59
   4   3  -3 1937.59 97.2678  62
   4   3  -2 713.528 90.7276  61
   4   3  -2 576.577 51.8735  36
   4   3  -2 691.265 81.9352  59
   4   3  -2 550.176 62.5350  57
   4   3  -2 664.745 45.5126  15
   4   3  -2 653.353 50.3218  55
  -4   3   2 502.390 89.6119  43
  -4   3   2 530.644 86.2213  42
   4   3  -2 545.290 38.0611  19
   4   3  -1 1277.84 107.014  61
   4   3  -1 1462.11 79.2953  36
   4   3  -1 1285.84 87.0819  57
  -4   3   1 1247.69 105.308  56
   4   3  -1 1337.07 76.6316  55
   4   3  -1 1208.88 82.6956  11
  -4   3   1 1081.32 105.037  42
   4   3  -1 1326.14 70.3852  37
   4   3  -1 1293.89 65.7369  19
   4   3   0 7209.77 328.853  61
   4   3   0 7151.06 308.656  58
   4   3   0 8016.48 323.782  57
  -4   3   0 7192.38 331.532  56
   4   3   0 8018.02 314.926  55
   4   3   0 7182.00 300.223   6
  -4   3   0 7146.79 319.415  46
  -4   3   0 7166.67 329.693  42
   4   3   0 7876.62 305.077  37
   4   3   1 1617.79 87.1273  36
   4   3   1 1375.24 84.7312  58
  -4   3  -1 1291.58 112.313  56
   4   3   1 1560.82 91.5636  55
   4   3   1 1534.86 81.6037  54
   4   3   1 1362.73 75.9420   6
  -4   3  -1 1344.32 99.8623  46
   4   3   1 1342.29 71.9155  10
   4   3   1 1341.24 77.8249   5
  -4   3  -1 1392.48 113.327  42
  -4   3  -1 1385.99 97.3448  41
  -4   3  -1 1197.86 76.2527   9
   4   3   1 1493.20 95.7614  57
   4   3   1 1407.44 74.9692  37
   4   3   2 598.869 58.9912  36
  -4   3  -2 597.316 42.5311  16
   4   3   2 547.936 63.7374  58
   4   3   2 524.266 63.8752  57
  -4   3  -2 598.607 84.1113  56
   4   3   2 589.767 64.1774  55
   4   3   2 569.953 54.5676  54
   4   3   2 623.265 49.6615  37
   4   3   2 648.016 54.7333   6
  -4   3  -2 491.182 52.8080  45
   4   3   2 525.634 47.6173  10
   4   3   2 587.558 59.9566   5
  -4   3  -2 528.699 81.5809  42
  -4   3  -2 599.268 73.9538  41
  -4   3  -2 557.353 57.9462   9
   4   3   3 346.568 60.6027  58
  -4   3  -3 282.830 36.9237  16
  -4   3  -3 309.451 72.8634  56
   4   3   3 339.352 61.0082  55
   4   3   3 356.824 48.3054  54
   4   3   3 401.630 54.0340   6
   4   3   3 353.745 52.2530   2
  -4   3  -3 315.593 44.3443  45
  -4   3  -3 275.965 71.2332  42
  -4   3  -3 305.813 64.4597  41
   4   3   3 312.504 41.5558  37
   4   3   3 358.499 58.6168   5
  -4   3  -3 301.611 57.9979   9
   4   3   3 366.149 52.9982  36
   4   3   4 12281.8 487.670  37
   4   3   4 12120.3 506.921  58
  -4   3  -4 12630.8 477.106  16
  -4   3  -4 11527.3 502.523  56
   4   3   4 11217.7 491.928   2
   4   3   4 13808.6 513.603  55
   4   3   4 12462.3 492.986  54
   4   3   4 12728.5 486.297   6
   4   3   4 12001.1 483.197  10
   4   3   4 13038.8 493.988   5
  -4   3  -4 12122.6 501.056  42
  -4   3  -4 15725.3 496.467  22
  -4   3  -4 12080.6 496.196  41
  -4   3  -4 12869.1 490.525   9
   4   3   4 14219.9 503.668  36
   4   3   5 4889.44 236.919  58
  -4   3  -5 4846.86 206.404  16
   4   3   5 4670.99 223.220   2
  -4   3  -5 4860.21 227.278  56
   4   3   5 5573.04 242.068  55
   4   3   5 4889.26 220.278  54
   4   3   5 4961.42 214.709  10
   4   3   5 5819.04 226.910   5
  -4   3  -5 5409.33 232.073  42
  -4   3  -5 5823.30 225.438  22
  -4   3  -5 5248.28 226.359  41
  -4   3  -5 5360.24 223.762   9
   4   3   5 5039.55 217.639  37
   4   3   5 5609.65 230.719  36
   4   3   6 514.736 48.9300  36
   4   3   6 380.615 57.4117  58
   4   3   6 456.201 53.5453   2
  -4   3  -6 422.344 49.8672  56
   4   3   6 542.098 59.8330  55
   4   3   6 448.027 40.4010  54
   4   3   6 535.625 47.5117   6
  -4   3  -6 453.712 51.6187  46
  -4   3  -6 374.876 34.0200  12
   4   3   6 462.587 57.5742   5
  -4   3  -6 494.616 59.0618  22
  -4   3  -6 445.699 49.0522  41
   4   3   6 492.115 39.3290  37
   4   3   7 164.090 32.7017  55
   4   3   7 213.740 28.1068   6
  -4   3  -7 193.554 29.3265  46
  -4   3  -7 103.500 18.4201  12
  -4   3  -7 179.207 26.8939  41
   4   3   7 251.656 37.4824   5
  -4   4   9 48.7153 46.3777  57
  -4   4   9 48.0324 103.553  33
   4   4  -9 82.8149 23.2003  64
   4   4  -8 733.950 96.6081  59
  -4   4   8 771.450 83.2662  57
  -4   4   8 934.253 143.133  33
   4   4  -8 1098.39 53.6298  12
   4   4  -8 1000.91 59.1889  64
   4   4  -7 348.854 95.4263  59
  -4   4   7 276.699 63.4730  57
  -4   4   7 313.287 130.194  33
   4   4  -7 326.145 32.1876  12
  -4   4   7 268.150 86.7232  44
   4   4  -7 261.402 24.9595  21
   4   4  -7 339.758 91.0966  61
   4   4  -7 292.639 37.9197  64
   4   4  -7 328.595 33.2454  19
   4   4  -6-40.0026 91.4865  61
   4   4  -6-3.15250 94.0599  59
  -4   4   6-15.8426 50.4423  57
  -4   4   6 175.712 123.626  33
   4   4  -6 13.0170 23.9890  12
  -4   4   6 28.0023 78.6716  44
   4   4  -6 18.0675 29.6582  64
   4   4  -6 1.02428 24.6174  19
   4   4  -5 662.564 114.375  61
   4   4  -5 556.131 111.164  59
  -4   4   5 457.456 63.1640  57
   4   4  -5 626.831 36.0965  15
  -4   4   5 687.940 131.798  33
   4   4  -5 702.977 44.5321  12
  -4   4   5 491.072 89.1385  44
  -4   4   5 701.728 138.514  43
   4   4  -5 664.307 47.5370  19
   4   4  -5 631.004 50.4045  64
   4   4  -4 2380.55 137.328  57
  -4   4   4 2101.34 163.254  33
   4   4  -4 2354.39 102.625  15
  -4   4   4 2028.83 132.264  44
  -4   4   4 2185.05 173.064  43
   4   4  -4 2503.68 135.795  43
   4   4  -4 2371.69 107.826  19
   4   4  -3 6011.91 239.254  36
   4   4  -3 5603.97 274.287  59
   4   4  -3 5122.68 248.249  57
  -4   4   3 5164.11 262.698  33
  -4   4   3 4791.51 237.245  44
  -4   4   3 5098.74 270.521  43
   4   4  -3 5908.49 224.971  15
   4   4  -3 5410.85 224.042  19
   4   4  -2 1894.71 95.5170  36
   4   4  -2 1681.36 126.832  59
  -4   4   2 1343.56 85.2450  58
   4   4  -2 1784.24 111.274  57
   4   4  -2 1866.40 96.3514  55
  -4   4   2 1645.01 125.674  33
  -4   4   2 1451.56 98.8346  44
  -4   4   2 1345.57 130.847  43
  -4   4   2 1389.90 130.344  42
  -4   4   2 1333.18 90.8450  22
   4   4  -2 1616.47 78.9706  19
   4   4  -1 2287.73 145.776  61
   4   4  -1 2568.03 116.599  36
   4   4  -1 2010.97 135.169  59
   4   4  -1 1734.63 100.254  58
  -4   4   1 1569.66 102.277  58
   4   4  -1 2195.25 126.652  57
   4   4  -1 2621.37 109.211  15
   4   4  -1 2274.19 113.562  55
  -4   4   1 1970.31 132.836  33
  -4   4   1 1733.10 110.981  44
  -4   4   1 1710.53 142.619  43
  -4   4   1 2064.98 148.267  42
  -4   4   1 1837.70 110.052  22
   4   4  -1 2154.02 96.7968  19
   4   4  -1 2073.25 100.427  37
   4   4   0 345.309 70.6687  61
   4   4   0 219.647 64.9510  59
   4   4   0 276.614 46.5493  58
   4   4   0 314.472 64.2047  57
   4   4   0 367.640 52.2259  55
  -4   4   0 323.543 78.5196  33
   4   4   0 318.141 43.4607   6
  -4   4   0 335.375 61.1570  44
  -4   4   0 225.646 84.3622  43
  -4   4   0 375.762 98.5818  42
  -4   4   0 345.440 67.8596  22
  -4   4   0 299.517 66.8883  41
   4   4   0 443.392 54.9905  36
   4   4   0 357.791 39.4333  37
   4   4   1 3933.15 180.574  58
   4   4   1 4431.29 199.431  57
  -4   4  -1 3954.33 208.016  56
   4   4   1 4579.39 191.089  55
  -4   4  -1 2950.62 183.539  33
   4   4   1 4246.82 169.744   6
  -4   4  -1 2480.24 183.484  43
  -4   4  -1 3820.90 207.376  42
  -4   4  -1 4016.19 182.744  22
  -4   4  -1 3773.48 184.269  41
  -4   4  -1 2990.61 165.350   9
   4   4   1 4961.57 188.947  36
   4   4   1 4441.35 170.821  37
   4   4   2 1160.88 79.5264  36
  -4   4  -2 894.415 54.3923  16
   4   4   2 891.884 77.2462  58
   4   4   2 908.443 86.3284  57
  -4   4  -2 1002.92 104.565  56
   4   4   2 977.700 80.4031  55
   4   4   2 884.489 66.1264  54
  -4   4  -2 335.205 79.8364  33
   4   4   2 1020.24 68.8590   6
   4   4   2 990.410 60.1394  37
   4   4   2 824.933 61.4929  10
  -4   4  -2 391.755 83.3006  43
   4   4   2 922.256 65.0691   5
  -4   4  -2 909.639 105.596  42
  -4   4  -2 914.519 79.8880  41
  -4   4  -2 729.794 67.7826   9
   4   4   3 1178.39 81.2428  36
  -4   4  -3 991.948 58.5176  16
   4   4   3 980.078 83.5878  58
   4   4   3 901.469 84.1170  57
  -4   4  -3 949.511 96.1250  56
   4   4   3 1198.95 89.4899  55
   4   4   3 1014.98 70.1969  54
   4   4   3 1093.68 73.5987   6
  -4   4  -3 1030.63 92.3941  46
   4   4   3 923.173 73.1708   5
  -4   4  -3 992.034 94.6309  42
  -4   4  -3 1046.07 94.6812  22
  -4   4  -3 987.535 82.0737  41
  -4   4  -3 933.404 75.1130   9
   4   4   3 1019.64 63.3352  37
   4   4   4 1764.13 95.4500  36
   4   4   4 1320.30 98.1683  58
  -4   4  -4 1500.35 71.6407  16
  -4   4  -4 1504.47 106.432  56
   4   4   4 1621.79 102.747  55
   4   4   4 1427.81 81.6671  54
   4   4   4 1602.80 86.1978   6
   4   4   4 1414.90 76.3539  37
  -4   4  -4 1438.38 97.5661  46
  -4   4  -4 1022.75 65.6183  12
   4   4   4 1395.21 80.1714  10
   4   4   4 1484.34 87.5963   5
  -4   4  -4 1335.81 99.3723  42
  -4   4  -4 1652.73 101.229  22
  -4   4  -4 1475.33 91.0269  41
  -4   4  -4 1498.57 90.5143   9
   4   4   5 450.748 48.9249  36
   4   4   5 377.012 56.5148  58
  -4   4  -5 397.968 33.4949  16
  -4   4  -5 343.416 54.8004  56
   4   4   5 545.964 59.3079  55
   4   4   5 428.936 39.1103  54
  -4   4  -5 438.714 52.9294  46
  -4   4  -5 309.303 29.5852  12
   4   4   5 376.759 43.4010  10
   4   4   5 491.329 54.3538   5
  -4   4  -5 402.543 56.5595  42
  -4   4  -5 363.617 48.6964  41
  -4   4  -5 542.626 66.6261  22
  -4   4  -5 549.193 59.5141   9
   4   4   5 403.404 34.6094  37
   4   4   6-18.0486 25.1226  36
   4   4   6 7.20826 32.7665  58
  -4   4  -6 38.1057 29.4524  56
   4   4   6 17.3549 30.3372  55
  -4   4  -6 41.4350 28.0025  46
  -4   4  -6 29.5797 13.5613  12
  -4   4  -6-9.92219 24.9233  41
   4   4   6 13.0398 34.7956   5
  -4   5   8 684.639 107.143  33
   4   5  -8 876.875 43.5952  19
   4   5  -7 993.667 106.924  61
   4   5  -7 1175.99 112.024  59
  -4   5   7 970.344 134.777  33
  -4   5   7 1158.71 140.521  43
   4   5  -7 1255.79 62.9331  19
   4   5  -6 2464.53 164.885  61
  -4   5   6 1928.55 168.307  33
   4   5  -6 2121.88 155.693  59
  -4   5   6 2117.40 99.3692   6
  -4   5   6 2186.43 180.103  43
  -4   5   6 1810.50 96.3632  10
   4   5  -6 2431.16 101.263  19
   4   5  -5 1755.40 156.870  61
   4   5  -5 1652.60 145.816  59
  -4   5   5 1544.30 153.920  33
   4   5  -5 1635.73 71.4763  15
  -4   5   5 1555.21 162.419  43
   4   5  -5 1491.30 79.7365  19
   4   5  -4 554.264 110.563  59
   4   5  -4 760.031 82.6214  57
   4   5  -4 653.270 40.4368  15
  -4   5   4 603.335 122.022  33
  -4   5   4 539.602 83.0881  44
  -4   5   4 701.520 137.597  43
   4   5  -4 748.596 50.2858  19
   4   5  -3 2661.26 173.439  59
  -4   5   3 2008.42 121.948  58
   4   5  -3 2890.78 151.392  57
  -4   5   3 2618.77 177.115  56
   4   5  -3 2651.39 113.675  15
  -4   5   3 2109.20 165.556  33
  -4   5   3 2287.31 140.410  44
  -4   5   3 2538.38 182.751  43
  -4   5   3 2546.61 184.404  42
   4   5  -3 2907.76 119.290  19
   4   5  -2 2564.15 164.613  59
  -4   5   2 1998.31 116.547  58
   4   5  -2 2527.75 144.335  57
  -4   5   2 2391.64 168.599  56
   4   5  -2 2691.36 113.115  15
  -4   5   2 2140.93 153.801  33
   4   5  -2 2463.54 172.742  61
  -4   5   2 2065.79 129.800  44
  -4   5   2 2061.23 166.902  43
  -4   5   2 2246.16 172.260  42
  -4   5   2 2237.61 120.114  22
   4   5  -1 1691.11 133.675  61
   4   5  -1 1518.56 127.204  59
   4   5  -1 1484.55 89.6044  58
   4   5  -1 1899.58 122.576  57
  -4   5   1 1833.07 148.702  56
   4   5  -1 1940.46 106.885  55
  -4   5   1 1492.20 126.045  33
   4   5  -1 1604.77 83.4158   6
  -4   5   1 1637.03 124.663  46
  -4   5   1 1515.00 105.132  44
  -4   5   1 1466.39 139.117  43
  -4   5   1 1753.49 149.875  42
  -4   5   1 1682.61 105.167  22
  -4   5   1 1604.16 105.432  41
   4   5   0 1531.81 117.849  61
   4   5   0 1114.72 109.901  59
   4   5   0 1595.12 96.7013  58
   4   5   0 1940.08 122.794  57
   4   5   0 2458.73 104.668  15
   4   5   0 2019.86 111.791  55
  -4   5   0 1443.99 120.756  33
   4   5   0 1788.15 89.6492   6
  -4   5   0 1804.18 125.757  46
  -4   5   0 1410.80 100.878  44
  -4   5   0 1265.75 129.923  43
  -4   5   0 1668.13 142.565  42
  -4   5   0 1684.26 112.362  22
  -4   5   0 1632.98 105.752  41
   4   5   1 274.044 51.6671  58
   4   5   1 293.870 66.9254  57
   4   5   1 420.108 61.6609  55
  -4   5  -1 323.156 74.0073  33
   4   5   1 413.441 50.5393   6
  -4   5  -1 351.574 79.3911  46
  -4   5  -1 195.965 84.0014  43
  -4   5  -1 316.203 92.0147  42
  -4   5  -1 354.571 81.8724  22
  -4   5  -1 315.938 57.1800  41
   4   5   2 997.539 81.2766  55
   4   5   2 825.042 71.4925  58
   4   5   2 773.861 82.4431  57
   4   5   2 1027.44 68.3202  15
  -4   5  -2 396.594 80.4558  33
   4   5   2 1014.28 67.0043   6
  -4   5  -2 835.416 86.1051  46
   4   5   2 752.023 60.2671  10
  -4   5  -2 386.258 82.3595  43
  -4   5  -2 894.007 100.008  42
  -4   5  -2 1003.77 71.9987  41
  -4   5  -2 942.621 53.3418  16
   4   5   2 802.724 53.6318  37
  -4   5  -3 1070.79 58.0073  16
   4   5   3 989.879 78.4498  58
   4   5   3 909.884 82.8073  57
   4   5   3 1269.39 72.0643  15
   4   5   3 1225.32 86.4018  55
   4   5   3 1197.53 71.8378   6
  -4   5  -3 1112.81 85.4463  46
   4   5   3 989.921 65.3269  10
  -4   5  -3 1147.37 94.8699  42
  -4   5  -3 1125.08 98.0921  22
   4   5   3 924.893 58.1457  37
  -4   5  -3 1077.55 72.2165  41
   4   5   4 5126.96 240.779  58
  -4   5  -4 4797.13 242.084  56
   4   5   4 5983.57 236.194  15
   4   5   4 6308.33 250.605  55
   4   5   4 6136.30 231.715   6
  -4   5  -4 5661.17 238.084  46
  -4   5  -4 5251.04 244.823  42
  -4   5  -4 6529.47 241.726  22
  -4   5  -4 5143.56 230.227  41
  -4   5  -5 1767.03 110.153  56
   4   5   5 2437.06 105.315  15
   4   5   5 2572.25 104.929   6
  -4   5  -5 2273.93 107.683  46
   4   5   5 2381.87 103.257  10
  -4   5  -5 2162.10 112.369  42
  -4   5  -5 2873.38 114.220  22
   4   5   5 2310.02 116.405  55
   4   6  -7 94.0973 17.4165  19
   4   6  -7 74.3521 53.0041  59
  -4   6   7 87.3465 72.4097  43
  -4   6   7 106.056 61.4183  42
   4   6  -7 20.9077 49.4829  61
   4   6  -6 326.450 78.9414  59
  -4   6   6 267.840 77.1782  56
  -4   6   6 315.468 94.6675  33
  -4   6   6 517.757 100.256  43
  -4   6   6 304.968 30.6243  10
   4   6  -6 346.297 80.8707  61
   4   6  -6 542.316 34.0337  19
   4   6  -5 138.535 91.3341  61
  -4   6   5 218.047 80.2765  56
  -4   6   5 150.811 97.3986  33
  -4   6   5 300.214 109.067  43
  -4   6   5 244.525 36.4628  10
   4   6  -5 276.247 31.1119  19
   4   6  -4 547.274 102.387  59
   4   6  -4 588.175 69.7342  57
  -4   6   4 514.370 96.0290  56
   4   6  -4 553.203 34.1534  15
  -4   6   4 409.378 104.612  33
  -4   6   4 416.413 116.528  43
   4   6  -4 665.925 44.4899  19
   4   6  -3 502.531 104.476  61
   4   6  -3 524.981 100.911  59
   4   6  -3 515.543 70.4380  57
  -4   6   3 440.794 95.9138  56
   4   6  -3 512.245 34.4230  15
  -4   6   3 359.050 98.9653  33
  -4   6   3 440.889 66.4405  44
  -4   6   3 427.093 117.318  43
   4   6  -2 1157.00 121.349  61
   4   6  -2 1145.30 113.797  59
   4   6  -2 1142.67 91.8095  57
  -4   6   2 1150.00 116.135  56
   4   6  -2 1256.55 61.7887  15
  -4   6   2 1007.69 114.822  33
  -4   6   2 1100.92 99.8702  46
  -4   6   2 895.339 85.0994  44
  -4   6   2 923.486 124.172  43
  -4   6   2 1150.22 82.9927  22
   4   6  -1 1105.18 109.322  61
   4   6  -1 1377.94 81.9113  36
   4   6  -1 1039.22 104.336  59
   4   6  -1 1185.58 98.2138  57
  -4   6   1 1162.86 115.914  56
   4   6  -1 1436.35 68.0174  15
  -4   6   1 1132.79 109.300  33
  -4   6   1 1415.14 104.608  46
  -4   6   1 1205.78 88.2744  44
  -4   6   1 1143.61 122.360  43
   4   6  -1 1193.31 65.1764  10
  -4   6   1 1449.27 94.9067  22
   4   6   0 1480.56 109.704  61
   4   6   0 2108.08 104.053  36
   4   6   0 1178.03 107.811  59
   4   6   0 1999.29 120.334  57
  -4   6   0 1873.59 132.870  56
   4   6   0 2294.56 114.315  55
  -4   6   0 1819.49 121.111  33
  -4   6   0 2042.34 118.444  46
  -4   6   0 1378.70 126.325  43
   4   6   0 1809.86 88.1077  10
  -4   6   0 2315.84 117.377  22
   4   6   1 973.443 68.2997  36
   4   6   1 857.133 82.5122  57
  -4   6  -1 937.341 92.0916  56
   4   6   1 1090.29 78.6754  55
  -4   6  -1 703.468 83.2912  33
   4   6   1 1095.93 62.6244   6
  -4   6  -1 1043.60 83.1171  46
   4   6   1 1074.36 59.7134  10
  -4   6  -1 560.961 86.7500  43
  -4   6  -1 1125.16 90.8010  22
   4   6   2 18.3915 30.7985  36
   4   6   2 107.318 46.0135  57
  -4   6  -2-19.1814 51.9055  56
   4   6   2 3.30687 36.9743  55
   4   6   2 52.7789 34.9876   6
  -4   6  -2 10.2078 44.5126  46
  -4   6  -2-23.1876 58.5594  43
  -4   6  -2-22.0533 54.5145  42
   4   6   2 49.9164 30.7219  10
  -4   6  -3 153.871 45.5776  56
   4   6   3 253.356 26.1557  15
   4   6   3 257.815 41.9031  55
   4   6   3 285.256 35.9692   6
  -4   6  -3 255.885 39.9263  46
   4   6   3 238.796 33.8343  10
  -4   6  -3 216.915 45.8778  42
   4   6   3 252.056 34.1029  36
   4   7  -4 50.2430 59.0072  61
   4   7  -4 96.6348 60.5308  59
  -4   7   4 125.539 43.9051  46
  -4   7   4 111.173 67.2616  43
  -4   7   4 117.167 55.7574  42
  -4   7   4 109.168 27.3001  10
   4   7  -3 100.705 61.6315  61
   4   7  -3 207.718 63.1360  59
  -4   7   3 151.413 51.2158  56
  -4   7   3 264.164 49.7126  46
  -4   7   3 138.918 73.3906  43
  -4   7   3 225.085 63.6744  42
  -4   7   3 253.840 34.9354  10
   4   7  -2 86.2353 56.8960  61
   4   7  -2 146.382 60.0384  59
   4   7  -2 232.766 43.4052  57
  -4   7   2 132.171 52.6654  56
   4   7  -2 270.746 20.1332  15
  -4   7   2 205.704 52.0096  46
  -4   7   2 122.006 71.5982  43
  -4   7   2 210.264 64.8967  42
   4   7  -1 83.9867 43.0675  61
   4   7  -1 159.626 48.4063  59
   4   7  -1 209.054 42.7617  57
  -4   7   1 109.950 48.8007  56
   4   7  -1 233.135 20.2951  15
  -4   7   1 274.371 48.3862  46
  -4   7   1 172.028 65.6011  43
  -4   7   1 180.946 56.9286  42
  -4   7   1 303.713 50.6443  22
   4   7   0 281.621 42.6677  57
  -4   7   0 261.529 47.6656  56
  -4   7   0 374.324 45.2317  46
  -4   7   0 295.187 54.1402  42
   5  -6  -6 381.004 38.1465  14
  -5  -6   6 463.614 74.6635  52
  -5  -6   6 462.310 74.7004  48
   5  -6  -5 388.503 51.3139  60
  -5  -6   5 481.734 112.830  34
   5  -6  -5 406.244 43.5041  14
  -5  -6   5 459.291 90.8864  52
  -5  -6   5 488.270 87.6227  48
  -5  -6   5 359.948 82.3415  47
   5  -6  -5 377.505 44.6682  20
  -5  -6   4-46.1711 121.165  34
   5  -6  -4 184.377 94.1429  34
  -5  -6   4-5.13572 90.2321  47
   5  -6  -4 6.52347 42.1931   3
   5  -6  -4 65.7801 34.2548  20
  -5  -6   3 137.693 130.473  34
   5  -6  -3 264.796 106.045  34
   5  -6  -3 197.889 41.7144  14
  -5  -6   3 207.038 73.1342  49
  -5  -6   3 169.455 98.7926  47
   5  -6  -3 37.6441 98.5780  47
   5  -6  -3 222.212 47.7509   3
  -5  -6   3 295.209 77.6920  39
   5  -6  -3 199.470 32.1169  20
  -5  -6   2 714.516 60.7664   8
  -5  -6   2 863.133 141.743  34
   5  -6  -2 815.874 127.683  34
   5  -6  -2 731.051 61.1859   3
   5  -6  -2 633.232 56.4370  14
  -5  -6   2 664.961 97.9368  49
  -5  -6   2 487.534 112.688  47
   5  -6  -2 693.070 61.7619   4
  -5  -6   2 588.614 95.6151  39
  -5  -6   1 53.5630 45.5654   8
  -5  -6   1 94.0253 112.126  34
  -5  -6   1 53.3060 38.0285   7
   5  -6  -1 126.951 61.1816  52
   5  -6  -1 86.5707 35.0873  14
  -5  -6   1 43.5998 76.2160  49
   5  -6  -1 58.9045 44.1076  48
  -5  -6   1 10.7231 90.2439  47
   5  -6  -1 39.1430 92.9304  47
   5  -6  -1 11.2438 39.6087   3
  -5  -6   1 37.0245 80.8987  39
  -5  -6   0 56.6900 44.4112   8
   5  -6   0 73.2098 25.9218   1
  -5  -6   0 112.144 89.8699  34
   5  -6   0 98.2410 97.1156  34
  -5  -6   0 34.2314 38.2654   7
   5  -6   0 116.172 62.4331  52
   5  -6   0 57.1620 29.4535  14
   5  -6   0 7.21328 48.4314  48
  -5  -6   0 197.509 83.3652  47
   5  -6   0 47.5647 38.3488   3
  -5  -6  -1 34.1253 38.8919   8
   5  -6   1-3.01071 24.8123   1
   5  -6   1 37.9340 82.5891  34
  -5  -6  -1 11.4081 36.7103   7
   5  -6   1 88.9762 55.8891  52
  -5  -6  -1 135.639 66.0137  49
   5  -6   1-12.0520 44.8815  48
  -5  -6  -1 23.9074 62.2860  47
   5  -6   1 52.9861 34.2176   3
  -5  -6  -1 8.42756 64.3823  39
  -5  -6  -2 231.563 37.0024   8
   5  -6   2 222.490 35.3834   4
  -5  -6  -2 256.221 33.4485   7
   5  -6   2 276.061 52.4028  52
  -5  -6  -2 131.876 54.5200  49
   5  -6   2 183.690 43.8141  48
   5  -6   2 257.174 34.3258   3
  -5  -6  -2 249.265 56.1960  39
   5  -5  -8 498.821 40.1169  60
  -5  -5   8 550.776 71.7367  48
  -5  -5   7 1224.41 95.9682  35
  -5  -5   7 1049.36 97.7131  52
   5  -5  -7 1070.20 66.2430  14
  -5  -5   7 1174.13 111.540  48
   5  -5  -6 1311.23 86.4676  60
  -5  -5   6 1352.59 147.320  34
   5  -5  -6 1351.28 80.7363  14
  -5  -5   6 1185.60 110.502  47
   5  -5  -6 1450.41 89.4008  20
   5  -5  -5 593.886 68.6826  60
  -5  -5   5 672.652 193.698  34
   5  -5  -5 440.411 107.930  34
   5  -5  -5 605.425 61.2341   3
   5  -5  -5 596.290 58.7362  14
  -5  -5   5 595.977 107.890  47
   5  -5  -5 627.385 65.9964  20
  -5  -5   4 196.079 385.160  34
   5  -5  -4 326.267 125.049  34
   5  -5  -4 294.996 51.7380  14
  -5  -5   4 368.111 76.0879  49
  -5  -5   4 397.331 122.289  47
   5  -5  -4 331.187 117.144  47
   5  -5  -4 265.111 51.0561   3
  -5  -5   4 298.830 84.6059  39
   5  -5  -4 351.838 55.5981  20
   5  -5  -3 1873.29 179.948  34
   5  -5  -3 1494.97 86.1497   1
   5  -5  -3 1856.59 101.110   3
  -5  -5   3 1742.24 140.107  49
  -5  -5   3 1618.67 175.652  47
   5  -5  -3 1615.35 170.718  47
  -5  -5   3 1676.63 144.672  39
   5  -5  -3 1893.58 100.656  20
   5  -5  -3 1997.34 103.230   4
   5  -5  -2 981.875 68.2225   1
   5  -5  -2 1167.73 169.888  34
   5  -5  -2 945.590 99.0260  52
   5  -5  -2 1030.97 78.4923  14
   5  -5  -2 1197.98 77.8079   3
  -5  -5   2 1191.36 129.779  49
   5  -5  -2 897.836 85.8695  48
  -5  -5   2 991.997 159.417  47
  -5  -5   2 1184.77 137.474  39
   5  -5  -2 1128.56 71.7150  20
   5  -5  -2 1188.34 79.1282   4
  -5  -5   1 1879.09 95.3828   8
  -5  -5   1 1562.06 87.2099   7
  -5  -5   1 1489.00 432.716  34
  -5  -5   1 1398.85 102.058  32
   5  -5  -1 1454.39 126.223  52
   5  -5  -1 1695.87 99.8066  14
   5  -5  -1 1662.72 94.5683   3
  -5  -5   1 1557.54 156.239  49
   5  -5  -1 1566.05 117.696  48
  -5  -5   1 1435.50 168.094  47
   5  -5  -1 1378.69 161.969  47
   5  -5  -1 1760.99 104.268   2
  -5  -5   1 1594.50 155.124  39
   5  -5  -1 1833.50 98.4251   4
   5  -5  -1 1560.25 93.7612   1
   5  -5   0 1617.27 119.292  35
  -5  -5   0 1993.81 227.951  34
  -5  -5   0 1852.93 99.6588   7
   5  -5   0 1931.43 178.747  34
  -5  -5   0 1919.31 119.141  32
   5  -5   0 2106.16 144.617  52
   5  -5   0 1914.57 106.967  14
   5  -5   0 2026.19 105.103   3
   5  -5   0 2008.29 135.209  48
  -5  -5   0 1668.60 158.526  47
   5  -5   0 1986.34 110.995   2
  -5  -5   0 1960.58 160.283  39
   5  -5   0 2045.75 111.794   1
   5  -5   0 2022.71 107.895   4
  -5  -5   0 2128.70 104.961   8
  -5  -5  -1 61.8844 48.4447   8
   5  -5   1 13.1607 45.0234   4
   5  -5   1 12.5325 60.0276  35
   5  -5   1 46.0169 110.528  34
   5  -5   1 24.1511 48.7733   2
  -5  -5  -1 54.2455 45.9092   7
   5  -5   1 50.1618 34.1444  53
   5  -5   1 130.193 81.3853  52
  -5  -5  -1 71.2901 63.6062  32
  -5  -5  -1-56.3938 85.5941  49
   5  -5   1 57.2810 36.4925  14
   5  -5   1 117.946 70.2921  48
  -5  -5  -1 44.6010 84.1211  47
   5  -5   1 51.8888 42.0260   3
   5  -5   1 25.2540 40.6041   1
  -5  -5  -1 63.9218 49.3095  40
  -5  -5  -1 103.341 89.3301  39
  -5  -5  -2 274.304 49.7222   8
   5  -5   2 205.575 67.4258  35
   5  -5   2 63.3583 86.3468  34
  -5  -5  -2 211.121 46.9546   7
   5  -5   2 235.531 48.2612   2
   5  -5   2 173.353 40.1969  53
  -5  -5  -2 189.669 65.2431  32
  -5  -5  -2 265.978 84.0444  49
   5  -5   2 152.971 64.7816  48
   5  -5   2 225.338 44.1938   3
   5  -5   2 258.488 46.3750   1
  -5  -5  -2 241.106 54.5364  40
  -5  -5  -2 226.722 79.0164  39
   5  -5   3 692.803 76.6034  35
  -5  -5  -3 649.274 55.1390   7
   5  -5   3 714.478 57.6142  53
  -5  -5  -3 840.141 71.0701  32
   5  -5   3 592.456 75.9319  52
  -5  -5  -3 413.152 76.7889  49
   5  -5   3 832.320 55.5393   3
   5  -5   3 586.472 69.7954  48
   5  -5   3 757.260 58.9658   1
   5  -5   3 761.264 55.7202   2
  -5  -5  -3 807.813 65.8855  40
  -5  -5  -3 981.939 67.6092   9
  -5  -5  -3 532.006 74.5087  39
  -5  -5  -3 830.800 57.5456   8
  -5  -5  -4 584.878 44.4522   7
   5  -5   4 572.021 60.6740  35
   5  -5   4 838.978 47.4826   3
   5  -5   4 591.516 49.0240   1
  -5  -5  -4 807.112 53.2843   9
  -5  -5  -4 790.493 48.8968   8
   5  -4  -9 87.2933 26.7903  60
   5  -4  -8-17.2280 44.7179  20
   5  -4  -7 388.283 58.3994  60
  -5  -4   7 371.942 104.823  34
   5  -4  -7 427.112 46.3867  14
  -5  -4   7 373.988 82.1121  52
   5  -4  -7 375.275 64.0510  20
   5  -4  -6 1497.75 97.5759  60
   5  -4  -6 1499.06 86.5284  14
  -5  -4   6 1320.84 120.584  47
   5  -4  -5 454.625 114.447  34
   5  -4  -5 543.787 55.6601  14
   5  -4  -5 371.584 52.2082   3
   5  -4  -5 411.333 37.5288   1
   5  -4  -5 565.593 64.1234  20
  -5  -4   5 470.659 81.8949  39
   5  -4  -4 154.347 44.4158   4
   5  -4  -4 108.286 126.014  34
   5  -4  -4 101.238 47.4213  14
  -5  -4   4 41.9020 69.8804  49
   5  -4  -4 41.3172 115.093  47
   5  -4  -4 110.362 42.5187   3
   5  -4  -4 92.3764 29.8078   1
  -5  -4   4 201.273 92.4394  39
   5  -4  -4 73.4354 46.8661  20
   5  -4  -3 1012.99 69.1521   1
   5  -4  -3 1381.58 164.666  34
   5  -4  -3 1016.26 69.7842   3
   5  -4  -3 1040.75 77.6611  14
   5  -4  -3 835.042 88.8586  52
  -5  -4   3 1242.66 122.171  49
   5  -4  -3 942.907 83.0163  48
   5  -4  -3 1057.94 153.499  47
  -5  -4   3 986.827 131.854  39
   5  -4  -3 1136.86 75.7707  20
   5  -4  -3 1038.42 71.3198   4
   5  -4  -3 1065.53 300.060  63
   5  -4  -2 815.798 164.344  34
  -5  -4   2 635.886 76.1198  32
   5  -4  -2 557.493 90.8512  52
   5  -4  -2 682.870 57.2604   3
   5  -4  -2 661.777 80.6891  48
   5  -4  -2 744.485 71.2070   2
  -5  -4   2 581.538 166.189  39
   5  -4  -2 689.313 60.4690  20
   5  -4  -2 673.012 59.6813   4
   5  -4  -2 613.729 116.827  63
   5  -4  -2 726.897 62.0755   1
   5  -4  -1 442.958 68.7527  35
   5  -4  -1 495.680 61.1407  14
   5  -4  -1 547.764 96.6832  52
  -5  -4   1 455.024 76.9990  32
   5  -4  -1 496.174 52.1662   3
   5  -4  -1 461.525 83.2672  48
   5  -4  -1 526.356 132.345  47
   5  -4  -1 641.486 67.3633   2
   5  -4  -1 560.376 62.3847   1
   5  -4  -1 565.892 51.8755  20
   5  -4  -1 554.590 56.2930   4
  -5  -4   0 311.273 51.3602   8
   5  -4   0 208.485 68.8598  35
   5  -4   0 288.833 50.0136   4
   5  -4   0 255.301 136.085  34
  -5  -4   0 267.956 46.5437   7
   5  -4   0 392.814 63.0403   2
   5  -4   0 332.362 47.8101  53
   5  -4   0 381.996 101.326  52
  -5  -4   0 235.312 77.0524  32
   5  -4   0 372.857 54.7016  14
   5  -4   0 319.568 82.0448  48
   5  -4   0 359.061 120.031  47
   5  -4   0 238.536 45.3097   3
   5  -4   0 380.252 58.6662   1
  -5  -4   0 300.728 61.4645  40
  -5  -4   0 499.828 230.816  39
   5  -4   0 262.987 32.7794  38
   5  -4   1 330.299 84.7221  35
   5  -4   1 379.690 126.896  34
  -5  -4  -1 370.339 51.7585   7
   5  -4   1 469.619 57.9062  53
   5  -4   1 470.813 67.1323   2
   5  -4   1 442.461 102.300  52
  -5  -4  -1 482.780 85.8301  32
   5  -4   1 352.570 53.4905  14
   5  -4   1 435.238 52.4963   3
   5  -4   1 476.647 94.0754  48
   5  -4   1 449.066 66.2918   1
  -5  -4  -1 475.890 73.9287  40
  -5  -4  -1 429.122 120.581  39
   5  -4   1 405.471 43.0919  38
   5  -4   1 502.786 57.8342   4
  -5  -4  -1 448.812 56.5163   8
  -5  -4  -2 201.387 49.8998   8
   5  -4   2 135.076 75.9938  35
   5  -4   2 185.878 48.8739   4
   5  -4   2 144.553 99.6106  34
  -5  -4  -2 124.872 48.9663   7
   5  -4   2 222.611 51.7874  53
   5  -4   2 217.330 58.5170   2
  -5  -4  -2 260.112 78.8817  32
  -5  -4  -2 158.083 76.4328  47
   5  -4   2 198.365 59.1740   1
   5  -4   2 154.791 44.1688   3
  -5  -4  -2 167.823 71.2349  40
  -5  -4  -2 142.193 83.3958  39
   5  -4   2 189.353 37.8133  38
  -5  -4  -3 74.0727 45.9466   8
   5  -4   3 44.7541 68.5386  35
   5  -4   3 61.2718 44.0916   4
  -5  -4  -3 57.3789 46.3948   7
   5  -4   3 72.7777 46.1998  53
   5  -4   3 30.1785 50.1474   2
   5  -4   3 59.9272 71.6809  52
  -5  -4  -3 37.9621 72.0840  49
   5  -4   3 45.1881 64.0276  48
  -5  -4  -3 26.3583 36.0309  45
   5  -4   3 55.2969 39.8500   3
  -5  -4  -3 13.3951 65.8201  40
  -5  -4  -3 69.2817 64.9924  39
   5  -4   3 48.4950 32.9824  38
  -5  -4  -4 96.2342 40.9357   8
   5  -4   4 50.0302 56.7383  35
   5  -4   4 103.943 39.5347   4
  -5  -4  -4 45.3610 41.7201   7
   5  -4   4 93.3290 40.8251  53
   5  -4   4 37.2517 42.2218   2
   5  -4   4 26.1779 56.7519  52
  -5  -4  -4 83.0472 53.6947  32
  -5  -4  -4 32.4761 51.7420  49
   5  -4   4 101.618 49.8566  48
  -5  -4  -4 62.3328 33.2342  45
   5  -4   4 119.546 35.0406   3
   5  -4   4 54.6987 37.6933   1
  -5  -4  -4 59.2762 56.4362  40
  -5  -4  -4 117.809 52.8239   9
   5  -4   4 89.4826 30.8914  38
   5  -4   5 295.975 37.0807  53
  -5  -4  -5 263.014 42.8082  32
   5  -4   5 222.112 32.6819   1
  -5  -4  -5 332.732 46.3963  40
   5  -4   5 316.666 37.2369   2
  -5  -4  -5 288.692 43.4588   9
   5  -4   5 309.740 30.8545  38
  -5  -4  -5 321.400 38.0076   8
   5  -3 -10 809.077 44.3386  60
   5  -3 -10 696.727 42.1915  62
   5  -3  -9 1148.37 69.9726  20
   5  -3  -9 1268.63 65.6395  62
   5  -3  -8 1313.08 85.2239  20
   5  -3  -8 1341.31 72.2549  62
   5  -3  -7 758.030 66.3718  60
   5  -3  -7 792.848 51.8464  62
   5  -3  -7 863.750 58.9263  14
   5  -3  -7 908.937 74.3512  20
   5  -3  -6 1070.57 80.7873  60
   5  -3  -6 1197.72 71.8146  14
   5  -3  -6 1123.36 64.5073   1
   5  -3  -6 1241.57 79.6066  20
   5  -3  -6 924.426 58.3333  62
   5  -3  -5 1082.99 82.7539  60
   5  -3  -5 1142.68 74.3798   3
   5  -3  -5 1409.37 78.5342  14
   5  -3  -5 1250.14 71.1620   1
   5  -3  -5 1464.19 240.901  63
   5  -3  -4 2656.09 182.471  34
   5  -3  -4 2596.44 160.129  63
   5  -3  -4 2598.92 121.530   1
   5  -3  -4 2622.73 125.290  14
   5  -3  -4 2199.64 124.912  48
   5  -3  -4 2622.72 179.982  47
   5  -3  -4 2585.85 120.005   4
   5  -3  -4 2564.74 127.506  20
   5  -3  -3 751.574 58.3598   1
   5  -3  -3 737.738 137.051  34
  -5  -3   3 638.218 69.8250  32
   5  -3  -3 614.613 57.9385  14
   5  -3  -3 644.210 77.2908  52
   5  -3  -3 639.807 68.2868  48
   5  -3  -3 817.150 130.921  47
   5  -3  -3 708.470 63.5907   2
   5  -3  -3 703.541 60.3967  20
   5  -3  -3 701.312 52.7019   4
   5  -3  -3 757.566 87.3730  63
  -5  -3   2 953.550 85.0167  32
   5  -3  -2 1010.33 88.6485  63
   5  -3  -2 945.835 95.1865  52
   5  -3  -2 923.212 70.7548  14
   5  -3  -2 972.334 85.9972  48
   5  -3  -2 630.781 68.6165   5
   5  -3  -2 894.581 71.4848   2
   5  -3  -2 950.104 66.4284  20
   5  -3  -2 966.862 68.5525   1
   5  -3  -2 905.265 59.8762   4
  -5  -3   1 473.855 44.4847   8
   5  -3  -1 468.837 68.3215  35
   5  -3  -1 438.441 133.747  34
   5  -3  -1 452.548 48.3495  53
  -5  -3   1 470.981 75.0186  32
   5  -3  -1 508.540 88.7048  52
   5  -3  -1 380.351 40.8872   3
   5  -3  -1 652.403 82.9327  48
   5  -3  -1 461.146 119.277  47
   5  -3  -1 364.667 55.8610   5
   5  -3  -1 560.782 59.1735   1
  -5  -3   1 559.643 64.2489  40
   5  -3  -1 479.050 49.8959  20
   5  -3  -1 373.515 36.3697  38
   5  -3  -1 395.019 44.8774   4
   5  -3   0 694.924 84.8325  35
   5  -3   0 734.642 131.634  34
   5  -3   0 494.784 60.2271  53
  -5  -3   0 630.730 84.7011  32
   5  -3   0 649.737 102.430  52
   5  -3   0 612.720 61.8074  14
   5  -3   0 715.714 92.1294  48
   5  -3   0 471.618 48.0912   3
   5  -3   0 576.255 115.500  47
  -5  -3   0 607.660 56.7004  45
   5  -3   0 652.411 59.2804   5
   5  -3   0 796.792 72.2875   1
  -5  -3   0 689.668 80.1812  40
   5  -3   0 552.618 51.8036  20
   5  -3   0 502.767 47.5325  38
   5  -3   0 625.064 54.8515   4
  -5  -3   0 594.007 51.8544   8
   5  -3   1 1567.21 122.086  35
  -5  -3  -1 1177.20 76.7934   7
   5  -3   1 1349.47 140.200  34
   5  -3   1 1360.21 94.6432  53
  -5  -3  -1 1486.13 112.927  32
   5  -3   1 1141.02 86.1368  14
   5  -3   1 1191.55 77.4527   3
  -5  -3  -1 1445.78 87.0851  45
   5  -3   1 1499.41 82.6656   5
  -5  -3  -1 1583.78 111.495  40
  -5  -3  -1 1457.38 295.722  39
   5  -3   1 1460.66 82.6677  38
   5  -3   1 1373.37 94.1137   2
   5  -3   1 1302.94 81.9007   4
  -5  -3  -1 1230.93 78.6124   8
  -5  -3  -2 268.952 49.2677   8
   5  -3   2 387.589 92.0829  35
   5  -3   2 290.715 49.0223   4
  -5  -3  -2 305.002 50.3545   7
   5  -3   2 226.651 35.9504  54
   5  -3   2 266.363 61.4802  53
   5  -3   2 256.339 90.2959  52
   5  -3   2 227.056 61.2919   2
   5  -3   2 344.856 81.0502  48
   5  -3   2 321.362 63.0577   1
  -5  -3  -2 259.126 56.1891  45
   5  -3   2 196.276 42.6575   3
   5  -3   2 370.975 48.8835   5
  -5  -3  -2 395.255 83.8216  40
  -5  -3  -2 225.996 152.451  39
   5  -3   2 295.284 46.2594  38
  -5  -3  -3 16.1591 43.9562   8
   5  -3   3 24.6013 78.9115  35
   5  -3   3 32.9425 43.5745   4
  -5  -3  -3 20.4451 46.2320   7
   5  -3   3 35.0579 30.3946  54
   5  -3   3 52.5108 51.0781  53
   5  -3   3 46.1886 78.2881  52
  -5  -3  -3 32.8040 71.5190  32
   5  -3   3 57.1553 57.5606   2
   5  -3   3 29.8829 65.5549  48
   5  -3   3-1.94219 48.9921   1
  -5  -3  -3 35.6765 51.3246  45
   5  -3   3 64.5995 37.7847   3
   5  -3   3 44.4528 38.4543   5
  -5  -3  -3 7.91030 79.0615  40
  -5  -3  -3 31.4993 62.9834  39
   5  -3   3 28.7457 37.1726  38
  -5  -3  -4 610.330 59.9389   7
   5  -3   4 627.499 53.8233  54
   5  -3   4 783.316 72.5082  53
  -5  -3  -4 644.345 78.3926  32
   5  -3   4 576.999 79.7352  52
   5  -3   4 643.171 73.6176  48
   5  -3   4 596.280 54.8402   3
  -5  -3  -4 576.959 63.5707  45
   5  -3   4 676.249 66.0273   1
  -5  -3  -4 937.834 90.1702  40
  -5  -3  -4 768.888 73.7388   9
   5  -3   4 704.400 59.2076  38
   5  -3   4 702.615 72.2269   2
  -5  -3  -4 676.411 60.1847   8
   5  -3   4 718.079 62.8338   4
   5  -3   5 2790.04 149.693  35
   5  -3   5 2581.94 125.097  54
  -5  -3  -5 2582.93 133.170  32
   5  -3   5 2252.19 127.443  48
  -5  -3  -5 2685.61 129.150  45
   5  -3   5 2315.59 127.127   1
  -5  -3  -5 3037.21 131.168   9
   5  -3   5 2876.15 128.877  38
   5  -3   5 2879.21 133.759   2
  -5  -3  -5 3110.87 126.385   8
   5  -3   5 3184.61 130.266   4
  -5  -3  -6 382.649 45.0372  40
  -5  -3  -6 401.077 42.7205   9
   5  -3   6 501.820 41.8625   2
  -5  -3  -6 435.646 38.8216   8
   5  -3   6 510.357 38.9674   4
   5  -2 -10 213.004 31.2984  62
   5  -2 -10 210.219 29.0299  64
   5  -2  -9 145.003 33.1056  62
   5  -2  -9 158.135 32.6394  64
   5  -2  -8 379.970 48.9129  60
   5  -2  -8 289.735 40.6887  21
   5  -2  -8 320.590 53.6500  20
   5  -2  -8 385.455 40.2009  64
   5  -2  -8 378.501 42.1955  62
   5  -2  -7 1111.74 69.1683   1
   5  -2  -7 1375.68 81.0810  60
   5  -2  -7 1167.48 75.5344  20
   5  -2  -7 1070.97 66.3188  64
   5  -2  -7 1487.61 434.225  63
   5  -2  -7 1252.10 70.5253  62
   5  -2  -6 184.794 31.0917  62
   5  -2  -6 162.609 243.132  61
   5  -2  -6 159.670 45.0613  60
   5  -2  -6 179.308 33.7527  14
   5  -2  -6 230.861 35.4274   1
   5  -2  -6 157.157 93.7831  63
   5  -2  -6 172.739 42.0759  20
   5  -2  -5 732.929 135.459  61
   5  -2  -5 855.564 65.0556  60
   5  -2  -5 887.711 59.3063  14
   5  -2  -5 847.793 57.1406   1
   5  -2  -5 841.464 62.0274  20
   5  -2  -5 831.733 50.0044  62
   5  -2  -4 2322.07 178.967  61
   5  -2  -4 2081.55 122.138  60
   5  -2  -4 3065.33 126.029   1
   5  -2  -4 2744.78 123.533  14
   5  -2  -4 2656.08 130.447  48
   5  -2  -4 2614.06 125.230   2
   5  -2  -4 2783.93 150.747  63
   5  -2  -4 2644.32 117.279   4
   5  -2  -4 2629.00 125.129  20
   5  -2  -3 325.959 42.0137   1
   5  -2  -3 246.786 31.9982   4
   5  -2  -3 200.875 108.142  34
   5  -2  -3 265.770 43.1776   2
   5  -2  -3 297.120 62.9725  52
   5  -2  -3 262.535 41.9810  14
   5  -2  -3 353.073 55.6094  48
   5  -2  -3 222.535 108.043  61
   5  -2  -3 356.668 68.7209  63
   5  -2  -3 346.667 42.7064  20
   5  -2  -2 220.054 156.682  61
   5  -2  -2 333.663 62.7564  63
   5  -2  -2 262.195 46.0698  35
   5  -2  -2 269.076 36.2827  53
   5  -2  -2 341.478 46.5292   2
   5  -2  -2 347.036 72.4979  52
   5  -2  -2 296.480 43.9057  14
   5  -2  -2 315.369 61.2840  48
  -5  -2   2 361.311 44.6583  45
   5  -2  -2 332.375 45.9716   5
  -5  -2   2 283.342 54.9910  40
   5  -2  -2 352.788 44.3782  20
   5  -2  -2 323.431 44.4600   1
   5  -2  -2 254.247 28.4942  38
   5  -2  -2 286.129 33.2248   4
   5  -2  -1 3845.04 186.401  35
   5  -2  -1 4060.09 217.959  34
   5  -2  -1 4048.15 174.287  53
   5  -2  -1 4477.15 200.100  52
   5  -2  -1 3563.27 171.881  14
   5  -2  -1 4308.39 194.113  48
  -5  -2   1 3895.58 171.197  45
   5  -2  -1 3910.71 167.817   5
  -5  -2   1 4015.65 180.993  40
   5  -2  -1 3563.70 169.888  20
   5  -2  -1 3850.58 172.958   2
   5  -2  -1 3878.60 164.461  38
   5  -2  -1 3459.79 162.511   4
   5  -2  -1 4133.41 184.304  63
   5  -2   0 533.944 74.8650  35
   5  -2   0 522.611 114.672  34
   5  -2   0 590.032 59.2120  53
   5  -2   0 709.137 91.7586  52
  -5  -2   0 529.373 59.6672  45
   5  -2   0 646.612 56.1022   5
   5  -2   0 532.285 45.8209   4
   5  -2   0 608.519 60.4263   1
  -5  -2   0 526.526 76.8614  40
   5  -2   0 470.339 51.6021  20
   5  -2   0 606.504 49.0846  38
   5  -2   0 532.419 59.2363   2
  -5  -2   0 494.112 44.3451   8
  -5  -2  -1 66.0579 36.2050   8
   5  -2   1 74.9595 70.8139  35
   5  -2   1 83.3127 34.4191   4
   5  -2   1 64.8068 28.8189  54
   5  -2   1 36.4163 45.0643  53
   5  -2   1 46.9731 43.5601  14
   5  -2   1 59.4059 50.6083   2
   5  -2   1 85.1407 67.1507  48
  -5  -2  -1 56.9821 51.4590  45
   5  -2   1 82.3508 46.1957   1
   5  -2   1 83.4626 44.4868   5
  -5  -2  -1 89.3797 73.0599  40
   5  -2   1 95.4395 36.0490  20
   5  -2   1 69.4852 36.9434  38
  -5  -2  -2 353.988 47.3147   8
   5  -2   2 420.490 90.3719  35
   5  -2   2 339.749 47.2229   4
  -5  -2  -2 248.209 47.1733   7
   5  -2   2 326.430 44.0034  54
   5  -2   2 406.757 62.9952  53
  -5  -2  -2 293.783 80.7685  32
   5  -2   2 349.192 86.9287  52
   5  -2   2 346.249 76.2426  48
   5  -2   2 348.488 57.1096   1
  -5  -2  -2 373.023 63.1730  45
   5  -2   2 387.967 53.0533   5
   5  -2   2 207.984 37.6223   3
  -5  -2  -2 309.057 86.0864  40
   5  -2   2 429.148 52.8811  38
   5  -2   2 310.419 33.0071  37
  -5  -2  -3 195.286 47.4770   8
   5  -2   3 243.719 87.1512  35
   5  -2   3 138.587 44.7643   4
  -5  -2  -3 210.153 47.4435   7
   5  -2   3 216.816 44.2723  54
   5  -2   3 289.488 64.3207  53
   5  -2   3 236.019 78.4125  52
  -5  -2  -3 210.972 72.7085  32
   5  -2   3 146.355 62.4768  48
   5  -2   3 237.770 52.3742   1
  -5  -2  -3 242.317 62.7084  45
   5  -2   3 266.821 49.5297   5
  -5  -2  -3 137.440 91.2393  39
   5  -2   3 285.352 50.6578  38
   5  -2   3 178.289 30.8317  37
  -5  -2  -4 221.198 47.6612   8
   5  -2   4 225.435 47.4152   4
  -5  -2  -4 142.227 47.0071   7
   5  -2   4 179.717 42.3567  54
  -5  -2  -4 168.368 63.1807  32
   5  -2   4 198.712 32.7192  37
   5  -2   4 204.373 53.6416  48
  -5  -2  -4 185.101 60.9370  45
   5  -2   4 198.802 44.7733   1
   5  -2   4 221.859 45.3562   5
   5  -2   5 494.308 52.3986   4
   5  -2   5 468.711 72.8147  35
   5  -2   5 558.500 52.3279  54
   5  -2   5 445.093 56.1277  53
  -5  -2  -5 420.242 58.2099  32
  -5  -2  -5 549.428 60.4408  45
   5  -2   5 477.660 44.2607   5
   5  -2   5 380.521 43.6207   1
  -5  -2  -5 486.865 73.0092  40
  -5  -2  -5 583.547 64.4709   9
  -5  -2  -5 491.508 52.7881   8
   5  -2   5 453.317 40.4486  37
   5  -2   5 521.241 67.6503   2
   5  -2   6 77.0728 40.9359  35
   5  -2   6 114.642 33.3613   4
   5  -2   6 14.1499 32.0139  55
   5  -2   6 48.8841 19.0760  37
   5  -2   6 97.3950 27.4478  54
   5  -2   6 29.4418 30.6378  53
   5  -2   6 53.1772 42.6971   2
  -5  -2  -6 24.7644 34.4256   8
  -5  -2  -6 74.4137 42.8697  40
  -5  -2  -6 53.0180 43.7518   9
   5  -2   6 72.2148 24.5576  38
   5  -1 -11 245.653 26.4796  64
   5  -1 -11 222.583 26.4039  62
   5  -1 -10 449.160 42.8518  64
   5  -1 -10 468.400 43.8716  62
   5  -1  -9 622.733 51.0785  60
   5  -1  -9 571.013 50.4148  64
   5  -1  -9 580.426 52.2127  62
   5  -1  -8 1850.56 87.4175  60
   5  -1  -8 1417.21 74.7995  21
   5  -1  -8 1317.44 81.5822  20
   5  -1  -8 1300.72 529.347  63
   5  -1  -8 1555.18 85.4940  64
   5  -1  -8 1540.81 85.2304  62
   5  -1  -7 279.157 39.1759  62
   5  -1  -7 217.556 84.6603  61
   5  -1  -7 413.595 46.9731  60
   5  -1  -7 360.274 43.8912   1
   5  -1  -7 295.788 40.6058  20
   5  -1  -7 377.005 40.9409  64
   5  -1  -7 369.757 88.7747  63
   5  -1  -6 311.420 91.0742  61
   5  -1  -6 500.606 48.3488  60
   5  -1  -6 471.549 44.4958   1
   5  -1  -6 484.694 45.5211  20
   5  -1  -6 432.786 38.2016  64
   5  -1  -6 355.433 75.9208  63
   5  -1  -6 455.073 40.6925  62
   5  -1  -5 2729.93 181.419  61
   5  -1  -5 3128.20 136.269  60
   5  -1  -5 2784.72 130.818  14
   5  -1  -5 3138.48 160.937  63
   5  -1  -5 2839.37 135.567  20
   5  -1  -5 2986.33 131.795  62
   5  -1  -4 1467.20 134.746  61
   5  -1  -4 1635.20 85.6044  60
   5  -1  -4 1893.72 81.7592  62
   5  -1  -4 2062.58 90.4447   1
   5  -1  -4 1720.18 85.8068  14
   5  -1  -4 1414.59 87.2645   5
   5  -1  -4 1739.67 86.4850   2
   5  -1  -4 1638.37 89.4497  20
   5  -1  -3 656.199 96.6720  61
   5  -1  -3 713.996 51.0430   1
   5  -1  -3 565.042 48.7853  14
   5  -1  -3 705.637 64.4736  48
   5  -1  -3 636.304 72.5855  63
   5  -1  -3 661.924 50.8419   5
  -5  -1   3 564.953 58.1025  24
   5  -1  -3 649.034 52.7826  20
   5  -1  -3 552.987 38.4430  38
   5  -1  -2 9127.28 421.636  61
   5  -1  -2 9373.21 387.975  35
   5  -1  -2 9348.17 382.191  53
   5  -1  -2 9388.08 398.731  52
   5  -1  -2 9228.71 381.756  14
  -5  -1   2 9368.07 395.352  28
   5  -1  -2 9725.66 378.361   5
  -5  -1   2 9422.66 405.794  24
   5  -1  -2 9182.14 383.795  20
   5  -1  -2 9895.88 376.508  38
   5  -1  -2 9736.34 397.005  63
   5  -1  -1 6575.11 306.755  61
   5  -1  -1 7285.16 282.382  35
   5  -1  -1 5969.44 256.405  54
   5  -1  -1 7080.85 271.206  53
   5  -1  -1 7414.89 288.447  52
   5  -1  -1 6317.71 265.559  14
  -5  -1   1 5792.10 283.747  31
   5  -1  -1 8274.32 288.039  48
  -5  -1   1 5744.61 277.881  28
   5  -1  -1 6731.71 267.558   1
   5  -1  -1 6266.71 267.361  20
   5  -1  -1 7192.83 262.956  38
   5  -1  -1 6231.19 264.173   2
   5  -1  -1 5893.19 253.227  37
   5  -1   0 4157.80 228.822  61
   5  -1   0 4996.65 213.341  35
   5  -1   0 4215.90 182.015  54
   5  -1   0 4828.43 196.424  53
   5  -1   0 4167.65 189.437  14
   5  -1   0 4885.54 209.303  48
  -5  -1   0 3383.96 199.531  28
  -5  -1   0 4308.48 190.804  45
   5  -1   0 4314.01 184.840   5
  -5  -1   0 4167.91 184.841  41
   5  -1   0 4548.32 191.970   1
  -5  -1   0 4521.54 202.847  40
   5  -1   0 4960.98 187.719  38
   5  -1   0 4372.28 198.466  63
   5  -1   0 3926.93 186.815   2
   5  -1   0 4108.63 176.972  37
   5  -1   1 402.768 42.5316   4
   5  -1   1 533.313 79.3086  35
   5  -1   1 465.535 46.3057  54
   5  -1   1 491.358 58.6291  53
   5  -1   1 487.251 84.6425  52
   5  -1   1 505.638 71.5390  48
  -5  -1  -1 562.141 63.5639  45
   5  -1   1 529.021 55.7026   5
   5  -1   1 542.440 53.6632   1
  -5  -1  -1 532.412 50.8615  41
  -5  -1  -1 532.393 81.9252  40
  -5  -1  -1 503.162 56.0132   9
   5  -1   1 518.039 50.7991  38
   5  -1   1 488.757 39.8049  37
  -5  -1  -1 536.502 44.4365   8
   5  -1   1 531.298 59.5221   2
   5  -1   2 1472.89 98.3610   2
   5  -1   2 1668.44 121.223  35
   5  -1   2 1546.78 88.7003  54
  -5  -1  -2 1363.10 110.930  32
   5  -1   2 1611.28 102.332  53
   5  -1   2 1486.87 82.7577   6
   5  -1   2 1400.27 112.775  52
   5  -1   2 1688.04 107.740  48
  -5  -1  -2 1402.19 81.9123  46
  -5  -1  -2 1494.01 97.4793  45
   5  -1   2 1597.42 89.1822   5
   5  -1   2 1589.42 92.7674   1
  -5  -1  -2 1377.27 85.2405  41
  -5  -1  -2 1473.49 89.0047   9
   5  -1   2 1528.77 89.0870  38
   5  -1   2 1290.61 80.8963   4
  -5  -1  -2 1442.55 79.1678   8
   5  -1   2 1407.21 78.2772  37
   5  -1   3 940.105 83.2158   2
   5  -1   3 815.581 64.1937   4
   5  -1   3 915.674 71.4892  54
  -5  -1  -3 897.793 83.2564  32
   5  -1   3 924.898 79.9107  48
   5  -1   3 980.965 72.6957   5
   5  -1   3 789.577 66.2587   1
  -5  -1  -3 807.510 67.0122  41
  -5  -1  -3 809.576 73.6834   9
  -5  -1  -3 782.662 62.5724   8
   5  -1   3 916.301 61.0922  37
   5  -1   4 1170.64 94.2484   2
   5  -1   4 1287.64 79.4887   4
   5  -1   4 1209.65 110.238  35
   5  -1   4 1308.55 84.9899  54
   5  -1   4 1316.22 92.1792  53
  -5  -1  -4 1042.51 85.9323  32
   5  -1   4 1115.98 81.1057  48
   5  -1   4 1350.84 82.5599   5
   5  -1   4 1023.64 72.2570   1
  -5  -1  -4 1134.29 77.2661  41
  -5  -1  -4 1335.33 111.605  40
   5  -1   4 1378.81 82.3621  38
  -5  -1  -4 1209.64 76.4414   8
   5  -1   4 1294.45 74.9973  37
   5  -1   5 1408.78 104.869  35
   5  -1   5 1193.01 91.6890  55
   5  -1   5 1575.01 89.1672  54
   5  -1   5 1301.53 89.5750  53
  -5  -1  -5 1189.35 80.4628  32
  -5  -1  -5 1409.51 91.9840  45
   5  -1   5 1423.26 83.3503   5
  -5  -1  -5 1264.50 77.6513  41
  -5  -1  -5 1401.41 102.771  40
   5  -1   5 1434.41 82.2227  38
  -5  -1  -5 1408.10 82.6035   8
   5  -1   5 1329.23 83.2541   4
   5  -1   5 1473.89 79.4314  37
   5  -1   6 981.679 53.3401   4
   5  -1   6 690.634 58.4601  55
   5  -1   6 924.898 55.3142  54
   5  -1   6 840.579 53.9620  53
  -5  -1  -6 900.158 56.5457  45
   5  -1   6 919.252 48.4529   5
  -5  -1  -6 697.744 44.2029  41
  -5  -1  -6 857.879 64.1619  40
  -5  -1  -6 1076.54 64.3058   9
   5  -1   6 891.295 48.1653  38
  -5  -1  -6 966.625 55.2226   8
   5  -1   6 929.044 47.6889  37
   5   0 -11 26.7798 21.2204  62
   5   0 -11 26.4954 22.1804  64
   5   0 -10 558.158 41.9575  60
   5   0 -10 524.266 45.7820  64
   5   0  -9 37.2345 31.9212  60
   5   0  -9 56.3370 34.1481  64
   5   0  -8 130.774 37.4432  62
   5   0  -8 163.972 35.7189  60
   5   0  -8 137.051 36.7494  64
   5   0  -7 10.9760 29.4597  62
   5   0  -7 34.1519 73.6386  61
   5   0  -7-11.1973 32.3014  60
   5   0  -7 38.3436 101.706  59
   5   0  -7 9.72773 61.0905  63
   5   0  -7-2.71639 35.6701   1
   5   0  -7 16.4691 25.7893  20
   5   0  -7-9.41320 29.9838  64
   5   0  -6 3688.25 222.779  61
   5   0  -6 4390.12 185.703   1
   5   0  -6 4749.63 180.797  60
   5   0  -6 3755.18 230.903  59
   5   0  -6 3759.12 177.811  20
   5   0  -6 4419.34 181.056  64
   5   0  -6 4156.54 201.610  63
   5   0  -6 4425.38 182.308  62
   5   0  -5 906.731 107.619  61
   5   0  -5 1212.21 61.7418  60
   5   0  -5 1237.68 68.9521   1
   5   0  -5 992.846 62.5471  20
   5   0  -5 1012.38 57.1587  64
   5   0  -5 1246.05 90.8416  63
   5   0  -5 1119.76 62.1079  62
   5   0  -4 654.171 91.2248  61
   5   0  -4 624.646 71.1519  63
   5   0  -4 610.659 92.4915  59
   5   0  -4 781.045 45.1851  62
   5   0  -4 595.746 49.3405   5
  -5   0   4 581.718 94.1220  25
  -5   0   4 781.105 84.2726  23
   5   0  -4 704.755 52.3137  20
   5   0  -3 280.917 33.5092   1
   5   0  -3 245.280 32.0810  14
  -5   0   3 235.360 46.5286  30
  -5   0   3 142.883 81.6729  25
  -5   0   3 297.285 73.3949  23
   5   0  -3 297.295 40.4415  20
   5   0  -3 214.799 27.7024  38
   5   0  -2 1742.19 82.8316   1
   5   0  -2 1564.33 75.8159  54
   5   0  -2 1638.47 85.7562  53
   5   0  -2 1424.94 81.3646  14
   5   0  -2 1510.39 87.8845  27
  -5   0   2 1834.49 131.524  23
   5   0  -2 1810.22 80.3703  38
   5   0  -2 1462.05 103.348  63
   5   0  -2 1606.50 74.9334  37
   5   0  -1 1366.06 87.7832  35
   5   0  -1 1194.56 65.2508  54
   5   0  -1 1354.76 77.7078  53
  -5   0   1 979.705 82.2416  31
  -5   0   1 1209.20 90.0740  28
   5   0  -1 1244.26 62.6240  37
   5   0  -1 1171.94 75.7091  27
   5   0  -1 933.038 72.4395  11
   5   0  -1 1270.26 70.1164   5
  -5   0   1 1151.42 77.7207  41
   5   0  -1 1410.33 68.7221  38
   5   0  -1 1273.45 69.3228   1
   5   0  -1 1292.48 93.2084  63
   5   0   0 1.88753 51.1202  35
   5   0   0 29.5737 28.4754  54
   5   0   0-15.5594 37.2068  53
  -5   0   0 44.7014 45.2748  31
   5   0   0 72.2954 37.0523   2
   5   0   0 13.2720 49.9263  48
   5   0   0 49.3335 27.1821   6
  -5   0   0 44.5809 36.2299  46
  -5   0   0 12.0434 45.6339  41
   5   0   0 18.9802 38.1223   5
   5   0   0 38.1192 29.3946  38
   5   0   0 31.1969 28.3807   1
   5   0   0 26.5384 21.9208  37
   5   0   1 13.1581 58.7147  35
   5   0   1 38.8333 33.7211  54
   5   0   1 25.6068 43.3864  53
   5   0   1-13.8459 49.9257  48
   5   0   1 25.5377 42.6392   2
   5   0   1 3.29199 32.2882   6
  -5   0  -1 71.0268 41.1167  46
  -5   0  -1 59.0429 49.8625  41
  -5   0  -1 32.5024 41.2412   9
   5   0   1 13.0438 26.9687   1
   5   0   1 16.9965 26.0720  37
  -5   0  -2 36.4617 33.7164   8
   5   0   2 50.0585 30.9370   4
   5   0   2 50.6937 37.5355  55
   5   0   2 72.0260 39.9383  54
   5   0   2 70.9871 45.4806  53
   5   0   2 80.7574 47.5344  48
   5   0   2 69.1531 36.9232   6
   5   0   2 42.9384 48.6771   2
  -5   0  -2 47.4961 44.3678  46
  -5   0  -2 73.5898 51.4242  41
   5   0   2 49.9550 28.3944   1
  -5   0  -2 45.6753 48.5052   9
   5   0   2 69.6202 36.3415  38
   5   0   2 62.2287 29.9956  37
  -5   0  -3 223.066 42.3326   8
   5   0   3 310.840 75.1513  35
   5   0   3 192.986 50.3074  55
   5   0   3 195.174 40.7885   4
   5   0   3 221.843 48.2730  54
   5   0   3 218.760 53.1042  53
  -5   0  -3 194.396 61.6667  32
   5   0   3 257.330 49.7731  48
   5   0   3 289.493 48.4130   6
   5   0   3 210.595 61.2105   2
  -5   0  -3 253.542 52.4691  46
  -5   0  -3 149.005 60.1396  45
   5   0   3 241.756 41.0850  37
  -5   0  -3 251.862 57.7071  41
   5   0   3 172.957 55.8463   5
  -5   0  -3 170.120 79.4796  40
   5   0   3 197.158 33.1919   1
  -5   0  -3 224.942 57.3619   9
   5   0   3 249.250 43.7494  38
  -5   0  -4 118.086 44.0513   8
   5   0   4 86.3529 65.4841  35
   5   0   4 102.033 40.0813   4
   5   0   4 78.1253 48.9980  55
   5   0   4 111.193 45.7436  54
   5   0   4 118.551 48.4622  53
  -5   0  -4 54.0315 44.8827  32
   5   0   4 75.2861 59.4150   2
  -5   0  -4 62.9848 48.3420  46
  -5   0  -4 96.3164 57.7410  45
  -5   0  -4 104.799 50.2133  41
   5   0   4 120.892 56.1213   5
  -5   0  -4 132.895 74.5410  40
  -5   0  -4 119.813 59.8950   9
   5   0   4 75.1436 36.3226  38
   5   0   4 104.661 36.5379  37
  -5   0  -5 37.9141 44.0358   8
   5   0   5 21.6276 36.3009   4
   5   0   5 24.1242 45.7559  55
   5   0   5 55.3560 40.4129  54
   5   0   5 62.1599 39.5825  53
   5   0   5 60.1791 59.0221   2
  -5   0  -5-2.64782 50.0581  45
  -5   0  -5-1.26368 44.5744  41
   5   0   5 43.4668 50.5234   5
  -5   0  -5 14.3508 61.5648  40
   5   0   5 45.5718 30.5449  38
   5   0   5 16.5709 31.9380  37
  -5   0  -6 267.926 44.2109   8
   5   0   6 327.606 38.6953   4
   5   0   6 228.077 45.2557  55
   5   0   6 271.332 39.6022  54
   5   0   6 220.591 34.5607  53
   5   0   6 291.504 55.8555   2
  -5   0  -6 234.378 42.0458  45
   5   0   6 350.383 46.2630   5
  -5   0  -6 221.560 39.7238  41
  -5   0  -6 262.274 50.1972  40
   5   0   6 252.639 29.5285  38
   5   0   6 296.244 33.9193  37
   5   1 -11 276.143 28.1419  64
   5   1 -11 250.925 24.9507  62
   5   1 -10 606.310 41.1524  60
   5   1 -10 583.770 47.4353  64
   5   1 -10 569.340 44.6211  62
   5   1  -9 630.816 46.1250  60
   5   1  -9 659.779 53.7791  64
   5   1  -9 586.060 51.1354  62
   5   1  -8 1394.06 119.433  61
   5   1  -8 1799.08 86.9361  60
   5   1  -8 1293.74 142.208  59
   5   1  -8 1744.99 92.8123  64
   5   1  -8 1811.90 92.4362  62
   5   1  -7 382.374 89.5569  61
   5   1  -7 396.918 38.6236  60
   5   1  -7 299.227 104.425  59
   5   1  -7 384.294 42.1469  64
   5   1  -7 318.144 59.7622  63
   5   1  -6 411.948 87.8421  61
   5   1  -6 428.743 37.4845  60
   5   1  -6 529.389 104.468  59
   5   1  -6 416.213 40.2481  64
   5   1  -6 365.590 62.3226  63
   5   1  -5 3138.58 140.601   1
   5   1  -5 3263.45 130.574  60
   5   1  -5 3269.09 185.428  61
   5   1  -5 3131.06 134.894  64
   5   1  -5 3014.73 154.636  63
   5   1  -5 3319.88 137.018  62
   5   1  -4 1821.76 132.518  61
   5   1  -4 1820.38 127.886  59
  -5   1   4 1629.02 107.293  30
  -5   1   4 1451.45 113.039  23
   5   1  -4 2030.55 91.7354   1
   5   1  -4 1603.17 87.1841  20
   5   1  -4 1891.96 82.9294  64
   5   1  -4 1618.92 106.815  63
   5   1  -4 1800.37 85.6898  62
   5   1  -3 653.983 86.8738  61
   5   1  -3 567.983 79.9821  59
  -5   1   3 756.514 76.1242  30
   5   1  -3 669.693 46.1897   1
  -5   1   3 667.172 81.0198  23
   5   1  -3 663.718 43.4255  62
   5   1  -3 589.857 41.8807  37
   5   1  -3 664.322 75.3554  63
   5   1  -2 8996.42 415.165  61
   5   1  -2 9914.02 382.442  36
   5   1  -2 9347.20 383.109  54
   5   1  -2 10876.8 384.733   1
  -5   1   2 8838.93 386.594  46
   5   1  -2 10472.7 382.626  37
   5   1  -2 9945.08 383.431  38
   5   1  -2 9004.46 382.753  62
   5   1  -1 7071.44 270.107  36
  -5   1   1 5563.66 278.326  56
   5   1  -1 7366.57 269.790   1
   5   1  -1 6900.98 272.377  54
   5   1  -1 7280.21 270.112  37
   5   1  -1 6985.87 280.145  53
  -5   1   1 6016.46 287.864  31
  -5   1   1 6244.17 275.665  46
   5   1  -1 5935.40 278.852  11
   5   1  -1 6653.34 268.598   5
   5   1   0 4312.83 176.358  36
   5   1   0 4172.40 171.529   1
   5   1   0 4594.28 181.889  54
   5   1   0 3992.86 170.565   6
  -5   1   0 4284.61 186.938  46
   5   1   0 3849.50 173.360  10
   5   1   0 4270.40 177.512   5
  -5   1   0 4160.83 188.927  41
   5   1   0 4469.10 176.914  37
   5   1   1 534.597 44.2873  36
   5   1   1 360.508 49.5533   2
   5   1   1 431.898 34.9353   1
  -5   1  -1 428.179 55.3928  56
   5   1   1 423.714 47.6063  55
   5   1   1 578.308 52.1545  54
   5   1   1 434.302 55.6564  53
   5   1   1 537.365 45.8942   6
  -5   1  -1 540.209 64.1760  46
   5   1   1 485.601 46.6448  10
   5   1   1 516.717 57.4513   5
  -5   1  -1 527.566 67.0188  41
  -5   1  -1 508.033 53.0601   9
   5   1   1 558.755 47.8829  38
   5   1   1 582.478 46.3383  37
   5   1   2 1457.68 80.2725  36
   5   1   2 1281.31 89.5965   2
  -5   1  -2 1159.27 82.9502  56
   5   1   2 1203.81 87.1335  55
   5   1   2 1640.33 90.2072  54
   5   1   2 1515.48 92.6942  53
   5   1   2 1480.48 79.7678   6
  -5   1  -2 1552.62 96.0943  46
  -5   1  -2 1395.74 91.6725  45
   5   1   2 1251.27 89.7560   5
  -5   1  -2 1431.68 97.6201  41
  -5   1  -2 1314.18 84.1767   9
   5   1   2 1510.34 80.9166  38
  -5   1  -2 1156.08 73.7559   8
   5   1   2 1581.47 82.5005  37
   5   1   3 893.495 61.9464  36
   5   1   3 692.668 57.1184   4
   5   1   3 905.405 78.9317   2
   5   1   3 737.059 73.6248  55
   5   1   3 1093.72 75.8039  54
  -5   1  -3 635.053 70.1396  32
   5   1   3 793.188 71.4595  53
   5   1   3 929.522 65.8015   6
  -5   1  -3 849.090 78.1545  46
  -5   1  -3 837.150 75.0015  45
  -5   1  -3 895.883 80.8268  41
  -5   1  -3 839.313 91.4328  40
  -5   1  -3 878.672 75.2305   9
   5   1   3 916.989 61.6083  38
  -5   1  -3 817.813 61.4160   8
   5   1   3 973.205 65.4259  37
   5   1   4 1105.13 72.5351  36
   5   1   4 994.206 70.8963   4
   5   1   4 1150.59 88.9026   2
   5   1   4 1086.16 87.9931  55
   5   1   4 1075.44 80.5516  53
   5   1   4 1262.25 76.7997   6
  -5   1  -4 1389.77 88.1130  46
  -5   1  -4 1195.85 83.8303  45
  -5   1  -4 1077.74 87.0192  41
  -5   1  -4 1119.05 95.1645  40
  -5   1  -4 1181.44 86.2945   9
   5   1   4 1307.22 71.9509  38
  -5   1  -4 1008.99 72.6650   8
   5   1   4 1411.41 79.2267  37
   5   1   5 1557.08 98.5661   2
   5   1   5 1239.87 77.7694   4
   5   1   5 1346.64 96.0908  55
  -5   1  -5 1389.64 90.3032  46
  -5   1  -5 1477.92 86.9835  45
   5   1   5 1639.62 93.5107   5
  -5   1  -5 1602.19 92.4834  41
  -5   1  -5 1266.49 93.6581  40
  -5   1  -5 1631.69 94.8464   9
  -5   1  -5 1251.10 80.7200   8
   5   1   5 1370.75 74.4300  38
   5   1   5 1462.81 81.9517  37
   5   1   6 989.461 71.1631   2
   5   1   6 813.776 68.5478  55
   5   1   6 880.732 60.8057  54
   5   1   6 1073.19 60.9639   6
  -5   1  -6 825.625 58.5692  45
   5   1   6 1001.45 67.4914   5
  -5   1  -6 924.694 63.2344  41
   5   1   6 999.420 59.3217  37
  -5   2  10 241.719 56.7657  57
   5   2 -10 255.965 29.0051  62
   5   2  -9 194.333 33.0796  62
   5   2  -9 158.574 28.8773  60
   5   2  -9 121.058 82.8496  59
   5   2  -9 186.128 37.7254  64
   5   2  -8 304.600 78.1057  61
   5   2  -8 298.529 34.9582  60
   5   2  -8 337.890 104.218  59
   5   2  -8 390.612 44.5958  64
   5   2  -8 400.373 41.7500  62
   5   2  -7 1453.65 130.122  61
   5   2  -7 1348.46 70.5942  60
   5   2  -7 1341.73 137.167  59
   5   2  -7 1405.42 79.1011  64
   5   2  -7 1441.98 79.3841  62
   5   2  -6 170.964 34.4532  62
   5   2  -6 180.487 28.2367  60
   5   2  -6 288.215 100.344  59
   5   2  -6 247.983 91.7012  61
   5   2  -6 212.107 34.8423  64
   5   2  -6 157.827 51.5853  63
   5   2  -5 848.062 45.9159  60
   5   2  -5 809.074 76.2008  63
   5   2  -5 795.712 61.2010   1
   5   2  -5 885.347 54.2947  64
   5   2  -5 855.508 57.2076  62
   5   2  -4 2729.90 160.515  59
   5   2  -4 2604.96 120.419   1
   5   2  -4 2517.80 138.114  63
   5   2  -4 2708.01 110.443  19
   5   2  -4 2734.63 115.838  64
   5   2  -3 333.969 38.6302  36
   5   2  -3 413.540 74.8204  59
   5   2  -3 298.606 28.2953  15
   5   2  -3 291.161 80.3993  61
   5   2  -3 277.581 26.8298  19
   5   2  -3 289.644 30.0187  64
   5   2  -3 282.651 34.2105   1
   5   2  -2 285.431 74.3455  61
   5   2  -2 298.175 36.7443  36
   5   2  -2 265.445 64.5115  59
  -5   2   2 350.747 62.7344  46
  -5   2   2 205.501 67.0360  42
   5   2  -2 311.786 30.9588   1
   5   2  -2 337.144 35.2107  37
   5   2  -1 3693.38 195.881  61
   5   2  -1 4404.86 169.553  36
  -5   2   1 3382.95 185.714  56
   5   2  -1 4358.16 169.265  54
  -5   2   1 3609.54 177.274  46
   5   2  -1 3710.43 159.509   5
   5   2  -1 3235.11 157.549  10
   5   2  -1 3793.66 156.442   1
  -5   2   1 3120.02 179.675  42
   5   2  -1 4304.24 164.913  37
   5   2   0 429.746 69.2381  61
   5   2   0 641.438 51.4409  36
  -5   2   0 474.948 75.8257  56
   5   2   0 416.345 45.2685  55
   5   2   0 619.836 52.5799  54
   5   2   0 480.293 42.9819   6
  -5   2   0 579.169 72.8537  46
   5   2   0 475.467 42.9154  10
   5   2   0 543.469 50.3740   5
  -5   2   0 385.147 68.9357  42
  -5   2   0 471.775 71.7556  41
   5   2   0 485.832 44.6111  38
   5   2   0 573.402 46.1436  37
   5   2   1 40.9662 33.6171  36
  -5   2  -1 57.3599 59.1022  56
   5   2   1 46.2100 36.9339  55
   5   2   1 69.3310 37.3410  54
   5   2   1 28.7434 35.8679   6
  -5   2  -1 32.5681 59.6266  46
  -5   2  -1 76.4503 56.2296  42
   5   2   1 58.0069 37.6463  10
   5   2   1 75.7170 46.1059   5
  -5   2  -1 103.735 42.3802   9
   5   2   1 52.0679 29.4777  38
   5   2   1 61.7772 32.3356  37
   5   2   2 415.297 49.6518  36
  -5   2  -2 250.026 61.5013  56
   5   2   2 287.292 51.6807  55
   5   2   2 361.185 48.0238   6
   5   2   2 291.763 48.6846   2
  -5   2  -2 362.622 68.4493  46
  -5   2  -2 305.933 55.8563  45
   5   2   2 315.237 47.1320  10
  -5   2  -2 319.350 60.4217  42
   5   2   2 335.055 58.2807   5
  -5   2  -2 282.511 54.4355   9
   5   2   2 341.769 39.5773  38
   5   2   3 194.440 43.8059  36
  -5   2  -3 264.698 55.2726  56
   5   2   3 185.937 50.5669  55
   5   2   3 215.609 48.6627   6
   5   2   3 243.645 52.3585   2
  -5   2  -3 257.112 65.7142  46
  -5   2  -3 180.605 50.4808  45
  -5   2  -3 90.3240 47.6628  42
   5   2   3 214.514 60.5919   5
  -5   2  -3 241.134 57.5420   9
   5   2   3 203.559 33.8677  38
   5   2   4 218.350 41.5675  36
  -5   2  -4 190.270 46.1019  56
   5   2   4 190.837 53.1140  55
   5   2   4 193.068 43.5045  54
   5   2   4 268.827 49.2386   6
   5   2   4 211.733 53.6809   2
  -5   2  -4 178.982 56.7382  46
  -5   2  -4 184.831 47.1530  45
   5   2   4 146.661 43.7956  10
  -5   2  -4 106.891 45.2015  42
   5   2   4 260.511 61.0561   5
  -5   2  -4 169.570 60.6995  40
  -5   2  -4 182.040 60.4682   9
   5   2   4 175.113 29.7671  38
   5   2   5 445.698 45.6841  36
   5   2   5 484.717 44.7775  37
   5   2   5 522.073 58.8907   2
   5   2   5 312.861 54.1967  58
   5   2   5 454.109 58.0235  55
   5   2   5 516.501 48.6854  54
  -5   2  -5 444.632 56.2285  46
  -5   2  -5 371.381 45.8658  45
   5   2   5 508.541 64.7252   5
  -5   2  -5 528.455 62.4583   9
  -5   2  -5 495.721 57.0252  40
   5   2   6 53.4220 34.4833  55
   5   2   6 62.4018 24.2402  54
   5   2   6 46.5979 31.7843   6
   5   2   6 25.7105 36.6267   2
  -5   2  -6 78.8465 32.1271  46
  -5   2  -6 124.127 43.7363  22
  -5   2  -6 57.8168 43.2998   9
   5   2   6 39.9876 21.5568  37
   5   3 -10 910.028 50.0854  64
   5   3  -9 1002.65 106.171  59
  -5   3   9 895.454 86.2741  57
  -5   3   9 1367.56 132.185  33
   5   3  -9 1522.71 67.7721  62
   5   3  -8 1267.93 113.704  61
   5   3  -8 1325.77 126.035  59
  -5   3   8 1112.49 97.3641  57
  -5   3   8 1296.68 143.367  33
   5   3  -8 1622.41 77.3775  62
   5   3  -7 935.083 114.213  61
   5   3  -7 646.607 115.738  59
  -5   3   7 895.205 127.821  33
   5   3  -7 899.316 60.5616  64
   5   3  -7 917.319 59.7366  62
   5   3  -6 1270.96 132.577  61
   5   3  -6 1060.78 132.662  59
  -5   3   6 1190.99 127.636  33
   5   3  -6 1253.45 63.8703  19
   5   3  -6 1213.15 73.3187  64
   5   3  -6 1225.56 73.7227  62
   5   3  -5 1492.98 139.689  61
   5   3  -5 1482.46 69.4465  19
   5   3  -5 1349.27 76.1484  64
   5   3  -5 1278.43 78.2625  62
   5   3  -4 2789.72 168.500  59
   5   3  -4 2576.42 108.167  15
  -5   3   4 2602.29 162.520  43
   5   3  -4 2637.02 111.673  19
   5   3  -4 2479.30 117.015  64
   5   3  -4 2385.13 134.795  63
   5   3  -3 854.921 105.653  61
   5   3  -3 640.740 56.7880  36
   5   3  -3 579.088 61.6903  57
   5   3  -3 648.980 93.4326  59
  -5   3   3 569.965 92.7847  43
  -5   3   3 707.835 97.7670  42
   5   3  -3 650.190 43.2193  19
   5   3  -2 966.042 103.613  61
   5   3  -2 884.682 63.7789  36
   5   3  -2 936.465 93.0834  59
   5   3  -2 821.381 66.2826  57
  -5   3   2 828.287 102.404  56
   5   3  -2 1043.65 58.2632  15
   5   3  -2 688.931 48.2736  10
  -5   3   2 548.905 84.3055  43
  -5   3   2 818.929 99.2065  42
  -5   3   2 781.764 66.7873  22
   5   3  -1 514.386 51.8595  36
  -5   3   1 316.749 87.4778  56
   5   3  -1 418.684 44.8217  55
  -5   3   1 439.931 78.1311  46
   5   3  -1 399.429 40.2276  10
  -5   3   1 448.803 86.7808  42
   5   3  -1 384.736 78.1363  61
   5   3   0 550.938 73.8925  61
   5   3   0 745.604 60.1846  36
  -5   3   0 636.195 92.0148  56
   5   3   0 582.571 55.5573  55
   5   3   0 638.745 49.2627   6
  -5   3   0 642.484 83.6927  46
   5   3   0 515.634 49.4801   5
   5   3   0 524.973 49.2360  10
  -5   3   0 632.811 89.1914  42
  -5   3   0 645.750 80.8992  41
   5   3   1 1456.91 88.1740  36
  -5   3  -1 1233.55 107.239  56
   5   3   1 1311.24 86.1144  55
   5   3   1 1327.63 75.0736   6
  -5   3  -1 1220.08 101.515  46
   5   3   1 1432.35 77.9104  37
   5   3   1 1176.76 75.6639  10
   5   3   1 1305.29 79.1306   5
  -5   3  -1 1050.99 102.062  42
  -5   3  -1 1256.97 101.367  41
  -5   3  -1 1011.77 74.6887   9
   5   3   2 268.815 47.9260  36
  -5   3  -2 145.689 66.8582  56
   5   3   2 324.696 54.6328  55
   5   3   2 299.780 47.9721  54
   5   3   2 269.776 47.5287   6
  -5   3  -2 272.373 72.8005  46
  -5   3  -2 219.311 47.7084  45
  -5   3  -2 137.643 62.9985  42
   5   3   2 230.921 46.2826  10
  -5   3  -2 181.166 67.8032  41
   5   3   2 337.901 54.3602   5
  -5   3  -2 238.076 52.6509   9
   5   3   2 256.198 40.2474  37
   5   3   3 1.64166 38.9903  36
   5   3   3-21.6658 41.6296  58
  -5   3  -3-3.72909 55.0685  56
   5   3   3-8.07391 43.6814  55
   5   3   3 1.55499 39.4884  54
   5   3   3-10.3112 42.6417   6
  -5   3  -3 14.9205 62.1725  46
  -5   3  -3 5.46546 36.8612  45
  -5   3  -3 59.7392 52.6523  42
  -5   3  -3 1.65354 58.6205  41
   5   3   3 48.8718 52.4706   5
  -5   3  -3 28.8287 51.9411   9
   5   3   3 25.7940 32.1771  37
   5   3   4 687.366 60.5704  36
  -5   3  -4 593.282 66.2511  56
   5   3   4 718.223 70.3468  55
   5   3   4 694.132 58.3506  54
   5   3   4 774.670 60.9363   6
  -5   3  -4 627.280 70.9912  46
   5   3   4 733.736 58.3418  10
   5   3   4 732.781 68.7726   5
  -5   3  -4 588.948 63.5887  42
  -5   3  -4 911.021 82.6220  22
  -5   3  -4 660.848 68.0011  41
  -5   3  -4 709.670 67.6840   9
  -5   3  -4 715.001 65.9015  40
   5   3   4 731.645 53.5616  37
   5   3   5 2854.03 126.668  36
  -5   3  -5 2054.14 119.107  56
   5   3   5 2427.71 130.818  55
   5   3   5 2405.42 120.047  54
   5   3   5 2785.76 119.545   6
  -5   3  -5 2677.37 127.140  46
   5   3   5 2595.08 118.220  37
   5   3   5 2890.41 125.705   5
  -5   3  -5 3017.31 128.924  22
  -5   3  -5 2375.11 124.822  41
  -5   3  -5 2832.35 125.332   9
  -5   3  -6 486.470 38.8399  46
   5   3   6 525.035 43.0909   5
  -5   3  -6 494.788 43.9292   9
   5   4  -9 82.2716 58.2650  59
  -5   4   9 255.875 91.7139  43
   5   4  -8-29.5626 79.3277  59
  -5   4   8 15.1759 94.2064  33
   5   4  -8 40.3186 64.0868  61
  -5   4   8 8.61864 108.425  43
   5   4  -8 14.5396 26.6123  64
   5   4  -7 539.280 96.7430  61
   5   4  -7 337.436 101.874  59
  -5   4   7 268.287 110.281  33
  -5   4   7 496.273 130.182  43
   5   4  -7 457.088 34.1692  19
   5   4  -6 1917.03 153.204  61
   5   4  -6 1525.40 144.428  59
  -5   4   6 1542.26 143.057  33
  -5   4   6 1401.18 159.743  43
   5   4  -6 1654.42 80.5029  19
   5   4  -5 497.369 116.347  61
   5   4  -5 508.453 112.675  59
   5   4  -5 436.222 28.3059  15
  -5   4   5 397.927 101.872  33
  -5   4   5 478.172 119.487  43
   5   4  -5 530.540 40.7367  19
   5   4  -4 117.539 90.8868  59
   5   4  -4 69.3032 53.0979  57
   5   4  -4 96.5810 19.4691  15
  -5   4   4 201.969 105.417  43
  -5   4   4 141.329 98.5786  42
   5   4  -4 116.920 27.7427  19
   5   4  -4 115.496 54.7762  63
   5   4  -3 1253.95 129.916  61
   5   4  -3 1243.51 79.7504  36
   5   4  -3 1031.03 86.6105  57
  -5   4   3 1014.74 127.801  56
   5   4  -3 1046.77 61.2118  15
  -5   4   3 768.308 114.205  43
  -5   4   3 1033.22 121.798  42
   5   4  -3 1142.51 119.915  59
   5   4  -3 1120.60 63.8575  19
   5   4  -2 755.351 104.434  61
   5   4  -2 786.500 62.7322  36
   5   4  -2 711.993 93.9774  59
   5   4  -2 649.817 68.1293  57
  -5   4   2 692.415 113.744  56
   5   4  -2 650.938 55.9462  55
  -5   4   2 698.443 94.9002  46
   5   4  -2 468.286 42.7460  10
  -5   4   2 434.146 95.8269  43
  -5   4   2 768.444 114.416  42
  -5   4   2 643.372 67.5706  22
   5   4  -1 546.347 87.0460  61
   5   4  -1 578.129 59.9001  36
   5   4  -1 412.497 71.0145  59
   5   4  -1 392.550 59.0774  57
  -5   4   1 510.368 107.381  56
   5   4  -1 504.793 49.4129  15
   5   4  -1 507.373 55.0485  55
  -5   4   1 486.010 89.6254  46
   5   4  -1 395.801 41.3147  10
  -5   4   1 236.673 81.0944  43
  -5   4   1 526.840 99.9114  42
  -5   4   1 467.772 71.1090  22
  -5   4   1 431.115 77.4796  41
   5   4  -1 493.768 48.8883  37
   5   4   0 398.559 55.8185  36
   5   4   0 377.870 55.4265  57
  -5   4   0 389.577 96.7477  56
   5   4   0 311.312 50.0308  55
   5   4   0 336.169 43.0455   6
  -5   4   0 245.216 82.4073  46
   5   4   0 291.145 41.0693  10
  -5   4   0 319.234 88.2549  42
  -5   4   0 405.911 75.5803  22
  -5   4   0 341.389 74.3136  41
   5   4   0 328.419 65.9578  61
   5   4   0 314.052 42.5047  37
   5   4   1 488.122 57.8261  36
  -5   4  -1 557.112 95.0551  56
   5   4   1 494.477 58.6365  55
   5   4   1 513.969 51.8988   6
  -5   4  -1 384.911 79.8510  46
  -5   4  -1 373.623 48.0383  45
   5   4   1 377.566 50.2481  10
  -5   4  -1 374.388 87.4751  42
  -5   4  -1 492.222 82.4885  22
  -5   4  -1 429.152 71.0958  41
   5   4   1 452.691 45.9242  37
   5   4   2 197.617 47.0198  36
  -5   4  -2 193.422 66.9042  56
   5   4   2 161.211 47.4718  55
   5   4   2 155.851 44.2138   6
  -5   4  -2 210.532 67.6318  42
   5   4   2 130.731 41.9761  10
  -5   4  -2 86.2176 57.6471  41
   5   4   2 122.988 41.9867   5
  -5   4  -2 131.324 47.3984   9
   5   4   2 168.052 35.2417  37
   5   4   3 36.5413 37.7649  36
  -5   4  -3-28.6677 57.1292  56
   5   4   3 45.6607 43.2903  55
   5   4   3 5.43808 33.2123  54
   5   4   3 59.8047 41.1342   6
  -5   4  -3 8.15137 51.0981  42
   5   4   3 47.3177 41.4321  10
  -5   4  -3 85.6418 49.2266  41
   5   4   3 49.1287 41.8631   5
  -5   4  -3 2.94597 46.5465   9
   5   4   3 90.4473 29.3535  37
   5   4   4 124.255 34.3843  36
  -5   4  -4 80.6803 43.1146  56
   5   4   4 89.1555 38.1835  55
   5   4   4 88.2105 37.7099   6
   5   4   4 56.9624 35.8624  10
  -5   4  -4 57.4637 42.1344  42
  -5   4  -4 93.8873 64.4878  22
  -5   4  -4 44.8955 38.6275  41
   5   4   4 82.8186 40.6269   5
  -5   4  -4 23.6678 43.1399   9
   5   4   4 86.6568 24.2161  37
   5   4   5 359.632 33.5978  36
   5   4   5 221.590 36.2082  55
   5   4   5 293.034 33.7750   6
   5   4   5 353.713 37.7446   5
  -5   4  -5 349.456 50.9138  22
  -5   4  -5 230.964 33.3574  41
   5   5  -8 539.485 71.1121  59
   5   5  -8 303.946 55.9952  61
  -5   5   8 525.832 92.0043  43
  -5   5   8 555.029 80.6873  42
   5   5  -7 979.852 103.948  61
   5   5  -7 1027.65 107.415  59
  -5   5   7 1009.79 125.514  43
  -5   5   7 1039.73 113.106  42
   5   5  -7 1219.17 57.7403  19
   5   5  -6 1695.68 142.425  61
  -5   5   6 1470.80 149.687  43
  -5   5   6 1451.93 139.794  42
   5   5  -6 1774.16 82.1490  19
  -5   5   5 548.414 111.775  56
   5   5  -5 636.021 36.1135  15
  -5   5   5 546.706 121.397  43
  -5   5   5 740.174 117.775  42
   5   5  -5 720.569 46.9512  19
   5   5  -4 345.025 104.169  61
   5   5  -4 372.969 100.902  59
   5   5  -4 303.855 26.2221  15
  -5   5   4 319.907 111.271  43
  -5   5   4 382.568 108.257  42
   5   5  -4 389.318 37.2670  19
   5   5  -3 1897.88 153.396  61
   5   5  -3 1862.65 141.278  59
   5   5  -3 1790.60 115.250  57
   5   5  -3 1731.36 83.4723  15
  -5   5   3 1713.96 126.740  46
  -5   5   3 1740.17 149.936  42
   5   5  -3 1973.43 92.6932  19
   5   5  -2 1083.56 114.672  61
   5   5  -2 1254.47 80.8888  36
   5   5  -2 1066.36 106.930  59
   5   5  -2 1033.02 85.5097  57
   5   5  -2 1207.40 65.3268  15
  -5   5   2 1206.53 108.675  46
  -5   5   2 1116.90 127.065  42
  -5   5   2 964.407 80.8114  22
  -5   5   2 988.559 90.1108  41
   5   5  -1 1560.88 116.958  61
   5   5  -1 1839.57 97.3054  36
   5   5  -1 1116.95 102.130  59
   5   5  -1 1423.30 100.293  57
   5   5  -1 1605.12 93.0868  55
   5   5  -1 1419.05 75.6206  10
  -5   5   1 785.343 106.605  43
  -5   5   1 1484.86 129.168  42
  -5   5   1 1659.27 100.709  22
  -5   5   1 1438.91 102.315  41
   5   5   0 1524.75 106.149  57
  -5   5   0 1809.67 138.527  56
   5   5   0 2010.61 108.936  55
   5   5   0 1737.32 92.3959  10
  -5   5   0 1649.47 131.737  42
  -5   5   0 1908.62 116.030  22
  -5   5   0 1901.27 113.026  41
   5   5   1 58.5243 40.0493  36
  -5   5  -1 67.7864 70.1016  56
   5   5   1 1.77431 40.4597  55
   5   5   1 67.1810 34.3147  15
   5   5   1 36.9656 34.6777   6
  -5   5  -1 78.9383 69.5461  42
   5   5   1 22.6303 35.7429  10
  -5   5  -1 52.4280 75.4250  22
  -5   5  -1 46.3813 48.4817  41
   5   5   2 250.340 43.3250  36
  -5   5  -2 224.601 61.1583  56
   5   5   2 244.445 46.1909  55
   5   5   2 272.633 40.1806   6
  -5   5  -2 155.864 59.2316  42
   5   5   2 183.016 39.3678  10
  -5   5  -2 258.676 74.4770  22
  -5   5  -2 205.184 46.4074  41
   5   5   3 779.525 56.2791  36
  -5   5  -3 630.332 64.1147  56
   5   5   3 734.248 51.6933  15
   5   5   3 731.203 59.1829  55
   5   5   3 830.057 51.0011   6
  -5   5  -3 774.706 61.9704  46
   5   5   3 683.765 51.1529  10
  -5   5  -3 602.531 62.1802  42
  -5   5  -3 589.394 51.5776  41
   5   5   4 655.166 46.6529  36
   5   5   4 602.103 42.2163   6
  -5   5  -4 694.311 47.2782  46
   5   6  -6 295.507 71.2964  61
  -5   6   6 268.077 66.0070  56
  -5   6   6 296.472 82.3249  43
  -5   6   6 430.022 74.7004  42
   5   6  -5 345.197 79.9413  59
  -5   6   5 382.162 77.5136  56
  -5   6   5 375.901 64.9543  46
  -5   6   5 256.529 92.1305  43
  -5   6   5 391.842 35.5861  10
  -5   6   5 370.226 84.5044  42
   5   6  -4 53.5278 78.5275  61
   5   6  -4 31.4325 74.6839  59
  -5   6   4 94.5844 76.5517  56
   5   6  -4 58.5933 13.4047  15
  -5   6   4 103.563 85.6222  43
  -5   6   4 104.465 81.8876  42
  -5   6   4-8.35733 43.5421  41
   5   6  -3 223.874 79.4442  61
   5   6  -3 253.170 78.4755  59
   5   6  -3 161.162 46.5262  57
  -5   6   3 137.583 76.3431  56
   5   6  -3 195.838 20.6541  15
  -5   6   3 202.095 84.0323  43
  -5   6   3 157.993 84.3779  42
  -5   6   3 220.833 49.2755  41
   5   6  -2 564.332 80.7593  61
   5   6  -2 602.003 78.8090  59
   5   6  -2 538.205 60.3567  57
  -5   6   2 577.116 90.2902  56
   5   6  -2 581.272 36.9740  15
  -5   6   2 281.215 83.5811  43
  -5   6   2 565.438 59.5720  22
  -5   6   2 477.802 89.5449  42
  -5   6   2 527.945 55.2497  41
   5   6  -1 7.11927 48.6975  61
   5   6  -1 69.1683 48.2887  59
   5   6  -1 43.4390 37.6198  57
   5   6  -1 33.6629 17.8739  15
  -5   6   1 35.2912 65.0490  43
  -5   6   1-8.61974 68.3928  42
  -5   6   1 52.0356 57.5499  22
   5   6   0 35.0714 21.2824  15
  -5   6   0 37.0520 51.1665  46
  -5   6   0 83.3577 62.1459  42
   5   6   0 19.5833 25.1229  10
  -5   6   0 109.311 61.1453  22
   5   6   1 38.4320 29.8014  55
   5   6   1 28.6373 18.5169  15
  -5   6  -1 1.18334 41.4540  46
  -5   6  -1-11.2975 52.0107  42
   5   6   1 1.19282 25.4070  10
  -5   6  -1 21.8326 57.1999  22
  -5   6  -2 195.369 41.8528  56
  -5   6  -2 291.960 37.5371  46
   5   6   2 187.571 28.7811  10
  -5   6  -2 245.661 40.3374  42
   6  -6  -4 225.743 38.3332  60
  -6  -6   4 138.323 75.3575  47
   6  -6  -4 206.132 24.5680  20
   6  -6  -3 369.718 43.2032  60
  -6  -6   3 549.110 107.495  34
   6  -6  -3 516.467 43.2550  14
  -6  -6   3 435.626 71.2287  39
  -6  -6   2 489.950 96.5869  34
   6  -6  -2 333.616 37.1327  14
  -6  -6   2 280.442 68.2441  49
  -6  -6   2 266.190 80.4882  47
  -6  -6   2 298.175 73.7217  39
  -6  -6   2 366.634 38.1286   8
  -6  -6   1 58.3582 32.2579   8
   6  -6  -1 46.7774 32.5077   4
  -6  -6   1 57.8874 56.9888  49
  -6  -6   1 132.408 67.4702  47
  -6  -6   1 164.229 62.2803  39
   6  -5  -7 101.619 33.4041  60
   6  -5  -6 737.887 60.0713  60
  -6  -5   6 897.323 132.616  34
   6  -5  -6 695.968 54.3731  14
  -6  -5   6 741.503 89.8694  47
   6  -5  -6 868.597 63.6477  20
   6  -5  -5 149.639 47.5918  60
  -6  -5   5 31.2379 215.511  34
   6  -5  -5 240.005 42.8927  14
  -6  -5   5 183.904 96.7118  47
   6  -5  -5 265.971 49.9333  20
   6  -5  -4 6540.88 296.114  60
   6  -5  -4 7810.05 301.954  14
  -6  -5   4 7017.58 320.722  49
  -6  -5   4 6737.80 344.506  47
  -6  -5   4 6644.51 324.439  39
   6  -5  -4 7727.88 296.865  20
   6  -5  -3 1426.42 155.109  34
   6  -5  -3 1366.39 79.3752   1
  -6  -5   3 1562.79 132.362  49
  -6  -5   3 1519.41 139.468  39
   6  -5  -3 1772.03 91.2891   4
   6  -5  -3 1586.07 87.0467  20
  -6  -5   3 1582.80 82.4588   8
  -6  -5   2 271.187 45.6531   8
   6  -5  -2 286.267 48.3015   4
   6  -5  -2 198.891 69.0498  52
   6  -5  -2 254.064 46.1224  14
   6  -5  -2 183.159 36.4108   1
  -6  -5   2 138.115 89.3400  49
   6  -5  -2 220.554 54.7373  48
  -6  -5   2 212.516 120.144  47
  -6  -5   2 178.320 97.4959  39
   6  -5  -2 207.771 36.6917  20
  -6  -5   1 141.811 44.1308   8
   6  -5  -1 131.114 44.1077   4
  -6  -5   1 218.160 253.098  34
   6  -5  -1 36.6954 113.513  34
   6  -5  -1 103.002 34.9398   1
   6  -5  -1 146.813 69.4348  52
  -6  -5   1 110.156 53.3698  32
   6  -5  -1 82.3149 39.9523  14
  -6  -5   1 34.2628 84.1232  49
   6  -5  -1 78.5771 53.5777  48
  -6  -5   1 133.652 103.961  47
  -6  -5   0 1113.07 85.3683  32
   6  -5   0 1032.01 99.5539  52
   6  -5   0 1265.00 95.9636  48
   6  -5   0 1272.01 81.1759   2
  -6  -5   0 1283.56 119.051  39
   6  -5   0 1183.60 74.2559   4
   6  -5   0 1120.44 72.6613   1
  -6  -5   0 1192.36 72.0305   8
   6  -5   1 66.2272 32.0843   1
  -6  -5  -1 67.2645 38.3986   8
   6  -5   1 73.1622 37.3556   4
   6  -5   1 46.3923 42.6630   2
   6  -5   1 40.7147 60.5859  52
  -6  -5  -1 43.2125 51.6659  32
  -6  -5  -1 5.56213 67.5507  49
   6  -5   1 20.6863 49.4813  48
  -6  -5  -1 30.2904 67.6039  39
   6  -5   2 44.8078 26.2811   1
  -6  -5  -2 2.41808 32.7640   8
   6  -5   2 61.6114 31.6329   4
   6  -5   2 131.210 35.4514   2
  -6  -5  -2 85.9923 44.0157  32
  -6  -5  -2 80.0920 53.3210  49
   6  -4  -8 1223.57 68.4388  60
   6  -4  -8 1127.47 71.5987  20
   6  -4  -7 1155.32 73.1622  60
  -6  -4   7 972.931 136.890  34
   6  -4  -7 1085.63 67.3271  14
   6  -4  -7 1141.14 81.3895  20
   6  -4  -6 763.866 67.2152  60
   6  -4  -6 746.881 61.5892  14
  -6  -4   6 783.479 109.796  47
   6  -4  -5 180.232 50.4783  60
   6  -4  -5 111.838 28.7774   1
   6  -4  -5 194.208 46.0825  14
  -6  -4   5 184.800 90.8839  39
   6  -4  -5 145.309 52.5637  20
   6  -4  -4 29.1712 43.8824  60
   6  -4  -4 9.52444 44.3555  14
  -6  -4   4 141.840 74.0960  49
   6  -4  -4 48.6192 31.4676   1
  -6  -4   4 81.8981 124.291  39
   6  -4  -4 68.4945 48.2549  20
   6  -4  -3 436.181 48.9620   1
   6  -4  -3 334.116 143.407  34
  -6  -4   3 333.879 62.5159  32
   6  -4  -3 333.020 73.2599  52
   6  -4  -3 434.353 60.3736  14
   6  -4  -3 336.419 62.0061  48
  -6  -4   3 438.357 184.312  39
   6  -4  -3 507.061 55.7869  20
   6  -4  -3 474.089 51.9535   4
   6  -4  -3 306.986 250.064  63
  -6  -4   2 943.637 89.1446  32
   6  -4  -2 942.342 101.950  52
   6  -4  -2 1026.05 94.5284  48
  -6  -4   2 837.307 280.388  39
   6  -4  -2 1021.27 71.8854  20
   6  -4  -2 1155.06 73.9321   4
  -6  -4   2 963.946 66.0784   8
   6  -4  -2 1120.98 76.7369   1
   6  -4  -1 1247.28 161.627  34
  -6  -4   1 1315.11 102.606  32
   6  -4  -1 1172.99 116.655  52
   6  -4  -1 1149.59 84.4739  14
   6  -4  -1 1289.26 108.022  48
   6  -4  -1 1080.73 71.4577  20
   6  -4  -1 1100.89 76.8999   4
   6  -4  -1 1289.12 85.8671   1
  -6  -4   1 1182.90 73.4572   8
   6  -4   0 1325.71 105.926  35
   6  -4   0 1295.39 87.7160  53
  -6  -4   0 1661.24 115.623  32
   6  -4   0 1583.54 130.587  52
   6  -4   0 1433.08 96.0327  14
   6  -4   0 1551.23 122.493  48
   6  -4   0 1620.62 102.787   2
  -6  -4   0 1366.08 184.510  39
   6  -4   0 1807.44 102.752   1
   6  -4   0 1573.93 90.3993   4
  -6  -4   0 1653.04 87.6446   8
   6  -4   1 651.399 82.1516  35
   6  -4   1 645.761 61.8186  53
  -6  -4  -1 802.959 88.3161  32
   6  -4   1 783.465 90.8053  48
  -6  -4  -1 509.910 103.082  47
  -6  -4  -1 802.056 75.2403  40
   6  -4   1 850.544 73.8386   2
   6  -4   1 703.594 65.8647   1
  -6  -4  -1 542.918 105.785  39
   6  -4   1 617.449 47.6710  38
   6  -4   1 730.094 61.1003   4
  -6  -4  -1 806.732 61.0441   8
   6  -4   2 645.615 76.9771  35
   6  -4   2 615.118 58.8291  53
  -6  -4  -2 740.838 79.2624  32
   6  -4   2 592.656 83.5809  52
  -6  -4  -2 425.959 90.1281  49
   6  -4   2 607.452 74.5010  48
  -6  -4  -2 731.664 72.5745  40
   6  -4   2 726.896 65.9545   2
  -6  -4  -2 748.379 71.7841   9
  -6  -4  -2 544.723 82.1518  39
   6  -4   2 590.001 45.9125  38
   6  -4   2 678.522 56.5494   4
  -6  -4  -2 687.666 56.0508   8
  -6  -4  -3 81.2929 36.9417   8
   6  -4   3 5.39885 32.5954   4
   6  -4   3 16.7179 45.5698  35
   6  -4   3 15.1434 40.4286   2
   6  -4   3 14.4041 30.4957  53
  -6  -4  -3-4.18279 53.1822  49
   6  -4   3 57.8189 40.9667  48
  -6  -4  -3 82.7029 48.2692  40
   6  -4   3 26.0983 22.3065  38
   6  -4   3 33.0699 28.5524   1
   6  -3  -9 754.070 49.4215  60
   6  -3  -9 611.660 49.3754  20
   6  -3  -8 779.360 58.4855  60
   6  -3  -8 671.231 66.5418  20
   6  -3  -7 414.376 52.6222  60
   6  -3  -7 337.017 37.4136   1
   6  -3  -7 347.125 41.6399  14
   6  -3  -7 431.717 59.2949  20
   6  -3  -6 955.150 74.5624  60
   6  -3  -6 963.574 67.6269  14
   6  -3  -6 983.768 62.2318   1
   6  -3  -6 917.692 74.7750  20
   6  -3  -5 2687.89 128.418  14
   6  -3  -5 2564.05 122.665   1
   6  -3  -5 2964.29 226.221  63
   6  -3  -4 6385.75 250.897   1
  -6  -3   4 5625.26 254.529  32
   6  -3  -4 5899.54 252.790  14
   6  -3  -4 6081.23 244.427   4
   6  -3  -4 6161.03 253.601  20
   6  -3  -4 6307.40 282.456  63
   6  -3  -3 6916.77 272.372   1
  -6  -3   3 6562.40 281.432  32
   6  -3  -3 6345.19 273.234  14
   6  -3  -3 6321.90 284.108  48
   6  -3  -3 6473.41 273.001   2
   6  -3  -3 6511.18 271.507  20
   6  -3  -3 6121.63 261.985   4
   6  -3  -3 6735.46 293.495  63
   6  -3  -2 46.3683 44.4519   1
   6  -3  -2 45.5922 35.6963   4
   6  -3  -2 45.2935 53.6843   2
  -6  -3   2 73.6876 72.2988  32
   6  -3  -2 79.5933 80.6240  52
   6  -3  -2 14.4913 49.5365  14
   6  -3  -2 38.0287 61.2100  48
   6  -3  -2 31.1983 55.2858   5
   6  -3  -2 50.2298 42.2684  20
   6  -3  -2 8.30719 65.0320  63
   6  -3  -1 2828.79 161.431  35
  -6  -3   1 3343.60 170.898  32
   6  -3  -1 2859.54 146.247  53
   6  -3  -1 3465.36 186.567  52
   6  -3  -1 3861.55 186.004  48
   6  -3  -1 2965.17 149.208   5
  -6  -3   1 2931.38 136.248   8
  -6  -3   1 2989.53 154.929  40
   6  -3  -1 3450.56 156.874   2
   6  -3  -1 2987.54 147.036  20
   6  -3  -1 3778.52 162.409   1
   6  -3  -1 2797.62 135.259  38
   6  -3  -1 2922.37 141.940   4
  -6  -3   0 134.999 42.7787   8
   6  -3   0 178.812 66.6113  35
   6  -3   0 130.385 41.1113   4
   6  -3   0 167.305 46.2886  53
  -6  -3   0 180.238 82.2189  32
   6  -3   0 163.422 91.3413  52
   6  -3   0 114.488 51.7126  14
   6  -3   0 204.771 77.5533  48
  -6  -3   0 141.701 45.8285  45
   6  -3   0 181.016 54.7916   5
  -6  -3   0 215.971 70.9554  40
   6  -3   0 118.905 37.9660  20
   6  -3   0 133.404 34.0407  38
  -6  -3  -1 363.561 48.5588   8
   6  -3   1 229.249 73.7103  35
   6  -3   1 245.279 45.5172   4
   6  -3   1 326.177 56.2538  53
  -6  -3  -1 260.677 52.4813  45
   6  -3   1 300.984 52.6671   5
  -6  -3  -1 297.652 77.6455  40
   6  -3   1 267.546 57.2626   1
   6  -3   1 343.494 43.1919  38
  -6  -3  -2 161.632 45.2930   8
   6  -3   2 159.231 70.9374  35
   6  -3   2 124.254 41.7878   4
   6  -3   2 125.372 47.7186  53
   6  -3   2 102.189 80.5816  52
   6  -3   2 212.249 67.8678  48
  -6  -3  -2 198.655 50.7374  45
   6  -3   2 195.467 45.0483   5
   6  -3   2 213.688 49.5999   1
  -6  -3  -2 152.512 73.2273  40
  -6  -3  -2 126.097 82.9184  39
  -6  -3  -2 179.893 63.4564   9
   6  -3   2 141.101 37.5197  38
   6  -3   3 969.405 91.8440  35
   6  -3   3 963.078 74.6319  53
  -6  -3  -3 931.415 82.9902  32
   6  -3   3 901.996 79.4613  48
   6  -3   3 969.335 58.4593   5
  -6  -3  -3 745.256 65.9901  45
  -6  -3  -3 925.932 87.4663  40
   6  -3   3 742.435 65.2918   1
  -6  -3  -3 1074.99 78.8311   9
   6  -3   3 942.527 77.8745   2
   6  -3   3 901.215 62.3076  38
  -6  -3  -3 914.396 62.8772   8
   6  -3   3 926.153 64.3578   4
  -6  -3  -4 53.9072 35.0157   8
   6  -3   4 41.0411 46.7092  35
   6  -3   4 1.72034 31.8226   4
   6  -3   4 61.3253 33.1677  53
   6  -3   4 51.5671 42.7944   2
  -6  -3  -4 157.745 45.3205  32
   6  -3   4 41.9473 34.9487  48
  -6  -3  -4 102.869 35.0071  45
  -6  -3  -4 73.0734 48.3470  40
   6  -3   4 79.8522 26.4881  38
   6  -3   4 50.6873 26.2590   1
   6  -2 -10 264.387 27.7031  60
   6  -2 -10 196.396 26.6188  62
   6  -2  -9 771.957 52.4867  60
   6  -2  -9 748.436 49.5522  62
   6  -2  -8 458.144 46.3573  60
   6  -2  -8 347.044 52.3570  20
   6  -2  -8 655.647 716.819  63
   6  -2  -8 347.143 38.5220  62
   6  -2  -7 1179.91 73.5462  60
   6  -2  -7 926.383 67.0977   1
   6  -2  -7 1332.04 292.845  63
   6  -2  -7 1164.93 75.2885  20
   6  -2  -7 1188.71 65.3140  62
   6  -2  -6 403.174 51.3186  60
   6  -2  -6 384.801 44.0893  14
   6  -2  -6 560.025 49.6890   1
   6  -2  -6 463.396 54.6385  20
   6  -2  -6 456.618 38.6948  62
   6  -2  -5 150.627 220.524  61
   6  -2  -5 249.206 44.5258  60
   6  -2  -5 245.038 42.5152  14
   6  -2  -5 306.911 50.3864  20
   6  -2  -5 272.523 42.3733   1
   6  -2  -5 274.256 87.2740  63
   6  -2  -5 255.851 30.1624  62
   6  -2  -4 126.394 35.5226  60
   6  -2  -4 121.202 46.2560   2
   6  -2  -4 77.1395 41.0724  14
   6  -2  -4 183.788 40.6217   1
   6  -2  -4 188.818 79.8355  63
   6  -2  -3 1318.40 77.9669   1
   6  -2  -3 1049.06 75.7202  14
   6  -2  -3 1304.49 93.9652  48
   6  -2  -3 1185.58 77.5073   2
   6  -2  -3 1209.85 77.3344  20
   6  -2  -3 1211.09 102.946  63
   6  -2  -2 828.362 74.0811  35
   6  -2  -2 863.063 66.4686  53
   6  -2  -2 1107.88 106.906  52
   6  -2  -2 1029.34 75.3534  14
   6  -2  -2 1274.54 98.9087  48
  -6  -2   2 1064.49 75.8173  45
   6  -2  -2 1018.27 76.6975   5
  -6  -2   2 1067.45 83.5670  40
   6  -2  -2 1077.61 77.3127   2
   6  -2  -2 1155.60 97.0965  63
   6  -2  -2 1045.44 76.2297  20
   6  -2  -2 922.518 59.8574   4
   6  -2  -2 998.748 59.2694  38
   6  -2  -1 598.567 74.8922  35
   6  -2  -1 627.988 59.0561  53
   6  -2  -1 649.076 100.942  52
   6  -2  -1 501.970 62.5426  14
   6  -2  -1 687.689 86.2421  48
  -6  -2   1 627.271 64.5610  45
   6  -2  -1 668.215 75.5809  63
   6  -2  -1 672.519 64.9688   5
  -6  -2   1 633.687 80.3824  40
   6  -2  -1 583.075 64.6238   2
   6  -2  -1 530.674 59.2798  20
   6  -2  -1 535.713 48.2421  38
   6  -2  -1 548.204 46.2290   4
  -6  -2   0 323.404 42.2672   8
   6  -2   0 337.295 72.8503  35
   6  -2   0 382.971 55.5719  53
   6  -2   0 302.071 59.6394   2
  -6  -2   0 340.920 60.0244  45
   6  -2   0 421.156 59.1891   5
  -6  -2   0 409.562 82.4005  40
   6  -2   0 343.081 43.9913  38
   6  -2   0 312.212 48.8791  20
   6  -2   0 336.605 54.1134   1
   6  -2   0 296.169 40.6418   4
  -6  -2  -1 94.2586 39.4263   8
   6  -2   1 74.9448 71.9901  35
   6  -2   1 109.842 36.8541   4
   6  -2   1 146.211 53.4453  53
  -6  -2  -1 136.279 86.6665  32
   6  -2   1 141.083 87.9718  52
   6  -2   1 107.059 59.0980   2
   6  -2   1 73.9741 70.7988  48
  -6  -2  -1 134.646 58.0244  45
   6  -2   1 162.192 55.0730   5
  -6  -2  -1 79.4690 80.4918  40
   6  -2   1 118.395 47.7612   1
  -6  -2  -1 121.620 57.0721   9
   6  -2   1 99.9903 37.6249  20
   6  -2   1 123.397 39.6405  38
   6  -2   2 889.916 102.610  35
   6  -2   2 733.554 57.8792  54
   6  -2   2 863.300 79.0993  53
  -6  -2  -2 816.488 91.3803  32
   6  -2   2 830.265 88.4731  48
  -6  -2  -2 873.135 78.6229  45
   6  -2   2 895.502 69.8101   5
  -6  -2  -2 855.320 102.232  40
   6  -2   2 676.646 68.1013   1
  -6  -2  -2 884.495 79.5520   9
   6  -2   2 739.941 61.5076   4
  -6  -2  -2 571.135 247.791  39
   6  -2   2 918.618 66.5955  38
   6  -2   2 794.978 81.7483   2
  -6  -2  -2 823.887 61.6067   8
   6  -2   3 606.013 86.1492  35
   6  -2   3 541.759 49.4513  54
   6  -2   3 583.594 67.7593  53
  -6  -2  -3 469.192 72.8380  32
   6  -2   3 554.847 68.4832  48
  -6  -2  -3 660.003 69.3359  45
   6  -2   3 612.990 58.9235   5
  -6  -2  -3 619.847 88.7475  40
   6  -2   3 543.096 55.3029   1
  -6  -2  -3 583.774 71.1575   9
   6  -2   3 656.703 55.8317  38
  -6  -2  -3 570.280 53.4273   8
   6  -2   3 523.426 52.6229   4
   6  -2   4 999.856 64.0355  54
  -6  -2  -4 963.393 76.0628  32
   6  -2   4 935.662 68.7840  48
  -6  -2  -4 1047.46 75.0214  45
   6  -2   4 1090.44 64.2014   5
  -6  -2  -4 1217.82 79.1849   9
   6  -2   4 964.210 61.6393   1
   6  -2   4 1143.55 68.1819  38
  -6  -2  -4 1003.62 64.6673   8
   6  -2   4 1134.13 66.2090   4
  -6  -2  -5 205.010 36.1755   8
   6  -2   5 194.436 33.7776  53
  -6  -2  -5 190.427 35.2705  45
  -6  -2  -5 246.623 45.9678  40
   6  -2   5 229.885 31.0650   4
   6  -1 -10 165.468 29.2395  62
   6  -1 -10 172.117 27.8624  60
   6  -1  -9 3.27263 30.1131  62
   6  -1  -9 49.1392 31.8845  60
   6  -1  -9 14.2287 24.5523  64
   6  -1  -8 383.841 43.4065  60
   6  -1  -8 257.668 41.7236  20
   6  -1  -8 267.354 33.1119  64
   6  -1  -8 376.649 328.731  63
   6  -1  -8 342.017 40.5904  62
   6  -1  -7 672.849 111.133  61
   6  -1  -7 777.586 54.2891  60
   6  -1  -7 666.196 55.8472   1
   6  -1  -7 661.524 54.7297  20
   6  -1  -7 563.994 43.2233  64
   6  -1  -7 553.450 91.8565  63
   6  -1  -7 743.061 52.0846  62
   6  -1  -6 204.365 33.3001  62
   6  -1  -6 147.972 106.425  61
   6  -1  -6 198.412 37.5678  60
   6  -1  -6 167.911 39.8416   1
   6  -1  -6 192.161 41.0686  20
   6  -1  -6 184.307 82.6006  63
   6  -1  -5 574.481 119.669  61
   6  -1  -5 664.570 49.0085  60
   6  -1  -5 501.172 45.7717  14
   6  -1  -5 677.906 54.6516   1
   6  -1  -5 623.043 56.4811  20
   6  -1  -5 672.484 92.5197  63
   6  -1  -5 597.071 45.0811  62
   6  -1  -4 8887.42 409.490  61
   6  -1  -4 8260.13 347.009  14
   6  -1  -4 10081.1 355.552   1
   6  -1  -4 7837.80 347.271   5
   6  -1  -4 8365.37 346.504   2
   6  -1  -4 8702.19 353.464  20
   6  -1  -4 9414.83 376.654  63
   6  -1  -4 8617.58 342.179  62
   6  -1  -3 7279.04 299.234  14
   6  -1  -3 7686.66 298.236   5
   6  -1  -3 7416.56 297.673   2
   6  -1  -3 6523.04 290.233  38
   6  -1  -3 7273.29 290.085  62
   6  -1  -2 1750.85 154.665  61
   6  -1  -2 2150.86 107.352   1
   6  -1  -2 1752.00 102.366  53
   6  -1  -2 1889.35 103.656  14
   6  -1  -2 2318.74 128.121  48
   6  -1  -2 2080.69 105.077   5
   6  -1  -2 1901.71 102.252   2
   6  -1  -2 1831.25 107.460  20
   6  -1  -2 1967.00 96.3510  38
   6  -1  -2 1950.68 127.789  63
   6  -1  -1 4058.11 241.760  61
   6  -1  -1 4604.96 209.726  35
   6  -1  -1 4448.95 209.870  63
   6  -1  -1 4263.55 197.078  53
   6  -1  -1 4202.99 193.879  14
  -6  -1   1 4434.90 196.802  45
  -6  -1   1 4730.24 210.259  40
  -6  -1   1 3767.48 183.041   9
   6  -1  -1 3971.02 194.680  20
   6  -1  -1 3897.53 188.753   2
   6  -1  -1 4615.84 187.439  38
   6  -1  -1 5033.36 197.233   1
   6  -1   0 1704.87 118.335  35
   6  -1   0 1412.79 80.3829  54
   6  -1   0 1661.99 100.678  53
   6  -1   0 1670.80 113.577  48
  -6  -1   0 1725.05 103.130  45
  -6  -1   0 1659.35 119.024  40
  -6  -1   0 1342.49 88.5544   9
   6  -1   0 1398.74 94.0993  20
   6  -1   0 1738.75 89.2565  38
   6  -1   0 1407.96 89.1677   1
   6  -1   0 1548.60 95.0009   2
   6  -1   0 1368.63 74.5348  37
   6  -1   0 1529.30 105.096  63
  -6  -1  -1 316.833 41.6172   8
   6  -1   1 389.003 82.4444  35
   6  -1   1 249.671 38.1951   4
   6  -1   1 405.420 45.8331  54
   6  -1   1 325.878 61.0886  53
  -6  -1  -1 342.024 93.7984  32
   6  -1   1 402.592 62.5075   2
   6  -1   1 390.652 74.0228  48
  -6  -1  -1 368.919 66.5625  45
   6  -1   1 387.119 60.8955   5
  -6  -1  -1 346.730 89.7140  40
   6  -1   1 365.448 49.2432   1
  -6  -1  -1 434.785 60.7957   9
   6  -1   1 436.799 51.1589  38
   6  -1   1 282.249 52.5095  20
   6  -1   1 333.075 36.3185  37
   6  -1   2 779.434 99.5476  35
   6  -1   2 675.562 58.3515  54
   6  -1   2 834.131 78.9246  53
  -6  -1  -2 580.065 87.7052  32
   6  -1   2 652.556 75.9908  48
  -6  -1  -2 716.989 78.6383  45
   6  -1   2 716.896 68.4503   5
  -6  -1  -2 517.333 55.4993  41
  -6  -1  -2 643.211 98.8109  40
  -6  -1  -2 692.506 71.5806   9
   6  -1   2 656.112 57.0582   1
   6  -1   2 566.580 59.2568  20
   6  -1   2 820.774 64.2282  38
  -6  -1  -2 605.053 54.4167   8
   6  -1   2 641.114 73.1409   2
   6  -1   2 666.152 50.0814  37
   6  -1   2 521.126 52.1959   4
   6  -1   3 1702.61 91.5444   4
   6  -1   3 1923.97 100.392  54
  -6  -1  -3 1884.50 109.478  32
   6  -1   3 1801.66 107.166  48
  -6  -1  -3 1950.75 110.442  45
   6  -1   3 1848.94 101.342   5
  -6  -1  -3 1488.81 89.7797  41
  -6  -1  -3 1871.46 105.099   9
   6  -1   3 1277.81 87.2321  20
   6  -1   3 1764.64 91.4957   1
  -6  -1  -3 1606.59 88.9429   8
   6  -1   3 1875.87 111.771   2
   6  -1   3 1840.52 90.1805  37
   6  -1   4 986.442 64.8138   4
   6  -1   4 1013.40 92.8436  35
   6  -1   4 1189.73 72.1932  54
   6  -1   4 1071.22 79.1102  53
  -6  -1  -4 832.333 72.8590  32
   6  -1   4 1135.65 74.1486   5
  -6  -1  -4 1102.41 93.8920  40
  -6  -1  -4 1188.04 81.6216   9
   6  -1   4 1064.04 68.5213  38
  -6  -1  -4 928.222 66.5097   8
   6  -1   4 1243.68 85.9348   2
   6  -1   4 1116.13 62.8956  37
  -6  -1  -5 194.373 36.9527   8
   6  -1   5 257.569 34.5346  54
   6  -1   5 223.941 37.6622  53
   6  -1   5 280.557 49.1092   2
   6  -1   5 270.359 38.9275   5
  -6  -1  -5 311.604 51.3953  40
   6  -1   5 214.738 30.2141  38
   6  -1   5 277.507 28.3086  37
   6  -1   5 269.878 32.5019   4
   6   0 -10 25.4246 27.0672  62
   6   0 -10 51.1013 24.3265  60
   6   0 -10 43.2448 24.1307  64
   6   0  -9 9.12127 32.6622  62
   6   0  -9 21.6712 27.7689  60
   6   0  -9 46.9067 29.2949  64
   6   0  -8 6335.53 325.292  61
   6   0  -8 7649.21 287.034  60
   6   0  -8 6796.00 287.107  64
   6   0  -8 5905.20 311.554  63
   6   0  -8 7716.51 293.088  62
   6   0  -7 1805.22 156.721  61
   6   0  -7 2298.14 101.874  60
   6   0  -7 2090.27 111.068   1
   6   0  -7 1797.43 99.5024  20
   6   0  -7 2308.82 103.230  64
   6   0  -7 2135.81 133.134  63
   6   0  -7 2195.70 107.112  62
   6   0  -6 2295.86 173.672  61
   6   0  -6 2355.14 106.079  60
   6   0  -6 2020.74 108.502  20
   6   0  -6 2145.97 102.986  64
   6   0  -6 2345.71 116.830   1
   6   0  -6 2090.22 137.877  63
   6   0  -6 2620.16 113.097  62
   6   0  -5 417.366 106.593  61
   6   0  -5 483.102 110.888  59
   6   0  -5 460.961 80.8875  63
   6   0  -5 438.325 47.8044  20
   6   0  -5 499.748 42.2376  62
   6   0  -4 3211.89 202.961  61
   6   0  -4 3730.33 151.403   1
   6   0  -4 3129.11 146.301   5
   6   0  -4 3268.26 152.507  20
   6   0  -4 3257.37 175.212  63
   6   0  -4 3270.17 143.956  62
   6   0  -3 3109.13 198.713  61
   6   0  -3 3748.99 156.135   1
   6   0  -3 3617.31 152.969   5
   6   0  -3 3392.81 158.922  20
   6   0  -3 3363.27 148.532  62
   6   0  -2 4064.32 235.177  61
   6   0  -2 5074.20 195.321   1
   6   0  -2 4114.91 184.856  54
   6   0  -2 4808.64 192.498   5
  -6   0   2 4430.30 199.891  41
   6   0  -2 4046.37 187.050   2
   6   0  -2 4039.24 197.945  20
   6   0  -2 4963.63 191.464  38
   6   0  -2 4697.96 218.613  63
   6   0  -2 4278.87 183.336  37
   6   0  -1 1611.95 132.240  61
   6   0  -1 1542.87 84.7543   1
   6   0  -1 1543.06 81.9906  54
   6   0  -1 1666.39 97.9379  53
   6   0  -1 1497.25 89.5039   5
  -6   0   1 1511.06 97.4249  41
   6   0  -1 1595.48 114.260  63
   6   0  -1 1360.33 84.4740   2
   6   0  -1 1772.65 86.1574  38
   6   0  -1 1462.64 77.7119  37
   6   0   0 102.238 75.5834  61
   6   0   0 72.3138 32.6972  54
   6   0   0 96.7454 33.4713   1
   6   0   0 51.3587 47.5542  53
   6   0   0 64.2188 42.1124   2
   6   0   0 43.0748 32.1077   6
  -6   0   0 22.2933 59.4904  45
  -6   0   0 102.202 52.7053  41
   6   0   0 17.2592 48.9197   5
  -6   0   0 82.2501 44.1517   9
   6   0   0 76.2196 35.9272  38
   6   0   0 89.4055 65.8059  63
   6   0   0 62.8861 27.8009  37
   6   0   1 532.195 85.5925  35
   6   0   1 459.601 52.5899  54
   6   0   1 560.524 68.5898  53
   6   0   1 564.193 51.5895   6
  -6   0  -1 586.254 64.6431  41
  -6   0  -1 500.753 95.2372  40
  -6   0  -1 520.810 60.9291   9
   6   0   1 553.978 63.7542   2
   6   0   1 494.314 46.3422  37
   6   0   1 566.677 78.9570  63
   6   0   1 506.467 46.3014   1
   6   0   2 2809.36 130.461  54
  -6   0  -2 2215.36 143.980  32
   6   0   2 2533.75 119.005   6
  -6   0  -2 2429.81 120.893  46
  -6   0  -2 2641.93 129.744  41
  -6   0  -2 2521.07 126.564   9
   6   0   2 2806.39 125.731  38
  -6   0  -2 2105.27 111.934   8
   6   0   2 2637.81 120.274  37
   6   0   2 2069.37 130.814  63
   6   0   2 2409.01 130.486   2
   6   0   2 2206.41 112.252   1
  -6   0  -3 263.100 44.9467   8
   6   0   3 394.722 50.7422  54
   6   0   3 269.710 56.3870  53
  -6   0  -3 269.369 57.2146  32
   6   0   3 333.057 62.1670   2
   6   0   3 326.435 49.7738   6
  -6   0  -3 296.811 47.5348  46
  -6   0  -3 342.956 63.8153  45
  -6   0  -3 275.418 54.3871  41
   6   0   3 338.536 60.6142   5
  -6   0  -3 308.507 84.2267  40
  -6   0  -3 264.439 61.1328   9
   6   0   3 290.903 45.1339  38
   6   0   3 329.807 41.7810  37
   6   0   4 1491.16 86.6082  54
   6   0   4 1278.83 87.4509  53
  -6   0  -4 1670.27 91.7220  45
   6   0   4 1548.88 89.1674   5
  -6   0  -4 1412.27 83.8790  41
  -6   0  -4 1490.46 102.612  40
  -6   0  -4 1573.64 90.9956   9
   6   0   4 1512.12 79.9750  38
  -6   0  -4 1206.29 76.4335   8
   6   0   4 1527.88 79.2260  37
   6   0   4 1641.51 95.4245   2
  -6   0  -5 72.7604 33.7194   8
   6   0   5 186.289 33.2159  54
   6   0   5 114.513 45.4150   2
  -6   0  -5 120.569 37.9639  45
   6   0   5 185.823 43.6986   5
  -6   0  -5 212.878 32.6893  41
  -6   0  -5 171.648 47.7411  40
  -6   0  -5 150.653 48.7320   9
   6   0   5 180.190 26.3373  38
   6   0   5 156.548 26.3035  37
   6   1 -10 175.169 30.4343  62
   6   1 -10 173.051 24.5470  60
   6   1 -10 194.626 28.6527  64
   6   1  -9 33.2252 26.2044  60
   6   1  -9 54.3231 29.2143  64
   6   1  -8 282.940 85.5546  61
   6   1  -8 347.858 34.3423  60
   6   1  -8 162.701 110.122  59
   6   1  -8 326.564 39.2331  64
   6   1  -8 307.022 65.0381  63
   6   1  -7 749.387 114.418  61
   6   1  -7 823.867 49.3095  60
   6   1  -7 560.950 127.505  59
   6   1  -7 718.211 52.7421  64
   6   1  -7 656.911 79.8044  63
   6   1  -7 809.848 59.1403  62
   6   1  -6 177.196 38.8096  62
   6   1  -6 109.055 96.1470  61
   6   1  -6 193.402 27.4589  60
   6   1  -6 126.780 30.0173  20
   6   1  -6 186.132 31.3158  64
   6   1  -6 177.150 68.6419  63
   6   1  -6 173.728 43.9494   1
   6   1  -5 600.194 110.141  61
   6   1  -5 594.110 109.960  59
   6   1  -5 518.186 49.1654  20
   6   1  -5 663.503 43.4315  64
   6   1  -5 639.336 54.1445   1
   6   1  -5 613.023 83.3487  63
   6   1  -5 563.584 50.8094  62
   6   1  -4 7510.73 376.019  59
   6   1  -4 8069.26 334.459   5
   6   1  -4 9698.48 345.055   1
   6   1  -4 7956.88 342.283  20
   6   1  -4 8001.16 332.238  64
   6   1  -4 8815.48 365.812  63
   6   1  -4 9257.84 342.096  62
   6   1  -3 7330.90 346.095  61
   6   1  -3 6584.60 326.044  59
  -6   1   3 6283.06 309.558  56
   6   1  -3 7731.82 294.524   5
   6   1  -3 8363.91 300.412   1
   6   1  -3 7088.03 303.276  20
   6   1  -3 7916.12 326.993  63
   6   1  -3 6766.32 297.306  62
   6   1  -2 1603.25 138.048  61
   6   1  -2 1795.99 95.4988  54
   6   1  -2 2138.34 95.7561   1
   6   1  -2 1864.49 96.0415   5
   6   1  -2 1995.46 97.8335  38
   6   1  -2 2011.72 94.1188  37
   6   1  -1 3848.48 219.406  61
   6   1  -1 4274.95 185.230  54
   6   1  -1 4485.22 180.436   1
  -6   1   1 3639.20 185.517  46
   6   1  -1 4057.66 183.351   5
  -6   1   1 4006.91 197.777  41
   6   1  -1 4681.94 185.964  38
   6   1  -1 4367.57 181.971  37
   6   1   0 1142.18 109.324  61
   6   1   0 1535.48 87.5110  54
   6   1   0 1423.18 74.3773   1
   6   1   0 1299.86 75.9243   6
  -6   1   0 1565.38 91.9106  46
   6   1   0 1478.07 91.0840   5
  -6   1   0 1528.51 103.021  41
   6   1   0 1654.34 84.0720  37
   6   1   1 401.332 50.4458  54
   6   1   1 368.918 45.4014   6
  -6   1  -1 324.805 57.1316  46
  -6   1  -1 299.308 68.0146  45
  -6   1  -1 312.749 66.4446  41
   6   1   1 387.679 60.5611   5
  -6   1  -1 270.053 52.7672   9
   6   1   1 370.890 47.0520  38
   6   1   1 405.771 44.6625  37
   6   1   1 415.949 51.8692   2
   6   1   2 741.598 65.2410  54
   6   1   2 650.960 71.8057  53
   6   1   2 673.625 58.1267   6
  -6   1  -2 575.702 85.8892  32
  -6   1  -2 684.290 66.3808  46
  -6   1  -2 716.777 73.5232  45
   6   1   2 562.858 72.1636   5
  -6   1  -2 652.636 73.4652  41
  -6   1  -2 632.250 66.9002   9
  -6   1  -2 676.837 94.0942  40
   6   1   2 662.522 56.3801  38
   6   1   2 732.806 57.4837  37
   6   1   2 607.288 63.7599   2
   6   1   3 1887.97 103.900   2
   6   1   3 1936.53 104.546  54
   6   1   3 1490.80 102.392  53
   6   1   3 1900.46 95.3900   6
  -6   1  -3 1908.61 104.613  46
  -6   1  -3 1739.98 104.481  45
  -6   1  -3 1937.07 108.114  41
  -6   1  -3 1807.63 120.435  40
  -6   1  -3 1974.68 104.822   9
  -6   1  -3 1330.35 86.3141   8
   6   1   3 1832.19 93.5702  38
   6   1   3 1973.35 97.3969  37
   6   1   3 1272.53 106.065  63
   6   1   4 1138.06 74.6482  54
   6   1   4 1107.28 69.9466   6
  -6   1  -4 1152.31 73.5383  46
  -6   1  -4 1191.55 75.7584  45
  -6   1  -4 1017.95 74.5675  41
  -6   1  -4 1023.32 87.0346  40
  -6   1  -4 1075.97 78.6852   9
   6   1   4 1027.05 62.7803  38
   6   1   4 1157.62 68.9458  37
   6   1   4 1056.68 76.9991   2
   6   1   5 218.157 34.3940  54
   6   1   5 244.647 43.3303   2
  -6   1  -5 264.691 38.3927  45
   6   1   5 254.825 46.1902   5
  -6   1  -5 293.300 40.0865  41
  -6   1  -5 242.924 46.2922  40
  -6   1  -5 338.817 49.1899   9
   6   1   5 203.003 23.9873  38
   6   1   5 295.015 31.5944  37
   6   2 -10 302.069 30.2364  64
   6   2 -10 286.717 29.2358  62
   6   2  -9 709.007 105.933  59
   6   2  -9 794.749 53.0489  64
   6   2  -9 867.603 54.9545  62
   6   2  -8 329.902 88.0301  61
   6   2  -8 391.607 33.9805  60
   6   2  -8 523.965 116.187  59
   6   2  -8 472.687 43.5441  64
   6   2  -8 453.319 46.0524  62
   6   2  -7 1175.02 129.675  61
   6   2  -7 1062.52 58.0974  60
   6   2  -7 1107.18 143.858  59
   6   2  -7 1063.35 67.6344  64
   6   2  -7 1051.61 83.0565  63
   6   2  -6 413.805 108.140  61
   6   2  -6 463.514 43.5018  64
   6   2  -6 390.449 68.5950  63
   6   2  -5 194.090 40.2639   1
   6   2  -5 228.937 99.4375  61
   6   2  -5 243.367 101.196  59
   6   2  -5 229.362 34.2470  64
   6   2  -5 181.422 70.9716  63
   6   2  -4 79.2999 37.5838  62
   6   2  -4 130.905 86.6380  59
  -6   2   4 158.907 61.3153  46
   6   2  -4 136.963 34.3598   1
   6   2  -4 103.778 36.7678  20
   6   2  -4 118.899 72.0997  63
   6   2  -3 1106.68 65.2522   1
   6   2  -3 995.966 116.040  61
   6   2  -3 902.898 103.104  59
  -6   2   3 1203.90 106.015  56
  -6   2   3 1076.86 87.6494  46
   6   2  -3 1105.93 105.170  63
   6   2  -2 937.480 108.796  61
   6   2  -2 993.521 65.6057  36
   6   2  -2 681.554 85.2295  59
  -6   2   2 985.711 98.3050  56
  -6   2   2 1085.27 87.4619  46
   6   2  -2 947.328 63.4395   5
   6   2  -2 1041.76 60.5164   1
   6   2  -2 1282.52 69.2126  37
   6   2  -1 459.360 87.4924  61
   6   2  -1 679.216 52.5300  36
  -6   2   1 417.235 76.4846  56
   6   2  -1 594.409 56.4271  54
  -6   2   1 652.344 75.4620  46
   6   2  -1 546.307 54.1354   5
   6   2  -1 469.886 47.9154  10
  -6   2   1 645.212 82.8078  41
   6   2  -1 649.192 51.3510  37
   6   2   0 352.368 42.6189  36
  -6   2   0 421.940 68.4710  56
   6   2   0 366.047 49.9196  54
   6   2   0 335.154 40.1407   6
  -6   2   0 381.586 66.4283  46
   6   2   0 320.343 46.1817  10
  -6   2   0 358.899 76.5851  41
   6   2   0 353.170 52.6702   5
   6   2   0 276.640 43.4261  38
   6   2   0 342.141 45.0824  37
   6   2   1 115.114 35.0593  36
  -6   2  -1 87.5004 51.3018  56
   6   2   1 152.833 44.7964  54
   6   2   1 127.260 39.7060   6
  -6   2  -1 171.201 58.7874  46
  -6   2  -1 144.441 58.0212  45
   6   2   1 97.2087 42.5829  10
  -6   2  -1 146.289 66.7920  41
   6   2   1 117.447 52.1251   5
  -6   2  -1 113.442 45.7042   9
   6   2   1 96.9389 36.7178  38
   6   2   1 124.175 38.6276  37
   6   2   2 886.403 62.0421  36
   6   2   2 897.130 70.4405  54
   6   2   2 828.175 61.7340   6
  -6   2  -2 802.228 74.9789  46
  -6   2  -2 763.854 71.6219  45
   6   2   2 791.759 73.9065   5
  -6   2  -2 863.739 81.6970  41
  -6   2  -2 664.375 67.6587   9
   6   2   2 747.348 57.9218  38
   6   2   2 884.042 63.2337  37
   6   2   3 494.983 46.3695  36
   6   2   3 433.910 52.5967  55
   6   2   3 605.651 57.3299  54
   6   2   3 606.546 53.9210   6
  -6   2  -3 542.939 62.3749  46
  -6   2  -3 480.914 57.1297  45
   6   2   3 616.573 65.4881   5
  -6   2  -3 534.522 65.9067  41
  -6   2  -3 549.406 75.8308  40
  -6   2  -3 513.735 61.0954   9
   6   2   3 542.255 50.5274  37
   6   2   3 462.802 42.7761  38
   6   2   4 1190.86 67.1685   6
  -6   2  -4 1043.54 71.5722  46
  -6   2  -4 986.487 65.9567  45
   6   2   4 1147.38 75.9590   5
  -6   2  -4 1046.10 73.6983  41
  -6   2  -4 995.554 72.8559   9
  -6   2  -4 1003.14 77.1951  40
   6   2   5 253.573 30.5510  54
   6   2   5 210.667 32.8358   6
  -6   2  -5 201.038 33.3294  46
  -6   2  -5 265.196 48.2440  22
  -6   2  -5 234.153 34.6478  41
   6   2   5 231.790 41.0409   5
  -6   2  -5 257.914 42.1395   9
   6   3  -9 599.709 90.8222  59
  -6   3   9 690.613 108.279  43
   6   3  -9 928.454 52.4706  64
   6   3  -8 646.919 95.1747  61
   6   3  -8 521.990 109.899  59
   6   3  -8 748.215 52.1950  64
   6   3  -8 748.648 52.2053  62
   6   3  -7 573.245 106.775  61
   6   3  -7 294.702 112.759  59
  -6   3   7 473.415 116.841  43
   6   3  -7 457.802 45.0079  64
   6   3  -7 497.349 46.6461  62
   6   3  -6 1051.11 133.077  61
   6   3  -6 1032.30 67.6707  64
   6   3  -6 1237.59 72.1489  62
  -6   3   5 1840.43 147.434  43
  -6   3   5 2133.98 151.153  42
   6   3  -5 2234.53 128.316  63
   6   3  -4 6422.28 298.761  61
   6   3  -4 5574.36 275.741  59
   6   3  -4 6017.58 255.460  63
   6   3  -3 6702.11 306.224  61
   6   3  -3 6310.09 255.278  36
   6   3  -3 5449.74 279.063  59
  -6   3   3 6209.63 288.106  56
  -6   3   3 6325.02 269.049  46
   6   3  -3 6347.84 277.074  63
   6   3  -2 19.6264 79.2300  61
   6   3  -2 19.8053 34.7920  36
   6   3  -2 37.3205 62.0014  59
  -6   3   2 2.67122 85.9005  56
   6   3  -2 29.4999 26.4435  15
  -6   3   2 35.4118 71.1143  46
  -6   3   2 38.5178 75.4326  42
   6   3  -2 47.5426 28.3825  10
  -6   3   2 112.727 56.7630  22
   6   3  -1 2788.86 170.766  61
   6   3  -1 3085.27 140.726  36
  -6   3   1 2913.56 169.055  56
  -6   3   1 3232.51 159.890  46
   6   3  -1 2312.61 127.985  10
  -6   3   1 2233.26 154.446  42
   6   3  -1 3648.02 141.419  37
   6   3   0 141.212 40.9361  36
  -6   3   0 182.668 72.2642  56
   6   3   0 154.479 45.9105  54
   6   3   0 130.130 35.1508   6
  -6   3   0 192.955 69.9587  46
  -6   3   0 120.625 61.4575  42
   6   3   0 127.548 40.3060  10
   6   3   0 120.917 41.2661   5
   6   3   1 293.339 44.8107  36
  -6   3  -1 221.167 66.8723  56
   6   3   1 258.186 41.6322   6
  -6   3  -1 330.868 69.4254  46
  -6   3  -1 279.473 53.2099  45
  -6   3  -1 164.167 55.8613  42
   6   3   1 187.678 45.2780  10
   6   3   1 286.308 49.9566   5
   6   3   2 107.122 36.5729  36
  -6   3  -2 103.600 50.4433  56
   6   3   2 95.7999 38.7282   6
  -6   3  -2 142.932 59.8479  46
  -6   3  -2 141.522 43.4304  45
   6   3   2 117.789 43.2019  10
   6   3   2 138.899 49.0360   5
  -6   3  -2 128.841 45.9534   9
   6   3   3 870.144 58.3570  36
  -6   3  -3 536.429 59.1964  56
   6   3   3 707.033 59.1365  54
   6   3   3 925.506 58.1148   6
  -6   3  -3 784.484 69.3336  46
  -6   3  -3 686.507 54.2898  45
   6   3   3 821.818 63.9441   5
  -6   3  -3 644.292 60.7380   9
  -6   3  -3 783.277 71.3768  40
   6   3   3 852.348 55.6037  37
   6   3   4 20.1714 26.2307  54
   6   3   4 43.7510 32.4578   6
  -6   3  -4 112.461 37.5027  46
  -6   3  -4 121.676 56.1334  22
   6   3   4 72.3436 39.2704   5
  -6   3  -4 49.7193 38.3402   9
   6   3   4 32.9967 21.5330  37
   6   4  -8 1097.02 95.8898  61
   6   4  -8 893.153 102.934  59
  -6   4   8 935.578 112.985  43
  -6   4   8 949.809 101.219  42
   6   4  -7 1113.80 115.100  61
  -6   4   7 890.847 118.897  43
  -6   4   7 990.222 113.521  42
   6   4  -6 746.230 119.929  61
   6   4  -6 668.303 114.975  59
  -6   4   6 614.548 113.717  43
  -6   4   6 624.683 108.097  42
   6   4  -5 185.608 97.0484  59
  -6   4   5 112.885 93.6036  43
  -6   4   5 149.806 95.0855  42
   6   4  -4 44.2363 96.8310  61
   6   4  -4-69.8449 92.2835  59
  -6   4   4 74.3294 100.459  56
   6   4  -4 54.7334 16.0222  15
  -6   4   4-10.5760 74.2457  46
  -6   4   4 17.3669 90.6986  42
   6   4  -4 71.8962 59.3891  63
   6   4  -3 386.612 97.4501  61
   6   4  -3 360.826 87.4892  59
  -6   4   3 365.216 104.919  56
   6   4  -3 377.098 33.8034  15
  -6   4   3 388.923 84.6135  46
  -6   4   3 349.930 97.6057  42
   6   4  -3 256.536 77.0869  63
   6   4  -2 961.044 107.418  61
   6   4  -2 1020.43 73.3225  36
   6   4  -2 716.644 89.0820  59
  -6   4   2 952.745 117.947  56
  -6   4   2 1147.18 101.709  46
  -6   4   2 792.256 76.1688  22
  -6   4   2 786.461 104.523  42
  -6   4   2 1042.28 98.9429  41
   6   4  -1 1151.54 101.585  61
   6   4  -1 1277.84 80.4886  36
  -6   4   1 1041.86 112.303  56
   6   4  -1 1220.01 73.4668  15
  -6   4   1 1168.96 102.630  46
   6   4  -1 1013.11 66.0234  10
  -6   4   1 900.302 104.289  42
  -6   4   1 1213.87 91.5724  22
  -6   4   1 1115.48 100.911  41
   6   4   0 1694.96 94.5132  36
  -6   4   0 1460.03 118.382  56
   6   4   0 1689.29 88.2713  15
  -6   4   0 1451.54 109.231  46
  -6   4   0 1320.41 85.1691  45
   6   4   0 1331.85 80.5243  10
  -6   4   0 1124.33 103.836  42
  -6   4   0 1594.23 104.753  22
  -6   4   0 1566.68 107.564  41
   6   4   0 1497.10 84.1511  37
   6   4   1 791.268 62.6467  36
  -6   4  -1 569.379 76.0740  56
   6   4   1 765.841 56.9897  15
   6   4   1 634.178 49.6755   6
  -6   4  -1 620.531 76.9551  46
   6   4   1 603.242 54.2547  10
  -6   4  -1 643.329 71.3593  42
  -6   4  -1 893.744 86.3108  22
  -6   4  -1 691.494 74.0455  41
   6   4   1 693.610 53.6380  37
   6   4   2 647.473 53.9962  36
  -6   4  -2 435.822 61.1823  56
   6   4   2 570.190 45.7431   6
  -6   4  -2 636.662 65.7256  46
   6   4   2 558.635 51.4734  10
  -6   4  -2 417.371 55.3142  42
  -6   4  -2 756.554 79.0095  22
  -6   4  -2 655.470 63.2861  41
   6   4   2 581.808 46.2484  37
   6   4   3 35.3244 25.6379  36
  -6   4  -3 13.8254 33.9322  56
   6   4   3 28.5671 28.7775   6
  -6   4  -3 15.6510 36.9770  46
  -6   4  -3 74.9973 35.7241  41
   6   4   3-2.53164 21.2962  37
   6   5  -7 89.9592 64.2670  61
  -6   5   7 138.848 69.3510  42
   6   5  -6 708.091 98.3895  61
   6   5  -6 735.986 96.2772  59
  -6   5   6 755.343 77.0055  46
  -6   5   6 381.212 90.3669  43
  -6   5   6 647.571 96.7977  42
   6   5  -5 246.982 90.1078  59
  -6   5   5 372.713 91.0159  56
  -6   5   5 314.113 73.0103  46
  -6   5   5 219.306 87.3427  43
  -6   5   5 227.253 89.2245  42
   6   5  -4 7656.52 342.024  61
   6   5  -4 6976.91 326.928  59
  -6   5   4 7273.51 335.018  56
  -6   5   4 7815.84 318.014  46
  -6   5   4 6432.15 327.535  42
   6   5  -3 1486.36 122.385  61
   6   5  -3 1040.05 106.059  59
  -6   5   3 1555.31 128.579  56
   6   5  -3 1282.37 63.5067  15
  -6   5   3 1464.62 106.734  46
  -6   5   3 1239.58 119.666  42
  -6   5   3 1454.18 100.408  41
   6   5  -2 195.852 70.8776  61
   6   5  -2 176.539 61.6292  59
  -6   5   2 324.888 84.6181  56
   6   5  -2 233.674 28.8871  15
  -6   5   2 201.469 70.0683  46
  -6   5   2 151.794 81.6324  42
  -6   5   2 236.057 55.4872  22
  -6   5   2 256.163 63.9935  41
   6   5  -1 123.923 50.2779  61
   6   5  -1 87.4842 35.6212  36
  -6   5   1 128.494 74.8361  56
   6   5  -1 130.237 25.5711  15
  -6   5   1 51.2364 64.9458  46
  -6   5   1 21.3651 66.7888  42
  -6   5   1 53.7826 59.6594  22
  -6   5   1 101.974 55.2652  41
   6   5   0 1193.00 70.8844  36
  -6   5   0 924.580 89.1370  56
  -6   5   0 1076.37 84.3517  46
   6   5   0 874.740 57.7461  10
  -6   5   0 808.939 82.8457  42
  -6   5   0 1185.63 84.6358  22
  -6   5   0 1024.24 76.4242  41
   6   5   1 96.9649 31.0524  36
  -6   5  -1 59.5933 49.6554  56
  -6   5  -1-12.9581 48.0384  46
   6   5   1 18.3226 28.6456  10
  -6   5  -1 109.634 47.8961  42
  -6   5  -1 1.76133 61.8190  22
  -6   5  -1 77.4384 39.5278  41
   6   5   2 57.3699 23.5385  36
  -6   5  -2 48.7124 36.8227  56
  -6   5  -2 89.1337 37.1181  46
   6   5   2 31.8746 25.9430  10
  -6   5  -2 103.932 53.5461  22
  -6   5  -2 45.7019 31.1751  41
   6   6  -4 257.909 63.2133  61
   6   6  -4 164.278 56.1496  59
  -6   6   4 292.301 52.2964  46
  -6   6   4 223.067 62.8180  42
  -6   6   4 250.175 30.9789  10
   6   6  -3 589.888 67.3660  61
   6   6  -3 363.703 58.1749  59
  -6   6   3 418.569 58.4122  46
  -6   6   3 487.226 69.0521  42
   6   6  -2 243.718 45.0781  61
  -6   6   2 204.691 57.0413  56
   6   6  -2 222.529 18.7594  15
  -6   6   2 335.332 52.4567  46
  -6   6   2 232.065 56.8638  42
  -6   6   1 59.5997 44.2545  56
   6   6  -1 29.1632 12.5463  15
  -6   6   1 106.618 41.3389  46
  -6   6   1 50.7727 40.0721  22
  -7  -5   5 291.898 133.019  34
   7  -5  -5 131.697 30.1682  14
  -7  -5   5 204.933 82.1948  47
   7  -5  -5 137.451 35.6066  20
   7  -5  -4 3641.65 154.470  14
  -7  -5   4 3025.47 194.662  47
  -7  -5   4 3085.35 180.749  39
   7  -5  -4 3539.98 149.476  20
  -7  -5   3 5561.50 328.163  34
   7  -5  -3 4914.65 200.904  14
  -7  -5   3 4127.92 227.393  49
   7  -5  -3 4301.46 192.175   1
  -7  -5   3 5126.11 238.169  39
   7  -5  -3 4898.24 191.924  20
  -7  -5   2 349.898 161.728  34
   7  -5  -2 533.573 41.8306   1
   7  -5  -2 516.023 48.8695  14
  -7  -5   2 409.993 84.5673  49
  -7  -5   2 614.168 97.3236  47
   7  -5  -2 655.563 47.2900   4
  -7  -5   2 485.975 85.5522  39
   7  -5  -1 271.318 36.4396   4
   7  -5  -1 234.000 30.8364   1
  -7  -5   1 233.061 69.2762  49
   7  -5  -1 224.306 44.5039  48
  -7  -5   1 231.364 76.0699  47
  -7  -5   0 1073.85 65.2545   9
   7  -5   0 941.604 55.5521   4
   7  -4  -7 270.936 35.1005  60
  -7  -4   7 443.254 123.205  34
   7  -4  -7 359.920 51.4687  20
   7  -4  -6 2324.42 112.147  60
   7  -4  -6 2543.33 114.991  14
   7  -4  -5 699.640 56.6346  60
   7  -4  -5 828.772 62.3732  14
   7  -4  -5 828.104 53.6157   1
   7  -4  -5 973.365 68.8282  20
  -7  -4   5 748.154 115.940  39
   7  -4  -4 227.658 44.7059  14
  -7  -4   4 192.132 72.9653  49
   7  -4  -4 288.323 38.5818   1
  -7  -4   4 298.377 179.820  39
   7  -4  -4 267.943 48.4879  20
   7  -4  -3 1888.32 94.8933   1
   7  -4  -3 1667.47 98.7406  14
  -7  -4   3 1277.58 135.588  49
   7  -4  -3 1709.21 90.3002   4
  -7  -4   3 1612.31 264.287  39
   7  -4  -3 1787.70 95.7458  20
   7  -4  -2 1457.83 84.0384   1
  -7  -4   2 1275.07 98.4955  32
   7  -4  -2 1290.90 87.3055  14
   7  -4  -2 1435.57 101.425  48
   7  -4  -2 1407.57 79.8868  20
   7  -4  -2 1389.69 78.5837   4
   7  -4  -1 336.575 42.8496   4
  -7  -4   1 279.514 67.3087  32
   7  -4  -1 277.402 44.0438   1
   7  -4  -1 309.297 64.3213  48
   7  -4  -1 244.672 34.6686  20
  -7  -4   1 215.943 137.205  39
   7  -4   0 15.0571 32.6361   4
   7  -4   0 85.3429 34.5782   1
  -7  -4   0 22.8497 59.9468  32
   7  -4   0 63.9436 53.1391  48
  -7  -4   0 128.412 89.5897  47
  -7  -4   0 78.8929 82.0580  39
  -7  -4   0 42.2860 54.9462   9
   7  -4   1 1512.35 103.876  35
  -7  -4  -1 2124.42 114.047  32
  -7  -4  -1 1122.35 126.877  49
   7  -4   1 2339.73 106.998   2
  -7  -4  -1 1605.58 121.744  39
  -7  -4  -1 2540.16 107.732   9
   7  -4   1 2236.62 96.9671   4
  -7  -4  -1 1985.70 89.4225   8
  -7  -4  -2 81.3335 22.9360   8
   7  -4   2 137.915 26.8094   4
   7  -4   2 159.614 36.7327   2
  -7  -4  -2 133.170 41.5870  32
  -7  -4  -2 127.060 41.5452   9
   7  -3  -9 95.7292 22.4943  60
   7  -3  -9 94.5528 27.8840  20
   7  -3  -8 976.202 56.7767  60
   7  -3  -8 938.940 67.5649  20
   7  -3  -7 473.538 45.2536  60
   7  -3  -7 378.696 39.0117   1
   7  -3  -7 511.313 56.5456  20
   7  -3  -6 23.7422 34.4678  60
   7  -3  -6 46.9137 33.2166  14
   7  -3  -6 27.5105 29.4305   1
   7  -3  -6 23.2723 48.1683  20
   7  -3  -6 117.053 529.898  63
   7  -3  -5 66.6123 33.7105  60
   7  -3  -5 100.426 35.4914   1
   7  -3  -5 23.7398 38.7614  14
   7  -3  -4 11957.5 474.634  14
   7  -3  -4 13025.2 475.404   1
   7  -3  -4 11807.3 473.777  20
   7  -3  -4 11898.4 500.404  63
   7  -3  -3 7571.73 295.595   1
  -7  -3   3 6703.32 304.042  32
   7  -3  -3 6742.22 292.978  14
   7  -3  -3 6953.63 293.704   2
   7  -3  -3 6741.68 290.622  20
   7  -3  -3 6755.06 308.922  63
   7  -3  -2 703.663 63.5818   1
  -7  -3   2 730.717 93.0737  32
   7  -3  -2 593.915 66.1563  14
   7  -3  -2 714.513 84.8920  48
   7  -3  -2 768.918 74.0184   2
   7  -3  -2 672.416 62.4808  20
   7  -3  -2 581.253 51.9888   4
   7  -3  -2 680.135 85.4096  63
   7  -3  -1 316.286 41.1851   4
   7  -3  -1 307.551 55.3222  35
   7  -3  -1 384.476 64.3936   2
   7  -3  -1 200.330 41.2905  53
  -7  -3   1 336.068 82.9712  32
   7  -3  -1 346.712 75.9778  48
   7  -3  -1 341.181 60.8114   5
   7  -3  -1 261.411 45.8652  20
   7  -3  -1 243.747 31.4931  38
   7  -3   0 3397.13 183.803  35
   7  -3   0 3267.12 170.717  53
  -7  -3   0 4254.80 194.382  32
   7  -3   0 4161.01 171.119   5
  -7  -3   0 4020.04 180.549  40
  -7  -3   0 2787.56 367.550  39
   7  -3   0 4227.61 180.614   2
  -7  -3   0 4262.54 173.724   9
   7  -3   0 3341.73 161.593  20
   7  -3   0 3487.31 161.215  38
   7  -3   0 3679.06 163.660   4
   7  -3   0 3816.78 175.728   1
   7  -3   1 1282.73 97.2994  35
   7  -3   1 1328.86 84.1878  53
   7  -3   1 1244.14 98.0514  48
   7  -3   1 1490.60 79.8481   5
  -7  -3  -1 1066.82 75.0729  45
  -7  -3  -1 1403.13 95.6569  40
  -7  -3  -1 988.016 124.508  39
  -7  -3  -1 1486.81 88.0527   9
   7  -3   1 1427.54 90.4062   2
   7  -3   1 1335.58 72.4175  38
   7  -3   1 1276.45 72.8451   4
   7  -3   1 1321.83 81.1087   1
  -7  -3  -1 1165.95 68.6795   8
  -7  -3  -2 138.585 32.2088   8
   7  -3   2 145.942 32.4215   4
   7  -3   2 171.985 51.3088  35
   7  -3   2 115.299 32.3502   1
   7  -3   2 171.173 39.3173  53
  -7  -3  -2 171.934 55.3312  32
   7  -3   2 125.318 46.8732  48
  -7  -3  -2 100.356 36.4394  45
   7  -3   2 226.291 37.8978   5
  -7  -3  -2 123.403 54.2390  40
  -7  -3  -2 216.513 54.0213   9
   7  -3   2 180.662 29.6247  38
   7  -3   3 186.305 31.6604  53
  -7  -3  -3 205.770 41.1683  32
  -7  -3  -3 238.579 45.4774   9
  -7  -3  -3 192.506 26.9533   8
   7  -2  -9 299.506 31.6081  60
   7  -2  -8 2233.01 99.7899  60
   7  -2  -8 1906.69 103.796  20
   7  -2  -8 2187.15 680.255  63
   7  -2  -7 356.090 39.7122  60
   7  -2  -7 340.874 41.8985   1
   7  -2  -7 345.627 49.0421  20
   7  -2  -7 362.287 266.356  63
   7  -2  -6 136.807 33.8537  60
   7  -2  -6 163.113 38.5212   1
   7  -2  -6 156.772 46.7268  20
   7  -2  -5 415.223 42.1874  60
   7  -2  -5 524.935 52.1876  14
   7  -2  -5 585.411 55.3099   1
   7  -2  -5 622.759 60.7762  20
   7  -2  -5 648.365 99.5923  63
   7  -2  -4 2424.98 127.764  14
   7  -2  -4 2667.50 130.257   1
   7  -2  -4 2590.18 160.811  63
   7  -2  -3 1012.36 76.6864  14
   7  -2  -3 1144.59 80.0398   2
   7  -2  -3 1032.52 79.6941  20
   7  -2  -3 1080.26 107.489  63
   7  -2  -2 1939.41 120.022  53
   7  -2  -2 2745.66 134.115  14
   7  -2  -2 3316.89 161.445  48
  -7  -2   2 2634.97 131.015  45
   7  -2  -2 2722.04 133.523   2
   7  -2  -2 2695.35 132.659  20
   7  -2  -2 2198.90 114.597  38
   7  -2  -2 2904.02 153.473  63
   7  -2  -1 175.853 56.1448  35
   7  -2  -1 181.540 47.1945   1
   7  -2  -1 213.888 47.5176  53
   7  -2  -1 202.382 56.9158   2
  -7  -2   1 187.050 89.7063  32
   7  -2  -1 225.326 77.1026  48
  -7  -2   1 192.279 56.2601  45
   7  -2  -1 153.096 60.3311   5
  -7  -2   1 256.070 71.4942  40
  -7  -2   1 183.593 52.9273   9
   7  -2  -1 216.099 51.3195  20
   7  -2  -1 149.333 34.5044  38
   7  -2  -1 88.3369 60.9068  63
   7  -2   0 830.067 89.1439  35
   7  -2   0 772.390 73.5006  53
  -7  -2   0 1000.72 79.3151  45
   7  -2   0 1071.19 79.5650   5
  -7  -2   0 1023.59 98.6802  40
  -7  -2   0 985.041 77.0647   9
   7  -2   0 1016.41 81.6654   2
   7  -2   0 850.982 69.8849  20
   7  -2   0 894.374 63.7361  38
   7  -2   0 988.174 73.3615   1
   7  -2   1 782.119 87.3838  35
   7  -2   1 818.810 74.3623  53
  -7  -2  -1 871.475 91.4868  32
   7  -2   1 845.647 86.4036  48
  -7  -2  -1 849.350 73.5770  45
   7  -2   1 878.369 71.2797   5
  -7  -2  -1 820.048 92.7890  40
  -7  -2  -1 773.066 71.7569   9
   7  -2   1 635.376 73.2932   2
   7  -2   1 630.410 55.1333  20
   7  -2   1 794.437 59.4229  38
   7  -2   1 861.088 64.5334   1
  -7  -2  -2 160.676 35.3544   8
   7  -2   2 155.826 61.0311  35
   7  -2   2 141.213 33.1931   1
   7  -2   2 108.931 42.7430  53
  -7  -2  -2 196.327 61.1760  32
   7  -2   2 168.687 55.0927   2
  -7  -2  -2 144.859 50.0623  45
   7  -2   2 168.784 47.8640   5
  -7  -2  -2 142.223 68.3944  40
  -7  -2  -2 160.486 55.7603   9
   7  -2   2 158.215 34.4197  38
  -7  -2  -3 60.7901 28.0395   8
   7  -2   3 26.1866 33.5264  53
   7  -2   3 24.9797 20.9406   1
   7  -2   3 57.0023 44.8147   2
  -7  -2  -3 87.3184 44.7549  32
  -7  -2  -3 101.101 39.3551  45
   7  -2   3 71.3110 35.5445   5
  -7  -2  -3 109.051 53.5281  40
  -7  -2  -3 25.7055 47.8442   9
   7  -2   3 70.9609 25.2807  38
   7  -1 -10 155.006 23.0427  62
   7  -1 -10 88.9842 19.5207  60
   7  -1  -9 1557.59 77.2797  60
   7  -1  -9 1811.17 83.5767  62
   7  -1  -8 1183.45 65.0706  60
   7  -1  -8 1018.11 66.7486  20
   7  -1  -7 1004.26 148.727  61
   7  -1  -7 1026.91 59.5767  60
   7  -1  -7 1031.12 69.6587   1
   7  -1  -7 937.894 67.1932  20
   7  -1  -7 1192.47 111.889  63
   7  -1  -7 1111.37 64.3281  62
   7  -1  -6 334.245 120.347  61
   7  -1  -6 375.970 36.0732  60
   7  -1  -6 399.667 50.1059   1
   7  -1  -6 385.369 50.1184  20
   7  -1  -6 387.778 93.7153  63
   7  -1  -6 356.841 38.4540  62
   7  -1  -5 1176.73 158.362  61
   7  -1  -5 1510.73 88.3000   1
   7  -1  -5 1503.56 88.4612  20
   7  -1  -5 1258.07 73.6794  62
   7  -1  -4 7331.68 310.412  14
   7  -1  -4 7449.63 313.640   5
   7  -1  -4 7591.93 316.467  20
   7  -1  -4 8403.70 346.851  63
   7  -1  -3 11477.2 546.577  61
   7  -1  -3 13060.2 492.382   1
   7  -1  -3 12216.5 487.176   5
   7  -1  -3 11494.5 483.836   2
  -7  -1   3 12803.8 496.206  40
   7  -1  -3 12186.9 512.694  63
   7  -1  -2 2607.66 235.858  61
   7  -1  -2 2822.13 133.875   1
  -7  -1   2 2794.90 142.141  45
   7  -1  -2 2755.46 135.167   5
  -7  -1   2 2883.93 151.899  40
   7  -1  -2 2501.54 129.960   2
   7  -1  -2 2594.04 138.919  20
   7  -1  -2 2297.62 122.330  38
   7  -1  -2 2680.24 159.342  63
   7  -1  -1 1443.24 88.2503   1
   7  -1  -1 1365.80 95.1251  53
  -7  -1   1 1560.13 102.519  45
  -7  -1   1 1669.68 119.328  40
   7  -1  -1 1398.25 91.3264   2
   7  -1  -1 1361.43 94.7512  20
   7  -1  -1 1429.66 83.7796  38
   7  -1  -1 1365.46 110.716  63
   7  -1   0 1468.64 86.9511   1
  -7  -1   0 1334.55 125.048  32
   7  -1   0 1471.03 98.0551  53
  -7  -1   0 1436.97 100.766  45
  -7  -1   0 1721.12 121.702  40
  -7  -1   0 1233.33 85.7068   9
   7  -1   0 1455.14 93.1170   2
   7  -1   0 1174.00 90.3834  20
   7  -1   0 1600.21 86.5267  38
   7  -1   0 1161.85 98.3386  63
   7  -1   1 1976.01 104.371   1
   7  -1   1 1810.92 99.3910  54
  -7  -1  -1 1916.66 135.210  32
   7  -1   1 2158.38 121.570  53
  -7  -1  -1 2211.83 120.804  45
   7  -1   1 2403.55 116.062   5
  -7  -1  -1 2141.89 139.875  40
  -7  -1  -1 1888.16 107.863   9
   7  -1   1 1541.48 107.208  20
   7  -1   1 1959.14 114.428   2
   7  -1   1 2439.44 110.800  38
   7  -1   2 926.938 61.0436   1
   7  -1   2 1003.58 64.6752  54
   7  -1   2 1225.96 85.6320  53
  -7  -1  -2 1063.77 86.7948  32
  -7  -1  -2 1187.90 84.6378  45
   7  -1   2 1237.90 79.3159   5
  -7  -1  -2 1154.25 103.418  40
  -7  -1  -2 1069.46 79.3031   9
   7  -1   2 806.933 65.3744  20
   7  -1   2 1177.66 70.8153  38
   7  -1   2 1101.11 81.5387   2
   7  -1   3 409.082 38.8569  54
  -7  -1  -3 328.541 52.2183  32
  -7  -1  -3 470.567 54.1129  45
   7  -1   3 419.427 52.6217   5
  -7  -1  -3 433.220 57.0777   9
   7  -1   3 456.611 56.4027   2
  -7  -1  -4 323.542 39.8606  45
   7  -1   4 349.707 38.2263   5
  -7  -1  -4 363.597 47.4359   9
  -7  -1  -4 327.945 47.9294  40
   7  -1   4 365.420 43.0238   2
   7  -1   4 321.811 30.1558  38
   7   0 -10 721.525 39.4493  60
   7   0 -10 829.204 47.1137  62
   7   0  -9 184.858 33.0406  62
   7   0  -9 171.997 24.3698  60
   7   0  -8 226.458 87.9400  61
   7   0  -8 284.157 31.7096  60
   7   0  -8 291.894 84.0005  63
   7   0  -8 425.703 42.5256  62
   7   0  -7 5220.02 280.669  61
   7   0  -7 4986.54 208.789  60
   7   0  -7 5300.99 226.109   1
   7   0  -7 4720.16 215.092  20
   7   0  -7 5218.27 246.038  63
   7   0  -6 1966.35 166.468  61
   7   0  -6 1601.56 94.1870  20
   7   0  -6 1823.08 131.116  63
   7   0  -6 1929.04 95.3932  62
   7   0  -5 1632.18 162.091  61
   7   0  -5 1602.99 90.2466   1
   7   0  -5 1388.31 87.3243  20
   7   0  -5 1537.27 125.732  63
   7   0  -5 1400.49 82.9121  62
   7   0  -4 16.8600 35.8988   1
   7   0  -4 9.18076 47.7780   5
   7   0  -4 60.1893 46.1351  20
   7   0  -3 19321.7 825.122  61
   7   0  -3 21464.5 773.958   1
   7   0  -3 20146.2 768.800   5
  -7   0   3 18701.1 775.297  41
   7   0  -3 19613.2 777.213  20
   7   0  -3 18989.5 795.548  63
   7   0  -2 2376.23 176.693  61
   7   0  -2 2822.35 124.381   1
   7   0  -2 2979.01 128.726   5
  -7   0   2 2627.03 132.216  41
   7   0  -2 2059.23 115.053   2
   7   0  -2 2765.15 122.523  38
   7   0  -2 2505.32 154.385  63
   7   0  -2 2007.01 109.004  37
   7   0  -1 2258.75 169.343  61
   7   0  -1 2226.63 115.520  54
   7   0  -1 2438.11 118.904   1
  -7   0   1 2953.52 143.594  45
   7   0  -1 2620.97 129.697   5
  -7   0   1 2188.15 127.186  41
   7   0  -1 2014.52 116.931   2
   7   0  -1 2435.14 134.292  20
   7   0  -1 2892.04 125.397  38
   7   0  -1 2414.64 151.898  63
   7   0  -1 2463.82 113.290  37
   7   0   0 982.206 62.0481   1
   7   0   0 922.062 64.2954  54
   7   0   0 973.113 82.5227  53
  -7   0   0 1140.97 90.6744  45
   7   0   0 1089.31 81.9368   5
  -7   0   0 872.384 74.9402  41
  -7   0   0 1140.21 109.777  40
  -7   0   0 741.920 66.2478   9
   7   0   0 902.776 71.1502   2
   7   0   0 741.946 77.8991  20
   7   0   0 1132.12 71.6243  38
   7   0   0 854.176 96.2884  63
   7   0   0 945.077 59.5094  37
   7   0   1 80.8325 34.6548  54
   7   0   1 109.514 52.1001  53
  -7   0  -1 7.96101 92.6362  32
   7   0   1 98.1214 48.3130   2
   7   0   1 55.4268 25.4227   1
  -7   0  -1 105.815 46.8002  41
  -7   0  -1 107.673 84.1418  40
  -7   0  -1 72.1459 50.9023   9
   7   0   1 80.5874 50.2838  20
   7   0   1 68.8789 59.2813  63
   7   0   1 109.316 29.9347  37
   7   0   2 1790.27 92.6199  54
  -7   0  -2 1377.55 100.292  32
  -7   0  -2 1529.07 91.9566  41
  -7   0  -2 1642.98 95.6161   9
   7   0   2 1553.83 95.5310  20
   7   0   2 1574.16 96.7065   2
   7   0   2 1829.95 86.6151  37
   7   0   3 802.548 56.8277  54
  -7   0  -3 928.014 68.6079  45
   7   0   3 937.244 68.9567   5
  -7   0  -3 705.453 54.7898  41
  -7   0  -3 981.645 81.5735  40
  -7   0  -3 812.869 67.7807   9
   7   0   3 590.833 52.9888  20
   7   0   3 836.012 54.2839  38
   7   0   3 782.184 64.0082   2
   7   0   3 888.888 51.9167  37
   7   0   4 224.363 28.6255  54
   7   0   4 202.785 37.8595   2
  -7   0  -4 224.363 36.9670  45
   7   0   4 220.302 40.8475   5
  -7   0  -4 183.289 45.8877  40
  -7   0  -4 250.200 43.4043   9
   7   0   4 200.784 25.8304  38
   7   1 -10 94.9080 18.5751  64
   7   1  -9 1600.67 76.6372  64
   7   1  -8 976.589 118.017  61
   7   1  -8 1195.76 64.9841  64
   7   1  -8 1056.72 86.8646  63
   7   1  -7 891.093 127.967  61
   7   1  -7 933.849 57.2952  64
   7   1  -7 916.388 91.8432  63
   7   1  -6 279.589 47.3291   1
   7   1  -6 439.558 118.483  61
   7   1  -6 407.786 115.496  59
   7   1  -6 324.068 40.5446  20
   7   1  -6 334.494 33.7722  64
   7   1  -6 354.005 80.6903  63
   7   1  -6 457.824 47.9748  62
   7   1  -5 1122.00 133.185  59
   7   1  -5 1493.36 85.7095   1
   7   1  -5 1222.42 81.4766  20
   7   1  -5 1518.64 120.929  63
   7   1  -5 1531.47 85.3438  62
   7   1  -4 7476.30 367.340  61
   7   1  -4 6348.92 340.873  59
   7   1  -4 7023.78 300.444   5
   7   1  -4 8702.29 311.543   1
   7   1  -4 7213.65 310.644  20
   7   1  -4 7812.45 339.270  63
   7   1  -3 11658.8 528.428  61
   7   1  -3 11567.2 470.315   5
   7   1  -3 12700.6 476.020   1
   7   1  -3 11737.3 482.037  20
   7   1  -2 2452.25 175.686  61
   7   1  -2 2575.08 126.812   5
   7   1  -2 2788.50 123.085   1
  -7   1   2 2460.86 144.697  41
   7   1  -2 2387.45 135.812  20
   7   1  -2 2503.76 163.304  63
   7   1  -2 2631.54 122.492  37
   7   1  -1 1188.67 120.050  61
   7   1  -1 1252.37 80.4614  54
   7   1  -1 1277.93 73.1039   1
   7   1  -1 1400.82 89.2113   5
  -7   1   1 1450.69 103.372  41
   7   1  -1 1485.87 84.5368  38
   7   1  -1 1591.95 124.465  63
   7   1  -1 1413.93 78.3695  37
   7   1   0 1338.05 84.0679  54
   7   1   0 1398.27 91.5200   5
  -7   1   0 1458.71 100.714  41
   7   1   0 1335.62 117.032  63
   7   1   0 1427.83 80.6968  37
   7   1   1 2068.08 107.410  54
   7   1   1 1774.50 95.5080   6
  -7   1  -1 2131.06 117.817  45
   7   1   1 2066.33 112.004   5
  -7   1  -1 2208.85 117.419  41
  -7   1  -1 1637.62 99.1085   9
   7   1   1 1926.85 103.249  38
   7   1   1 1760.66 128.390  63
   7   1   1 2160.09 102.526  37
   7   1   2 1128.37 71.6037  54
  -7   1  -2 720.434 71.4989  32
  -7   1  -2 1102.88 80.1796  45
   7   1   2 1082.51 78.7990   5
  -7   1  -2 1000.74 76.1885  41
  -7   1  -2 1002.75 94.3004  40
  -7   1  -2 928.112 70.8042   9
   7   1   2 1011.92 64.9383  38
   7   1   2 814.363 81.8304  63
   7   1   2 1173.93 66.3792  37
   7   1   3 421.495 43.0763  54
  -7   1  -3 512.434 51.3142  45
  -7   1  -3 439.001 49.0076  41
   7   1   3 434.990 56.2011   5
  -7   1  -3 409.561 64.5548  40
  -7   1  -3 362.892 50.6869   9
   7   1   3 331.240 36.3025  38
   7   1   3 460.038 39.4667  37
   7   1   4 290.413 30.8225  54
  -7   1  -4 251.308 35.1838  45
  -7   1  -4 340.260 44.6869  40
  -7   1  -4 306.331 39.2270   9
   7   1   4 344.489 28.4121  37
   7   2  -9 322.456 31.1942  64
   7   2  -9 386.701 37.5530  62
   7   2  -8 2126.54 154.247  61
   7   2  -8 1953.00 163.842  59
   7   2  -8 2311.47 105.645  64
   7   2  -8 2417.42 112.659  62
   7   2  -7 414.040 106.185  61
   7   2  -7 386.862 37.7141  64
   7   2  -7 340.320 63.1326  63
   7   2  -6 158.847 105.256  61
   7   2  -6 166.452 108.465  59
   7   2  -6 218.811 70.8319  63
   7   2  -5 554.683 111.120  59
   7   2  -5 397.710 44.9021  20
   7   2  -5 537.682 84.7960  63
   7   2  -4 2176.71 170.929  61
   7   2  -4 2027.50 148.969  59
  -7   2   4 2043.64 139.738  56
   7   2  -4 1974.65 104.313   1
   7   2  -4 1922.37 106.956  20
   7   2  -4 2352.44 145.125  63
   7   2  -3 1082.24 124.326  61
   7   2  -3 593.660 91.4796  59
   7   2  -3 849.991 56.0653   1
  -7   2   3 696.886 88.5895  56
   7   2  -3 783.801 56.8029   5
   7   2  -3 770.787 70.0141  20
   7   2  -3 1023.62 110.365  63
   7   2  -2 2787.16 174.571  61
  -7   2   2 2931.29 154.051  41
   7   2  -2 2740.48 125.626  37
   7   2  -1 283.524 76.1925  61
  -7   2   1 148.678 54.7622  46
   7   2  -1 170.368 47.7990   5
  -7   2   1 256.842 72.8907  41
   7   2  -1 201.361 90.0025  63
   7   2  -1 209.599 38.6522  37
   7   2   0 959.956 69.9024  54
  -7   2   0 918.815 76.3461  46
  -7   2   0 892.146 82.6913  45
   7   2   0 892.638 70.1415   5
  -7   2   0 923.388 87.5875  41
   7   2   0 848.953 109.799  63
   7   2   0 917.979 64.4080  37
   7   2   1 758.718 62.3699  54
   7   2   1 643.619 51.4375   6
  -7   2  -1 638.351 64.0738  46
  -7   2  -1 734.394 70.7217  45
   7   2   1 702.753 66.2709   5
  -7   2  -1 860.258 77.0121  41
   7   2   1 827.068 57.8398  37
   7   2   1 518.897 90.8569  63
   7   2   2 105.451 35.9053  54
   7   2   2 113.065 35.1324   6
  -7   2  -2 143.295 42.2845  46
  -7   2  -2 95.8920 45.4841  45
  -7   2  -2 175.066 49.4549  41
   7   2   2 158.596 50.8795   5
  -7   2  -2 111.650 63.2043  40
  -7   2  -2 123.167 40.7259   9
   7   2   2 196.800 65.0931  63
   7   2   2 176.767 31.9583  37
   7   2   3 45.7149 27.8999  54
   7   2   3 57.3986 29.7109   6
  -7   2  -3 12.6110 30.2112  46
  -7   2  -3 51.8670 32.7990  45
   7   2   3 50.1196 41.4671   5
  -7   2  -3 85.9492 37.9510  41
  -7   2  -3 51.6103 46.8951  40
  -7   2  -3 72.7701 34.9128   9
   7   2   3 3.00356 40.2425  63
   7   2   3 33.9275 22.9367  37
   7   3  -8 908.941 97.3381  61
   7   3  -7 539.768 104.469  61
   7   3  -7 496.715 110.936  59
   7   3  -6 49.9679 99.1799  61
   7   3  -6 28.5130 100.167  59
   7   3  -5 34.4701 91.0457  59
  -7   3   5 109.476 92.5945  56
   7   3  -5 156.607 67.2307  63
   7   3  -4 9557.94 453.335  59
  -7   3   4 10325.3 455.992  56
  -7   3   4 10523.0 434.404  46
   7   3  -4 10741.7 446.258  63
   7   3  -3 6400.47 283.682  61
   7   3  -3 4403.47 244.548  59
  -7   3   3 5348.43 257.066  56
  -7   3   3 5876.75 241.440  46
   7   3  -3 4558.52 222.864  20
   7   3  -3 6008.65 258.293  63
   7   3  -2 661.999 96.1049  61
  -7   3   2 729.036 90.4647  56
  -7   3   2 721.482 78.0435  46
  -7   3   2 521.071 68.5731  22
  -7   3   2 596.758 88.7143  41
   7   3  -2 683.520 101.513  63
   7   3  -1 293.323 69.3592  61
   7   3  -1 276.292 38.3537  36
  -7   3   1 257.252 69.0789  56
   7   3  -1 279.056 35.3061  15
  -7   3   1 338.115 62.2392  46
  -7   3   1 358.520 69.4310  22
  -7   3   1 340.608 76.7786  41
   7   3  -1 371.369 43.7620  37
   7   3   0 3730.20 173.404  36
  -7   3   0 3683.50 183.005  46
  -7   3   0 3622.35 180.192  45
  -7   3   0 3959.83 191.650  41
   7   3   0 4264.52 178.203  37
  -7   3  -1 1234.31 83.1470  46
  -7   3  -1 1195.97 78.5837  45
   7   3   1 1023.97 72.5713   5
  -7   3  -1 1705.52 98.1629  22
  -7   3  -1 1355.62 89.9255  41
   7   3   1 1467.18 76.3031  37
  -7   3  -2 116.704 40.1144  46
  -7   3  -2 144.174 35.4142  45
  -7   3  -2 193.354 64.5952  22
   7   3   2 181.356 39.9356   5
  -7   3  -2 117.364 42.9024  41
  -7   3  -2 150.243 52.2329  40
   7   3   2 87.6271 62.2918  63
   7   3   3 177.149 26.3528   6
   7   3   3 224.705 33.6421   5
  -7   3  -3 182.826 34.3056  41
   7   4  -7 248.419 80.8195  61
   7   4  -7 392.617 84.9724  59
  -7   4   7 233.447 79.3877  56
   7   4  -6 2146.51 151.405  59
  -7   4   6 2395.37 152.990  56
   7   4  -5 611.937 98.6967  59
  -7   4   5 729.532 105.031  56
  -7   4   5 841.679 78.9158  46
   7   4  -4 359.070 94.2855  61
   7   4  -4 171.347 72.9107  59
  -7   4   4 180.180 83.9859  56
  -7   4   4 206.349 66.6853  46
   7   4  -4 213.894 64.3319  63
   7   4  -3 1823.22 129.434  61
  -7   4   3 1446.41 120.232  56
  -7   4   3 1732.23 106.817  46
   7   4  -3 1599.22 112.736  63
   7   4  -2 1439.86 109.451  61
  -7   4   2 1244.38 107.177  56
  -7   4   2 1293.41 95.0309  46
  -7   4   2 1289.03 100.697  41
   7   4  -2 1277.80 110.380  63
   7   4  -1 269.657 38.4248  36
  -7   4   1 229.745 62.8918  56
  -7   4   1 265.933 60.0573  46
  -7   4   1 350.759 49.5585  45
  -7   4   1 310.217 63.1279  22
  -7   4   1 322.419 64.2444  41
   7   4  -1 296.493 83.8945  63
   7   4   0 15.3430 25.9715  36
  -7   4   0 5.92606 46.5267  56
   7   4   0 29.5126 23.8683  15
  -7   4   0 8.81405 45.9029  46
  -7   4   0 55.3060 33.1131  45
  -7   4   0-0.90269 62.7281  22
  -7   4   0-17.2609 48.1906  41
   7   4   1 1579.40 86.6629  36
  -7   4  -1 1753.56 96.2248  46
  -7   4  -1 1775.59 99.5823  41
  -7   4  -2 185.195 49.5703  22
  -7   4  -2 113.962 30.0176  41
   7   5  -5 176.788 67.3628  61
   7   5  -5 48.1078 60.8043  59
  -7   5   5 214.341 67.7086  56
  -7   5   5 170.207 50.2915  41
   7   5  -4 3610.81 171.764  61
  -7   5   4 3222.67 168.265  56
  -7   5   4 3265.55 151.064  46
  -7   5   4 3524.13 154.493  41
   7   5  -3 5074.92 218.433  61
  -7   5   3 4414.58 202.069  46
  -7   5   3 4897.94 206.934  41
  -7   5   2 536.171 67.6316  56
  -7   5   2 567.255 60.5688  46
  -7   5   2 548.266 57.0494  41
  -7   5   1 200.600 50.4513  56
  -7   5   1 251.681 46.2514  46
  -7   5   1 222.567 44.5392  22
  -7   5   1 251.123 42.5687  41
   7   5  -1 161.661 56.3480  63
  -7   5   0 799.145 53.6103  22
   7   5   0 272.249 59.7457  63
   8  -4  -6 952.137 59.6944  20
  -8  -4   5 568.610 110.116  47
   8  -4  -5 902.065 57.9445  20
   8  -4  -4 101.006 26.0337   1
  -8  -4   4 84.6504 90.9249  39
   8  -4  -4 146.402 34.5405  20
   8  -4  -3 251.501 33.2506  20
   8  -4  -3 215.267 29.4245   1
  -8  -4   2 116.851 66.0746  49
   8  -4  -2 207.331 30.1540   1
   8  -4  -2 147.546 24.4503  20
  -8  -4   1 118.658 61.0616  49
   8  -4  -1 195.158 27.3013   1
  -8  -4   1 248.913 63.3305  39
   8  -3  -7 166.324 26.5947   1
   8  -3  -7 270.904 43.1451  20
  -8  -3   6-10.6161 88.1419  39
   8  -3  -6 174.770 30.5811   1
   8  -3  -6-217.026 542.555  63
   8  -3  -5 223.131 35.5731   1
   8  -3  -5 235.923 46.2582  20
   8  -3  -5 114.184 399.789  63
  -8  -3   4 253.903 59.8095  32
   8  -3  -4 251.975 46.2214  20
   8  -3  -4 223.071 38.0949   1
   8  -3  -4 214.704 268.856  63
  -8  -3   3 1198.47 96.9728  32
   8  -3  -3 1427.84 79.2069   1
   8  -3  -3 1200.31 78.4713  20
   8  -3  -3 995.734 217.894  63
   8  -3  -2 56.8353 48.0774   2
  -8  -3   2 91.8453 64.2413  32
  -8  -3   2-124.088 313.505  39
   8  -3  -2 58.6358 35.2927  20
   8  -3  -1 198.520 49.3830   2
  -8  -3   1 110.255 61.4565  32
   8  -3  -1 149.008 33.2387   1
  -8  -3   1 84.0868 232.142  39
   8  -3  -1 154.630 31.4172  20
   8  -3   0 210.597 45.0770   2
  -8  -3   0 99.9543 51.5587  32
   8  -3   0 120.703 28.9238   1
  -8  -3   0 149.088 73.4900  39
  -8  -3   0 207.832 41.8028   9
   8  -2  -8 150.017 37.2247  20
   8  -2  -7 153.320 32.2194   1
   8  -2  -7 198.301 40.2053  20
   8  -2  -6 135.062 35.4118   1
   8  -2  -6 201.122 46.2467  20
   8  -2  -6 171.315 110.521  63
   8  -2  -5 85.1465 35.5467   1
   8  -2  -5 78.4523 47.9044  20
   8  -2  -5 174.767 84.8974  63
  -8  -2   4 1158.98 101.681  32
   8  -2  -4 1143.48 105.970  63
  -8  -2   3 1075.48 103.177  32
   8  -2  -3 1148.04 75.4855   2
   8  -2  -3 946.468 75.5107  20
   8  -2  -3 933.836 95.7759  63
   8  -2  -2 44.5706 47.7677   2
  -8  -2   2 134.527 85.4092  32
   8  -2  -2 39.0071 35.5418   1
   8  -2  -2 72.4312 45.9098  20
   8  -2  -2 124.186 60.3167  63
   8  -2  -1 150.003 49.2034   2
  -8  -2   1 111.953 75.0718  32
   8  -2  -1 142.948 36.7924   1
  -8  -2   1 185.800 47.3876  45
   8  -2  -1 127.204 57.1647   5
   8  -2  -1 72.7440 40.1495  20
   8  -2  -1 79.1669 27.3462  38
   8  -2   0 63.0595 46.6032   2
   8  -2   0 76.4534 30.1101   1
  -8  -2   0 73.5249 42.0952  45
   8  -2   0 70.3202 50.3312   5
  -8  -2   0 62.5596 56.1298  40
  -8  -2   0 230.708 261.372  39
  -8  -2   0 48.3932 41.2460   9
   8  -2   0 22.9528 29.5295  20
   8  -2   0 55.8607 26.2692  38
   8  -2   1 26.3818 40.3657   2
  -8  -2  -1 43.0574 47.8045  32
   8  -2   1 17.8069 21.4304   1
  -8  -2  -1 63.4098 35.6657  45
   8  -2   1 9.50324 39.9401   5
  -8  -2  -1 47.8966 50.4399  40
  -8  -2  -1 2.70692 39.0929   9
   8  -2   1 27.2307 22.2734  38
   8  -1  -9 588.124 37.1357  62
   8  -1  -8 714.794 312.215  63
   8  -1  -8 1037.34 56.9742  62
   8  -1  -7 454.744 45.6554   1
   8  -1  -7 413.282 45.4116  20
   8  -1  -7 416.470 88.1871  63
   8  -1  -6 307.186 44.2038   1
   8  -1  -6 264.053 46.4679  20
   8  -1  -5 955.749 256.151  61
   8  -1  -5 783.682 68.1906  20
   8  -1  -5 836.995 107.399  63
   8  -1  -4 1630.52 328.305  61
  -8  -1   4 1502.12 98.3890  45
   8  -1  -4 1576.18 90.2001   1
   8  -1  -4 1456.81 94.9706  20
   8  -1  -4 1458.78 124.402  63
   8  -1  -3 1884.35 98.2076   1
  -8  -1   3 1898.82 108.862  45
   8  -1  -3 1852.57 106.558   5
   8  -1  -3 1791.68 129.057  63
   8  -1  -2 524.110 51.4367   1
  -8  -1   2 488.365 67.3279  45
   8  -1  -2 492.502 69.9808   5
   8  -1  -2 417.275 52.6446   2
  -8  -1   2 513.030 77.2226  40
   8  -1  -2 425.392 60.9252  20
   8  -1  -2 389.244 78.7869  63
   8  -1  -1 90.8632 44.2253   2
  -8  -1   1 53.1365 56.0156  45
   8  -1  -1 122.718 33.3562   1
  -8  -1   1 94.6539 70.3832  40
   8  -1  -1 114.932 47.7712  20
   8  -1  -1 54.4971 30.1109  38
   8  -1  -1 49.0617 58.8703  63
   8  -1   0 20.2322 42.1255   2
  -8  -1   0 113.010 76.9849  32
  -8  -1   0 30.7160 51.7841  45
   8  -1   0 119.947 28.0294   1
  -8  -1   0 68.8068 69.8036  40
   8  -1   0 72.3326 40.2058  20
   8  -1   0 49.1082 29.5236  38
  -8  -1  -1 478.546 63.1031  32
  -8  -1  -1 556.137 57.2550  45
   8  -1   1 576.309 57.7157   5
  -8  -1  -1 506.765 72.0640  40
   8  -1   1 457.342 50.7558   2
  -8  -1  -1 406.093 47.4667   9
   8  -1   1 358.878 43.0179  20
   8  -1   1 442.577 41.0900  38
  -8  -1  -2 349.812 47.3332  32
  -8  -1  -2 475.808 45.5347  45
   8  -1   2 413.470 45.5131   5
  -8  -1  -2 415.714 56.2173  40
  -8  -1  -2 362.350 40.5968   9
   8  -1   2 451.125 43.5328   2
   8  -1   2 406.236 34.3430  38
   8   0  -9 553.646 39.0808  62
   8   0  -8 331.644 127.145  61
   8   0  -8 268.957 101.773  63
   8   0  -8 307.512 35.6537  62
   8   0  -7 6.18287 28.6619  62
   8   0  -7-146.303 108.365  61
   8   0  -7-14.8164 30.0343  20
   8   0  -7 6.01631 73.5089  63
   8   0  -6 84.5496 109.400  61
   8   0  -6 108.118 38.3134   1
   8   0  -6 77.1726 38.8678  20
   8   0  -6 149.332 83.1071  63
   8   0  -5 513.583 56.4606  20
   8   0  -5 494.402 51.9428   1
   8   0  -4 534.198 127.018  61
   8   0  -4 565.972 62.8134   5
   8   0  -4 555.206 53.7286   1
   8   0  -4 547.797 63.4677  20
   8   0  -4 450.773 97.5723  63
   8   0  -3 98.1214 105.600  61
   8   0  -3 34.1160 32.2085   1
  -8   0   3 48.3609 67.2922  45
   8   0  -3 153.452 55.8049   5
  -8   0   3 81.2513 71.2383  40
   8   0  -3 63.4000 49.5383  20
   8   0  -3 159.329 85.2436  63
   8   0  -2 3159.23 260.510  61
   8   0  -2 3303.22 149.240   1
  -8   0   2 3414.49 167.263  45
   8   0  -2 3268.04 155.090   5
  -8   0   2 3587.78 178.393  40
   8   0  -2 2756.76 176.772  63
   8   0  -1 1634.16 87.8637   1
  -8   0   1 1925.95 112.078  45
   8   0  -1 1907.63 104.011   5
  -8   0   1 1859.83 127.548  40
   8   0  -1 1696.59 106.773  20
   8   0  -1 1667.26 120.414  63
  -8   0   0 55.1221 90.6039  32
  -8   0   0 38.5658 54.9212  45
   8   0   0 96.1911 54.7951   5
  -8   0   0-10.9202 71.7318  40
   8   0   0-25.7516 44.8344  20
   8   0   0 22.7391 30.4435  38
   8   0   0 64.3975 58.0281  63
  -8   0  -1 656.368 70.1709  32
  -8   0  -1 924.816 70.1241  45
  -8   0  -1 814.286 82.9699  40
   8   0   1 612.194 59.8081  20
   8   0   1 868.632 55.0154  38
  -8   0  -2 360.950 55.8045  40
   8   0   2 242.043 32.9007  20
   8   0   2 307.552 31.9583  38
   8   1  -8 820.810 102.833  61
   8   1  -8 840.679 77.3573  63
   8   1  -7 340.543 105.323  61
   8   1  -7 348.546 71.7311  63
   8   1  -6 210.353 111.436  61
   8   1  -6 210.431 38.7026   1
   8   1  -6 239.056 36.9990  20
   8   1  -6 212.791 76.8403  63
   8   1  -5 628.523 54.9870   1
  -8   1   5 846.457 81.8615  41
   8   1  -5 629.411 57.0404  20
   8   1  -5 748.235 99.8131  63
   8   1  -4 1478.32 146.972  61
   8   1  -4 1280.26 76.8050   1
  -8   1   4 1359.02 101.234  41
   8   1  -4 1346.62 86.7894  20
   8   1  -4 1358.54 124.641  63
   8   1  -3 1707.75 146.301  61
   8   1  -3 1588.99 89.4747   5
  -8   1   3 1557.15 105.590  41
   8   1  -3 1442.30 97.9705  20
   8   1  -3 1485.22 82.6436   1
   8   1  -2 425.940 94.4257  61
  -8   1   2 477.880 75.6555  45
   8   1  -2 448.178 58.0629   5
  -8   1   2 478.142 68.6534  41
   8   1  -2 382.702 37.2434   1
   8   1  -2 372.269 62.5678  20
   8   1  -2 585.091 96.0710  63
   8   1  -1 63.5773 49.2761   5
  -8   1   1 30.6326 48.8724  41
   8   1  -1 89.8047 75.5922  63
   8   1  -1 53.5870 26.3536  37
   8   1   0 118.265 51.2510   5
  -8   1   0 36.3484 44.0291  41
  -8   1   0 74.8365 71.4046  40
   8   1   0 85.4911 50.6859  20
   8   1   0 50.7834 63.8799  63
   8   1   0 63.8357 26.6561  37
  -8   1  -1 307.944 51.6549  32
  -8   1  -1 435.330 54.3040  45
  -8   1  -1 472.382 47.8393  41
   8   1   1 413.635 53.3637   5
   8   1   1 382.327 51.4724  20
   8   1   1 391.936 34.9256  37
   8   1   1 403.241 57.5922  63
  -8   1  -2 413.901 44.4264  45
   8   1   2 448.132 46.0910   5
  -8   1  -2 425.451 56.4389  40
   8   1   2 347.693 39.5060  20
   8   2  -8 178.836 75.1312  61
   8   2  -7 208.152 93.9098  61
   8   2  -7 97.0814 53.4153  63
   8   2  -6 180.424 67.9653  63
   8   2  -5 141.578 103.557  61
   8   2  -5 114.275 76.4643  63
   8   2  -4 998.410 126.915  61
  -8   2   4 1170.41 98.1400  41
   8   2  -4 1238.72 109.276  63
   8   2  -3 937.001 113.659  61
  -8   2   3 1023.82 92.2654  41
   8   2  -3 808.201 70.6382  20
   8   2  -3 1101.79 111.022  63
   8   2  -2 63.6426 69.8145  61
  -8   2   2 26.2117 54.3614  22
  -8   2   2 67.3612 61.3135  41
   8   2  -2 39.0491 47.7616  20
  -8   2   1 68.5704 55.5499  45
   8   2  -1 73.8416 41.7813   5
  -8   2   1 203.696 58.4119  41
   8   2  -1 94.4338 49.2719  20
   8   2  -1 209.449 82.0732  63
  -8   2   0 115.798 46.2257  45
   8   2   0 48.0276 39.9662   5
  -8   2   0 44.0043 48.2449  41
   8   2   0-24.3672 45.9784  20
   8   2   0 82.9197 67.4561  63
   8   2   0 79.0551 26.5757  37
  -8   2  -1 38.1325 36.9300  45
  -8   2  -1 22.6174 58.3974  22
   8   2   1-13.5689 36.6931   5
  -8   2  -1 32.3798 36.6792  41
  -8   2  -1 24.9873 50.1554  40
   8   2   1 2.53529 50.5809  63
   8   2   1 12.8038 20.4417  37
   8   3  -7 302.308 82.8344  61
   8   3  -7 250.156 78.1890  59
   8   3  -6 179.337 79.3286  59
   8   3  -5 254.858 91.9132  61
   8   3  -5 92.1183 70.9761  59
  -8   3   5 159.664 67.8143  41
   8   3  -5 190.655 63.5652  63
   8   3  -4 281.786 87.7435  61
  -8   3   4 242.091 69.9071  41
   8   3  -4 251.906 72.9460  63
   8   3  -3 1359.66 110.339  61
  -8   3   3 1424.10 97.2927  41
   8   3  -3 1245.84 103.664  63
   8   3  -2 45.4798 56.8709  61
  -8   3   2 99.8805 50.4577  45
  -8   3   2 111.204 58.2065  41
   8   3  -2 86.1957 40.3171  20
   8   3  -2 108.773 75.9956  63
  -8   3   1 199.763 45.8295  45
  -8   3   1 223.414 54.3171  22
  -8   3   1 129.740 51.5676  41
   8   3  -1 118.012 43.1296  20
  -8   3   0 181.768 38.7710  45
  -8   3   0 186.245 52.9514  22
  -8   3   0 198.426 43.6188  41
   8   3   0 122.954 39.6242  20
   8   3   0 72.4097 60.6231  63
   8   4  -6 475.810 65.6834  59
   8   4  -5 999.644 93.4083  61
  -8   4   5 958.627 74.3940  41
   8   4  -4 154.344 64.7909  61
   8   4  -4 69.6155 49.1896  63
   8   4  -3 176.718 56.7985  61
   8   4  -3 181.317 58.1735  63
  -8   4   2 203.019 38.1222  45
   8   4  -2 243.203 60.4514  63
   8   4  -1 116.245 28.3107  20
   8   4  -1 89.2902 53.6467  63
   9  -2  -6 148.825 27.3338   1
   9  -2  -6 210.630 34.1228  20
   9  -2  -6 112.426 269.613  63
   9  -2  -5 279.925 33.6898   1
   9  -2  -5 354.278 131.735  63
  -9  -2   4 573.469 70.3112  32
   9  -2  -4 628.729 51.6740  20
   9  -2  -4 631.030 90.8235  63
  -9  -2   3 896.221 84.2623  32
   9  -2  -3 1096.40 60.8652   1
   9  -2  -3 1051.62 63.3920  20
   9  -2  -3 848.039 91.1249  63
  -9  -2   2 523.197 66.5173  32
   9  -2  -2 641.172 42.9749   1
   9  -2  -2 550.409 44.2879  20
   9  -1  -7 1190.34 62.9542  20
   9  -1  -7 1277.56 161.907  63
   9  -1  -6 283.219 39.4299  20
   9  -1  -5 634.308 53.7334  20
   9  -1  -5 627.382 48.3230   1
   9  -1  -5 735.183 83.9751  63
   9  -1  -4 389.461 39.6254   1
   9  -1  -4 391.572 48.9891  20
   9  -1  -4 345.707 72.7179  63
  -9  -1   3 227.061 81.4814  32
   9  -1  -3 191.745 31.6772   1
   9  -1  -3 166.780 61.5603  63
   9  -1  -2 179.902 28.2472   1
  -9  -1   2 240.300 44.9471  45
   9  -1  -2 232.646 49.5013   5
   9  -1  -2 170.097 39.7233  20
   9  -1  -2 208.906 49.1749  63
  -9  -1   1 72.8697 52.4767  32
   9  -1  -1 71.3279 31.5449  20
   9   0  -7 152.848 60.9596  63
   9   0  -6 466.800 229.501  61
   9   0  -6 253.935 34.7053   1
   9   0  -6 348.255 37.8097  20
   9   0  -6 303.019 71.2210  63
   9   0  -5 19.0129 26.0688   1
  -9   0   5-2.48093 46.1240  45
   9   0  -5 2.02504 34.8348  20
   9   0  -4 10.2829 25.7260   1
  -9   0   4 90.6757 49.6659  45
   9   0  -4 11.1321 38.1820  20
   9   0  -4-16.5093 68.7594  63
  -9   0   3 2181.07 110.847  45
   9   0  -3 1817.49 101.264  20
   9   0  -3 1802.26 91.7108   1
   9   0  -3 2124.42 123.785  63
  -9   0   2 218.613 83.7870  32
  -9   0   2 401.518 54.2936  45
   9   0  -2 326.876 49.6365   5
  -9   0   2 347.425 59.6440  40
   9   0  -2 238.284 26.9881   1
   9   0  -2 293.502 62.8954  63
  -9   0   1 337.174 66.7769  32
  -9   0   1 277.982 48.8177  45
   9   0  -1 285.794 46.2042   5
   9   0  -1 195.455 39.7051  20
   9   0  -1 307.684 48.1770  63
   9   1  -7 1214.37 115.090  61
   9   1  -7 986.359 77.6688  63
   9   1  -6 285.781 66.4581  63
   9   1  -5 649.765 107.541  61
   9   1  -5 521.177 46.7570  20
   9   1  -5 688.587 81.9268  63
   9   1  -4 473.657 104.242  61
  -9   1   4 483.942 64.4617  45
   9   1  -4 283.127 41.9086  20
   9   1  -4 205.508 28.8500   1
  -9   1   3 272.786 56.2259  45
  -9   1   3 275.001 60.7309  40
   9   1  -3 189.872 42.7395  20
   9   1  -3 246.079 69.9551  63
  -9   1   2 159.812 46.9778  45
   9   1  -2 183.186 41.0530   5
  -9   1   2 246.531 59.8921  40
   9   1  -2 147.014 40.2327  20
   9   1  -2 163.352 64.5313  63
  -9   1   1 123.495 63.7509  32
  -9   1   1 119.076 39.9059  45
   9   1  -1 106.833 37.6462   5
  -9   1   1 94.9283 52.2090  40
   9   1  -1 127.968 50.1758  63
   9   2  -6 169.310 51.2687  63
   9   2  -5 361.754 82.7826  61
   9   2  -5 284.479 62.0676  63
   9   2  -4 590.408 85.3867  61
  -9   2   4 712.297 64.7566  45
   9   2  -4 676.554 76.1519  63
   9   2  -3 961.548 104.917  61
   9   2  -3 865.217 60.8296  20
   9   2  -2 452.433 45.9014  20
   9   2  -2 540.905 68.5239  63
   0   0   0    0.00    0.00   0

TITL Rochester_AS in P2(1)
REM P2(1) (#4 in standard setting)
CELL 1.54184   8.094771   6.725815   9.536782  90.0000 110.9991  90.0000
ZERR    2.00   0.000290   0.000168   0.000320   0.0000   0.0038   0.0000
LATT -1
SYMM -x, y+1/2,-z
SFAC C H N O F
UNIT 20.00 16.00 2.00 4.00 6.00
TREF
HKLF 4
END
;
_shelx_hkl_checksum              90562
_shelx_shelxl_version_number     2014/7
_olex2_submission_special_instructions 'No special instructions were received'
_oxdiff_exptl_absorpt_empirical_details
;
Empirical correction (ABSPACK) includes:
- Absorption correction using spherical harmonics
- Frame scaling
;
_oxdiff_exptl_absorpt_empirical_full_max 2.311
_oxdiff_exptl_absorpt_empirical_full_min 0.271
loop_
_space_group_symop_operation_xyz
'x, y, z'
'-x, y+1/2, -z'
loop_
_atom_site_label
_atom_site_type_symbol
_atom_site_fract_x
_atom_site_fract_y
_atom_site_fract_z
_atom_site_U_iso_or_equiv
_atom_site_adp_type
_atom_site_occupancy
_atom_site_site_symmetry_order
_atom_site_calc_flag
_atom_site_refinement_flags_posn
F3 F 0.8945(2) 0.7654(2) 0.13681(16) 0.0324(4) Uani 1 1 d .
F2 F 0.83021(19) 0.5916(3) -0.06483(15) 0.0313(4) Uani 1 1 d .
F1 F 1.04572(18) 0.5034(2) 0.13480(15) 0.0318(4) Uani 1 1 d .
O2 O 0.4671(2) 0.3353(3) 0.78524(18) 0.0293(4) Uani 1 1 d .
O1 O 0.2290(2) 0.3443(3) 0.5862(2) 0.0316(4) Uani 1 1 d .
N1 N 0.3905(2) 0.3398(3) 0.6481(2) 0.0232(4) Uani 1 1 d .
C1 C 0.8801(3) 0.5776(4) 0.0861(2) 0.0223(5) Uani 1 1 d .
C7 C 0.6814(3) 0.3436(4) 0.6218(2) 0.0229(5) Uani 1 1 d .
H7 H 0.7347 0.3428 0.7259 0.027 Uiso 1 1 calc R
C8 C 0.4993(3) 0.3397(4) 0.5536(2) 0.0215(5) Uani 1 1 d .
C10 C 0.5195(3) 0.3441(4) 0.3100(2) 0.0236(5) Uani 1 1 d .
H10 H 0.4657 0.3422 0.2059 0.028 Uiso 1 1 calc R
C2 C 0.7555(3) 0.4568(4) 0.1312(2) 0.0228(5) Uani 1 1 d .
H2 H 0.6335 0.5062 0.0964 0.027 Uiso 1 1 calc R
C6 C 0.7827(3) 0.3488(4) 0.5318(3) 0.0238(5) Uani 1 1 d .
H6 H 0.9054 0.3508 0.5762 0.029 Uiso 1 1 calc R
C9 C 0.4151(3) 0.3400(5) 0.3985(3) 0.0225(5) Uani 1 1 d .
H9 H 0.2923 0.3375 0.3550 0.027 Uiso 1 1 calc R
C5 C 0.7034(3) 0.3510(4) 0.3749(2) 0.0215(5) Uani 1 1 d .
C4 C 0.8184(3) 0.3567(4) 0.2837(3) 0.0243(5) Uani 1 1 d .
H4 H 0.9451 0.3709 0.3416 0.029 Uiso 1 1 calc R
C3 C 0.7743(4) 0.2359(4) 0.1415(3) 0.0311(6) Uani 1 1 d .
H3A H 0.8717 0.1769 0.1196 0.037 Uiso 1 1 calc R
H3B H 0.6669 0.1570 0.1106 0.037 Uiso 1 1 calc R
loop_
_atom_site_aniso_label
_atom_site_aniso_U_11
_atom_site_aniso_U_22
_atom_site_aniso_U_33
_atom_site_aniso_U_23
_atom_site_aniso_U_13
_atom_site_aniso_U_12
F3 0.0448(9) 0.0234(7) 0.0385(8) -0.0047(6) 0.0265(7) -0.0054(7)
F2 0.0367(8) 0.0382(8) 0.0219(6) 0.0003(6) 0.0141(6) -0.0073(7)
F1 0.0256(7) 0.0388(8) 0.0358(8) 0.0059(7) 0.0167(6) 0.0036(7)
O2 0.0342(9) 0.0330(9) 0.0266(8) -0.0006(8) 0.0178(7) -0.0015(9)
O1 0.0233(9) 0.0378(9) 0.0382(9) 0.0038(10) 0.0165(7) 0.0009(9)
N1 0.0260(10) 0.0183(9) 0.0297(10) 0.0002(10) 0.0153(8) -0.0004(10)
C1 0.0250(12) 0.0240(12) 0.0200(10) -0.0011(9) 0.0105(8) 0.0013(10)
C7 0.0270(11) 0.0207(10) 0.0230(10) 0.0004(12) 0.0116(9) 0.0020(12)
C8 0.0268(12) 0.0160(9) 0.0279(11) 0.0015(11) 0.0172(9) 0.0005(11)
C10 0.0268(12) 0.0216(10) 0.0234(10) 0.0006(11) 0.0103(9) -0.0014(12)
C2 0.0242(12) 0.0253(13) 0.0215(11) -0.0004(9) 0.0116(9) 0.0001(10)
C6 0.0231(11) 0.0252(11) 0.0261(11) 0.0003(11) 0.0124(9) 0.0002(11)
C9 0.0209(11) 0.0196(10) 0.0293(11) 0.0017(11) 0.0117(9) -0.0007(11)
C5 0.0259(12) 0.0162(10) 0.0259(11) 0.0008(10) 0.0134(9) 0.0009(10)
C4 0.0248(11) 0.0262(12) 0.0257(11) 0.0006(11) 0.0137(9) 0.0011(11)
C3 0.0417(16) 0.0242(13) 0.0390(14) -0.0038(11) 0.0287(12) -0.0045(12)
loop_
_atom_type_symbol
_atom_type_description
_atom_type_scat_dispersion_real
_atom_type_scat_dispersion_imag
_atom_type_scat_source
C C 0.0181 0.0091 'International Tables Vol C Tables 4.2.6.8 and 6.1.1.4'
H H 0.0000 0.0000 'International Tables Vol C Tables 4.2.6.8 and 6.1.1.4'
F F 0.0727 0.0534 'International Tables Vol C Tables 4.2.6.8 and 6.1.1.4'
N N 0.0311 0.0180 'International Tables Vol C Tables 4.2.6.8 and 6.1.1.4'
O O 0.0492 0.0322 'International Tables Vol C Tables 4.2.6.8 and 6.1.1.4'
loop_
_exptl_crystal_face_index_h
_exptl_crystal_face_index_k
_exptl_crystal_face_index_l
_exptl_crystal_face_perp_dist
4 -1 -5 0.0392
-2 -4 0 0.0433
-4 1 5 0.0415
3 3 -2 0.0377
1 -3 3 0.0313
-4 3 1 0.0425
1 3 -4 0.0395
4 2 0 0.0332
-4 0 6 0.0410
-3 -2 -3 0.0266
-1 0 -1 0.0076
1 0 5 0.0452
-5 0 2 0.0380
loop_
_geom_angle_atom_site_label_1
_geom_angle_atom_site_label_2
_geom_angle_atom_site_label_3
_geom_angle
O2 N1 C8 117.86(18)
O1 N1 O2 123.80(19)
O1 N1 C8 118.34(18)
F3 C1 F2 105.80(19)
F3 C1 F1 106.10(18)
F3 C1 C2 113.2(2)
F2 C1 C2 111.97(18)
F1 C1 F2 105.88(19)
F1 C1 C2 113.3(2)
C8 C7 H7 120.7
C8 C7 C6 118.5(2)
C6 C7 H7 120.7
C7 C8 N1 118.97(19)
C7 C8 C9 122.4(2)
C9 C8 N1 118.6(2)
C9 C10 H10 119.5
C9 C10 C5 121.0(2)
C5 C10 H10 119.5
C1 C2 H2 115.2
C1 C2 C4 119.6(2)
C1 C2 C3 120.2(2)
C4 C2 H2 115.2
C3 C2 H2 115.2
C3 C2 C4 60.21(18)
C7 C6 H6 119.4
C7 C6 C5 121.1(2)
C5 C6 H6 119.4
C8 C9 C10 118.2(2)
C8 C9 H9 120.9
C10 C9 H9 120.9
C10 C5 C6 118.8(2)
C10 C5 C4 122.3(2)
C6 C5 C4 118.9(2)
C2 C4 H4 114.9
C5 C4 C2 120.5(2)
C5 C4 H4 114.9
C5 C4 C3 121.1(2)
C3 C4 C2 59.16(15)
C3 C4 H4 114.9
C2 C3 C4 60.63(17)
C2 C3 H3A 117.7
C2 C3 H3B 117.7
C4 C3 H3A 117.7
C4 C3 H3B 117.7
H3A C3 H3B 114.8
loop_
_geom_bond_atom_site_label_1
_geom_bond_atom_site_label_2
_geom_bond_distance
F3 C1 1.343(3)
F2 C1 1.352(2)
F1 C1 1.347(3)
O2 N1 1.231(2)
O1 N1 1.226(3)
N1 C8 1.469(3)
C1 C2 1.474(4)
C7 H7 0.9300
C7 C8 1.382(3)
C7 C6 1.384(3)
C8 C9 1.389(3)
C10 H10 0.9300
C10 C9 1.393(3)
C10 C5 1.393(3)
C2 H2 0.9800
C2 C4 1.516(3)
C2 C3 1.493(3)
C6 H6 0.9300
C6 C5 1.401(3)
C9 H9 0.9300
C5 C4 1.485(3)
C4 H4 0.9800
C4 C3 1.509(4)
C3 H3A 0.9700
C3 H3B 0.9700
loop_
_geom_torsion_atom_site_label_1
_geom_torsion_atom_site_label_2
_geom_torsion_atom_site_label_3
_geom_torsion_atom_site_label_4
_geom_torsion
F3 C1 C2 C4 -84.4(3)
F3 C1 C2 C3 -155.1(2)
F2 C1 C2 C4 156.1(2)
F2 C1 C2 C3 85.4(3)
F1 C1 C2 C4 36.5(3)
F1 C1 C2 C3 -34.3(3)
O2 N1 C8 C7 -2.9(4)
O2 N1 C8 C9 178.5(3)
O1 N1 C8 C7 177.2(2)
O1 N1 C8 C9 -1.5(4)
N1 C8 C9 C10 178.7(3)
C1 C2 C4 C5 139.8(3)
C1 C2 C4 C3 -109.9(3)
C1 C2 C3 C4 109.0(2)
C7 C8 C9 C10 0.1(4)
C7 C6 C5 C10 -1.2(4)
C7 C6 C5 C4 179.9(3)
C8 C7 C6 C5 0.3(4)
C10 C5 C4 C2 31.4(4)
C10 C5 C4 C3 -38.8(4)
C6 C7 C8 N1 -178.3(2)
C6 C7 C8 C9 0.3(4)
C6 C5 C4 C2 -149.8(3)
C6 C5 C4 C3 140.0(3)
C9 C10 C5 C6 1.6(4)
C9 C10 C5 C4 -179.6(2)
C5 C10 C9 C8 -1.0(4)
C5 C4 C3 C2 109.3(3)
C3 C2 C4 C5 -110.2(3)
loop_
_exptl_oxdiff_crystal_face_indexfrac_h
_exptl_oxdiff_crystal_face_indexfrac_k
_exptl_oxdiff_crystal_face_indexfrac_l
_exptl_oxdiff_crystal_face_x
_exptl_oxdiff_crystal_face_y
_exptl_oxdiff_crystal_face_z
3.9094 -0.7226 -5.3978 -0.2264 0.1088 0.9679
-1.9774 -3.9774 -0.1263 -0.8687 0.4141 -0.2717
-3.8442 0.8553 5.4028 0.2554 -0.1226 -0.9590
3.4574 3.2356 -2.2252 0.6770 -0.3223 0.6616
0.9993 -3.3810 3.0627 -0.0762 0.9649 -0.2513
-3.7915 2.9318 0.6293 0.0702 -0.8957 -0.4391
0.7521 2.9500 -4.4962 0.0642 -0.8092 0.5840
4.4105 1.8231 0.1445 0.8267 0.2446 0.5066
-3.5675 0.1308 5.7510 0.2134 0.0639 -0.9749
-2.5753 -1.9309 -3.2511 -0.9588 -0.2841 0.0091
-0.9947 0.0021 -1.0044 -0.2269 -0.2123 -0.0098
0.9902 -0.0058 5.0137 0.6579 0.5749 -0.3945
-4.9816 0.0043 1.9945 -0.3803 -0.4267 -0.7564
